
*****
***** Welcome to the Xyce(TM) Parallel Electronic Simulator
*****
***** This is version Xyce Release 7.6-opensource
***** Date: Thu Jan 19 17:20:43 EET 2023


***** Executing netlist mos_cv_regr/nfet_03v3/nfet_03v3_netlists_Cgs/netlist_w200_l0.28.spice

***** Reading and parsing netlist...
Netlist error: Unable to find model nfet_03v3. for device XMN1:M0
Simulation aborted due to error.  There are 0 MSG_FATAL errors and 1 MSG_ERROR
 errors
*** Xyce Abort ***
