
Note: Compatibility modes selected: hs

Warning: m=xx on .subckt line will override multiplier m hierarchy!


Circuit: ***************************

Doing analysis at TEMP = 25.000000 and TNOM = 25.000000


No. of Data Rows : 798
                          ***************************
                          DC transfer characteristic  Mon Jan  9 13:57:40  2023
--------------------------------------------------------------------------------
Index   v-sweep         -i(vds)         
--------------------------------------------------------------------------------
0	0.000000e+00	-0.000000e+00	
1	5.000000e-02	1.518938e-06	
2	1.000000e-01	2.720261e-06	
3	1.500000e-01	3.608278e-06	
4	2.000000e-01	4.194796e-06	
5	2.500000e-01	4.515512e-06	
6	3.000000e-01	4.652771e-06	
7	3.500000e-01	4.704787e-06	
8	4.000000e-01	4.727036e-06	
9	4.500000e-01	4.738940e-06	
10	5.000000e-01	4.746713e-06	
11	5.500000e-01	4.752574e-06	
12	6.000000e-01	4.757433e-06	
13	6.500000e-01	4.761714e-06	
14	7.000000e-01	4.765636e-06	
15	7.500000e-01	4.769321e-06	
16	8.000000e-01	4.772841e-06	
17	8.500000e-01	4.776243e-06	
18	9.000000e-01	4.779555e-06	
19	9.500000e-01	4.782800e-06	
20	1.000000e+00	4.785990e-06	
21	1.050000e+00	4.789138e-06	
22	1.100000e+00	4.792250e-06	
23	1.150000e+00	4.795333e-06	
24	1.200000e+00	4.798392e-06	
25	1.250000e+00	4.801429e-06	
26	1.300000e+00	4.804448e-06	
27	1.350000e+00	4.807452e-06	
28	1.400000e+00	4.810442e-06	
29	1.450000e+00	4.813419e-06	
30	1.500000e+00	4.816386e-06	
31	1.550000e+00	4.819343e-06	
32	1.600000e+00	4.822292e-06	
33	1.650000e+00	4.825232e-06	
34	1.700000e+00	4.828165e-06	
35	1.750000e+00	4.831092e-06	
36	1.800000e+00	4.834013e-06	
37	1.850000e+00	4.836928e-06	
38	1.900000e+00	4.839839e-06	
39	1.950000e+00	4.842744e-06	
40	2.000000e+00	4.845645e-06	
41	2.050000e+00	4.848542e-06	
42	2.100000e+00	4.851436e-06	
43	2.150000e+00	4.854326e-06	
44	2.200000e+00	4.857212e-06	
45	2.250000e+00	4.860096e-06	
46	2.300000e+00	4.862978e-06	
47	2.350000e+00	4.865857e-06	
48	2.400000e+00	4.868734e-06	
49	2.450000e+00	4.871610e-06	
50	2.500000e+00	4.874485e-06	
51	2.550000e+00	4.877360e-06	
52	2.600000e+00	4.880236e-06	
53	2.650000e+00	4.883113e-06	
54	2.700000e+00	4.885994e-06	

Index   v-sweep         -i(vds)         
--------------------------------------------------------------------------------
55	2.750000e+00	4.888879e-06	
56	2.800000e+00	4.891770e-06	
57	2.850000e+00	4.894669e-06	
58	2.900000e+00	4.897580e-06	
59	2.950000e+00	4.900504e-06	
60	3.000000e+00	4.903446e-06	
61	3.050000e+00	4.906410e-06	
62	3.100000e+00	4.909401e-06	
63	3.150000e+00	4.912424e-06	
64	3.200000e+00	4.915485e-06	
65	3.250000e+00	4.918592e-06	
66	3.300000e+00	4.921753e-06	
67	3.350000e+00	4.924977e-06	
68	3.400000e+00	4.928275e-06	
69	3.450000e+00	4.931657e-06	
70	3.500000e+00	4.935137e-06	
71	3.550000e+00	4.938728e-06	
72	3.600000e+00	4.942446e-06	
73	3.650000e+00	4.946307e-06	
74	3.700000e+00	4.950330e-06	
75	3.750000e+00	4.954534e-06	
76	3.800000e+00	4.958941e-06	
77	3.850000e+00	4.963573e-06	
78	3.900000e+00	4.968456e-06	
79	3.950000e+00	4.973616e-06	
80	4.000000e+00	4.979080e-06	
81	4.050000e+00	4.984880e-06	
82	4.100000e+00	4.991047e-06	
83	4.150000e+00	4.997614e-06	
84	4.200000e+00	5.004617e-06	
85	4.250000e+00	5.012095e-06	
86	4.300000e+00	5.020086e-06	
87	4.350000e+00	5.028631e-06	
88	4.400000e+00	5.037775e-06	
89	4.450000e+00	5.047562e-06	
90	4.500000e+00	5.058040e-06	
91	4.550000e+00	5.069258e-06	
92	4.600000e+00	5.081267e-06	
93	4.650000e+00	5.094119e-06	
94	4.700000e+00	5.107871e-06	
95	4.750000e+00	5.122577e-06	
96	4.800000e+00	5.138298e-06	
97	4.850000e+00	5.155093e-06	
98	4.900000e+00	5.173025e-06	
99	4.950000e+00	5.192156e-06	
100	5.000000e+00	5.212554e-06	
101	5.050000e+00	5.234284e-06	
102	5.100000e+00	5.257416e-06	
103	5.150000e+00	5.282020e-06	
104	5.200000e+00	5.308168e-06	
105	5.250000e+00	5.335933e-06	
106	5.300000e+00	5.365390e-06	
107	5.350000e+00	5.396616e-06	
108	5.400000e+00	5.429687e-06	
109	5.450000e+00	5.464682e-06	
110	5.500000e+00	5.501682e-06	
111	5.550000e+00	5.540767e-06	
112	5.600000e+00	5.582020e-06	

Index   v-sweep         -i(vds)         
--------------------------------------------------------------------------------
113	5.650000e+00	5.625523e-06	
114	5.700000e+00	5.671362e-06	
115	5.750000e+00	5.719622e-06	
116	5.800000e+00	5.770387e-06	
117	5.850000e+00	5.823747e-06	
118	5.900000e+00	5.879787e-06	
119	5.950000e+00	5.938597e-06	
120	6.000000e+00	6.000266e-06	
121	6.050000e+00	6.064884e-06	
122	6.100000e+00	6.132540e-06	
123	6.150000e+00	6.203325e-06	
124	6.200000e+00	6.277332e-06	
125	6.250000e+00	6.354651e-06	
126	6.300000e+00	6.435374e-06	
127	6.350000e+00	6.519594e-06	
128	6.400000e+00	6.607404e-06	
129	6.450000e+00	6.698896e-06	
130	6.500000e+00	6.794163e-06	
131	6.550000e+00	6.893298e-06	
132	6.600000e+00	6.996395e-06	
133	0.000000e+00	-0.000000e+00	
134	5.000000e-02	6.552823e-06	
135	1.000000e-01	1.277022e-05	
136	1.500000e-01	1.865307e-05	
137	2.000000e-01	2.420228e-05	
138	2.500000e-01	2.941873e-05	
139	3.000000e-01	3.430332e-05	
140	3.500000e-01	3.885697e-05	
141	4.000000e-01	4.308062e-05	
142	4.500000e-01	4.697523e-05	
143	5.000000e-01	5.054181e-05	
144	5.500000e-01	5.378146e-05	
145	6.000000e-01	5.669544e-05	
146	6.500000e-01	5.928520e-05	
147	7.000000e-01	6.155268e-05	
148	7.500000e-01	6.350056e-05	
149	8.000000e-01	6.513309e-05	
150	8.500000e-01	6.645746e-05	
151	9.000000e-01	6.748661e-05	
152	9.500000e-01	6.824368e-05	
153	1.000000e+00	6.876679e-05	
154	1.050000e+00	6.910855e-05	
155	1.100000e+00	6.932563e-05	
156	1.150000e+00	6.946506e-05	
157	1.200000e+00	6.955855e-05	
158	1.250000e+00	6.962494e-05	
159	1.300000e+00	6.967495e-05	
160	1.350000e+00	6.971464e-05	
161	1.400000e+00	6.974757e-05	
162	1.450000e+00	6.977586e-05	
163	1.500000e+00	6.980088e-05	
164	1.550000e+00	6.982350e-05	
165	1.600000e+00	6.984431e-05	
166	1.650000e+00	6.986373e-05	
167	1.700000e+00	6.988206e-05	
168	1.750000e+00	6.989951e-05	
169	1.800000e+00	6.991624e-05	
170	1.850000e+00	6.993237e-05	

Index   v-sweep         -i(vds)         
--------------------------------------------------------------------------------
171	1.900000e+00	6.994801e-05	
172	1.950000e+00	6.996322e-05	
173	2.000000e+00	6.997807e-05	
174	2.050000e+00	6.999261e-05	
175	2.100000e+00	7.000688e-05	
176	2.150000e+00	7.002090e-05	
177	2.200000e+00	7.003472e-05	
178	2.250000e+00	7.004834e-05	
179	2.300000e+00	7.006179e-05	
180	2.350000e+00	7.007510e-05	
181	2.400000e+00	7.008826e-05	
182	2.450000e+00	7.010130e-05	
183	2.500000e+00	7.011423e-05	
184	2.550000e+00	7.012705e-05	
185	2.600000e+00	7.013977e-05	
186	2.650000e+00	7.015241e-05	
187	2.700000e+00	7.016497e-05	
188	2.750000e+00	7.017745e-05	
189	2.800000e+00	7.018986e-05	
190	2.850000e+00	7.020221e-05	
191	2.900000e+00	7.021449e-05	
192	2.950000e+00	7.022673e-05	
193	3.000000e+00	7.023891e-05	
194	3.050000e+00	7.025105e-05	
195	3.100000e+00	7.026315e-05	
196	3.150000e+00	7.027522e-05	
197	3.200000e+00	7.028726e-05	
198	3.250000e+00	7.029929e-05	
199	3.300000e+00	7.031130e-05	
200	3.350000e+00	7.032333e-05	
201	3.400000e+00	7.033538e-05	
202	3.450000e+00	7.034746e-05	
203	3.500000e+00	7.035961e-05	
204	3.550000e+00	7.037185e-05	
205	3.600000e+00	7.038420e-05	
206	3.650000e+00	7.039672e-05	
207	3.700000e+00	7.040944e-05	
208	3.750000e+00	7.042241e-05	
209	3.800000e+00	7.043570e-05	
210	3.850000e+00	7.044937e-05	
211	3.900000e+00	7.046351e-05	
212	3.950000e+00	7.047821e-05	
213	4.000000e+00	7.049357e-05	
214	4.050000e+00	7.050970e-05	
215	4.100000e+00	7.052675e-05	
216	4.150000e+00	7.054486e-05	
217	4.200000e+00	7.056419e-05	
218	4.250000e+00	7.058493e-05	
219	4.300000e+00	7.060726e-05	
220	4.350000e+00	7.063142e-05	
221	4.400000e+00	7.065764e-05	
222	4.450000e+00	7.068617e-05	
223	4.500000e+00	7.071731e-05	
224	4.550000e+00	7.075135e-05	
225	4.600000e+00	7.078861e-05	
226	4.650000e+00	7.082946e-05	
227	4.700000e+00	7.087426e-05	
228	4.750000e+00	7.092341e-05	

Index   v-sweep         -i(vds)         
--------------------------------------------------------------------------------
229	4.800000e+00	7.097734e-05	
230	4.850000e+00	7.103650e-05	
231	4.900000e+00	7.110136e-05	
232	4.950000e+00	7.117242e-05	
233	5.000000e+00	7.125022e-05	
234	5.050000e+00	7.133531e-05	
235	5.100000e+00	7.142827e-05	
236	5.150000e+00	7.152970e-05	
237	5.200000e+00	7.164025e-05	
238	5.250000e+00	7.176057e-05	
239	5.300000e+00	7.189135e-05	
240	5.350000e+00	7.203330e-05	
241	5.400000e+00	7.218717e-05	
242	5.450000e+00	7.235372e-05	
243	5.500000e+00	7.253373e-05	
244	5.550000e+00	7.272801e-05	
245	5.600000e+00	7.293742e-05	
246	5.650000e+00	7.316280e-05	
247	5.700000e+00	7.340505e-05	
248	5.750000e+00	7.366507e-05	
249	5.800000e+00	7.394378e-05	
250	5.850000e+00	7.424214e-05	
251	5.900000e+00	7.456112e-05	
252	5.950000e+00	7.490171e-05	
253	6.000000e+00	7.526491e-05	
254	6.050000e+00	7.565176e-05	
255	6.100000e+00	7.606330e-05	
256	6.150000e+00	7.650059e-05	
257	6.200000e+00	7.696471e-05	
258	6.250000e+00	7.745676e-05	
259	6.300000e+00	7.797784e-05	
260	6.350000e+00	7.852907e-05	
261	6.400000e+00	7.911159e-05	
262	6.450000e+00	7.972655e-05	
263	6.500000e+00	8.037510e-05	
264	6.550000e+00	8.105842e-05	
265	6.600000e+00	8.177768e-05	
266	0.000000e+00	-0.000000e+00	
267	5.000000e-02	1.084310e-05	
268	1.000000e-01	2.137145e-05	
269	1.500000e-01	3.158589e-05	
270	2.000000e-01	4.148726e-05	
271	2.500000e-01	5.107639e-05	
272	3.000000e-01	6.035412e-05	
273	3.500000e-01	6.932126e-05	
274	4.000000e-01	7.797865e-05	
275	4.500000e-01	8.632711e-05	
276	5.000000e-01	9.436746e-05	
277	5.500000e-01	1.021005e-04	
278	6.000000e-01	1.095271e-04	
279	6.500000e-01	1.166480e-04	
280	7.000000e-01	1.234641e-04	
281	7.500000e-01	1.299761e-04	
282	8.000000e-01	1.361849e-04	
283	8.500000e-01	1.420913e-04	
284	9.000000e-01	1.476961e-04	
285	9.500000e-01	1.530001e-04	
286	1.000000e+00	1.580042e-04	

Index   v-sweep         -i(vds)         
--------------------------------------------------------------------------------
287	1.050000e+00	1.627091e-04	
288	1.100000e+00	1.671157e-04	
289	1.150000e+00	1.712250e-04	
290	1.200000e+00	1.750378e-04	
291	1.250000e+00	1.785551e-04	
292	1.300000e+00	1.817779e-04	
293	1.350000e+00	1.847077e-04	
294	1.400000e+00	1.873458e-04	
295	1.450000e+00	1.896943e-04	
296	1.500000e+00	1.917560e-04	
297	1.550000e+00	1.935351e-04	
298	1.600000e+00	1.950382e-04	
299	1.650000e+00	1.962759e-04	
300	1.700000e+00	1.972648e-04	
301	1.750000e+00	1.980296e-04	
302	1.800000e+00	1.986035e-04	
303	1.850000e+00	1.990251e-04	
304	1.900000e+00	1.993329e-04	
305	1.950000e+00	1.995598e-04	
306	2.000000e+00	1.997306e-04	
307	2.050000e+00	1.998629e-04	
308	2.100000e+00	1.999686e-04	
309	2.150000e+00	2.000556e-04	
310	2.200000e+00	2.001290e-04	
311	2.250000e+00	2.001926e-04	
312	2.300000e+00	2.002487e-04	
313	2.350000e+00	2.002990e-04	
314	2.400000e+00	2.003448e-04	
315	2.450000e+00	2.003871e-04	
316	2.500000e+00	2.004265e-04	
317	2.550000e+00	2.004635e-04	
318	2.600000e+00	2.004985e-04	
319	2.650000e+00	2.005318e-04	
320	2.700000e+00	2.005638e-04	
321	2.750000e+00	2.005945e-04	
322	2.800000e+00	2.006242e-04	
323	2.850000e+00	2.006529e-04	
324	2.900000e+00	2.006809e-04	
325	2.950000e+00	2.007081e-04	
326	3.000000e+00	2.007348e-04	
327	3.050000e+00	2.007608e-04	
328	3.100000e+00	2.007864e-04	
329	3.150000e+00	2.008114e-04	
330	3.200000e+00	2.008361e-04	
331	3.250000e+00	2.008604e-04	
332	3.300000e+00	2.008844e-04	
333	3.350000e+00	2.009080e-04	
334	3.400000e+00	2.009313e-04	
335	3.450000e+00	2.009544e-04	
336	3.500000e+00	2.009772e-04	
337	3.550000e+00	2.009998e-04	
338	3.600000e+00	2.010222e-04	
339	3.650000e+00	2.010444e-04	
340	3.700000e+00	2.010665e-04	
341	3.750000e+00	2.010883e-04	
342	3.800000e+00	2.011100e-04	
343	3.850000e+00	2.011316e-04	
344	3.900000e+00	2.011530e-04	

Index   v-sweep         -i(vds)         
--------------------------------------------------------------------------------
345	3.950000e+00	2.011744e-04	
346	4.000000e+00	2.011957e-04	
347	4.050000e+00	2.012170e-04	
348	4.100000e+00	2.012382e-04	
349	4.150000e+00	2.012595e-04	
350	4.200000e+00	2.012809e-04	
351	4.250000e+00	2.013024e-04	
352	4.300000e+00	2.013241e-04	
353	4.350000e+00	2.013461e-04	
354	4.400000e+00	2.013685e-04	
355	4.450000e+00	2.013915e-04	
356	4.500000e+00	2.014150e-04	
357	4.550000e+00	2.014395e-04	
358	4.600000e+00	2.014649e-04	
359	4.650000e+00	2.014915e-04	
360	4.700000e+00	2.015197e-04	
361	4.750000e+00	2.015496e-04	
362	4.800000e+00	2.015815e-04	
363	4.850000e+00	2.016159e-04	
364	4.900000e+00	2.016532e-04	
365	4.950000e+00	2.016937e-04	
366	5.000000e+00	2.017380e-04	
367	5.050000e+00	2.017867e-04	
368	5.100000e+00	2.018403e-04	
369	5.150000e+00	2.018994e-04	
370	5.200000e+00	2.019649e-04	
371	5.250000e+00	2.020374e-04	
372	5.300000e+00	2.021178e-04	
373	5.350000e+00	2.022071e-04	
374	5.400000e+00	2.023061e-04	
375	5.450000e+00	2.024160e-04	
376	5.500000e+00	2.025378e-04	
377	5.550000e+00	2.026727e-04	
378	5.600000e+00	2.028219e-04	
379	5.650000e+00	2.029868e-04	
380	5.700000e+00	2.031688e-04	
381	5.750000e+00	2.033694e-04	
382	5.800000e+00	2.035900e-04	
383	5.850000e+00	2.038324e-04	
384	5.900000e+00	2.040982e-04	
385	5.950000e+00	2.043892e-04	
386	6.000000e+00	2.047072e-04	
387	6.050000e+00	2.050542e-04	
388	6.100000e+00	2.054321e-04	
389	6.150000e+00	2.058431e-04	
390	6.200000e+00	2.062893e-04	
391	6.250000e+00	2.067728e-04	
392	6.300000e+00	2.072960e-04	
393	6.350000e+00	2.078613e-04	
394	6.400000e+00	2.084709e-04	
395	6.450000e+00	2.091275e-04	
396	6.500000e+00	2.098336e-04	
397	6.550000e+00	2.105918e-04	
398	6.600000e+00	2.114047e-04	
399	0.000000e+00	-0.000000e+00	
400	5.000000e-02	1.428139e-05	
401	1.000000e-01	2.827559e-05	
402	1.500000e-01	4.198334e-05	

Index   v-sweep         -i(vds)         
--------------------------------------------------------------------------------
403	2.000000e-01	5.540537e-05	
404	2.500000e-01	6.854241e-05	
405	3.000000e-01	8.139520e-05	
406	3.500000e-01	9.396447e-05	
407	4.000000e-01	1.062509e-04	
408	4.500000e-01	1.182553e-04	
409	5.000000e-01	1.299783e-04	
410	5.500000e-01	1.414207e-04	
411	6.000000e-01	1.525831e-04	
412	6.500000e-01	1.634663e-04	
413	7.000000e-01	1.740711e-04	
414	7.500000e-01	1.843980e-04	
415	8.000000e-01	1.944478e-04	
416	8.500000e-01	2.042212e-04	
417	9.000000e-01	2.137189e-04	
418	9.500000e-01	2.229416e-04	
419	1.000000e+00	2.318900e-04	
420	1.050000e+00	2.405648e-04	
421	1.100000e+00	2.489667e-04	
422	1.150000e+00	2.570963e-04	
423	1.200000e+00	2.649543e-04	
424	1.250000e+00	2.725415e-04	
425	1.300000e+00	2.798585e-04	
426	1.350000e+00	2.869060e-04	
427	1.400000e+00	2.936846e-04	
428	1.450000e+00	3.001950e-04	
429	1.500000e+00	3.064380e-04	
430	1.550000e+00	3.124140e-04	
431	1.600000e+00	3.181239e-04	
432	1.650000e+00	3.235683e-04	
433	1.700000e+00	3.287478e-04	
434	1.750000e+00	3.336632e-04	
435	1.800000e+00	3.383150e-04	
436	1.850000e+00	3.427039e-04	
437	1.900000e+00	3.468307e-04	
438	1.950000e+00	3.506959e-04	
439	2.000000e+00	3.543005e-04	
440	2.050000e+00	3.576451e-04	
441	2.100000e+00	3.607306e-04	
442	2.150000e+00	3.635582e-04	
443	2.200000e+00	3.661290e-04	
444	2.250000e+00	3.684449e-04	
445	2.300000e+00	3.705083e-04	
446	2.350000e+00	3.723228e-04	
447	2.400000e+00	3.738940e-04	
448	2.450000e+00	3.752303e-04	
449	2.500000e+00	3.763444e-04	
450	2.550000e+00	3.772541e-04	
451	2.600000e+00	3.779829e-04	
452	2.650000e+00	3.785582e-04	
453	2.700000e+00	3.790091e-04	
454	2.750000e+00	3.793631e-04	
455	2.800000e+00	3.796435e-04	
456	2.850000e+00	3.798689e-04	
457	2.900000e+00	3.800534e-04	
458	2.950000e+00	3.802073e-04	
459	3.000000e+00	3.803381e-04	
460	3.050000e+00	3.804512e-04	

Index   v-sweep         -i(vds)         
--------------------------------------------------------------------------------
461	3.100000e+00	3.805507e-04	
462	3.150000e+00	3.806394e-04	
463	3.200000e+00	3.807194e-04	
464	3.250000e+00	3.807926e-04	
465	3.300000e+00	3.808600e-04	
466	3.350000e+00	3.809226e-04	
467	3.400000e+00	3.809813e-04	
468	3.450000e+00	3.810367e-04	
469	3.500000e+00	3.810892e-04	
470	3.550000e+00	3.811392e-04	
471	3.600000e+00	3.811870e-04	
472	3.650000e+00	3.812330e-04	
473	3.700000e+00	3.812773e-04	
474	3.750000e+00	3.813202e-04	
475	3.800000e+00	3.813618e-04	
476	3.850000e+00	3.814022e-04	
477	3.900000e+00	3.814416e-04	
478	3.950000e+00	3.814800e-04	
479	4.000000e+00	3.815176e-04	
480	4.050000e+00	3.815544e-04	
481	4.100000e+00	3.815905e-04	
482	4.150000e+00	3.816259e-04	
483	4.200000e+00	3.816607e-04	
484	4.250000e+00	3.816950e-04	
485	4.300000e+00	3.817288e-04	
486	4.350000e+00	3.817621e-04	
487	4.400000e+00	3.817950e-04	
488	4.450000e+00	3.818275e-04	
489	4.500000e+00	3.818596e-04	
490	4.550000e+00	3.818913e-04	
491	4.600000e+00	3.819228e-04	
492	4.650000e+00	3.819540e-04	
493	4.700000e+00	3.819849e-04	
494	4.750000e+00	3.820157e-04	
495	4.800000e+00	3.820463e-04	
496	4.850000e+00	3.820768e-04	
497	4.900000e+00	3.821072e-04	
498	4.950000e+00	3.821377e-04	
499	5.000000e+00	3.821684e-04	
500	5.050000e+00	3.821992e-04	
501	5.100000e+00	3.822305e-04	
502	5.150000e+00	3.822623e-04	
503	5.200000e+00	3.822948e-04	
504	5.250000e+00	3.823282e-04	
505	5.300000e+00	3.823629e-04	
506	5.350000e+00	3.823990e-04	
507	5.400000e+00	3.824370e-04	
508	5.450000e+00	3.824773e-04	
509	5.500000e+00	3.825203e-04	
510	5.550000e+00	3.825666e-04	
511	5.600000e+00	3.826167e-04	
512	5.650000e+00	3.826713e-04	
513	5.700000e+00	3.827312e-04	
514	5.750000e+00	3.827973e-04	
515	5.800000e+00	3.828703e-04	
516	5.850000e+00	3.829514e-04	
517	5.900000e+00	3.830417e-04	
518	5.950000e+00	3.831424e-04	

Index   v-sweep         -i(vds)         
--------------------------------------------------------------------------------
519	6.000000e+00	3.832548e-04	
520	6.050000e+00	3.833804e-04	
521	6.100000e+00	3.835208e-04	
522	6.150000e+00	3.836776e-04	
523	6.200000e+00	3.838527e-04	
524	6.250000e+00	3.840480e-04	
525	6.300000e+00	3.842656e-04	
526	6.350000e+00	3.845077e-04	
527	6.400000e+00	3.847767e-04	
528	6.450000e+00	3.850750e-04	
529	6.500000e+00	3.854053e-04	
530	6.550000e+00	3.857704e-04	
531	6.600000e+00	3.861731e-04	
532	0.000000e+00	-0.000000e+00	
533	5.000000e-02	1.688108e-05	
534	1.000000e-01	3.350494e-05	
535	1.500000e-01	4.987221e-05	
536	2.000000e-01	6.598348e-05	
537	2.500000e-01	8.183939e-05	
538	3.000000e-01	9.744053e-05	
539	3.500000e-01	1.127875e-04	
540	4.000000e-01	1.278810e-04	
541	4.500000e-01	1.427215e-04	
542	5.000000e-01	1.573097e-04	
543	5.500000e-01	1.716461e-04	
544	6.000000e-01	1.857314e-04	
545	6.500000e-01	1.995662e-04	
546	7.000000e-01	2.131510e-04	
547	7.500000e-01	2.264865e-04	
548	8.000000e-01	2.395732e-04	
549	8.500000e-01	2.524118e-04	
550	9.000000e-01	2.650028e-04	
551	9.500000e-01	2.773467e-04	
552	1.000000e+00	2.894443e-04	
553	1.050000e+00	3.012961e-04	
554	1.100000e+00	3.129026e-04	
555	1.150000e+00	3.242644e-04	
556	1.200000e+00	3.353822e-04	
557	1.250000e+00	3.462564e-04	
558	1.300000e+00	3.568876e-04	
559	1.350000e+00	3.672765e-04	
560	1.400000e+00	3.774236e-04	
561	1.450000e+00	3.873294e-04	
562	1.500000e+00	3.969946e-04	
563	1.550000e+00	4.064196e-04	
564	1.600000e+00	4.156051e-04	
565	1.650000e+00	4.245516e-04	
566	1.700000e+00	4.332596e-04	
567	1.750000e+00	4.417297e-04	
568	1.800000e+00	4.499624e-04	
569	1.850000e+00	4.579584e-04	
570	1.900000e+00	4.657181e-04	
571	1.950000e+00	4.732420e-04	
572	2.000000e+00	4.805308e-04	
573	2.050000e+00	4.875850e-04	
574	2.100000e+00	4.944050e-04	
575	2.150000e+00	5.009914e-04	
576	2.200000e+00	5.073448e-04	

Index   v-sweep         -i(vds)         
--------------------------------------------------------------------------------
577	2.250000e+00	5.134657e-04	
578	2.300000e+00	5.193545e-04	
579	2.350000e+00	5.250118e-04	
580	2.400000e+00	5.304380e-04	
581	2.450000e+00	5.356338e-04	
582	2.500000e+00	5.405995e-04	
583	2.550000e+00	5.453357e-04	
584	2.600000e+00	5.498429e-04	
585	2.650000e+00	5.541215e-04	
586	2.700000e+00	5.581719e-04	
587	2.750000e+00	5.619948e-04	
588	2.800000e+00	5.655905e-04	
589	2.850000e+00	5.689596e-04	
590	2.900000e+00	5.721025e-04	
591	2.950000e+00	5.750200e-04	
592	3.000000e+00	5.777127e-04	
593	3.050000e+00	5.801815e-04	
594	3.100000e+00	5.824279e-04	
595	3.150000e+00	5.844535e-04	
596	3.200000e+00	5.862615e-04	
597	3.250000e+00	5.878559e-04	
598	3.300000e+00	5.892435e-04	
599	3.350000e+00	5.904336e-04	
600	3.400000e+00	5.914395e-04	
601	3.450000e+00	5.922782e-04	
602	3.500000e+00	5.929699e-04	
603	3.550000e+00	5.935369e-04	
604	3.600000e+00	5.940009e-04	
605	3.650000e+00	5.943821e-04	
606	3.700000e+00	5.946978e-04	
607	3.750000e+00	5.949621e-04	
608	3.800000e+00	5.951863e-04	
609	3.850000e+00	5.953789e-04	
610	3.900000e+00	5.955466e-04	
611	3.950000e+00	5.956944e-04	
612	4.000000e+00	5.958262e-04	
613	4.050000e+00	5.959450e-04	
614	4.100000e+00	5.960532e-04	
615	4.150000e+00	5.961524e-04	
616	4.200000e+00	5.962443e-04	
617	4.250000e+00	5.963298e-04	
618	4.300000e+00	5.964100e-04	
619	4.350000e+00	5.964856e-04	
620	4.400000e+00	5.965572e-04	
621	4.450000e+00	5.966254e-04	
622	4.500000e+00	5.966905e-04	
623	4.550000e+00	5.967529e-04	
624	4.600000e+00	5.968129e-04	
625	4.650000e+00	5.968708e-04	
626	4.700000e+00	5.969268e-04	
627	4.750000e+00	5.969811e-04	
628	4.800000e+00	5.970338e-04	
629	4.850000e+00	5.970852e-04	
630	4.900000e+00	5.971352e-04	
631	4.950000e+00	5.971841e-04	
632	5.000000e+00	5.972319e-04	
633	5.050000e+00	5.972787e-04	
634	5.100000e+00	5.973247e-04	

Index   v-sweep         -i(vds)         
--------------------------------------------------------------------------------
635	5.150000e+00	5.973698e-04	
636	5.200000e+00	5.974141e-04	
637	5.250000e+00	5.974577e-04	
638	5.300000e+00	5.975006e-04	
639	5.350000e+00	5.975430e-04	
640	5.400000e+00	5.975848e-04	
641	5.450000e+00	5.976260e-04	
642	5.500000e+00	5.976668e-04	
643	5.550000e+00	5.977073e-04	
644	5.600000e+00	5.977473e-04	
645	5.650000e+00	5.977872e-04	
646	5.700000e+00	5.978268e-04	
647	5.750000e+00	5.978664e-04	
648	5.800000e+00	5.979060e-04	
649	5.850000e+00	5.979458e-04	
650	5.900000e+00	5.979859e-04	
651	5.950000e+00	5.980266e-04	
652	6.000000e+00	5.980681e-04	
653	6.050000e+00	5.981107e-04	
654	6.100000e+00	5.981548e-04	
655	6.150000e+00	5.982007e-04	
656	6.200000e+00	5.982489e-04	
657	6.250000e+00	5.983000e-04	
658	6.300000e+00	5.983546e-04	
659	6.350000e+00	5.984134e-04	
660	6.400000e+00	5.984772e-04	
661	6.450000e+00	5.985470e-04	
662	6.500000e+00	5.986237e-04	
663	6.550000e+00	5.987087e-04	
664	6.600000e+00	5.988031e-04	
665	0.000000e+00	-0.000000e+00	
666	5.000000e-02	1.873248e-05	
667	1.000000e-01	3.723765e-05	
668	1.500000e-01	5.551602e-05	
669	2.000000e-01	7.356809e-05	
670	2.500000e-01	9.139436e-05	
671	3.000000e-01	1.089953e-04	
672	3.500000e-01	1.263715e-04	
673	4.000000e-01	1.435233e-04	
674	4.500000e-01	1.604513e-04	
675	5.000000e-01	1.771560e-04	
676	5.500000e-01	1.936378e-04	
677	6.000000e-01	2.098973e-04	
678	6.500000e-01	2.259349e-04	
679	7.000000e-01	2.417511e-04	
680	7.500000e-01	2.573464e-04	
681	8.000000e-01	2.727213e-04	
682	8.500000e-01	2.878763e-04	
683	9.000000e-01	3.028118e-04	
684	9.500000e-01	3.175283e-04	
685	1.000000e+00	3.320263e-04	
686	1.050000e+00	3.463063e-04	
687	1.100000e+00	3.603688e-04	
688	1.150000e+00	3.742142e-04	
689	1.200000e+00	3.878429e-04	
690	1.250000e+00	4.012555e-04	
691	1.300000e+00	4.144524e-04	
692	1.350000e+00	4.274342e-04	

Index   v-sweep         -i(vds)         
--------------------------------------------------------------------------------
693	1.400000e+00	4.402012e-04	
694	1.450000e+00	4.527539e-04	
695	1.500000e+00	4.650928e-04	
696	1.550000e+00	4.772183e-04	
697	1.600000e+00	4.891309e-04	
698	1.650000e+00	5.008311e-04	
699	1.700000e+00	5.123194e-04	
700	1.750000e+00	5.235961e-04	
701	1.800000e+00	5.346617e-04	
702	1.850000e+00	5.455167e-04	
703	1.900000e+00	5.561615e-04	
704	1.950000e+00	5.665966e-04	
705	2.000000e+00	5.768224e-04	
706	2.050000e+00	5.868394e-04	
707	2.100000e+00	5.966480e-04	
708	2.150000e+00	6.062487e-04	
709	2.200000e+00	6.156418e-04	
710	2.250000e+00	6.248279e-04	
711	2.300000e+00	6.338074e-04	
712	2.350000e+00	6.425807e-04	
713	2.400000e+00	6.511482e-04	
714	2.450000e+00	6.595103e-04	
715	2.500000e+00	6.676676e-04	
716	2.550000e+00	6.756204e-04	
717	2.600000e+00	6.833692e-04	
718	2.650000e+00	6.909143e-04	
719	2.700000e+00	6.982562e-04	
720	2.750000e+00	7.053953e-04	
721	2.800000e+00	7.123320e-04	
722	2.850000e+00	7.190668e-04	
723	2.900000e+00	7.256000e-04	
724	2.950000e+00	7.319320e-04	
725	3.000000e+00	7.380632e-04	
726	3.050000e+00	7.439941e-04	
727	3.100000e+00	7.497250e-04	
728	3.150000e+00	7.552562e-04	
729	3.200000e+00	7.605882e-04	
730	3.250000e+00	7.657214e-04	
731	3.300000e+00	7.706560e-04	
732	3.350000e+00	7.753924e-04	
733	3.400000e+00	7.799310e-04	
734	3.450000e+00	7.842721e-04	
735	3.500000e+00	7.884160e-04	
736	3.550000e+00	7.923629e-04	
737	3.600000e+00	7.961132e-04	
738	3.650000e+00	7.996672e-04	
739	3.700000e+00	8.030250e-04	
740	3.750000e+00	8.061870e-04	
741	3.800000e+00	8.091533e-04	
742	3.850000e+00	8.119244e-04	
743	3.900000e+00	8.145006e-04	
744	3.950000e+00	8.168824e-04	
745	4.000000e+00	8.190706e-04	
746	4.050000e+00	8.210665e-04	
747	4.100000e+00	8.228719e-04	
748	4.150000e+00	8.244900e-04	
749	4.200000e+00	8.259252e-04	
750	4.250000e+00	8.271844e-04	

Index   v-sweep         -i(vds)         
--------------------------------------------------------------------------------
751	4.300000e+00	8.282768e-04	
752	4.350000e+00	8.292146e-04	
753	4.400000e+00	8.300126e-04	
754	4.450000e+00	8.306874e-04	
755	4.500000e+00	8.312565e-04	
756	4.550000e+00	8.317367e-04	
757	4.600000e+00	8.321435e-04	
758	4.650000e+00	8.324903e-04	
759	4.700000e+00	8.327885e-04	
760	4.750000e+00	8.330472e-04	
761	4.800000e+00	8.332740e-04	
762	4.850000e+00	8.334747e-04	
763	4.900000e+00	8.336539e-04	
764	4.950000e+00	8.338155e-04	
765	5.000000e+00	8.339624e-04	
766	5.050000e+00	8.340970e-04	
767	5.100000e+00	8.342211e-04	
768	5.150000e+00	8.343363e-04	
769	5.200000e+00	8.344439e-04	
770	5.250000e+00	8.345449e-04	
771	5.300000e+00	8.346402e-04	
772	5.350000e+00	8.347305e-04	
773	5.400000e+00	8.348164e-04	
774	5.450000e+00	8.348984e-04	
775	5.500000e+00	8.349769e-04	
776	5.550000e+00	8.350523e-04	
777	5.600000e+00	8.351250e-04	
778	5.650000e+00	8.351952e-04	
779	5.700000e+00	8.352631e-04	
780	5.750000e+00	8.353289e-04	
781	5.800000e+00	8.353929e-04	
782	5.850000e+00	8.354552e-04	
783	5.900000e+00	8.355159e-04	
784	5.950000e+00	8.355752e-04	
785	6.000000e+00	8.356331e-04	
786	6.050000e+00	8.356898e-04	
787	6.100000e+00	8.357454e-04	
788	6.150000e+00	8.358000e-04	
789	6.200000e+00	8.358536e-04	
790	6.250000e+00	8.359063e-04	
791	6.300000e+00	8.359582e-04	
792	6.350000e+00	8.360093e-04	
793	6.400000e+00	8.360597e-04	
794	6.450000e+00	8.361096e-04	
795	6.500000e+00	8.361590e-04	
796	6.550000e+00	8.362079e-04	
797	6.600000e+00	8.362566e-04	
Note: No ".plot", ".print", or ".fourier" lines; no simulations run
