
Note: Compatibility modes selected: hs

Warning: m=xx on .subckt line will override multiplier m hierarchy!


Circuit: ***************************

Doing analysis at TEMP = 125.000000 and TNOM = 125.000000


No. of Data Rows : 798
                          ***************************
                          DC transfer characteristic  Mon Jan  9 13:57:41  2023
--------------------------------------------------------------------------------
Index   v-sweep         -i(vds)         
--------------------------------------------------------------------------------
0	0.000000e+00	-0.000000e+00	
1	5.000000e-02	2.883976e-05	
2	1.000000e-01	5.184437e-05	
3	1.500000e-01	6.937459e-05	
4	2.000000e-01	8.181349e-05	
5	2.500000e-01	8.985570e-05	
6	3.000000e-01	9.482217e-05	
7	3.500000e-01	9.822286e-05	
8	4.000000e-01	1.009298e-04	
9	4.500000e-01	1.032767e-04	
10	5.000000e-01	1.053942e-04	
11	5.500000e-01	1.073464e-04	
12	6.000000e-01	1.091710e-04	
13	6.500000e-01	1.108929e-04	
14	7.000000e-01	1.125303e-04	
15	7.500000e-01	1.140967e-04	
16	8.000000e-01	1.156025e-04	
17	8.500000e-01	1.170560e-04	
18	9.000000e-01	1.184639e-04	
19	9.500000e-01	1.198318e-04	
20	1.000000e+00	1.211642e-04	
21	1.050000e+00	1.224650e-04	
22	1.100000e+00	1.237376e-04	
23	1.150000e+00	1.249846e-04	
24	1.200000e+00	1.262085e-04	
25	1.250000e+00	1.274114e-04	
26	1.300000e+00	1.285952e-04	
27	1.350000e+00	1.297615e-04	
28	1.400000e+00	1.309117e-04	
29	1.450000e+00	1.320470e-04	
30	1.500000e+00	1.331687e-04	
31	1.550000e+00	1.342776e-04	
32	1.600000e+00	1.353748e-04	
33	1.650000e+00	1.364610e-04	
34	1.700000e+00	1.375370e-04	
35	1.750000e+00	1.386034e-04	
36	1.800000e+00	1.396610e-04	
37	1.850000e+00	1.407101e-04	
38	1.900000e+00	1.417514e-04	
39	1.950000e+00	1.427853e-04	
40	2.000000e+00	1.438122e-04	
41	2.050000e+00	1.448326e-04	
42	2.100000e+00	1.458468e-04	
43	2.150000e+00	1.468551e-04	
44	2.200000e+00	1.478579e-04	
45	2.250000e+00	1.488555e-04	
46	2.300000e+00	1.498481e-04	
47	2.350000e+00	1.508359e-04	
48	2.400000e+00	1.518193e-04	
49	2.450000e+00	1.527985e-04	
50	2.500000e+00	1.537737e-04	
51	2.550000e+00	1.547450e-04	
52	2.600000e+00	1.557127e-04	
53	2.650000e+00	1.566771e-04	
54	2.700000e+00	1.576382e-04	

Index   v-sweep         -i(vds)         
--------------------------------------------------------------------------------
55	2.750000e+00	1.585963e-04	
56	2.800000e+00	1.595516e-04	
57	2.850000e+00	1.605043e-04	
58	2.900000e+00	1.614546e-04	
59	2.950000e+00	1.624027e-04	
60	3.000000e+00	1.633489e-04	
61	3.050000e+00	1.642933e-04	
62	3.100000e+00	1.652364e-04	
63	3.150000e+00	1.661783e-04	
64	3.200000e+00	1.671194e-04	
65	3.250000e+00	1.680600e-04	
66	3.300000e+00	1.690005e-04	
67	3.350000e+00	1.699414e-04	
68	3.400000e+00	1.708830e-04	
69	3.450000e+00	1.718258e-04	
70	3.500000e+00	1.727705e-04	
71	3.550000e+00	1.737175e-04	
72	3.600000e+00	1.746676e-04	
73	3.650000e+00	1.756214e-04	
74	3.700000e+00	1.765797e-04	
75	3.750000e+00	1.775432e-04	
76	3.800000e+00	1.785130e-04	
77	3.850000e+00	1.794899e-04	
78	3.900000e+00	1.804750e-04	
79	3.950000e+00	1.814694e-04	
80	4.000000e+00	1.824743e-04	
81	4.050000e+00	1.834909e-04	
82	4.100000e+00	1.845205e-04	
83	4.150000e+00	1.855647e-04	
84	4.200000e+00	1.866250e-04	
85	4.250000e+00	1.877029e-04	
86	4.300000e+00	1.888001e-04	
87	4.350000e+00	1.899185e-04	
88	4.400000e+00	1.910600e-04	
89	4.450000e+00	1.922266e-04	
90	4.500000e+00	1.934202e-04	
91	4.550000e+00	1.946433e-04	
92	4.600000e+00	1.958980e-04	
93	4.650000e+00	1.971867e-04	
94	4.700000e+00	1.985119e-04	
95	4.750000e+00	1.998763e-04	
96	4.800000e+00	2.012825e-04	
97	4.850000e+00	2.027334e-04	
98	4.900000e+00	2.042318e-04	
99	4.950000e+00	2.057808e-04	
100	5.000000e+00	2.073834e-04	
101	5.050000e+00	2.090430e-04	
102	5.100000e+00	2.107628e-04	
103	5.150000e+00	2.125462e-04	
104	5.200000e+00	2.143969e-04	
105	5.250000e+00	2.163183e-04	
106	5.300000e+00	2.183142e-04	
107	5.350000e+00	2.203884e-04	
108	5.400000e+00	2.225450e-04	
109	5.450000e+00	2.247877e-04	
110	5.500000e+00	2.271209e-04	
111	5.550000e+00	2.295486e-04	
112	5.600000e+00	2.320751e-04	

Index   v-sweep         -i(vds)         
--------------------------------------------------------------------------------
113	5.650000e+00	2.347049e-04	
114	5.700000e+00	2.374424e-04	
115	5.750000e+00	2.402921e-04	
116	5.800000e+00	2.432587e-04	
117	5.850000e+00	2.463469e-04	
118	5.900000e+00	2.495615e-04	
119	5.950000e+00	2.529074e-04	
120	6.000000e+00	2.563895e-04	
121	6.050000e+00	2.600129e-04	
122	6.100000e+00	2.637827e-04	
123	6.150000e+00	2.677040e-04	
124	6.200000e+00	2.717821e-04	
125	6.250000e+00	2.760223e-04	
126	6.300000e+00	2.804300e-04	
127	6.350000e+00	2.850107e-04	
128	6.400000e+00	2.897697e-04	
129	6.450000e+00	2.947128e-04	
130	6.500000e+00	2.998454e-04	
131	6.550000e+00	3.051734e-04	
132	6.600000e+00	3.107023e-04	
133	0.000000e+00	-0.000000e+00	
134	5.000000e-02	9.086025e-05	
135	1.000000e-01	1.747823e-04	
136	1.500000e-01	2.521088e-04	
137	2.000000e-01	3.230890e-04	
138	2.500000e-01	3.879423e-04	
139	3.000000e-01	4.468747e-04	
140	3.500000e-01	5.000843e-04	
141	4.000000e-01	5.477633e-04	
142	4.500000e-01	5.901016e-04	
143	5.000000e-01	6.272919e-04	
144	5.500000e-01	6.595390e-04	
145	6.000000e-01	6.870796e-04	
146	6.500000e-01	7.102206e-04	
147	7.000000e-01	7.293969e-04	
148	7.500000e-01	7.452090e-04	
149	8.000000e-01	7.583575e-04	
150	8.500000e-01	7.694947e-04	
151	9.000000e-01	7.791283e-04	
152	9.500000e-01	7.876213e-04	
153	1.000000e+00	7.952289e-04	
154	1.050000e+00	8.021324e-04	
155	1.100000e+00	8.084644e-04	
156	1.150000e+00	8.143239e-04	
157	1.200000e+00	8.197865e-04	
158	1.250000e+00	8.249114e-04	
159	1.300000e+00	8.297454e-04	
160	1.350000e+00	8.343265e-04	
161	1.400000e+00	8.386857e-04	
162	1.450000e+00	8.428486e-04	
163	1.500000e+00	8.468367e-04	
164	1.550000e+00	8.506683e-04	
165	1.600000e+00	8.543587e-04	
166	1.650000e+00	8.579215e-04	
167	1.700000e+00	8.613680e-04	
168	1.750000e+00	8.647083e-04	
169	1.800000e+00	8.679514e-04	
170	1.850000e+00	8.711048e-04	

Index   v-sweep         -i(vds)         
--------------------------------------------------------------------------------
171	1.900000e+00	8.741756e-04	
172	1.950000e+00	8.771699e-04	
173	2.000000e+00	8.800930e-04	
174	2.050000e+00	8.829500e-04	
175	2.100000e+00	8.857453e-04	
176	2.150000e+00	8.884828e-04	
177	2.200000e+00	8.911662e-04	
178	2.250000e+00	8.937989e-04	
179	2.300000e+00	8.963837e-04	
180	2.350000e+00	8.989235e-04	
181	2.400000e+00	9.014207e-04	
182	2.450000e+00	9.038778e-04	
183	2.500000e+00	9.062968e-04	
184	2.550000e+00	9.086798e-04	
185	2.600000e+00	9.110285e-04	
186	2.650000e+00	9.133447e-04	
187	2.700000e+00	9.156299e-04	
188	2.750000e+00	9.178857e-04	
189	2.800000e+00	9.201134e-04	
190	2.850000e+00	9.223144e-04	
191	2.900000e+00	9.244899e-04	
192	2.950000e+00	9.266410e-04	
193	3.000000e+00	9.287690e-04	
194	3.050000e+00	9.308750e-04	
195	3.100000e+00	9.329600e-04	
196	3.150000e+00	9.350251e-04	
197	3.200000e+00	9.370714e-04	
198	3.250000e+00	9.391001e-04	
199	3.300000e+00	9.411122e-04	
200	3.350000e+00	9.431088e-04	
201	3.400000e+00	9.450913e-04	
202	3.450000e+00	9.470609e-04	
203	3.500000e+00	9.490190e-04	
204	3.550000e+00	9.509670e-04	
205	3.600000e+00	9.529066e-04	
206	3.650000e+00	9.548394e-04	
207	3.700000e+00	9.567674e-04	
208	3.750000e+00	9.586926e-04	
209	3.800000e+00	9.606171e-04	
210	3.850000e+00	9.625435e-04	
211	3.900000e+00	9.644742e-04	
212	3.950000e+00	9.664122e-04	
213	4.000000e+00	9.683606e-04	
214	4.050000e+00	9.703227e-04	
215	4.100000e+00	9.723021e-04	
216	4.150000e+00	9.743027e-04	
217	4.200000e+00	9.763289e-04	
218	4.250000e+00	9.783850e-04	
219	4.300000e+00	9.804759e-04	
220	4.350000e+00	9.826069e-04	
221	4.400000e+00	9.847835e-04	
222	4.450000e+00	9.870115e-04	
223	4.500000e+00	9.892973e-04	
224	4.550000e+00	9.916475e-04	
225	4.600000e+00	9.940690e-04	
226	4.650000e+00	9.965695e-04	
227	4.700000e+00	9.991565e-04	
228	4.750000e+00	1.001838e-03	

Index   v-sweep         -i(vds)         
--------------------------------------------------------------------------------
229	4.800000e+00	1.004624e-03	
230	4.850000e+00	1.007522e-03	
231	4.900000e+00	1.010541e-03	
232	4.950000e+00	1.013693e-03	
233	5.000000e+00	1.016987e-03	
234	5.050000e+00	1.020433e-03	
235	5.100000e+00	1.024043e-03	
236	5.150000e+00	1.027828e-03	
237	5.200000e+00	1.031800e-03	
238	5.250000e+00	1.035971e-03	
239	5.300000e+00	1.040355e-03	
240	5.350000e+00	1.044963e-03	
241	5.400000e+00	1.049810e-03	
242	5.450000e+00	1.054910e-03	
243	5.500000e+00	1.060275e-03	
244	5.550000e+00	1.065922e-03	
245	5.600000e+00	1.071865e-03	
246	5.650000e+00	1.078118e-03	
247	5.700000e+00	1.084699e-03	
248	5.750000e+00	1.091622e-03	
249	5.800000e+00	1.098904e-03	
250	5.850000e+00	1.106562e-03	
251	5.900000e+00	1.114612e-03	
252	5.950000e+00	1.123071e-03	
253	6.000000e+00	1.131957e-03	
254	6.050000e+00	1.141288e-03	
255	6.100000e+00	1.151081e-03	
256	6.150000e+00	1.161356e-03	
257	6.200000e+00	1.172129e-03	
258	6.250000e+00	1.183420e-03	
259	6.300000e+00	1.195248e-03	
260	6.350000e+00	1.207632e-03	
261	6.400000e+00	1.220591e-03	
262	6.450000e+00	1.234145e-03	
263	6.500000e+00	1.248313e-03	
264	6.550000e+00	1.263115e-03	
265	6.600000e+00	1.278572e-03	
266	0.000000e+00	-0.000000e+00	
267	5.000000e-02	1.369265e-04	
268	1.000000e-01	2.665365e-04	
269	1.500000e-01	3.891743e-04	
270	2.000000e-01	5.050908e-04	
271	2.500000e-01	6.145063e-04	
272	3.000000e-01	7.176274e-04	
273	3.500000e-01	8.146502e-04	
274	4.000000e-01	9.057631e-04	
275	4.500000e-01	9.911462e-04	
276	5.000000e-01	1.070973e-03	
277	5.500000e-01	1.145410e-03	
278	6.000000e-01	1.214618e-03	
279	6.500000e-01	1.278751e-03	
280	7.000000e-01	1.337959e-03	
281	7.500000e-01	1.392386e-03	
282	8.000000e-01	1.442173e-03	
283	8.500000e-01	1.487456e-03	
284	9.000000e-01	1.528368e-03	
285	9.500000e-01	1.565043e-03	
286	1.000000e+00	1.597619e-03	

Index   v-sweep         -i(vds)         
--------------------------------------------------------------------------------
287	1.050000e+00	1.626264e-03	
288	1.100000e+00	1.651216e-03	
289	1.150000e+00	1.672825e-03	
290	1.200000e+00	1.691548e-03	
291	1.250000e+00	1.707875e-03	
292	1.300000e+00	1.722259e-03	
293	1.350000e+00	1.735074e-03	
294	1.400000e+00	1.746615e-03	
295	1.450000e+00	1.757113e-03	
296	1.500000e+00	1.766744e-03	
297	1.550000e+00	1.775647e-03	
298	1.600000e+00	1.783930e-03	
299	1.650000e+00	1.791681e-03	
300	1.700000e+00	1.798971e-03	
301	1.750000e+00	1.805856e-03	
302	1.800000e+00	1.812385e-03	
303	1.850000e+00	1.818598e-03	
304	1.900000e+00	1.824527e-03	
305	1.950000e+00	1.830202e-03	
306	2.000000e+00	1.835647e-03	
307	2.050000e+00	1.840884e-03	
308	2.100000e+00	1.845930e-03	
309	2.150000e+00	1.850802e-03	
310	2.200000e+00	1.855514e-03	
311	2.250000e+00	1.860079e-03	
312	2.300000e+00	1.864507e-03	
313	2.350000e+00	1.868808e-03	
314	2.400000e+00	1.872992e-03	
315	2.450000e+00	1.877066e-03	
316	2.500000e+00	1.881038e-03	
317	2.550000e+00	1.884914e-03	
318	2.600000e+00	1.888699e-03	
319	2.650000e+00	1.892401e-03	
320	2.700000e+00	1.896022e-03	
321	2.750000e+00	1.899568e-03	
322	2.800000e+00	1.903043e-03	
323	2.850000e+00	1.906451e-03	
324	2.900000e+00	1.909795e-03	
325	2.950000e+00	1.913079e-03	
326	3.000000e+00	1.916305e-03	
327	3.050000e+00	1.919477e-03	
328	3.100000e+00	1.922597e-03	
329	3.150000e+00	1.925667e-03	
330	3.200000e+00	1.928690e-03	
331	3.250000e+00	1.931668e-03	
332	3.300000e+00	1.934603e-03	
333	3.350000e+00	1.937498e-03	
334	3.400000e+00	1.940353e-03	
335	3.450000e+00	1.943172e-03	
336	3.500000e+00	1.945956e-03	
337	3.550000e+00	1.948707e-03	
338	3.600000e+00	1.951427e-03	
339	3.650000e+00	1.954119e-03	
340	3.700000e+00	1.956783e-03	
341	3.750000e+00	1.959423e-03	
342	3.800000e+00	1.962041e-03	
343	3.850000e+00	1.964640e-03	
344	3.900000e+00	1.967222e-03	

Index   v-sweep         -i(vds)         
--------------------------------------------------------------------------------
345	3.950000e+00	1.969790e-03	
346	4.000000e+00	1.972348e-03	
347	4.050000e+00	1.974899e-03	
348	4.100000e+00	1.977447e-03	
349	4.150000e+00	1.979997e-03	
350	4.200000e+00	1.982552e-03	
351	4.250000e+00	1.985119e-03	
352	4.300000e+00	1.987703e-03	
353	4.350000e+00	1.990309e-03	
354	4.400000e+00	1.992944e-03	
355	4.450000e+00	1.995616e-03	
356	4.500000e+00	1.998332e-03	
357	4.550000e+00	2.001100e-03	
358	4.600000e+00	2.003930e-03	
359	4.650000e+00	2.006830e-03	
360	4.700000e+00	2.009810e-03	
361	4.750000e+00	2.012883e-03	
362	4.800000e+00	2.016059e-03	
363	4.850000e+00	2.019350e-03	
364	4.900000e+00	2.022770e-03	
365	4.950000e+00	2.026333e-03	
366	5.000000e+00	2.030052e-03	
367	5.050000e+00	2.033943e-03	
368	5.100000e+00	2.038023e-03	
369	5.150000e+00	2.042309e-03	
370	5.200000e+00	2.046817e-03	
371	5.250000e+00	2.051566e-03	
372	5.300000e+00	2.056576e-03	
373	5.350000e+00	2.061866e-03	
374	5.400000e+00	2.067458e-03	
375	5.450000e+00	2.073372e-03	
376	5.500000e+00	2.079632e-03	
377	5.550000e+00	2.086261e-03	
378	5.600000e+00	2.093281e-03	
379	5.650000e+00	2.100719e-03	
380	5.700000e+00	2.108599e-03	
381	5.750000e+00	2.116947e-03	
382	5.800000e+00	2.125790e-03	
383	5.850000e+00	2.135156e-03	
384	5.900000e+00	2.145073e-03	
385	5.950000e+00	2.155569e-03	
386	6.000000e+00	2.166674e-03	
387	6.050000e+00	2.178418e-03	
388	6.100000e+00	2.190832e-03	
389	6.150000e+00	2.203947e-03	
390	6.200000e+00	2.217795e-03	
391	6.250000e+00	2.232408e-03	
392	6.300000e+00	2.247819e-03	
393	6.350000e+00	2.264062e-03	
394	6.400000e+00	2.281170e-03	
395	6.450000e+00	2.299177e-03	
396	6.500000e+00	2.318119e-03	
397	6.550000e+00	2.338031e-03	
398	6.600000e+00	2.358947e-03	
399	0.000000e+00	-0.000000e+00	
400	5.000000e-02	1.702958e-04	
401	1.000000e-01	3.333454e-04	
402	1.500000e-01	4.894723e-04	

Index   v-sweep         -i(vds)         
--------------------------------------------------------------------------------
403	2.000000e-01	6.389083e-04	
404	2.500000e-01	7.818562e-04	
405	3.000000e-01	9.185058e-04	
406	3.500000e-01	1.049039e-03	
407	4.000000e-01	1.173628e-03	
408	4.500000e-01	1.292443e-03	
409	5.000000e-01	1.405642e-03	
410	5.500000e-01	1.513381e-03	
411	6.000000e-01	1.615809e-03	
412	6.500000e-01	1.713069e-03	
413	7.000000e-01	1.805300e-03	
414	7.500000e-01	1.892635e-03	
415	8.000000e-01	1.975203e-03	
416	8.500000e-01	2.053128e-03	
417	9.000000e-01	2.126530e-03	
418	9.500000e-01	2.195523e-03	
419	1.000000e+00	2.260220e-03	
420	1.050000e+00	2.320725e-03	
421	1.100000e+00	2.377136e-03	
422	1.150000e+00	2.429546e-03	
423	1.200000e+00	2.478034e-03	
424	1.250000e+00	2.522664e-03	
425	1.300000e+00	2.563484e-03	
426	1.350000e+00	2.600523e-03	
427	1.400000e+00	2.633823e-03	
428	1.450000e+00	2.663485e-03	
429	1.500000e+00	2.689731e-03	
430	1.550000e+00	2.712905e-03	
431	1.600000e+00	2.733424e-03	
432	1.650000e+00	2.751706e-03	
433	1.700000e+00	2.768124e-03	
434	1.750000e+00	2.782991e-03	
435	1.800000e+00	2.796562e-03	
436	1.850000e+00	2.809039e-03	
437	1.900000e+00	2.820587e-03	
438	1.950000e+00	2.831337e-03	
439	2.000000e+00	2.841396e-03	
440	2.050000e+00	2.850851e-03	
441	2.100000e+00	2.859777e-03	
442	2.150000e+00	2.868232e-03	
443	2.200000e+00	2.876268e-03	
444	2.250000e+00	2.883929e-03	
445	2.300000e+00	2.891251e-03	
446	2.350000e+00	2.898267e-03	
447	2.400000e+00	2.905003e-03	
448	2.450000e+00	2.911485e-03	
449	2.500000e+00	2.917732e-03	
450	2.550000e+00	2.923765e-03	
451	2.600000e+00	2.929599e-03	
452	2.650000e+00	2.935249e-03	
453	2.700000e+00	2.940729e-03	
454	2.750000e+00	2.946050e-03	
455	2.800000e+00	2.951222e-03	
456	2.850000e+00	2.956256e-03	
457	2.900000e+00	2.961160e-03	
458	2.950000e+00	2.965941e-03	
459	3.000000e+00	2.970608e-03	
460	3.050000e+00	2.975167e-03	

Index   v-sweep         -i(vds)         
--------------------------------------------------------------------------------
461	3.100000e+00	2.979623e-03	
462	3.150000e+00	2.983983e-03	
463	3.200000e+00	2.988252e-03	
464	3.250000e+00	2.992434e-03	
465	3.300000e+00	2.996533e-03	
466	3.350000e+00	3.000554e-03	
467	3.400000e+00	3.004501e-03	
468	3.450000e+00	3.008377e-03	
469	3.500000e+00	3.012185e-03	
470	3.550000e+00	3.015929e-03	
471	3.600000e+00	3.019612e-03	
472	3.650000e+00	3.023237e-03	
473	3.700000e+00	3.026806e-03	
474	3.750000e+00	3.030322e-03	
475	3.800000e+00	3.033788e-03	
476	3.850000e+00	3.037208e-03	
477	3.900000e+00	3.040582e-03	
478	3.950000e+00	3.043916e-03	
479	4.000000e+00	3.047211e-03	
480	4.050000e+00	3.050470e-03	
481	4.100000e+00	3.053698e-03	
482	4.150000e+00	3.056897e-03	
483	4.200000e+00	3.060072e-03	
484	4.250000e+00	3.063227e-03	
485	4.300000e+00	3.066367e-03	
486	4.350000e+00	3.069496e-03	
487	4.400000e+00	3.072621e-03	
488	4.450000e+00	3.075746e-03	
489	4.500000e+00	3.078880e-03	
490	4.550000e+00	3.082029e-03	
491	4.600000e+00	3.085202e-03	
492	4.650000e+00	3.088406e-03	
493	4.700000e+00	3.091652e-03	
494	4.750000e+00	3.094949e-03	
495	4.800000e+00	3.098309e-03	
496	4.850000e+00	3.101744e-03	
497	4.900000e+00	3.105266e-03	
498	4.950000e+00	3.108890e-03	
499	5.000000e+00	3.112631e-03	
500	5.050000e+00	3.116504e-03	
501	5.100000e+00	3.120526e-03	
502	5.150000e+00	3.124716e-03	
503	5.200000e+00	3.129092e-03	
504	5.250000e+00	3.133676e-03	
505	5.300000e+00	3.138487e-03	
506	5.350000e+00	3.143550e-03	
507	5.400000e+00	3.148887e-03	
508	5.450000e+00	3.154525e-03	
509	5.500000e+00	3.160488e-03	
510	5.550000e+00	3.166805e-03	
511	5.600000e+00	3.173504e-03	
512	5.650000e+00	3.180614e-03	
513	5.700000e+00	3.188167e-03	
514	5.750000e+00	3.196195e-03	
515	5.800000e+00	3.204731e-03	
516	5.850000e+00	3.213810e-03	
517	5.900000e+00	3.223467e-03	
518	5.950000e+00	3.233739e-03	

Index   v-sweep         -i(vds)         
--------------------------------------------------------------------------------
519	6.000000e+00	3.244664e-03	
520	6.050000e+00	3.256280e-03	
521	6.100000e+00	3.268629e-03	
522	6.150000e+00	3.281751e-03	
523	6.200000e+00	3.295688e-03	
524	6.250000e+00	3.310483e-03	
525	6.300000e+00	3.326180e-03	
526	6.350000e+00	3.342825e-03	
527	6.400000e+00	3.360463e-03	
528	6.450000e+00	3.379142e-03	
529	6.500000e+00	3.398908e-03	
530	6.550000e+00	3.419811e-03	
531	6.600000e+00	3.441899e-03	
532	0.000000e+00	-0.000000e+00	
533	5.000000e-02	1.930378e-04	
534	1.000000e-01	3.792065e-04	
535	1.500000e-01	5.587987e-04	
536	2.000000e-01	7.320174e-04	
537	2.500000e-01	8.990383e-04	
538	3.000000e-01	1.060026e-03	
539	3.500000e-01	1.215138e-03	
540	4.000000e-01	1.364525e-03	
541	4.500000e-01	1.508334e-03	
542	5.000000e-01	1.646707e-03	
543	5.500000e-01	1.779778e-03	
544	6.000000e-01	1.907681e-03	
545	6.500000e-01	2.030542e-03	
546	7.000000e-01	2.148483e-03	
547	7.500000e-01	2.261624e-03	
548	8.000000e-01	2.370079e-03	
549	8.500000e-01	2.473959e-03	
550	9.000000e-01	2.573373e-03	
551	9.500000e-01	2.668424e-03	
552	1.000000e+00	2.759214e-03	
553	1.050000e+00	2.845839e-03	
554	1.100000e+00	2.928396e-03	
555	1.150000e+00	3.006974e-03	
556	1.200000e+00	3.081663e-03	
557	1.250000e+00	3.152546e-03	
558	1.300000e+00	3.219705e-03	
559	1.350000e+00	3.283216e-03	
560	1.400000e+00	3.343146e-03	
561	1.450000e+00	3.399558e-03	
562	1.500000e+00	3.452498e-03	
563	1.550000e+00	3.501999e-03	
564	1.600000e+00	3.548066e-03	
565	1.650000e+00	3.590682e-03	
566	1.700000e+00	3.629811e-03	
567	1.750000e+00	3.665437e-03	
568	1.800000e+00	3.697612e-03	
569	1.850000e+00	3.726505e-03	
570	1.900000e+00	3.752398e-03	
571	1.950000e+00	3.775643e-03	
572	2.000000e+00	3.796602e-03	
573	2.050000e+00	3.815611e-03	
574	2.100000e+00	3.832964e-03	
575	2.150000e+00	3.848905e-03	
576	2.200000e+00	3.863637e-03	

Index   v-sweep         -i(vds)         
--------------------------------------------------------------------------------
577	2.250000e+00	3.877328e-03	
578	2.300000e+00	3.890114e-03	
579	2.350000e+00	3.902109e-03	
580	2.400000e+00	3.913409e-03	
581	2.450000e+00	3.924091e-03	
582	2.500000e+00	3.934224e-03	
583	2.550000e+00	3.943864e-03	
584	2.600000e+00	3.953061e-03	
585	2.650000e+00	3.961855e-03	
586	2.700000e+00	3.970284e-03	
587	2.750000e+00	3.978379e-03	
588	2.800000e+00	3.986168e-03	
589	2.850000e+00	3.993676e-03	
590	2.900000e+00	4.000925e-03	
591	2.950000e+00	4.007933e-03	
592	3.000000e+00	4.014719e-03	
593	3.050000e+00	4.021297e-03	
594	3.100000e+00	4.027682e-03	
595	3.150000e+00	4.033887e-03	
596	3.200000e+00	4.039922e-03	
597	3.250000e+00	4.045798e-03	
598	3.300000e+00	4.051524e-03	
599	3.350000e+00	4.057110e-03	
600	3.400000e+00	4.062563e-03	
601	3.450000e+00	4.067890e-03	
602	3.500000e+00	4.073098e-03	
603	3.550000e+00	4.078194e-03	
604	3.600000e+00	4.083183e-03	
605	3.650000e+00	4.088070e-03	
606	3.700000e+00	4.092860e-03	
607	3.750000e+00	4.097558e-03	
608	3.800000e+00	4.102169e-03	
609	3.850000e+00	4.106696e-03	
610	3.900000e+00	4.111144e-03	
611	3.950000e+00	4.115516e-03	
612	4.000000e+00	4.119815e-03	
613	4.050000e+00	4.124047e-03	
614	4.100000e+00	4.128213e-03	
615	4.150000e+00	4.132317e-03	
616	4.200000e+00	4.136363e-03	
617	4.250000e+00	4.140355e-03	
618	4.300000e+00	4.144297e-03	
619	4.350000e+00	4.148192e-03	
620	4.400000e+00	4.152045e-03	
621	4.450000e+00	4.155860e-03	
622	4.500000e+00	4.159642e-03	
623	4.550000e+00	4.163397e-03	
624	4.600000e+00	4.167131e-03	
625	4.650000e+00	4.170849e-03	
626	4.700000e+00	4.174559e-03	
627	4.750000e+00	4.178269e-03	
628	4.800000e+00	4.181987e-03	
629	4.850000e+00	4.185722e-03	
630	4.900000e+00	4.189485e-03	
631	4.950000e+00	4.193286e-03	
632	5.000000e+00	4.197138e-03	
633	5.050000e+00	4.201053e-03	
634	5.100000e+00	4.205047e-03	

Index   v-sweep         -i(vds)         
--------------------------------------------------------------------------------
635	5.150000e+00	4.209134e-03	
636	5.200000e+00	4.213330e-03	
637	5.250000e+00	4.217655e-03	
638	5.300000e+00	4.222127e-03	
639	5.350000e+00	4.226767e-03	
640	5.400000e+00	4.231597e-03	
641	5.450000e+00	4.236640e-03	
642	5.500000e+00	4.241921e-03	
643	5.550000e+00	4.247467e-03	
644	5.600000e+00	4.253306e-03	
645	5.650000e+00	4.259468e-03	
646	5.700000e+00	4.265982e-03	
647	5.750000e+00	4.272883e-03	
648	5.800000e+00	4.280204e-03	
649	5.850000e+00	4.287982e-03	
650	5.900000e+00	4.296253e-03	
651	5.950000e+00	4.305058e-03	
652	6.000000e+00	4.314437e-03	
653	6.050000e+00	4.324431e-03	
654	6.100000e+00	4.335086e-03	
655	6.150000e+00	4.346446e-03	
656	6.200000e+00	4.358559e-03	
657	6.250000e+00	4.371474e-03	
658	6.300000e+00	4.385239e-03	
659	6.350000e+00	4.399907e-03	
660	6.400000e+00	4.415532e-03	
661	6.450000e+00	4.432166e-03	
662	6.500000e+00	4.449867e-03	
663	6.550000e+00	4.468691e-03	
664	6.600000e+00	4.488697e-03	
665	0.000000e+00	-0.000000e+00	
666	5.000000e-02	2.073523e-04	
667	1.000000e-01	4.083805e-04	
668	1.500000e-01	6.033450e-04	
669	2.000000e-01	7.924178e-04	
670	2.500000e-01	9.757456e-04	
671	3.000000e-01	1.153466e-03	
672	3.500000e-01	1.325709e-03	
673	4.000000e-01	1.492603e-03	
674	4.500000e-01	1.654270e-03	
675	5.000000e-01	1.810829e-03	
676	5.500000e-01	1.962397e-03	
677	6.000000e-01	2.109083e-03	
678	6.500000e-01	2.250998e-03	
679	7.000000e-01	2.388245e-03	
680	7.500000e-01	2.520927e-03	
681	8.000000e-01	2.649143e-03	
682	8.500000e-01	2.772988e-03	
683	9.000000e-01	2.892555e-03	
684	9.500000e-01	3.007935e-03	
685	1.000000e+00	3.119215e-03	
686	1.050000e+00	3.226481e-03	
687	1.100000e+00	3.329816e-03	
688	1.150000e+00	3.429300e-03	
689	1.200000e+00	3.525012e-03	
690	1.250000e+00	3.617029e-03	
691	1.300000e+00	3.705423e-03	
692	1.350000e+00	3.790268e-03	

Index   v-sweep         -i(vds)         
--------------------------------------------------------------------------------
693	1.400000e+00	3.871634e-03	
694	1.450000e+00	3.949587e-03	
695	1.500000e+00	4.024193e-03	
696	1.550000e+00	4.095515e-03	
697	1.600000e+00	4.163612e-03	
698	1.650000e+00	4.228538e-03	
699	1.700000e+00	4.290345e-03	
700	1.750000e+00	4.349074e-03	
701	1.800000e+00	4.404758e-03	
702	1.850000e+00	4.457414e-03	
703	1.900000e+00	4.507040e-03	
704	1.950000e+00	4.553610e-03	
705	2.000000e+00	4.597072e-03	
706	2.050000e+00	4.637363e-03	
707	2.100000e+00	4.674442e-03	
708	2.150000e+00	4.708334e-03	
709	2.200000e+00	4.739163e-03	
710	2.250000e+00	4.767149e-03	
711	2.300000e+00	4.792575e-03	
712	2.350000e+00	4.815745e-03	
713	2.400000e+00	4.836952e-03	
714	2.450000e+00	4.856457e-03	
715	2.500000e+00	4.874489e-03	
716	2.550000e+00	4.891241e-03	
717	2.600000e+00	4.906877e-03	
718	2.650000e+00	4.921533e-03	
719	2.700000e+00	4.935324e-03	
720	2.750000e+00	4.948348e-03	
721	2.800000e+00	4.960688e-03	
722	2.850000e+00	4.972413e-03	
723	2.900000e+00	4.983586e-03	
724	2.950000e+00	4.994257e-03	
725	3.000000e+00	5.004473e-03	
726	3.050000e+00	5.014273e-03	
727	3.100000e+00	5.023692e-03	
728	3.150000e+00	5.032761e-03	
729	3.200000e+00	5.041507e-03	
730	3.250000e+00	5.049953e-03	
731	3.300000e+00	5.058122e-03	
732	3.350000e+00	5.066034e-03	
733	3.400000e+00	5.073704e-03	
734	3.450000e+00	5.081150e-03	
735	3.500000e+00	5.088386e-03	
736	3.550000e+00	5.095424e-03	
737	3.600000e+00	5.102276e-03	
738	3.650000e+00	5.108953e-03	
739	3.700000e+00	5.115466e-03	
740	3.750000e+00	5.121822e-03	
741	3.800000e+00	5.128030e-03	
742	3.850000e+00	5.134099e-03	
743	3.900000e+00	5.140035e-03	
744	3.950000e+00	5.145844e-03	
745	4.000000e+00	5.151534e-03	
746	4.050000e+00	5.157110e-03	
747	4.100000e+00	5.162577e-03	
748	4.150000e+00	5.167940e-03	
749	4.200000e+00	5.173204e-03	
750	4.250000e+00	5.178374e-03	

Index   v-sweep         -i(vds)         
--------------------------------------------------------------------------------
751	4.300000e+00	5.183454e-03	
752	4.350000e+00	5.188449e-03	
753	4.400000e+00	5.193362e-03	
754	4.450000e+00	5.198199e-03	
755	4.500000e+00	5.202962e-03	
756	4.550000e+00	5.207657e-03	
757	4.600000e+00	5.212289e-03	
758	4.650000e+00	5.216861e-03	
759	4.700000e+00	5.221378e-03	
760	4.750000e+00	5.225847e-03	
761	4.800000e+00	5.230272e-03	
762	4.850000e+00	5.234661e-03	
763	4.900000e+00	5.239018e-03	
764	4.950000e+00	5.243353e-03	
765	5.000000e+00	5.247674e-03	
766	5.050000e+00	5.251988e-03	
767	5.100000e+00	5.256306e-03	
768	5.150000e+00	5.260638e-03	
769	5.200000e+00	5.264998e-03	
770	5.250000e+00	5.269396e-03	
771	5.300000e+00	5.273848e-03	
772	5.350000e+00	5.278368e-03	
773	5.400000e+00	5.282975e-03	
774	5.450000e+00	5.287684e-03	
775	5.500000e+00	5.292518e-03	
776	5.550000e+00	5.297495e-03	
777	5.600000e+00	5.302640e-03	
778	5.650000e+00	5.307977e-03	
779	5.700000e+00	5.313531e-03	
780	5.750000e+00	5.319332e-03	
781	5.800000e+00	5.325408e-03	
782	5.850000e+00	5.331792e-03	
783	5.900000e+00	5.338516e-03	
784	5.950000e+00	5.345618e-03	
785	6.000000e+00	5.353133e-03	
786	6.050000e+00	5.361101e-03	
787	6.100000e+00	5.369564e-03	
788	6.150000e+00	5.378566e-03	
789	6.200000e+00	5.388151e-03	
790	6.250000e+00	5.398367e-03	
791	6.300000e+00	5.409263e-03	
792	6.350000e+00	5.420892e-03	
793	6.400000e+00	5.433306e-03	
794	6.450000e+00	5.446561e-03	
795	6.500000e+00	5.460714e-03	
796	6.550000e+00	5.475824e-03	
797	6.600000e+00	5.491953e-03	
Note: No ".plot", ".print", or ".fourier" lines; no simulations run
