
Note: Compatibility modes selected: hs

Warning: m=xx on .subckt line will override multiplier m hierarchy!


Circuit: ***************************

Doing analysis at TEMP = -40.000000 and TNOM = -40.000000


No. of Data Rows : 798
                          ***************************
                          DC transfer characteristic  Mon Jan  9 13:57:41  2023
--------------------------------------------------------------------------------
Index   v-sweep         -i(vds)         
--------------------------------------------------------------------------------
0	0.000000e+00	-0.000000e+00	
1	5.000000e-02	1.752940e-06	
2	1.000000e-01	3.160946e-06	
3	1.500000e-01	4.238144e-06	
4	2.000000e-01	5.006486e-06	
5	2.500000e-01	5.511481e-06	
6	3.000000e-01	5.836026e-06	
7	3.500000e-01	6.064251e-06	
8	4.000000e-01	6.243023e-06	
9	4.500000e-01	6.393004e-06	
10	5.000000e-01	6.524111e-06	
11	5.500000e-01	6.641829e-06	
12	6.000000e-01	6.749532e-06	
13	6.500000e-01	6.849459e-06	
14	7.000000e-01	6.943170e-06	
15	7.500000e-01	7.031805e-06	
16	8.000000e-01	7.116215e-06	
17	8.500000e-01	7.197059e-06	
18	9.000000e-01	7.274853e-06	
19	9.500000e-01	7.350010e-06	
20	1.000000e+00	7.422867e-06	
21	1.050000e+00	7.493701e-06	
22	1.100000e+00	7.562742e-06	
23	1.150000e+00	7.630185e-06	
24	1.200000e+00	7.696195e-06	
25	1.250000e+00	7.760913e-06	
26	1.300000e+00	7.824461e-06	
27	1.350000e+00	7.886946e-06	
28	1.400000e+00	7.948459e-06	
29	1.450000e+00	8.009082e-06	
30	1.500000e+00	8.068888e-06	
31	1.550000e+00	8.127939e-06	
32	1.600000e+00	8.186293e-06	
33	1.650000e+00	8.244001e-06	
34	1.700000e+00	8.301109e-06	
35	1.750000e+00	8.357657e-06	
36	1.800000e+00	8.413683e-06	
37	1.850000e+00	8.469221e-06	
38	1.900000e+00	8.524301e-06	
39	1.950000e+00	8.578953e-06	
40	2.000000e+00	8.633200e-06	
41	2.050000e+00	8.687068e-06	
42	2.100000e+00	8.740578e-06	
43	2.150000e+00	8.793749e-06	
44	2.200000e+00	8.846600e-06	
45	2.250000e+00	8.899149e-06	
46	2.300000e+00	8.951412e-06	
47	2.350000e+00	9.003403e-06	
48	2.400000e+00	9.055136e-06	
49	2.450000e+00	9.106625e-06	
50	2.500000e+00	9.157882e-06	
51	2.550000e+00	9.208920e-06	
52	2.600000e+00	9.259750e-06	
53	2.650000e+00	9.310383e-06	
54	2.700000e+00	9.360832e-06	

Index   v-sweep         -i(vds)         
--------------------------------------------------------------------------------
55	2.750000e+00	9.411107e-06	
56	2.800000e+00	9.461220e-06	
57	2.850000e+00	9.511183e-06	
58	2.900000e+00	9.561008e-06	
59	2.950000e+00	9.610708e-06	
60	3.000000e+00	9.660297e-06	
61	3.050000e+00	9.709789e-06	
62	3.100000e+00	9.759200e-06	
63	3.150000e+00	9.808548e-06	
64	3.200000e+00	9.857851e-06	
65	3.250000e+00	9.907129e-06	
66	3.300000e+00	9.956405e-06	
67	3.350000e+00	1.000570e-05	
68	3.400000e+00	1.005505e-05	
69	3.450000e+00	1.010447e-05	
70	3.500000e+00	1.015401e-05	
71	3.550000e+00	1.020369e-05	
72	3.600000e+00	1.025355e-05	
73	3.650000e+00	1.030364e-05	
74	3.700000e+00	1.035399e-05	
75	3.750000e+00	1.040467e-05	
76	3.800000e+00	1.045571e-05	
77	3.850000e+00	1.050717e-05	
78	3.900000e+00	1.055913e-05	
79	3.950000e+00	1.061163e-05	
80	4.000000e+00	1.066476e-05	
81	4.050000e+00	1.071858e-05	
82	4.100000e+00	1.077317e-05	
83	4.150000e+00	1.082862e-05	
84	4.200000e+00	1.088501e-05	
85	4.250000e+00	1.094245e-05	
86	4.300000e+00	1.100102e-05	
87	4.350000e+00	1.106084e-05	
88	4.400000e+00	1.112202e-05	
89	4.450000e+00	1.118466e-05	
90	4.500000e+00	1.124889e-05	
91	4.550000e+00	1.131484e-05	
92	4.600000e+00	1.138265e-05	
93	4.650000e+00	1.145244e-05	
94	4.700000e+00	1.152436e-05	
95	4.750000e+00	1.159856e-05	
96	4.800000e+00	1.167521e-05	
97	4.850000e+00	1.175445e-05	
98	4.900000e+00	1.183645e-05	
99	4.950000e+00	1.192140e-05	
100	5.000000e+00	1.200946e-05	
101	5.050000e+00	1.210083e-05	
102	5.100000e+00	1.219568e-05	
103	5.150000e+00	1.229423e-05	
104	5.200000e+00	1.239665e-05	
105	5.250000e+00	1.250318e-05	
106	5.300000e+00	1.261400e-05	
107	5.350000e+00	1.272935e-05	
108	5.400000e+00	1.284945e-05	
109	5.450000e+00	1.297451e-05	
110	5.500000e+00	1.310479e-05	
111	5.550000e+00	1.324050e-05	
112	5.600000e+00	1.338190e-05	

Index   v-sweep         -i(vds)         
--------------------------------------------------------------------------------
113	5.650000e+00	1.352923e-05	
114	5.700000e+00	1.368275e-05	
115	5.750000e+00	1.384271e-05	
116	5.800000e+00	1.400937e-05	
117	5.850000e+00	1.418300e-05	
118	5.900000e+00	1.436387e-05	
119	5.950000e+00	1.455225e-05	
120	6.000000e+00	1.474842e-05	
121	6.050000e+00	1.495267e-05	
122	6.100000e+00	1.516528e-05	
123	6.150000e+00	1.538654e-05	
124	6.200000e+00	1.561674e-05	
125	6.250000e+00	1.585618e-05	
126	6.300000e+00	1.610516e-05	
127	6.350000e+00	1.636399e-05	
128	6.400000e+00	1.663297e-05	
129	6.450000e+00	1.691241e-05	
130	6.500000e+00	1.720262e-05	
131	6.550000e+00	1.750393e-05	
132	6.600000e+00	1.781664e-05	
133	0.000000e+00	-0.000000e+00	
134	5.000000e-02	5.029120e-06	
135	1.000000e-01	9.681386e-06	
136	1.500000e-01	1.397018e-05	
137	2.000000e-01	1.790819e-05	
138	2.500000e-01	2.150735e-05	
139	3.000000e-01	2.477892e-05	
140	3.500000e-01	2.773353e-05	
141	4.000000e-01	3.038133e-05	
142	4.500000e-01	3.273204e-05	
143	5.000000e-01	3.479500e-05	
144	5.500000e-01	3.657905e-05	
145	6.000000e-01	3.809273e-05	
146	6.500000e-01	3.934640e-05	
147	7.000000e-01	4.035897e-05	
148	7.500000e-01	4.116506e-05	
149	8.000000e-01	4.181016e-05	
150	8.500000e-01	4.233707e-05	
151	9.000000e-01	4.277848e-05	
152	9.500000e-01	4.315722e-05	
153	1.000000e+00	4.348887e-05	
154	1.050000e+00	4.378422e-05	
155	1.100000e+00	4.405090e-05	
156	1.150000e+00	4.429444e-05	
157	1.200000e+00	4.451896e-05	
158	1.250000e+00	4.472760e-05	
159	1.300000e+00	4.492279e-05	
160	1.350000e+00	4.510646e-05	
161	1.400000e+00	4.528014e-05	
162	1.450000e+00	4.544511e-05	
163	1.500000e+00	4.560238e-05	
164	1.550000e+00	4.575284e-05	
165	1.600000e+00	4.589720e-05	
166	1.650000e+00	4.603609e-05	
167	1.700000e+00	4.617004e-05	
168	1.750000e+00	4.629949e-05	
169	1.800000e+00	4.642485e-05	
170	1.850000e+00	4.654647e-05	

Index   v-sweep         -i(vds)         
--------------------------------------------------------------------------------
171	1.900000e+00	4.666465e-05	
172	1.950000e+00	4.677965e-05	
173	2.000000e+00	4.689173e-05	
174	2.050000e+00	4.700109e-05	
175	2.100000e+00	4.710791e-05	
176	2.150000e+00	4.721239e-05	
177	2.200000e+00	4.731466e-05	
178	2.250000e+00	4.741487e-05	
179	2.300000e+00	4.751314e-05	
180	2.350000e+00	4.760960e-05	
181	2.400000e+00	4.770435e-05	
182	2.450000e+00	4.779748e-05	
183	2.500000e+00	4.788908e-05	
184	2.550000e+00	4.797924e-05	
185	2.600000e+00	4.806803e-05	
186	2.650000e+00	4.815552e-05	
187	2.700000e+00	4.824178e-05	
188	2.750000e+00	4.832687e-05	
189	2.800000e+00	4.841084e-05	
190	2.850000e+00	4.849376e-05	
191	2.900000e+00	4.857567e-05	
192	2.950000e+00	4.865663e-05	
193	3.000000e+00	4.873667e-05	
194	3.050000e+00	4.881586e-05	
195	3.100000e+00	4.889424e-05	
196	3.150000e+00	4.897186e-05	
197	3.200000e+00	4.904877e-05	
198	3.250000e+00	4.912501e-05	
199	3.300000e+00	4.920065e-05	
200	3.350000e+00	4.927574e-05	
201	3.400000e+00	4.935033e-05	
202	3.450000e+00	4.942450e-05	
203	3.500000e+00	4.949832e-05	
204	3.550000e+00	4.957185e-05	
205	3.600000e+00	4.964519e-05	
206	3.650000e+00	4.971843e-05	
207	3.700000e+00	4.979167e-05	
208	3.750000e+00	4.986501e-05	
209	3.800000e+00	4.993857e-05	
210	3.850000e+00	5.001249e-05	
211	3.900000e+00	5.008691e-05	
212	3.950000e+00	5.016198e-05	
213	4.000000e+00	5.023787e-05	
214	4.050000e+00	5.031477e-05	
215	4.100000e+00	5.039287e-05	
216	4.150000e+00	5.047238e-05	
217	4.200000e+00	5.055353e-05	
218	4.250000e+00	5.063656e-05	
219	4.300000e+00	5.072175e-05	
220	4.350000e+00	5.080937e-05	
221	4.400000e+00	5.089971e-05	
222	4.450000e+00	5.099311e-05	
223	4.500000e+00	5.108988e-05	
224	4.550000e+00	5.119039e-05	
225	4.600000e+00	5.129502e-05	
226	4.650000e+00	5.140416e-05	
227	4.700000e+00	5.151822e-05	
228	4.750000e+00	5.163764e-05	

Index   v-sweep         -i(vds)         
--------------------------------------------------------------------------------
229	4.800000e+00	5.176288e-05	
230	4.850000e+00	5.189442e-05	
231	4.900000e+00	5.203275e-05	
232	4.950000e+00	5.217840e-05	
233	5.000000e+00	5.233189e-05	
234	5.050000e+00	5.249379e-05	
235	5.100000e+00	5.266468e-05	
236	5.150000e+00	5.284516e-05	
237	5.200000e+00	5.303585e-05	
238	5.250000e+00	5.323738e-05	
239	5.300000e+00	5.345042e-05	
240	5.350000e+00	5.367564e-05	
241	5.400000e+00	5.391373e-05	
242	5.450000e+00	5.416542e-05	
243	5.500000e+00	5.443143e-05	
244	5.550000e+00	5.471251e-05	
245	5.600000e+00	5.500942e-05	
246	5.650000e+00	5.532296e-05	
247	5.700000e+00	5.565392e-05	
248	5.750000e+00	5.600311e-05	
249	5.800000e+00	5.637136e-05	
250	5.850000e+00	5.675952e-05	
251	5.900000e+00	5.716845e-05	
252	5.950000e+00	5.759901e-05	
253	6.000000e+00	5.805209e-05	
254	6.050000e+00	5.852860e-05	
255	6.100000e+00	5.902943e-05	
256	6.150000e+00	5.955551e-05	
257	6.200000e+00	6.010776e-05	
258	6.250000e+00	6.068714e-05	
259	6.300000e+00	6.129458e-05	
260	6.350000e+00	6.193106e-05	
261	6.400000e+00	6.259754e-05	
262	6.450000e+00	6.329498e-05	
263	6.500000e+00	6.402439e-05	
264	6.550000e+00	6.478675e-05	
265	6.600000e+00	6.558305e-05	
266	0.000000e+00	-0.000000e+00	
267	5.000000e-02	7.524961e-06	
268	1.000000e-01	1.464466e-05	
269	1.500000e-01	2.137368e-05	
270	2.000000e-01	2.772583e-05	
271	2.500000e-01	3.371409e-05	
272	3.000000e-01	3.935054e-05	
273	3.500000e-01	4.464642e-05	
274	4.000000e-01	4.961210e-05	
275	4.500000e-01	5.425723e-05	
276	5.000000e-01	5.859081e-05	
277	5.500000e-01	6.262138e-05	
278	6.000000e-01	6.635709e-05	
279	6.500000e-01	6.980575e-05	
280	7.000000e-01	7.297476e-05	
281	7.500000e-01	7.587084e-05	
282	8.000000e-01	7.849949e-05	
283	8.500000e-01	8.086403e-05	
284	9.000000e-01	8.296455e-05	
285	9.500000e-01	8.479800e-05	
286	1.000000e+00	8.636260e-05	

Index   v-sweep         -i(vds)         
--------------------------------------------------------------------------------
287	1.050000e+00	8.766765e-05	
288	1.100000e+00	8.874079e-05	
289	1.150000e+00	8.962289e-05	
290	1.200000e+00	9.035604e-05	
291	1.250000e+00	9.097562e-05	
292	1.300000e+00	9.150855e-05	
293	1.350000e+00	9.197455e-05	
294	1.400000e+00	9.238795e-05	
295	1.450000e+00	9.275927e-05	
296	1.500000e+00	9.309634e-05	
297	1.550000e+00	9.340509e-05	
298	1.600000e+00	9.369010e-05	
299	1.650000e+00	9.395496e-05	
300	1.700000e+00	9.420252e-05	
301	1.750000e+00	9.443509e-05	
302	1.800000e+00	9.465455e-05	
303	1.850000e+00	9.486246e-05	
304	1.900000e+00	9.506011e-05	
305	1.950000e+00	9.524860e-05	
306	2.000000e+00	9.542886e-05	
307	2.050000e+00	9.560170e-05	
308	2.100000e+00	9.576779e-05	
309	2.150000e+00	9.592774e-05	
310	2.200000e+00	9.608208e-05	
311	2.250000e+00	9.623125e-05	
312	2.300000e+00	9.637567e-05	
313	2.350000e+00	9.651570e-05	
314	2.400000e+00	9.665166e-05	
315	2.450000e+00	9.678383e-05	
316	2.500000e+00	9.691248e-05	
317	2.550000e+00	9.703783e-05	
318	2.600000e+00	9.716010e-05	
319	2.650000e+00	9.727948e-05	
320	2.700000e+00	9.739614e-05	
321	2.750000e+00	9.751025e-05	
322	2.800000e+00	9.762194e-05	
323	2.850000e+00	9.773136e-05	
324	2.900000e+00	9.783862e-05	
325	2.950000e+00	9.794384e-05	
326	3.000000e+00	9.804712e-05	
327	3.050000e+00	9.814858e-05	
328	3.100000e+00	9.824829e-05	
329	3.150000e+00	9.834635e-05	
330	3.200000e+00	9.844284e-05	
331	3.250000e+00	9.853784e-05	
332	3.300000e+00	9.863144e-05	
333	3.350000e+00	9.872371e-05	
334	3.400000e+00	9.881473e-05	
335	3.450000e+00	9.890458e-05	
336	3.500000e+00	9.899335e-05	
337	3.550000e+00	9.908111e-05	
338	3.600000e+00	9.916796e-05	
339	3.650000e+00	9.925400e-05	
340	3.700000e+00	9.933932e-05	
341	3.750000e+00	9.942405e-05	
342	3.800000e+00	9.950831e-05	
343	3.850000e+00	9.959223e-05	
344	3.900000e+00	9.967596e-05	

Index   v-sweep         -i(vds)         
--------------------------------------------------------------------------------
345	3.950000e+00	9.975967e-05	
346	4.000000e+00	9.984354e-05	
347	4.050000e+00	9.992776e-05	
348	4.100000e+00	1.000126e-04	
349	4.150000e+00	1.000982e-04	
350	4.200000e+00	1.001849e-04	
351	4.250000e+00	1.002729e-04	
352	4.300000e+00	1.003626e-04	
353	4.350000e+00	1.004544e-04	
354	4.400000e+00	1.005485e-04	
355	4.450000e+00	1.006454e-04	
356	4.500000e+00	1.007456e-04	
357	4.550000e+00	1.008494e-04	
358	4.600000e+00	1.009574e-04	
359	4.650000e+00	1.010701e-04	
360	4.700000e+00	1.011880e-04	
361	4.750000e+00	1.013118e-04	
362	4.800000e+00	1.014421e-04	
363	4.850000e+00	1.015796e-04	
364	4.900000e+00	1.017250e-04	
365	4.950000e+00	1.018791e-04	
366	5.000000e+00	1.020426e-04	
367	5.050000e+00	1.022163e-04	
368	5.100000e+00	1.024012e-04	
369	5.150000e+00	1.025981e-04	
370	5.200000e+00	1.028080e-04	
371	5.250000e+00	1.030319e-04	
372	5.300000e+00	1.032708e-04	
373	5.350000e+00	1.035258e-04	
374	5.400000e+00	1.037979e-04	
375	5.450000e+00	1.040884e-04	
376	5.500000e+00	1.043983e-04	
377	5.550000e+00	1.047290e-04	
378	5.600000e+00	1.050816e-04	
379	5.650000e+00	1.054575e-04	
380	5.700000e+00	1.058580e-04	
381	5.750000e+00	1.062844e-04	
382	5.800000e+00	1.067381e-04	
383	5.850000e+00	1.072206e-04	
384	5.900000e+00	1.077332e-04	
385	5.950000e+00	1.082776e-04	
386	6.000000e+00	1.088552e-04	
387	6.050000e+00	1.094675e-04	
388	6.100000e+00	1.101162e-04	
389	6.150000e+00	1.108028e-04	
390	6.200000e+00	1.115289e-04	
391	6.250000e+00	1.122962e-04	
392	6.300000e+00	1.131064e-04	
393	6.350000e+00	1.139612e-04	
394	6.400000e+00	1.148622e-04	
395	6.450000e+00	1.158113e-04	
396	6.500000e+00	1.168101e-04	
397	6.550000e+00	1.178605e-04	
398	6.600000e+00	1.189642e-04	
399	0.000000e+00	-0.000000e+00	
400	5.000000e-02	9.477595e-06	
401	1.000000e-01	1.853851e-05	
402	1.500000e-01	2.719711e-05	

Index   v-sweep         -i(vds)         
--------------------------------------------------------------------------------
403	2.000000e-01	3.546706e-05	
404	2.500000e-01	4.336124e-05	
405	3.000000e-01	5.089176e-05	
406	3.500000e-01	5.806986e-05	
407	4.000000e-01	6.490593e-05	
408	4.500000e-01	7.140953e-05	
409	5.000000e-01	7.758943e-05	
410	5.500000e-01	8.345374e-05	
411	6.000000e-01	8.900999e-05	
412	6.500000e-01	9.426528e-05	
413	7.000000e-01	9.922641e-05	
414	7.500000e-01	1.039000e-04	
415	8.000000e-01	1.082925e-04	
416	8.500000e-01	1.124104e-04	
417	9.000000e-01	1.162600e-04	
418	9.500000e-01	1.198473e-04	
419	1.000000e+00	1.231776e-04	
420	1.050000e+00	1.262552e-04	
421	1.100000e+00	1.290823e-04	
422	1.150000e+00	1.316578e-04	
423	1.200000e+00	1.339766e-04	
424	1.250000e+00	1.360306e-04	
425	1.300000e+00	1.378136e-04	
426	1.350000e+00	1.393306e-04	
427	1.400000e+00	1.406036e-04	
428	1.450000e+00	1.416684e-04	
429	1.500000e+00	1.425643e-04	
430	1.550000e+00	1.433269e-04	
431	1.600000e+00	1.439851e-04	
432	1.650000e+00	1.445611e-04	
433	1.700000e+00	1.450716e-04	
434	1.750000e+00	1.455291e-04	
435	1.800000e+00	1.459433e-04	
436	1.850000e+00	1.463215e-04	
437	1.900000e+00	1.466695e-04	
438	1.950000e+00	1.469917e-04	
439	2.000000e+00	1.472918e-04	
440	2.050000e+00	1.475727e-04	
441	2.100000e+00	1.478369e-04	
442	2.150000e+00	1.480863e-04	
443	2.200000e+00	1.483225e-04	
444	2.250000e+00	1.485471e-04	
445	2.300000e+00	1.487611e-04	
446	2.350000e+00	1.489657e-04	
447	2.400000e+00	1.491616e-04	
448	2.450000e+00	1.493498e-04	
449	2.500000e+00	1.495307e-04	
450	2.550000e+00	1.497051e-04	
451	2.600000e+00	1.498734e-04	
452	2.650000e+00	1.500362e-04	
453	2.700000e+00	1.501938e-04	
454	2.750000e+00	1.503465e-04	
455	2.800000e+00	1.504948e-04	
456	2.850000e+00	1.506389e-04	
457	2.900000e+00	1.507791e-04	
458	2.950000e+00	1.509156e-04	
459	3.000000e+00	1.510487e-04	
460	3.050000e+00	1.511786e-04	

Index   v-sweep         -i(vds)         
--------------------------------------------------------------------------------
461	3.100000e+00	1.513054e-04	
462	3.150000e+00	1.514293e-04	
463	3.200000e+00	1.515505e-04	
464	3.250000e+00	1.516691e-04	
465	3.300000e+00	1.517852e-04	
466	3.350000e+00	1.518991e-04	
467	3.400000e+00	1.520108e-04	
468	3.450000e+00	1.521204e-04	
469	3.500000e+00	1.522280e-04	
470	3.550000e+00	1.523337e-04	
471	3.600000e+00	1.524377e-04	
472	3.650000e+00	1.525401e-04	
473	3.700000e+00	1.526409e-04	
474	3.750000e+00	1.527403e-04	
475	3.800000e+00	1.528383e-04	
476	3.850000e+00	1.529352e-04	
477	3.900000e+00	1.530309e-04	
478	3.950000e+00	1.531258e-04	
479	4.000000e+00	1.532198e-04	
480	4.050000e+00	1.533133e-04	
481	4.100000e+00	1.534063e-04	
482	4.150000e+00	1.534991e-04	
483	4.200000e+00	1.535919e-04	
484	4.250000e+00	1.536849e-04	
485	4.300000e+00	1.537784e-04	
486	4.350000e+00	1.538728e-04	
487	4.400000e+00	1.539683e-04	
488	4.450000e+00	1.540654e-04	
489	4.500000e+00	1.541643e-04	
490	4.550000e+00	1.542657e-04	
491	4.600000e+00	1.543699e-04	
492	4.650000e+00	1.544774e-04	
493	4.700000e+00	1.545889e-04	
494	4.750000e+00	1.547050e-04	
495	4.800000e+00	1.548263e-04	
496	4.850000e+00	1.549535e-04	
497	4.900000e+00	1.550874e-04	
498	4.950000e+00	1.552289e-04	
499	5.000000e+00	1.553787e-04	
500	5.050000e+00	1.555379e-04	
501	5.100000e+00	1.557073e-04	
502	5.150000e+00	1.558881e-04	
503	5.200000e+00	1.560814e-04	
504	5.250000e+00	1.562882e-04	
505	5.300000e+00	1.565099e-04	
506	5.350000e+00	1.567477e-04	
507	5.400000e+00	1.570029e-04	
508	5.450000e+00	1.572770e-04	
509	5.500000e+00	1.575713e-04	
510	5.550000e+00	1.578876e-04	
511	5.600000e+00	1.582272e-04	
512	5.650000e+00	1.585918e-04	
513	5.700000e+00	1.589832e-04	
514	5.750000e+00	1.594031e-04	
515	5.800000e+00	1.598533e-04	
516	5.850000e+00	1.603357e-04	
517	5.900000e+00	1.608522e-04	
518	5.950000e+00	1.614048e-04	

Index   v-sweep         -i(vds)         
--------------------------------------------------------------------------------
519	6.000000e+00	1.619954e-04	
520	6.050000e+00	1.626263e-04	
521	6.100000e+00	1.632995e-04	
522	6.150000e+00	1.640172e-04	
523	6.200000e+00	1.647816e-04	
524	6.250000e+00	1.655951e-04	
525	6.300000e+00	1.664599e-04	
526	6.350000e+00	1.673783e-04	
527	6.400000e+00	1.683529e-04	
528	6.450000e+00	1.693860e-04	
529	6.500000e+00	1.704801e-04	
530	6.550000e+00	1.716377e-04	
531	6.600000e+00	1.728614e-04	
532	0.000000e+00	-0.000000e+00	
533	5.000000e-02	1.096521e-05	
534	1.000000e-01	2.151839e-05	
535	1.500000e-01	3.167282e-05	
536	2.000000e-01	4.144116e-05	
537	2.500000e-01	5.083547e-05	
538	3.000000e-01	5.986713e-05	
539	3.500000e-01	6.854680e-05	
540	4.000000e-01	7.688443e-05	
541	4.500000e-01	8.488921e-05	
542	5.000000e-01	9.256960e-05	
543	5.500000e-01	9.993335e-05	
544	6.000000e-01	1.069876e-04	
545	6.500000e-01	1.137388e-04	
546	7.000000e-01	1.201932e-04	
547	7.500000e-01	1.263564e-04	
548	8.000000e-01	1.322339e-04	
549	8.500000e-01	1.378312e-04	
550	9.000000e-01	1.431533e-04	
551	9.500000e-01	1.482058e-04	
552	1.000000e+00	1.529938e-04	
553	1.050000e+00	1.575230e-04	
554	1.100000e+00	1.617988e-04	
555	1.150000e+00	1.658266e-04	
556	1.200000e+00	1.696115e-04	
557	1.250000e+00	1.731582e-04	
558	1.300000e+00	1.764703e-04	
559	1.350000e+00	1.795495e-04	
560	1.400000e+00	1.823949e-04	
561	1.450000e+00	1.850020e-04	
562	1.500000e+00	1.873626e-04	
563	1.550000e+00	1.894669e-04	
564	1.600000e+00	1.913094e-04	
565	1.650000e+00	1.928962e-04	
566	1.700000e+00	1.942482e-04	
567	1.750000e+00	1.953972e-04	
568	1.800000e+00	1.963780e-04	
569	1.850000e+00	1.972228e-04	
570	1.900000e+00	1.979587e-04	
571	1.950000e+00	1.986070e-04	
572	2.000000e+00	1.991843e-04	
573	2.050000e+00	1.997036e-04	
574	2.100000e+00	2.001747e-04	
575	2.150000e+00	2.006055e-04	
576	2.200000e+00	2.010022e-04	

Index   v-sweep         -i(vds)         
--------------------------------------------------------------------------------
577	2.250000e+00	2.013697e-04	
578	2.300000e+00	2.017120e-04	
579	2.350000e+00	2.020323e-04	
580	2.400000e+00	2.023333e-04	
581	2.450000e+00	2.026173e-04	
582	2.500000e+00	2.028862e-04	
583	2.550000e+00	2.031415e-04	
584	2.600000e+00	2.033846e-04	
585	2.650000e+00	2.036167e-04	
586	2.700000e+00	2.038388e-04	
587	2.750000e+00	2.040518e-04	
588	2.800000e+00	2.042564e-04	
589	2.850000e+00	2.044533e-04	
590	2.900000e+00	2.046432e-04	
591	2.950000e+00	2.048266e-04	
592	3.000000e+00	2.050039e-04	
593	3.050000e+00	2.051755e-04	
594	3.100000e+00	2.053420e-04	
595	3.150000e+00	2.055035e-04	
596	3.200000e+00	2.056605e-04	
597	3.250000e+00	2.058131e-04	
598	3.300000e+00	2.059618e-04	
599	3.350000e+00	2.061066e-04	
600	3.400000e+00	2.062478e-04	
601	3.450000e+00	2.063857e-04	
602	3.500000e+00	2.065204e-04	
603	3.550000e+00	2.066520e-04	
604	3.600000e+00	2.067808e-04	
605	3.650000e+00	2.069069e-04	
606	3.700000e+00	2.070304e-04	
607	3.750000e+00	2.071515e-04	
608	3.800000e+00	2.072703e-04	
609	3.850000e+00	2.073869e-04	
610	3.900000e+00	2.075015e-04	
611	3.950000e+00	2.076142e-04	
612	4.000000e+00	2.077251e-04	
613	4.050000e+00	2.078343e-04	
614	4.100000e+00	2.079421e-04	
615	4.150000e+00	2.080485e-04	
616	4.200000e+00	2.081538e-04	
617	4.250000e+00	2.082581e-04	
618	4.300000e+00	2.083617e-04	
619	4.350000e+00	2.084646e-04	
620	4.400000e+00	2.085673e-04	
621	4.450000e+00	2.086700e-04	
622	4.500000e+00	2.087730e-04	
623	4.550000e+00	2.088766e-04	
624	4.600000e+00	2.089813e-04	
625	4.650000e+00	2.090874e-04	
626	4.700000e+00	2.091953e-04	
627	4.750000e+00	2.093057e-04	
628	4.800000e+00	2.094191e-04	
629	4.850000e+00	2.095361e-04	
630	4.900000e+00	2.096573e-04	
631	4.950000e+00	2.097835e-04	
632	5.000000e+00	2.099155e-04	
633	5.050000e+00	2.100542e-04	
634	5.100000e+00	2.102004e-04	

Index   v-sweep         -i(vds)         
--------------------------------------------------------------------------------
635	5.150000e+00	2.103551e-04	
636	5.200000e+00	2.105195e-04	
637	5.250000e+00	2.106946e-04	
638	5.300000e+00	2.108817e-04	
639	5.350000e+00	2.110820e-04	
640	5.400000e+00	2.112969e-04	
641	5.450000e+00	2.115279e-04	
642	5.500000e+00	2.117764e-04	
643	5.550000e+00	2.120442e-04	
644	5.600000e+00	2.123328e-04	
645	5.650000e+00	2.126440e-04	
646	5.700000e+00	2.129797e-04	
647	5.750000e+00	2.133419e-04	
648	5.800000e+00	2.137324e-04	
649	5.850000e+00	2.141535e-04	
650	5.900000e+00	2.146073e-04	
651	5.950000e+00	2.150961e-04	
652	6.000000e+00	2.156221e-04	
653	6.050000e+00	2.161878e-04	
654	6.100000e+00	2.167957e-04	
655	6.150000e+00	2.174484e-04	
656	6.200000e+00	2.181484e-04	
657	6.250000e+00	2.188986e-04	
658	6.300000e+00	2.197017e-04	
659	6.350000e+00	2.205605e-04	
660	6.400000e+00	2.214779e-04	
661	6.450000e+00	2.224571e-04	
662	6.500000e+00	2.235009e-04	
663	6.550000e+00	2.246125e-04	
664	6.600000e+00	2.257951e-04	
665	0.000000e+00	-0.000000e+00	
666	5.000000e-02	1.205835e-05	
667	1.000000e-01	2.372103e-05	
668	1.500000e-01	3.499979e-05	
669	2.000000e-01	4.590591e-05	
670	2.500000e-01	5.645016e-05	
671	3.000000e-01	6.664278e-05	
672	3.500000e-01	7.649349e-05	
673	4.000000e-01	8.601142e-05	
674	4.500000e-01	9.520509e-05	
675	5.000000e-01	1.040824e-04	
676	5.500000e-01	1.126507e-04	
677	6.000000e-01	1.209168e-04	
678	6.500000e-01	1.288867e-04	
679	7.000000e-01	1.365662e-04	
680	7.500000e-01	1.439605e-04	
681	8.000000e-01	1.510746e-04	
682	8.500000e-01	1.579129e-04	
683	9.000000e-01	1.644799e-04	
684	9.500000e-01	1.707800e-04	
685	1.000000e+00	1.768172e-04	
686	1.050000e+00	1.825958e-04	
687	1.100000e+00	1.881202e-04	
688	1.150000e+00	1.933948e-04	
689	1.200000e+00	1.984241e-04	
690	1.250000e+00	2.032129e-04	
691	1.300000e+00	2.077660e-04	
692	1.350000e+00	2.120881e-04	

Index   v-sweep         -i(vds)         
--------------------------------------------------------------------------------
693	1.400000e+00	2.161841e-04	
694	1.450000e+00	2.200585e-04	
695	1.500000e+00	2.237154e-04	
696	1.550000e+00	2.271580e-04	
697	1.600000e+00	2.303881e-04	
698	1.650000e+00	2.334055e-04	
699	1.700000e+00	2.362069e-04	
700	1.750000e+00	2.387858e-04	
701	1.800000e+00	2.411328e-04	
702	1.850000e+00	2.432384e-04	
703	1.900000e+00	2.450986e-04	
704	1.950000e+00	2.467197e-04	
705	2.000000e+00	2.481207e-04	
706	2.050000e+00	2.493287e-04	
707	2.100000e+00	2.503739e-04	
708	2.150000e+00	2.512848e-04	
709	2.200000e+00	2.520856e-04	
710	2.250000e+00	2.527964e-04	
711	2.300000e+00	2.534332e-04	
712	2.350000e+00	2.540085e-04	
713	2.400000e+00	2.545323e-04	
714	2.450000e+00	2.550126e-04	
715	2.500000e+00	2.554558e-04	
716	2.550000e+00	2.558671e-04	
717	2.600000e+00	2.562505e-04	
718	2.650000e+00	2.566097e-04	
719	2.700000e+00	2.569474e-04	
720	2.750000e+00	2.572662e-04	
721	2.800000e+00	2.575680e-04	
722	2.850000e+00	2.578547e-04	
723	2.900000e+00	2.581276e-04	
724	2.950000e+00	2.583881e-04	
725	3.000000e+00	2.586373e-04	
726	3.050000e+00	2.588763e-04	
727	3.100000e+00	2.591057e-04	
728	3.150000e+00	2.593265e-04	
729	3.200000e+00	2.595392e-04	
730	3.250000e+00	2.597446e-04	
731	3.300000e+00	2.599430e-04	
732	3.350000e+00	2.601351e-04	
733	3.400000e+00	2.603211e-04	
734	3.450000e+00	2.605016e-04	
735	3.500000e+00	2.606769e-04	
736	3.550000e+00	2.608472e-04	
737	3.600000e+00	2.610130e-04	
738	3.650000e+00	2.611744e-04	
739	3.700000e+00	2.613317e-04	
740	3.750000e+00	2.614851e-04	
741	3.800000e+00	2.616349e-04	
742	3.850000e+00	2.617812e-04	
743	3.900000e+00	2.619243e-04	
744	3.950000e+00	2.620642e-04	
745	4.000000e+00	2.622013e-04	
746	4.050000e+00	2.623355e-04	
747	4.100000e+00	2.624671e-04	
748	4.150000e+00	2.625963e-04	
749	4.200000e+00	2.627231e-04	
750	4.250000e+00	2.628478e-04	

Index   v-sweep         -i(vds)         
--------------------------------------------------------------------------------
751	4.300000e+00	2.629704e-04	
752	4.350000e+00	2.630913e-04	
753	4.400000e+00	2.632105e-04	
754	4.450000e+00	2.633283e-04	
755	4.500000e+00	2.634448e-04	
756	4.550000e+00	2.635603e-04	
757	4.600000e+00	2.636751e-04	
758	4.650000e+00	2.637894e-04	
759	4.700000e+00	2.639036e-04	
760	4.750000e+00	2.640180e-04	
761	4.800000e+00	2.641331e-04	
762	4.850000e+00	2.642492e-04	
763	4.900000e+00	2.643669e-04	
764	4.950000e+00	2.644867e-04	
765	5.000000e+00	2.646093e-04	
766	5.050000e+00	2.647351e-04	
767	5.100000e+00	2.648651e-04	
768	5.150000e+00	2.650000e-04	
769	5.200000e+00	2.651406e-04	
770	5.250000e+00	2.652879e-04	
771	5.300000e+00	2.654430e-04	
772	5.350000e+00	2.656069e-04	
773	5.400000e+00	2.657808e-04	
774	5.450000e+00	2.659660e-04	
775	5.500000e+00	2.661639e-04	
776	5.550000e+00	2.663759e-04	
777	5.600000e+00	2.666036e-04	
778	5.650000e+00	2.668487e-04	
779	5.700000e+00	2.671129e-04	
780	5.750000e+00	2.673980e-04	
781	5.800000e+00	2.677061e-04	
782	5.850000e+00	2.680391e-04	
783	5.900000e+00	2.683993e-04	
784	5.950000e+00	2.687889e-04	
785	6.000000e+00	2.692104e-04	
786	6.050000e+00	2.696661e-04	
787	6.100000e+00	2.701586e-04	
788	6.150000e+00	2.706907e-04	
789	6.200000e+00	2.712651e-04	
790	6.250000e+00	2.718848e-04	
791	6.300000e+00	2.725526e-04	
792	6.350000e+00	2.732717e-04	
793	6.400000e+00	2.740453e-04	
794	6.450000e+00	2.748766e-04	
795	6.500000e+00	2.757691e-04	
796	6.550000e+00	2.767261e-04	
797	6.600000e+00	2.777513e-04	
Note: No ".plot", ".print", or ".fourier" lines; no simulations run
