
Note: Compatibility modes selected: hs

Warning: m=xx on .subckt line will override multiplier m hierarchy!


Circuit: ***************************

Doing analysis at TEMP = 125.000000 and TNOM = 125.000000


No. of Data Rows : 798
                          ***************************
                          DC transfer characteristic  Mon Jan  9 13:57:41  2023
--------------------------------------------------------------------------------
Index   v-sweep         -i(vds)         
--------------------------------------------------------------------------------
0	0.000000e+00	-0.000000e+00	
1	5.000000e-02	1.630669e-06	
2	1.000000e-01	2.907804e-06	
3	1.500000e-01	3.943807e-06	
4	2.000000e-01	4.768313e-06	
5	2.500000e-01	5.391660e-06	
6	3.000000e-01	5.823486e-06	
7	3.500000e-01	6.084206e-06	
8	4.000000e-01	6.216188e-06	
9	4.500000e-01	6.275408e-06	
10	5.000000e-01	6.302896e-06	
11	5.500000e-01	6.317644e-06	
12	6.000000e-01	6.326949e-06	
13	6.500000e-01	6.333659e-06	
14	7.000000e-01	6.338997e-06	
15	7.500000e-01	6.343540e-06	
16	8.000000e-01	6.347590e-06	
17	8.500000e-01	6.351314e-06	
18	9.000000e-01	6.354812e-06	
19	9.500000e-01	6.358149e-06	
20	1.000000e+00	6.361364e-06	
21	1.050000e+00	6.364487e-06	
22	1.100000e+00	6.367537e-06	
23	1.150000e+00	6.370529e-06	
24	1.200000e+00	6.373474e-06	
25	1.250000e+00	6.376379e-06	
26	1.300000e+00	6.379251e-06	
27	1.350000e+00	6.382094e-06	
28	1.400000e+00	6.384914e-06	
29	1.450000e+00	6.387712e-06	
30	1.500000e+00	6.390492e-06	
31	1.550000e+00	6.393256e-06	
32	1.600000e+00	6.396006e-06	
33	1.650000e+00	6.398742e-06	
34	1.700000e+00	6.401467e-06	
35	1.750000e+00	6.404182e-06	
36	1.800000e+00	6.406887e-06	
37	1.850000e+00	6.409583e-06	
38	1.900000e+00	6.412271e-06	
39	1.950000e+00	6.414953e-06	
40	2.000000e+00	6.417627e-06	
41	2.050000e+00	6.420295e-06	
42	2.100000e+00	6.422958e-06	
43	2.150000e+00	6.425615e-06	
44	2.200000e+00	6.428267e-06	
45	2.250000e+00	6.430914e-06	
46	2.300000e+00	6.433558e-06	
47	2.350000e+00	6.436198e-06	
48	2.400000e+00	6.438834e-06	
49	2.450000e+00	6.441467e-06	
50	2.500000e+00	6.444097e-06	
51	2.550000e+00	6.446726e-06	
52	2.600000e+00	6.449354e-06	
53	2.650000e+00	6.451981e-06	
54	2.700000e+00	6.454608e-06	

Index   v-sweep         -i(vds)         
--------------------------------------------------------------------------------
55	2.750000e+00	6.457238e-06	
56	2.800000e+00	6.459870e-06	
57	2.850000e+00	6.462508e-06	
58	2.900000e+00	6.465153e-06	
59	2.950000e+00	6.467808e-06	
60	3.000000e+00	6.470476e-06	
61	3.050000e+00	6.473160e-06	
62	3.100000e+00	6.475866e-06	
63	3.150000e+00	6.478598e-06	
64	3.200000e+00	6.481363e-06	
65	3.250000e+00	6.484166e-06	
66	3.300000e+00	6.487015e-06	
67	3.350000e+00	6.489921e-06	
68	3.400000e+00	6.492892e-06	
69	3.450000e+00	6.495940e-06	
70	3.500000e+00	6.499077e-06	
71	3.550000e+00	6.502318e-06	
72	3.600000e+00	6.505677e-06	
73	3.650000e+00	6.509173e-06	
74	3.700000e+00	6.512825e-06	
75	3.750000e+00	6.516651e-06	
76	3.800000e+00	6.520676e-06	
77	3.850000e+00	6.524924e-06	
78	3.900000e+00	6.529420e-06	
79	3.950000e+00	6.534194e-06	
80	4.000000e+00	6.539276e-06	
81	4.050000e+00	6.544698e-06	
82	4.100000e+00	6.550496e-06	
83	4.150000e+00	6.556707e-06	
84	4.200000e+00	6.563370e-06	
85	4.250000e+00	6.570526e-06	
86	4.300000e+00	6.578221e-06	
87	4.350000e+00	6.586501e-06	
88	4.400000e+00	6.595415e-06	
89	4.450000e+00	6.605013e-06	
90	4.500000e+00	6.615350e-06	
91	4.550000e+00	6.626483e-06	
92	4.600000e+00	6.638469e-06	
93	4.650000e+00	6.651369e-06	
94	4.700000e+00	6.665248e-06	
95	4.750000e+00	6.680170e-06	
96	4.800000e+00	6.696204e-06	
97	4.850000e+00	6.713420e-06	
98	4.900000e+00	6.731891e-06	
99	4.950000e+00	6.751691e-06	
100	5.000000e+00	6.772897e-06	
101	5.050000e+00	6.795590e-06	
102	5.100000e+00	6.819849e-06	
103	5.150000e+00	6.845759e-06	
104	5.200000e+00	6.873404e-06	
105	5.250000e+00	6.902872e-06	
106	5.300000e+00	6.934252e-06	
107	5.350000e+00	6.967635e-06	
108	5.400000e+00	7.003113e-06	
109	5.450000e+00	7.040781e-06	
110	5.500000e+00	7.080735e-06	
111	5.550000e+00	7.123073e-06	
112	5.600000e+00	7.167892e-06	

Index   v-sweep         -i(vds)         
--------------------------------------------------------------------------------
113	5.650000e+00	7.215295e-06	
114	5.700000e+00	7.265382e-06	
115	5.750000e+00	7.318257e-06	
116	5.800000e+00	7.374023e-06	
117	5.850000e+00	7.432787e-06	
118	5.900000e+00	7.494655e-06	
119	5.950000e+00	7.559734e-06	
120	6.000000e+00	7.628132e-06	
121	6.050000e+00	7.699960e-06	
122	6.100000e+00	7.775326e-06	
123	6.150000e+00	7.854342e-06	
124	6.200000e+00	7.937120e-06	
125	6.250000e+00	8.023770e-06	
126	6.300000e+00	8.114406e-06	
127	6.350000e+00	8.209141e-06	
128	6.400000e+00	8.308088e-06	
129	6.450000e+00	8.411361e-06	
130	6.500000e+00	8.519074e-06	
131	6.550000e+00	8.631341e-06	
132	6.600000e+00	8.748276e-06	
133	0.000000e+00	-0.000000e+00	
134	5.000000e-02	4.785232e-06	
135	1.000000e-01	9.211250e-06	
136	1.500000e-01	1.338998e-05	
137	2.000000e-01	1.734994e-05	
138	2.500000e-01	2.109874e-05	
139	3.000000e-01	2.463872e-05	
140	3.500000e-01	2.797094e-05	
141	4.000000e-01	3.109609e-05	
142	4.500000e-01	3.401482e-05	
143	5.000000e-01	3.672775e-05	
144	5.500000e-01	3.923553e-05	
145	6.000000e-01	4.153884e-05	
146	6.500000e-01	4.363839e-05	
147	7.000000e-01	4.553501e-05	
148	7.500000e-01	4.722965e-05	
149	8.000000e-01	4.872350e-05	
150	8.500000e-01	5.001823e-05	
151	9.000000e-01	5.111631e-05	
152	9.500000e-01	5.202176e-05	
153	1.000000e+00	5.274149e-05	
154	1.050000e+00	5.328755e-05	
155	1.100000e+00	5.367979e-05	
156	1.150000e+00	5.394683e-05	
157	1.200000e+00	5.412221e-05	
158	1.250000e+00	5.423691e-05	
159	1.300000e+00	5.431402e-05	
160	1.350000e+00	5.436836e-05	
161	1.400000e+00	5.440875e-05	
162	1.450000e+00	5.444033e-05	
163	1.500000e+00	5.446616e-05	
164	1.550000e+00	5.448806e-05	
165	1.600000e+00	5.450720e-05	
166	1.650000e+00	5.452434e-05	
167	1.700000e+00	5.453997e-05	
168	1.750000e+00	5.455445e-05	
169	1.800000e+00	5.456803e-05	
170	1.850000e+00	5.458089e-05	

Index   v-sweep         -i(vds)         
--------------------------------------------------------------------------------
171	1.900000e+00	5.459316e-05	
172	1.950000e+00	5.460495e-05	
173	2.000000e+00	5.461633e-05	
174	2.050000e+00	5.462737e-05	
175	2.100000e+00	5.463812e-05	
176	2.150000e+00	5.464862e-05	
177	2.200000e+00	5.465890e-05	
178	2.250000e+00	5.466899e-05	
179	2.300000e+00	5.467891e-05	
180	2.350000e+00	5.468867e-05	
181	2.400000e+00	5.469831e-05	
182	2.450000e+00	5.470782e-05	
183	2.500000e+00	5.471722e-05	
184	2.550000e+00	5.472652e-05	
185	2.600000e+00	5.473574e-05	
186	2.650000e+00	5.474487e-05	
187	2.700000e+00	5.475392e-05	
188	2.750000e+00	5.476290e-05	
189	2.800000e+00	5.477182e-05	
190	2.850000e+00	5.478069e-05	
191	2.900000e+00	5.478949e-05	
192	2.950000e+00	5.479825e-05	
193	3.000000e+00	5.480696e-05	
194	3.050000e+00	5.481562e-05	
195	3.100000e+00	5.482425e-05	
196	3.150000e+00	5.483284e-05	
197	3.200000e+00	5.484140e-05	
198	3.250000e+00	5.484993e-05	
199	3.300000e+00	5.485844e-05	
200	3.350000e+00	5.486693e-05	
201	3.400000e+00	5.487542e-05	
202	3.450000e+00	5.488391e-05	
203	3.500000e+00	5.489241e-05	
204	3.550000e+00	5.490093e-05	
205	3.600000e+00	5.490950e-05	
206	3.650000e+00	5.491813e-05	
207	3.700000e+00	5.492684e-05	
208	3.750000e+00	5.493566e-05	
209	3.800000e+00	5.494463e-05	
210	3.850000e+00	5.495378e-05	
211	3.900000e+00	5.496316e-05	
212	3.950000e+00	5.497281e-05	
213	4.000000e+00	5.498280e-05	
214	4.050000e+00	5.499320e-05	
215	4.100000e+00	5.500408e-05	
216	4.150000e+00	5.501553e-05	
217	4.200000e+00	5.502765e-05	
218	4.250000e+00	5.504054e-05	
219	4.300000e+00	5.505434e-05	
220	4.350000e+00	5.506917e-05	
221	4.400000e+00	5.508519e-05	
222	4.450000e+00	5.510255e-05	
223	4.500000e+00	5.512144e-05	
224	4.550000e+00	5.514206e-05	
225	4.600000e+00	5.516460e-05	
226	4.650000e+00	5.518932e-05	
227	4.700000e+00	5.521644e-05	
228	4.750000e+00	5.524623e-05	

Index   v-sweep         -i(vds)         
--------------------------------------------------------------------------------
229	4.800000e+00	5.527898e-05	
230	4.850000e+00	5.531500e-05	
231	4.900000e+00	5.535459e-05	
232	4.950000e+00	5.539811e-05	
233	5.000000e+00	5.544591e-05	
234	5.050000e+00	5.549838e-05	
235	5.100000e+00	5.555592e-05	
236	5.150000e+00	5.561895e-05	
237	5.200000e+00	5.568792e-05	
238	5.250000e+00	5.576328e-05	
239	5.300000e+00	5.584553e-05	
240	5.350000e+00	5.593517e-05	
241	5.400000e+00	5.603273e-05	
242	5.450000e+00	5.613874e-05	
243	5.500000e+00	5.625378e-05	
244	5.550000e+00	5.637843e-05	
245	5.600000e+00	5.651329e-05	
246	5.650000e+00	5.665900e-05	
247	5.700000e+00	5.681618e-05	
248	5.750000e+00	5.698551e-05	
249	5.800000e+00	5.716767e-05	
250	5.850000e+00	5.736334e-05	
251	5.900000e+00	5.757324e-05	
252	5.950000e+00	5.779811e-05	
253	6.000000e+00	5.803868e-05	
254	6.050000e+00	5.829573e-05	
255	6.100000e+00	5.857002e-05	
256	6.150000e+00	5.886236e-05	
257	6.200000e+00	5.917353e-05	
258	6.250000e+00	5.950438e-05	
259	6.300000e+00	5.985571e-05	
260	6.350000e+00	6.022839e-05	
261	6.400000e+00	6.062325e-05	
262	6.450000e+00	6.104118e-05	
263	6.500000e+00	6.148304e-05	
264	6.550000e+00	6.194971e-05	
265	6.600000e+00	6.244211e-05	
266	0.000000e+00	-0.000000e+00	
267	5.000000e-02	7.428619e-06	
268	1.000000e-01	1.451182e-05	
269	1.500000e-01	2.136146e-05	
270	2.000000e-01	2.800601e-05	
271	2.500000e-01	3.445301e-05	
272	3.000000e-01	4.070475e-05	
273	3.500000e-01	4.676218e-05	
274	4.000000e-01	5.262595e-05	
275	4.500000e-01	5.829661e-05	
276	5.000000e-01	6.377467e-05	
277	5.500000e-01	6.906067e-05	
278	6.000000e-01	7.415511e-05	
279	6.500000e-01	7.905852e-05	
280	7.000000e-01	8.377140e-05	
281	7.500000e-01	8.829428e-05	
282	8.000000e-01	9.262766e-05	
283	8.500000e-01	9.677205e-05	
284	9.000000e-01	1.007280e-04	
285	9.500000e-01	1.044959e-04	
286	1.000000e+00	1.080764e-04	

Index   v-sweep         -i(vds)         
--------------------------------------------------------------------------------
287	1.050000e+00	1.114700e-04	
288	1.100000e+00	1.146772e-04	
289	1.150000e+00	1.176985e-04	
290	1.200000e+00	1.205344e-04	
291	1.250000e+00	1.231856e-04	
292	1.300000e+00	1.256525e-04	
293	1.350000e+00	1.279358e-04	
294	1.400000e+00	1.300362e-04	
295	1.450000e+00	1.319544e-04	
296	1.500000e+00	1.336914e-04	
297	1.550000e+00	1.352483e-04	
298	1.600000e+00	1.366267e-04	
299	1.650000e+00	1.378288e-04	
300	1.700000e+00	1.388582e-04	
301	1.750000e+00	1.397200e-04	
302	1.800000e+00	1.404228e-04	
303	1.850000e+00	1.409791e-04	
304	1.900000e+00	1.414065e-04	
305	1.950000e+00	1.417269e-04	
306	2.000000e+00	1.419639e-04	
307	2.050000e+00	1.421393e-04	
308	2.100000e+00	1.422711e-04	
309	2.150000e+00	1.423723e-04	
310	2.200000e+00	1.424524e-04	
311	2.250000e+00	1.425175e-04	
312	2.300000e+00	1.425719e-04	
313	2.350000e+00	1.426185e-04	
314	2.400000e+00	1.426593e-04	
315	2.450000e+00	1.426955e-04	
316	2.500000e+00	1.427284e-04	
317	2.550000e+00	1.427584e-04	
318	2.600000e+00	1.427863e-04	
319	2.650000e+00	1.428123e-04	
320	2.700000e+00	1.428369e-04	
321	2.750000e+00	1.428602e-04	
322	2.800000e+00	1.428824e-04	
323	2.850000e+00	1.429037e-04	
324	2.900000e+00	1.429243e-04	
325	2.950000e+00	1.429442e-04	
326	3.000000e+00	1.429635e-04	
327	3.050000e+00	1.429822e-04	
328	3.100000e+00	1.430005e-04	
329	3.150000e+00	1.430184e-04	
330	3.200000e+00	1.430360e-04	
331	3.250000e+00	1.430531e-04	
332	3.300000e+00	1.430700e-04	
333	3.350000e+00	1.430866e-04	
334	3.400000e+00	1.431030e-04	
335	3.450000e+00	1.431191e-04	
336	3.500000e+00	1.431350e-04	
337	3.550000e+00	1.431507e-04	
338	3.600000e+00	1.431663e-04	
339	3.650000e+00	1.431817e-04	
340	3.700000e+00	1.431969e-04	
341	3.750000e+00	1.432120e-04	
342	3.800000e+00	1.432269e-04	
343	3.850000e+00	1.432418e-04	
344	3.900000e+00	1.432565e-04	

Index   v-sweep         -i(vds)         
--------------------------------------------------------------------------------
345	3.950000e+00	1.432711e-04	
346	4.000000e+00	1.432857e-04	
347	4.050000e+00	1.433001e-04	
348	4.100000e+00	1.433145e-04	
349	4.150000e+00	1.433289e-04	
350	4.200000e+00	1.433433e-04	
351	4.250000e+00	1.433576e-04	
352	4.300000e+00	1.433720e-04	
353	4.350000e+00	1.433865e-04	
354	4.400000e+00	1.434011e-04	
355	4.450000e+00	1.434159e-04	
356	4.500000e+00	1.434310e-04	
357	4.550000e+00	1.434463e-04	
358	4.600000e+00	1.434621e-04	
359	4.650000e+00	1.434784e-04	
360	4.700000e+00	1.434953e-04	
361	4.750000e+00	1.435131e-04	
362	4.800000e+00	1.435318e-04	
363	4.850000e+00	1.435516e-04	
364	4.900000e+00	1.435728e-04	
365	4.950000e+00	1.435956e-04	
366	5.000000e+00	1.436202e-04	
367	5.050000e+00	1.436470e-04	
368	5.100000e+00	1.436763e-04	
369	5.150000e+00	1.437085e-04	
370	5.200000e+00	1.437440e-04	
371	5.250000e+00	1.437831e-04	
372	5.300000e+00	1.438265e-04	
373	5.350000e+00	1.438746e-04	
374	5.400000e+00	1.439280e-04	
375	5.450000e+00	1.439874e-04	
376	5.500000e+00	1.440533e-04	
377	5.550000e+00	1.441265e-04	
378	5.600000e+00	1.442078e-04	
379	5.650000e+00	1.442979e-04	
380	5.700000e+00	1.443978e-04	
381	5.750000e+00	1.445083e-04	
382	5.800000e+00	1.446304e-04	
383	5.850000e+00	1.447651e-04	
384	5.900000e+00	1.449136e-04	
385	5.950000e+00	1.450768e-04	
386	6.000000e+00	1.452561e-04	
387	6.050000e+00	1.454526e-04	
388	6.100000e+00	1.456676e-04	
389	6.150000e+00	1.459025e-04	
390	6.200000e+00	1.461586e-04	
391	6.250000e+00	1.464374e-04	
392	6.300000e+00	1.467404e-04	
393	6.350000e+00	1.470692e-04	
394	6.400000e+00	1.474252e-04	
395	6.450000e+00	1.478103e-04	
396	6.500000e+00	1.482260e-04	
397	6.550000e+00	1.486741e-04	
398	6.600000e+00	1.491565e-04	
399	0.000000e+00	-0.000000e+00	
400	5.000000e-02	9.539652e-06	
401	1.000000e-01	1.875152e-05	
402	1.500000e-01	2.774738e-05	

Index   v-sweep         -i(vds)         
--------------------------------------------------------------------------------
403	2.000000e-01	3.655564e-05	
404	2.500000e-01	4.518376e-05	
405	3.000000e-01	5.363393e-05	
406	3.500000e-01	6.190707e-05	
407	4.000000e-01	7.000371e-05	
408	4.500000e-01	7.792435e-05	
409	5.000000e-01	8.566942e-05	
410	5.500000e-01	9.323938e-05	
411	6.000000e-01	1.006347e-04	
412	6.500000e-01	1.078557e-04	
413	7.000000e-01	1.149030e-04	
414	7.500000e-01	1.217769e-04	
415	8.000000e-01	1.284779e-04	
416	8.500000e-01	1.350063e-04	
417	9.000000e-01	1.413628e-04	
418	9.500000e-01	1.475476e-04	
419	1.000000e+00	1.535612e-04	
420	1.050000e+00	1.594041e-04	
421	1.100000e+00	1.650766e-04	
422	1.150000e+00	1.705792e-04	
423	1.200000e+00	1.759123e-04	
424	1.250000e+00	1.810763e-04	
425	1.300000e+00	1.860717e-04	
426	1.350000e+00	1.908989e-04	
427	1.400000e+00	1.955583e-04	
428	1.450000e+00	2.000502e-04	
429	1.500000e+00	2.043752e-04	
430	1.550000e+00	2.085336e-04	
431	1.600000e+00	2.125259e-04	
432	1.650000e+00	2.163524e-04	
433	1.700000e+00	2.200136e-04	
434	1.750000e+00	2.235099e-04	
435	1.800000e+00	2.268416e-04	
436	1.850000e+00	2.300093e-04	
437	1.900000e+00	2.330132e-04	
438	1.950000e+00	2.358540e-04	
439	2.000000e+00	2.385318e-04	
440	2.050000e+00	2.410473e-04	
441	2.100000e+00	2.434008e-04	
442	2.150000e+00	2.455928e-04	
443	2.200000e+00	2.476240e-04	
444	2.250000e+00	2.494948e-04	
445	2.300000e+00	2.512060e-04	
446	2.350000e+00	2.527587e-04	
447	2.400000e+00	2.541540e-04	
448	2.450000e+00	2.553938e-04	
449	2.500000e+00	2.564807e-04	
450	2.550000e+00	2.574190e-04	
451	2.600000e+00	2.582145e-04	
452	2.650000e+00	2.588761e-04	
453	2.700000e+00	2.594157e-04	
454	2.750000e+00	2.598484e-04	
455	2.800000e+00	2.601912e-04	
456	2.850000e+00	2.604615e-04	
457	2.900000e+00	2.606755e-04	
458	2.950000e+00	2.608465e-04	
459	3.000000e+00	2.609853e-04	
460	3.050000e+00	2.611000e-04	

Index   v-sweep         -i(vds)         
--------------------------------------------------------------------------------
461	3.100000e+00	2.611965e-04	
462	3.150000e+00	2.612791e-04	
463	3.200000e+00	2.613510e-04	
464	3.250000e+00	2.614146e-04	
465	3.300000e+00	2.614716e-04	
466	3.350000e+00	2.615233e-04	
467	3.400000e+00	2.615706e-04	
468	3.450000e+00	2.616144e-04	
469	3.500000e+00	2.616552e-04	
470	3.550000e+00	2.616935e-04	
471	3.600000e+00	2.617297e-04	
472	3.650000e+00	2.617641e-04	
473	3.700000e+00	2.617969e-04	
474	3.750000e+00	2.618283e-04	
475	3.800000e+00	2.618586e-04	
476	3.850000e+00	2.618877e-04	
477	3.900000e+00	2.619160e-04	
478	3.950000e+00	2.619434e-04	
479	4.000000e+00	2.619701e-04	
480	4.050000e+00	2.619960e-04	
481	4.100000e+00	2.620214e-04	
482	4.150000e+00	2.620462e-04	
483	4.200000e+00	2.620706e-04	
484	4.250000e+00	2.620944e-04	
485	4.300000e+00	2.621178e-04	
486	4.350000e+00	2.621409e-04	
487	4.400000e+00	2.621636e-04	
488	4.450000e+00	2.621859e-04	
489	4.500000e+00	2.622080e-04	
490	4.550000e+00	2.622297e-04	
491	4.600000e+00	2.622512e-04	
492	4.650000e+00	2.622725e-04	
493	4.700000e+00	2.622935e-04	
494	4.750000e+00	2.623143e-04	
495	4.800000e+00	2.623350e-04	
496	4.850000e+00	2.623555e-04	
497	4.900000e+00	2.623759e-04	
498	4.950000e+00	2.623962e-04	
499	5.000000e+00	2.624164e-04	
500	5.050000e+00	2.624367e-04	
501	5.100000e+00	2.624569e-04	
502	5.150000e+00	2.624773e-04	
503	5.200000e+00	2.624979e-04	
504	5.250000e+00	2.625188e-04	
505	5.300000e+00	2.625400e-04	
506	5.350000e+00	2.625619e-04	
507	5.400000e+00	2.625844e-04	
508	5.450000e+00	2.626077e-04	
509	5.500000e+00	2.626322e-04	
510	5.550000e+00	2.626581e-04	
511	5.600000e+00	2.626855e-04	
512	5.650000e+00	2.627150e-04	
513	5.700000e+00	2.627467e-04	
514	5.750000e+00	2.627813e-04	
515	5.800000e+00	2.628191e-04	
516	5.850000e+00	2.628606e-04	
517	5.900000e+00	2.629065e-04	
518	5.950000e+00	2.629574e-04	

Index   v-sweep         -i(vds)         
--------------------------------------------------------------------------------
519	6.000000e+00	2.630141e-04	
520	6.050000e+00	2.630772e-04	
521	6.100000e+00	2.631478e-04	
522	6.150000e+00	2.632266e-04	
523	6.200000e+00	2.633148e-04	
524	6.250000e+00	2.634134e-04	
525	6.300000e+00	2.635237e-04	
526	6.350000e+00	2.636468e-04	
527	6.400000e+00	2.637841e-04	
528	6.450000e+00	2.639372e-04	
529	6.500000e+00	2.641075e-04	
530	6.550000e+00	2.642967e-04	
531	6.600000e+00	2.645065e-04	
532	0.000000e+00	-0.000000e+00	
533	5.000000e-02	1.114660e-05	
534	1.000000e-01	2.198408e-05	
535	1.500000e-01	3.262418e-05	
536	2.000000e-01	4.309518e-05	
537	2.500000e-01	5.340449e-05	
538	3.000000e-01	6.355422e-05	
539	3.500000e-01	7.354521e-05	
540	4.000000e-01	8.337792e-05	
541	4.500000e-01	9.305276e-05	
542	5.000000e-01	1.025701e-04	
543	5.500000e-01	1.119303e-04	
544	6.000000e-01	1.211337e-04	
545	6.500000e-01	1.301808e-04	
546	7.000000e-01	1.390718e-04	
547	7.500000e-01	1.478072e-04	
548	8.000000e-01	1.563872e-04	
549	8.500000e-01	1.648123e-04	
550	9.000000e-01	1.730828e-04	
551	9.500000e-01	1.811990e-04	
552	1.000000e+00	1.891614e-04	
553	1.050000e+00	1.969703e-04	
554	1.100000e+00	2.046260e-04	
555	1.150000e+00	2.121289e-04	
556	1.200000e+00	2.194794e-04	
557	1.250000e+00	2.266777e-04	
558	1.300000e+00	2.337243e-04	
559	1.350000e+00	2.406195e-04	
560	1.400000e+00	2.473636e-04	
561	1.450000e+00	2.539571e-04	
562	1.500000e+00	2.604001e-04	
563	1.550000e+00	2.666931e-04	
564	1.600000e+00	2.728365e-04	
565	1.650000e+00	2.788305e-04	
566	1.700000e+00	2.846755e-04	
567	1.750000e+00	2.903719e-04	
568	1.800000e+00	2.959199e-04	
569	1.850000e+00	3.013199e-04	
570	1.900000e+00	3.065723e-04	
571	1.950000e+00	3.116774e-04	
572	2.000000e+00	3.166355e-04	
573	2.050000e+00	3.214470e-04	
574	2.100000e+00	3.261121e-04	
575	2.150000e+00	3.306313e-04	
576	2.200000e+00	3.350047e-04	

Index   v-sweep         -i(vds)         
--------------------------------------------------------------------------------
577	2.250000e+00	3.392328e-04	
578	2.300000e+00	3.433159e-04	
579	2.350000e+00	3.472543e-04	
580	2.400000e+00	3.510483e-04	
581	2.450000e+00	3.546983e-04	
582	2.500000e+00	3.582044e-04	
583	2.550000e+00	3.615672e-04	
584	2.600000e+00	3.647867e-04	
585	2.650000e+00	3.678635e-04	
586	2.700000e+00	3.707977e-04	
587	2.750000e+00	3.735897e-04	
588	2.800000e+00	3.762397e-04	
589	2.850000e+00	3.787482e-04	
590	2.900000e+00	3.811153e-04	
591	2.950000e+00	3.833414e-04	
592	3.000000e+00	3.854268e-04	
593	3.050000e+00	3.873719e-04	
594	3.100000e+00	3.891772e-04	
595	3.150000e+00	3.908430e-04	
596	3.200000e+00	3.923702e-04	
597	3.250000e+00	3.937596e-04	
598	3.300000e+00	3.950125e-04	
599	3.350000e+00	3.961309e-04	
600	3.400000e+00	3.971178e-04	
601	3.450000e+00	3.979773e-04	
602	3.500000e+00	3.987155e-04	
603	3.550000e+00	3.993408e-04	
604	3.600000e+00	3.998637e-04	
605	3.650000e+00	4.002965e-04	
606	3.700000e+00	4.006528e-04	
607	3.750000e+00	4.009457e-04	
608	3.800000e+00	4.011875e-04	
609	3.850000e+00	4.013885e-04	
610	3.900000e+00	4.015576e-04	
611	3.950000e+00	4.017014e-04	
612	4.000000e+00	4.018254e-04	
613	4.050000e+00	4.019336e-04	
614	4.100000e+00	4.020293e-04	
615	4.150000e+00	4.021147e-04	
616	4.200000e+00	4.021919e-04	
617	4.250000e+00	4.022622e-04	
618	4.300000e+00	4.023269e-04	
619	4.350000e+00	4.023868e-04	
620	4.400000e+00	4.024426e-04	
621	4.450000e+00	4.024950e-04	
622	4.500000e+00	4.025445e-04	
623	4.550000e+00	4.025914e-04	
624	4.600000e+00	4.026360e-04	
625	4.650000e+00	4.026787e-04	
626	4.700000e+00	4.027196e-04	
627	4.750000e+00	4.027589e-04	
628	4.800000e+00	4.027969e-04	
629	4.850000e+00	4.028337e-04	
630	4.900000e+00	4.028694e-04	
631	4.950000e+00	4.029040e-04	
632	5.000000e+00	4.029377e-04	
633	5.050000e+00	4.029706e-04	
634	5.100000e+00	4.030028e-04	

Index   v-sweep         -i(vds)         
--------------------------------------------------------------------------------
635	5.150000e+00	4.030342e-04	
636	5.200000e+00	4.030650e-04	
637	5.250000e+00	4.030952e-04	
638	5.300000e+00	4.031249e-04	
639	5.350000e+00	4.031540e-04	
640	5.400000e+00	4.031827e-04	
641	5.450000e+00	4.032110e-04	
642	5.500000e+00	4.032388e-04	
643	5.550000e+00	4.032663e-04	
644	5.600000e+00	4.032935e-04	
645	5.650000e+00	4.033203e-04	
646	5.700000e+00	4.033470e-04	
647	5.750000e+00	4.033733e-04	
648	5.800000e+00	4.033996e-04	
649	5.850000e+00	4.034257e-04	
650	5.900000e+00	4.034517e-04	
651	5.950000e+00	4.034778e-04	
652	6.000000e+00	4.035041e-04	
653	6.050000e+00	4.035306e-04	
654	6.100000e+00	4.035574e-04	
655	6.150000e+00	4.035849e-04	
656	6.200000e+00	4.036131e-04	
657	6.250000e+00	4.036422e-04	
658	6.300000e+00	4.036726e-04	
659	6.350000e+00	4.037047e-04	
660	6.400000e+00	4.037386e-04	
661	6.450000e+00	4.037749e-04	
662	6.500000e+00	4.038141e-04	
663	6.550000e+00	4.038567e-04	
664	6.600000e+00	4.039034e-04	
665	0.000000e+00	-0.000000e+00	
666	5.000000e-02	1.231136e-05	
667	1.000000e-01	2.433197e-05	
668	1.500000e-01	3.617345e-05	
669	2.000000e-01	4.786405e-05	
670	2.500000e-01	5.941108e-05	
671	3.000000e-01	7.081661e-05	
672	3.500000e-01	8.208138e-05	
673	4.000000e-01	9.320580e-05	
674	4.500000e-01	1.041902e-04	
675	5.000000e-01	1.150349e-04	
676	5.500000e-01	1.257401e-04	
677	6.000000e-01	1.363063e-04	
678	6.500000e-01	1.467336e-04	
679	7.000000e-01	1.570224e-04	
680	7.500000e-01	1.671729e-04	
681	8.000000e-01	1.771856e-04	
682	8.500000e-01	1.870606e-04	
683	9.000000e-01	1.967982e-04	
684	9.500000e-01	2.063988e-04	
685	1.000000e+00	2.158626e-04	
686	1.050000e+00	2.251899e-04	
687	1.100000e+00	2.343810e-04	
688	1.150000e+00	2.434362e-04	
689	1.200000e+00	2.523558e-04	
690	1.250000e+00	2.611401e-04	
691	1.300000e+00	2.697894e-04	
692	1.350000e+00	2.783038e-04	

Index   v-sweep         -i(vds)         
--------------------------------------------------------------------------------
693	1.400000e+00	2.866838e-04	
694	1.450000e+00	2.949296e-04	
695	1.500000e+00	3.030415e-04	
696	1.550000e+00	3.110198e-04	
697	1.600000e+00	3.188647e-04	
698	1.650000e+00	3.265766e-04	
699	1.700000e+00	3.341557e-04	
700	1.750000e+00	3.416022e-04	
701	1.800000e+00	3.489165e-04	
702	1.850000e+00	3.560989e-04	
703	1.900000e+00	3.631496e-04	
704	1.950000e+00	3.700689e-04	
705	2.000000e+00	3.768570e-04	
706	2.050000e+00	3.835143e-04	
707	2.100000e+00	3.900409e-04	
708	2.150000e+00	3.964373e-04	
709	2.200000e+00	4.027036e-04	
710	2.250000e+00	4.088402e-04	
711	2.300000e+00	4.148472e-04	
712	2.350000e+00	4.207250e-04	
713	2.400000e+00	4.264738e-04	
714	2.450000e+00	4.320938e-04	
715	2.500000e+00	4.375855e-04	
716	2.550000e+00	4.429489e-04	
717	2.600000e+00	4.481844e-04	
718	2.650000e+00	4.532923e-04	
719	2.700000e+00	4.582727e-04	
720	2.750000e+00	4.631260e-04	
721	2.800000e+00	4.678524e-04	
722	2.850000e+00	4.724522e-04	
723	2.900000e+00	4.769255e-04	
724	2.950000e+00	4.812728e-04	
725	3.000000e+00	4.854941e-04	
726	3.050000e+00	4.895899e-04	
727	3.100000e+00	4.935602e-04	
728	3.150000e+00	4.974054e-04	
729	3.200000e+00	5.011256e-04	
730	3.250000e+00	5.047212e-04	
731	3.300000e+00	5.081924e-04	
732	3.350000e+00	5.115393e-04	
733	3.400000e+00	5.147622e-04	
734	3.450000e+00	5.178614e-04	
735	3.500000e+00	5.208371e-04	
736	3.550000e+00	5.236894e-04	
737	3.600000e+00	5.264185e-04	
738	3.650000e+00	5.290248e-04	
739	3.700000e+00	5.315082e-04	
740	3.750000e+00	5.338692e-04	
741	3.800000e+00	5.361077e-04	
742	3.850000e+00	5.382241e-04	
743	3.900000e+00	5.402184e-04	
744	3.950000e+00	5.420910e-04	
745	4.000000e+00	5.438419e-04	
746	4.050000e+00	5.454715e-04	
747	4.100000e+00	5.469802e-04	
748	4.150000e+00	5.483685e-04	
749	4.200000e+00	5.496372e-04	
750	4.250000e+00	5.507876e-04	

Index   v-sweep         -i(vds)         
--------------------------------------------------------------------------------
751	4.300000e+00	5.518214e-04	
752	4.350000e+00	5.527414e-04	
753	4.400000e+00	5.535516e-04	
754	4.450000e+00	5.542576e-04	
755	4.500000e+00	5.548664e-04	
756	4.550000e+00	5.553868e-04	
757	4.600000e+00	5.558287e-04	
758	4.650000e+00	5.562028e-04	
759	4.700000e+00	5.565194e-04	
760	4.750000e+00	5.567881e-04	
761	4.800000e+00	5.570176e-04	
762	4.850000e+00	5.572151e-04	
763	4.900000e+00	5.573865e-04	
764	4.950000e+00	5.575367e-04	
765	5.000000e+00	5.576696e-04	
766	5.050000e+00	5.577883e-04	
767	5.100000e+00	5.578953e-04	
768	5.150000e+00	5.579924e-04	
769	5.200000e+00	5.580814e-04	
770	5.250000e+00	5.581634e-04	
771	5.300000e+00	5.582396e-04	
772	5.350000e+00	5.583107e-04	
773	5.400000e+00	5.583774e-04	
774	5.450000e+00	5.584403e-04	
775	5.500000e+00	5.584998e-04	
776	5.550000e+00	5.585565e-04	
777	5.600000e+00	5.586106e-04	
778	5.650000e+00	5.586624e-04	
779	5.700000e+00	5.587121e-04	
780	5.750000e+00	5.587600e-04	
781	5.800000e+00	5.588063e-04	
782	5.850000e+00	5.588510e-04	
783	5.900000e+00	5.588944e-04	
784	5.950000e+00	5.589366e-04	
785	6.000000e+00	5.589776e-04	
786	6.050000e+00	5.590176e-04	
787	6.100000e+00	5.590567e-04	
788	6.150000e+00	5.590949e-04	
789	6.200000e+00	5.591322e-04	
790	6.250000e+00	5.591689e-04	
791	6.300000e+00	5.592048e-04	
792	6.350000e+00	5.592401e-04	
793	6.400000e+00	5.592748e-04	
794	6.450000e+00	5.593089e-04	
795	6.500000e+00	5.593426e-04	
796	6.550000e+00	5.593758e-04	
797	6.600000e+00	5.594086e-04	
Note: No ".plot", ".print", or ".fourier" lines; no simulations run
