
Note: Compatibility modes selected: hs

Warning: m=xx on .subckt line will override multiplier m hierarchy!


Circuit: ***************************

Doing analysis at TEMP = -40.000000 and TNOM = -40.000000


No. of Data Rows : 798
                          ***************************
                          DC transfer characteristic  Mon Jan  9 13:57:41  2023
--------------------------------------------------------------------------------
Index   v-sweep         -i(vds)         
--------------------------------------------------------------------------------
0	0.000000e+00	-0.000000e+00	
1	5.000000e-02	3.108733e-07	
2	1.000000e-01	5.307048e-07	
3	1.500000e-01	6.639919e-07	
4	2.000000e-01	7.258609e-07	
5	2.500000e-01	7.475468e-07	
6	3.000000e-01	7.552957e-07	
7	3.500000e-01	7.589337e-07	
8	4.000000e-01	7.611517e-07	
9	4.500000e-01	7.627644e-07	
10	5.000000e-01	7.640716e-07	
11	5.500000e-01	7.652040e-07	
12	6.000000e-01	7.662265e-07	
13	6.500000e-01	7.671747e-07	
14	7.000000e-01	7.680700e-07	
15	7.500000e-01	7.689259e-07	
16	8.000000e-01	7.697515e-07	
17	8.500000e-01	7.705530e-07	
18	9.000000e-01	7.713350e-07	
19	9.500000e-01	7.721008e-07	
20	1.000000e+00	7.728531e-07	
21	1.050000e+00	7.735938e-07	
22	1.100000e+00	7.743246e-07	
23	1.150000e+00	7.750466e-07	
24	1.200000e+00	7.757611e-07	
25	1.250000e+00	7.764687e-07	
26	1.300000e+00	7.771704e-07	
27	1.350000e+00	7.778666e-07	
28	1.400000e+00	7.785579e-07	
29	1.450000e+00	7.792448e-07	
30	1.500000e+00	7.799277e-07	
31	1.550000e+00	7.806068e-07	
32	1.600000e+00	7.812825e-07	
33	1.650000e+00	7.819551e-07	
34	1.700000e+00	7.826248e-07	
35	1.750000e+00	7.832918e-07	
36	1.800000e+00	7.839563e-07	
37	1.850000e+00	7.846184e-07	
38	1.900000e+00	7.852784e-07	
39	1.950000e+00	7.859363e-07	
40	2.000000e+00	7.865923e-07	
41	2.050000e+00	7.872465e-07	
42	2.100000e+00	7.878991e-07	
43	2.150000e+00	7.885500e-07	
44	2.200000e+00	7.891995e-07	
45	2.250000e+00	7.898476e-07	
46	2.300000e+00	7.904944e-07	
47	2.350000e+00	7.911401e-07	
48	2.400000e+00	7.917847e-07	
49	2.450000e+00	7.924285e-07	
50	2.500000e+00	7.930715e-07	
51	2.550000e+00	7.937140e-07	
52	2.600000e+00	7.943561e-07	
53	2.650000e+00	7.949981e-07	
54	2.700000e+00	7.956403e-07	

Index   v-sweep         -i(vds)         
--------------------------------------------------------------------------------
55	2.750000e+00	7.962831e-07	
56	2.800000e+00	7.969268e-07	
57	2.850000e+00	7.975719e-07	
58	2.900000e+00	7.982190e-07	
59	2.950000e+00	7.988687e-07	
60	3.000000e+00	7.995217e-07	
61	3.050000e+00	8.001790e-07	
62	3.100000e+00	8.008414e-07	
63	3.150000e+00	8.015102e-07	
64	3.200000e+00	8.021865e-07	
65	3.250000e+00	8.028718e-07	
66	3.300000e+00	8.035676e-07	
67	3.350000e+00	8.042758e-07	
68	3.400000e+00	8.049983e-07	
69	3.450000e+00	8.057372e-07	
70	3.500000e+00	8.064950e-07	
71	3.550000e+00	8.072743e-07	
72	3.600000e+00	8.080778e-07	
73	3.650000e+00	8.089088e-07	
74	3.700000e+00	8.097706e-07	
75	3.750000e+00	8.106667e-07	
76	3.800000e+00	8.116011e-07	
77	3.850000e+00	8.125780e-07	
78	3.900000e+00	8.136018e-07	
79	3.950000e+00	8.146773e-07	
80	4.000000e+00	8.158095e-07	
81	4.050000e+00	8.170040e-07	
82	4.100000e+00	8.182662e-07	
83	4.150000e+00	8.196023e-07	
84	4.200000e+00	8.210186e-07	
85	4.250000e+00	8.225217e-07	
86	4.300000e+00	8.241185e-07	
87	4.350000e+00	8.258164e-07	
88	4.400000e+00	8.276229e-07	
89	4.450000e+00	8.295461e-07	
90	4.500000e+00	8.315941e-07	
91	4.550000e+00	8.337754e-07	
92	4.600000e+00	8.360991e-07	
93	4.650000e+00	8.385743e-07	
94	4.700000e+00	8.412104e-07	
95	4.750000e+00	8.440174e-07	
96	4.800000e+00	8.470052e-07	
97	4.850000e+00	8.501843e-07	
98	4.900000e+00	8.535655e-07	
99	4.950000e+00	8.571596e-07	
100	5.000000e+00	8.609779e-07	
101	5.050000e+00	8.650320e-07	
102	5.100000e+00	8.693335e-07	
103	5.150000e+00	8.738946e-07	
104	5.200000e+00	8.787276e-07	
105	5.250000e+00	8.838449e-07	
106	5.300000e+00	8.892592e-07	
107	5.350000e+00	8.949837e-07	
108	5.400000e+00	9.010314e-07	
109	5.450000e+00	9.074157e-07	
110	5.500000e+00	9.141503e-07	
111	5.550000e+00	9.212489e-07	
112	5.600000e+00	9.287254e-07	

Index   v-sweep         -i(vds)         
--------------------------------------------------------------------------------
113	5.650000e+00	9.365940e-07	
114	5.700000e+00	9.448690e-07	
115	5.750000e+00	9.535648e-07	
116	5.800000e+00	9.626960e-07	
117	5.850000e+00	9.722773e-07	
118	5.900000e+00	9.823234e-07	
119	5.950000e+00	9.928495e-07	
120	6.000000e+00	1.003871e-06	
121	6.050000e+00	1.015402e-06	
122	6.100000e+00	1.027458e-06	
123	6.150000e+00	1.040055e-06	
124	6.200000e+00	1.053208e-06	
125	6.250000e+00	1.066933e-06	
126	6.300000e+00	1.081245e-06	
127	6.350000e+00	1.096160e-06	
128	6.400000e+00	1.111692e-06	
129	6.450000e+00	1.127859e-06	
130	6.500000e+00	1.144676e-06	
131	6.550000e+00	1.162157e-06	
132	6.600000e+00	1.180320e-06	
133	0.000000e+00	-0.000000e+00	
134	5.000000e-02	1.751990e-06	
135	1.000000e-01	3.403308e-06	
136	1.500000e-01	4.954527e-06	
137	2.000000e-01	6.406219e-06	
138	2.500000e-01	7.758954e-06	
139	3.000000e-01	9.013300e-06	
140	3.500000e-01	1.016983e-05	
141	4.000000e-01	1.122912e-05	
142	4.500000e-01	1.219175e-05	
143	5.000000e-01	1.305834e-05	
144	5.500000e-01	1.382954e-05	
145	6.000000e-01	1.450608e-05	
146	6.500000e-01	1.508886e-05	
147	7.000000e-01	1.557912e-05	
148	7.500000e-01	1.597880e-05	
149	8.000000e-01	1.629135e-05	
150	8.500000e-01	1.652315e-05	
151	9.000000e-01	1.668516e-05	
152	9.500000e-01	1.679299e-05	
153	1.000000e+00	1.686358e-05	
154	1.050000e+00	1.691083e-05	
155	1.100000e+00	1.694401e-05	
156	1.150000e+00	1.696860e-05	
157	1.200000e+00	1.698777e-05	
158	1.250000e+00	1.700338e-05	
159	1.300000e+00	1.701652e-05	
160	1.350000e+00	1.702790e-05	
161	1.400000e+00	1.703797e-05	
162	1.450000e+00	1.704705e-05	
163	1.500000e+00	1.705535e-05	
164	1.550000e+00	1.706302e-05	
165	1.600000e+00	1.707019e-05	
166	1.650000e+00	1.707693e-05	
167	1.700000e+00	1.708332e-05	
168	1.750000e+00	1.708941e-05	
169	1.800000e+00	1.709524e-05	
170	1.850000e+00	1.710084e-05	

Index   v-sweep         -i(vds)         
--------------------------------------------------------------------------------
171	1.900000e+00	1.710625e-05	
172	1.950000e+00	1.711148e-05	
173	2.000000e+00	1.711657e-05	
174	2.050000e+00	1.712151e-05	
175	2.100000e+00	1.712633e-05	
176	2.150000e+00	1.713104e-05	
177	2.200000e+00	1.713565e-05	
178	2.250000e+00	1.714016e-05	
179	2.300000e+00	1.714459e-05	
180	2.350000e+00	1.714895e-05	
181	2.400000e+00	1.715323e-05	
182	2.450000e+00	1.715744e-05	
183	2.500000e+00	1.716160e-05	
184	2.550000e+00	1.716570e-05	
185	2.600000e+00	1.716974e-05	
186	2.650000e+00	1.717374e-05	
187	2.700000e+00	1.717769e-05	
188	2.750000e+00	1.718159e-05	
189	2.800000e+00	1.718546e-05	
190	2.850000e+00	1.718929e-05	
191	2.900000e+00	1.719308e-05	
192	2.950000e+00	1.719684e-05	
193	3.000000e+00	1.720057e-05	
194	3.050000e+00	1.720428e-05	
195	3.100000e+00	1.720796e-05	
196	3.150000e+00	1.721161e-05	
197	3.200000e+00	1.721525e-05	
198	3.250000e+00	1.721887e-05	
199	3.300000e+00	1.722249e-05	
200	3.350000e+00	1.722610e-05	
201	3.400000e+00	1.722971e-05	
202	3.450000e+00	1.723333e-05	
203	3.500000e+00	1.723697e-05	
204	3.550000e+00	1.724063e-05	
205	3.600000e+00	1.724434e-05	
206	3.650000e+00	1.724810e-05	
207	3.700000e+00	1.725192e-05	
208	3.750000e+00	1.725583e-05	
209	3.800000e+00	1.725985e-05	
210	3.850000e+00	1.726400e-05	
211	3.900000e+00	1.726830e-05	
212	3.950000e+00	1.727279e-05	
213	4.000000e+00	1.727750e-05	
214	4.050000e+00	1.728247e-05	
215	4.100000e+00	1.728773e-05	
216	4.150000e+00	1.729334e-05	
217	4.200000e+00	1.729933e-05	
218	4.250000e+00	1.730577e-05	
219	4.300000e+00	1.731272e-05	
220	4.350000e+00	1.732024e-05	
221	4.400000e+00	1.732839e-05	
222	4.450000e+00	1.733727e-05	
223	4.500000e+00	1.734693e-05	
224	4.550000e+00	1.735748e-05	
225	4.600000e+00	1.736901e-05	
226	4.650000e+00	1.738161e-05	
227	4.700000e+00	1.739539e-05	
228	4.750000e+00	1.741046e-05	

Index   v-sweep         -i(vds)         
--------------------------------------------------------------------------------
229	4.800000e+00	1.742694e-05	
230	4.850000e+00	1.744495e-05	
231	4.900000e+00	1.746462e-05	
232	4.950000e+00	1.748609e-05	
233	5.000000e+00	1.750951e-05	
234	5.050000e+00	1.753502e-05	
235	5.100000e+00	1.756278e-05	
236	5.150000e+00	1.759295e-05	
237	5.200000e+00	1.762571e-05	
238	5.250000e+00	1.766122e-05	
239	5.300000e+00	1.769967e-05	
240	5.350000e+00	1.774126e-05	
241	5.400000e+00	1.778616e-05	
242	5.450000e+00	1.783459e-05	
243	5.500000e+00	1.788675e-05	
244	5.550000e+00	1.794284e-05	
245	5.600000e+00	1.800310e-05	
246	5.650000e+00	1.806774e-05	
247	5.700000e+00	1.813699e-05	
248	5.750000e+00	1.821109e-05	
249	5.800000e+00	1.829027e-05	
250	5.850000e+00	1.837477e-05	
251	5.900000e+00	1.846485e-05	
252	5.950000e+00	1.856075e-05	
253	6.000000e+00	1.866275e-05	
254	6.050000e+00	1.877108e-05	
255	6.100000e+00	1.888603e-05	
256	6.150000e+00	1.900785e-05	
257	6.200000e+00	1.913683e-05	
258	6.250000e+00	1.927323e-05	
259	6.300000e+00	1.941734e-05	
260	6.350000e+00	1.956944e-05	
261	6.400000e+00	1.972981e-05	
262	6.450000e+00	1.989873e-05	
263	6.500000e+00	2.007651e-05	
264	6.550000e+00	2.026343e-05	
265	6.600000e+00	2.045978e-05	
266	0.000000e+00	-0.000000e+00	
267	5.000000e-02	2.977922e-06	
268	1.000000e-01	5.858391e-06	
269	1.500000e-01	8.641993e-06	
270	2.000000e-01	1.132931e-05	
271	2.500000e-01	1.392091e-05	
272	3.000000e-01	1.641737e-05	
273	3.500000e-01	1.881926e-05	
274	4.000000e-01	2.112713e-05	
275	4.500000e-01	2.334155e-05	
276	5.000000e-01	2.546306e-05	
277	5.500000e-01	2.749221e-05	
278	6.000000e-01	2.942955e-05	
279	6.500000e-01	3.127561e-05	
280	7.000000e-01	3.303093e-05	
281	7.500000e-01	3.469603e-05	
282	8.000000e-01	3.627143e-05	
283	8.500000e-01	3.775766e-05	
284	9.000000e-01	3.915522e-05	
285	9.500000e-01	4.046463e-05	
286	1.000000e+00	4.168637e-05	

Index   v-sweep         -i(vds)         
--------------------------------------------------------------------------------
287	1.050000e+00	4.282095e-05	
288	1.100000e+00	4.386887e-05	
289	1.150000e+00	4.483060e-05	
290	1.200000e+00	4.570665e-05	
291	1.250000e+00	4.649755e-05	
292	1.300000e+00	4.720387e-05	
293	1.350000e+00	4.782634e-05	
294	1.400000e+00	4.836596e-05	
295	1.450000e+00	4.882431e-05	
296	1.500000e+00	4.920410e-05	
297	1.550000e+00	4.950995e-05	
298	1.600000e+00	4.974916e-05	
299	1.650000e+00	4.993179e-05	
300	1.700000e+00	5.006950e-05	
301	1.750000e+00	5.017358e-05	
302	1.800000e+00	5.025345e-05	
303	1.850000e+00	5.031615e-05	
304	1.900000e+00	5.036664e-05	
305	1.950000e+00	5.040831e-05	
306	2.000000e+00	5.044351e-05	
307	2.050000e+00	5.047384e-05	
308	2.100000e+00	5.050043e-05	
309	2.150000e+00	5.052410e-05	
310	2.200000e+00	5.054542e-05	
311	2.250000e+00	5.056485e-05	
312	2.300000e+00	5.058273e-05	
313	2.350000e+00	5.059930e-05	
314	2.400000e+00	5.061477e-05	
315	2.450000e+00	5.062931e-05	
316	2.500000e+00	5.064304e-05	
317	2.550000e+00	5.065608e-05	
318	2.600000e+00	5.066849e-05	
319	2.650000e+00	5.068037e-05	
320	2.700000e+00	5.069177e-05	
321	2.750000e+00	5.070274e-05	
322	2.800000e+00	5.071332e-05	
323	2.850000e+00	5.072356e-05	
324	2.900000e+00	5.073349e-05	
325	2.950000e+00	5.074313e-05	
326	3.000000e+00	5.075250e-05	
327	3.050000e+00	5.076164e-05	
328	3.100000e+00	5.077056e-05	
329	3.150000e+00	5.077928e-05	
330	3.200000e+00	5.078781e-05	
331	3.250000e+00	5.079616e-05	
332	3.300000e+00	5.080436e-05	
333	3.350000e+00	5.081240e-05	
334	3.400000e+00	5.082031e-05	
335	3.450000e+00	5.082808e-05	
336	3.500000e+00	5.083573e-05	
337	3.550000e+00	5.084327e-05	
338	3.600000e+00	5.085070e-05	
339	3.650000e+00	5.085803e-05	
340	3.700000e+00	5.086527e-05	
341	3.750000e+00	5.087243e-05	
342	3.800000e+00	5.087951e-05	
343	3.850000e+00	5.088653e-05	
344	3.900000e+00	5.089350e-05	

Index   v-sweep         -i(vds)         
--------------------------------------------------------------------------------
345	3.950000e+00	5.090042e-05	
346	4.000000e+00	5.090731e-05	
347	4.050000e+00	5.091419e-05	
348	4.100000e+00	5.092107e-05	
349	4.150000e+00	5.092798e-05	
350	4.200000e+00	5.093494e-05	
351	4.250000e+00	5.094198e-05	
352	4.300000e+00	5.094914e-05	
353	4.350000e+00	5.095645e-05	
354	4.400000e+00	5.096396e-05	
355	4.450000e+00	5.097173e-05	
356	4.500000e+00	5.097981e-05	
357	4.550000e+00	5.098828e-05	
358	4.600000e+00	5.099720e-05	
359	4.650000e+00	5.100668e-05	
360	4.700000e+00	5.101680e-05	
361	4.750000e+00	5.102767e-05	
362	4.800000e+00	5.103942e-05	
363	4.850000e+00	5.105218e-05	
364	4.900000e+00	5.106609e-05	
365	4.950000e+00	5.108131e-05	
366	5.000000e+00	5.109802e-05	
367	5.050000e+00	5.111641e-05	
368	5.100000e+00	5.113669e-05	
369	5.150000e+00	5.115907e-05	
370	5.200000e+00	5.118379e-05	
371	5.250000e+00	5.121111e-05	
372	5.300000e+00	5.124130e-05	
373	5.350000e+00	5.127465e-05	
374	5.400000e+00	5.131147e-05	
375	5.450000e+00	5.135209e-05	
376	5.500000e+00	5.139684e-05	
377	5.550000e+00	5.144611e-05	
378	5.600000e+00	5.150026e-05	
379	5.650000e+00	5.155971e-05	
380	5.700000e+00	5.162487e-05	
381	5.750000e+00	5.169619e-05	
382	5.800000e+00	5.177412e-05	
383	5.850000e+00	5.185914e-05	
384	5.900000e+00	5.195175e-05	
385	5.950000e+00	5.205246e-05	
386	6.000000e+00	5.216182e-05	
387	6.050000e+00	5.228037e-05	
388	6.100000e+00	5.240867e-05	
389	6.150000e+00	5.254733e-05	
390	6.200000e+00	5.269694e-05	
391	6.250000e+00	5.285813e-05	
392	6.300000e+00	5.303152e-05	
393	6.350000e+00	5.321779e-05	
394	6.400000e+00	5.341759e-05	
395	6.450000e+00	5.363162e-05	
396	6.500000e+00	5.386056e-05	
397	6.550000e+00	5.410514e-05	
398	6.600000e+00	5.436608e-05	
399	0.000000e+00	-0.000000e+00	
400	5.000000e-02	3.957574e-06	
401	1.000000e-01	7.823660e-06	
402	1.500000e-01	1.159879e-05	

Index   v-sweep         -i(vds)         
--------------------------------------------------------------------------------
403	2.000000e-01	1.528351e-05	
404	2.500000e-01	1.887834e-05	
405	3.000000e-01	2.238379e-05	
406	3.500000e-01	2.580040e-05	
407	4.000000e-01	2.912868e-05	
408	4.500000e-01	3.236913e-05	
409	5.000000e-01	3.552228e-05	
410	5.500000e-01	3.858861e-05	
411	6.000000e-01	4.156863e-05	
412	6.500000e-01	4.446283e-05	
413	7.000000e-01	4.727170e-05	
414	7.500000e-01	4.999574e-05	
415	8.000000e-01	5.263542e-05	
416	8.500000e-01	5.519122e-05	
417	9.000000e-01	5.766362e-05	
418	9.500000e-01	6.005308e-05	
419	1.000000e+00	6.236007e-05	
420	1.050000e+00	6.458506e-05	
421	1.100000e+00	6.672850e-05	
422	1.150000e+00	6.879084e-05	
423	1.200000e+00	7.077252e-05	
424	1.250000e+00	7.267400e-05	
425	1.300000e+00	7.449570e-05	
426	1.350000e+00	7.623805e-05	
427	1.400000e+00	7.790148e-05	
428	1.450000e+00	7.948640e-05	
429	1.500000e+00	8.099322e-05	
430	1.550000e+00	8.242232e-05	
431	1.600000e+00	8.377409e-05	
432	1.650000e+00	8.504889e-05	
433	1.700000e+00	8.624708e-05	
434	1.750000e+00	8.736899e-05	
435	1.800000e+00	8.841491e-05	
436	1.850000e+00	8.938512e-05	
437	1.900000e+00	9.027987e-05	
438	1.950000e+00	9.109939e-05	
439	2.000000e+00	9.184387e-05	
440	2.050000e+00	9.251359e-05	
441	2.100000e+00	9.310896e-05	
442	2.150000e+00	9.363073e-05	
443	2.200000e+00	9.408041e-05	
444	2.250000e+00	9.446074e-05	
445	2.300000e+00	9.477628e-05	
446	2.350000e+00	9.503363e-05	
447	2.400000e+00	9.524109e-05	
448	2.450000e+00	9.540765e-05	
449	2.500000e+00	9.554187e-05	
450	2.550000e+00	9.565110e-05	
451	2.600000e+00	9.574124e-05	
452	2.650000e+00	9.581678e-05	
453	2.700000e+00	9.588109e-05	
454	2.750000e+00	9.593664e-05	
455	2.800000e+00	9.598531e-05	
456	2.850000e+00	9.602846e-05	
457	2.900000e+00	9.606716e-05	
458	2.950000e+00	9.610220e-05	
459	3.000000e+00	9.613420e-05	
460	3.050000e+00	9.616365e-05	

Index   v-sweep         -i(vds)         
--------------------------------------------------------------------------------
461	3.100000e+00	9.619095e-05	
462	3.150000e+00	9.621640e-05	
463	3.200000e+00	9.624025e-05	
464	3.250000e+00	9.626272e-05	
465	3.300000e+00	9.628396e-05	
466	3.350000e+00	9.630414e-05	
467	3.400000e+00	9.632337e-05	
468	3.450000e+00	9.634174e-05	
469	3.500000e+00	9.635936e-05	
470	3.550000e+00	9.637629e-05	
471	3.600000e+00	9.639259e-05	
472	3.650000e+00	9.640834e-05	
473	3.700000e+00	9.642357e-05	
474	3.750000e+00	9.643833e-05	
475	3.800000e+00	9.645266e-05	
476	3.850000e+00	9.646659e-05	
477	3.900000e+00	9.648015e-05	
478	3.950000e+00	9.649337e-05	
479	4.000000e+00	9.650628e-05	
480	4.050000e+00	9.651889e-05	
481	4.100000e+00	9.653123e-05	
482	4.150000e+00	9.654331e-05	
483	4.200000e+00	9.655515e-05	
484	4.250000e+00	9.656678e-05	
485	4.300000e+00	9.657819e-05	
486	4.350000e+00	9.658942e-05	
487	4.400000e+00	9.660046e-05	
488	4.450000e+00	9.661135e-05	
489	4.500000e+00	9.662209e-05	
490	4.550000e+00	9.663270e-05	
491	4.600000e+00	9.664321e-05	
492	4.650000e+00	9.665363e-05	
493	4.700000e+00	9.666399e-05	
494	4.750000e+00	9.667431e-05	
495	4.800000e+00	9.668464e-05	
496	4.850000e+00	9.669501e-05	
497	4.900000e+00	9.670547e-05	
498	4.950000e+00	9.671608e-05	
499	5.000000e+00	9.672690e-05	
500	5.050000e+00	9.673799e-05	
501	5.100000e+00	9.674946e-05	
502	5.150000e+00	9.676139e-05	
503	5.200000e+00	9.677390e-05	
504	5.250000e+00	9.678711e-05	
505	5.300000e+00	9.680118e-05	
506	5.350000e+00	9.681625e-05	
507	5.400000e+00	9.683252e-05	
508	5.450000e+00	9.685019e-05	
509	5.500000e+00	9.686947e-05	
510	5.550000e+00	9.689063e-05	
511	5.600000e+00	9.691392e-05	
512	5.650000e+00	9.693966e-05	
513	5.700000e+00	9.696816e-05	
514	5.750000e+00	9.699979e-05	
515	5.800000e+00	9.703492e-05	
516	5.850000e+00	9.707397e-05	
517	5.900000e+00	9.711738e-05	
518	5.950000e+00	9.716564e-05	

Index   v-sweep         -i(vds)         
--------------------------------------------------------------------------------
519	6.000000e+00	9.721925e-05	
520	6.050000e+00	9.727876e-05	
521	6.100000e+00	9.734474e-05	
522	6.150000e+00	9.741782e-05	
523	6.200000e+00	9.749863e-05	
524	6.250000e+00	9.758787e-05	
525	6.300000e+00	9.768625e-05	
526	6.350000e+00	9.779453e-05	
527	6.400000e+00	9.791350e-05	
528	6.450000e+00	9.804399e-05	
529	6.500000e+00	9.818686e-05	
530	6.550000e+00	9.834301e-05	
531	6.600000e+00	9.851338e-05	
532	0.000000e+00	-0.000000e+00	
533	5.000000e-02	4.693280e-06	
534	1.000000e-01	9.302718e-06	
535	1.500000e-01	1.382878e-05	
536	2.000000e-01	1.827191e-05	
537	2.500000e-01	2.263258e-05	
538	3.000000e-01	2.691124e-05	
539	3.500000e-01	3.110833e-05	
540	4.000000e-01	3.522430e-05	
541	4.500000e-01	3.925959e-05	
542	5.000000e-01	4.321464e-05	
543	5.500000e-01	4.708989e-05	
544	6.000000e-01	5.088576e-05	
545	6.500000e-01	5.460269e-05	
546	7.000000e-01	5.824110e-05	
547	7.500000e-01	6.180142e-05	
548	8.000000e-01	6.528406e-05	
549	8.500000e-01	6.868944e-05	
550	9.000000e-01	7.201798e-05	
551	9.500000e-01	7.527007e-05	
552	1.000000e+00	7.844614e-05	
553	1.050000e+00	8.154659e-05	
554	1.100000e+00	8.457180e-05	
555	1.150000e+00	8.752219e-05	
556	1.200000e+00	9.039815e-05	
557	1.250000e+00	9.320006e-05	
558	1.300000e+00	9.592832e-05	
559	1.350000e+00	9.858331e-05	
560	1.400000e+00	1.011654e-04	
561	1.450000e+00	1.036750e-04	
562	1.500000e+00	1.061125e-04	
563	1.550000e+00	1.084781e-04	
564	1.600000e+00	1.107724e-04	
565	1.650000e+00	1.129957e-04	
566	1.700000e+00	1.151483e-04	
567	1.750000e+00	1.172305e-04	
568	1.800000e+00	1.192428e-04	
569	1.850000e+00	1.211855e-04	
570	1.900000e+00	1.230589e-04	
571	1.950000e+00	1.248633e-04	
572	2.000000e+00	1.265991e-04	
573	2.050000e+00	1.282666e-04	
574	2.100000e+00	1.298660e-04	
575	2.150000e+00	1.313978e-04	
576	2.200000e+00	1.328622e-04	

Index   v-sweep         -i(vds)         
--------------------------------------------------------------------------------
577	2.250000e+00	1.342594e-04	
578	2.300000e+00	1.355897e-04	
579	2.350000e+00	1.368533e-04	
580	2.400000e+00	1.380504e-04	
581	2.450000e+00	1.391812e-04	
582	2.500000e+00	1.402458e-04	
583	2.550000e+00	1.412443e-04	
584	2.600000e+00	1.421766e-04	
585	2.650000e+00	1.430428e-04	
586	2.700000e+00	1.438426e-04	
587	2.750000e+00	1.445760e-04	
588	2.800000e+00	1.452428e-04	
589	2.850000e+00	1.458429e-04	
590	2.900000e+00	1.463767e-04	
591	2.950000e+00	1.468452e-04	
592	3.000000e+00	1.472505e-04	
593	3.050000e+00	1.475963e-04	
594	3.100000e+00	1.478877e-04	
595	3.150000e+00	1.481313e-04	
596	3.200000e+00	1.483342e-04	
597	3.250000e+00	1.485036e-04	
598	3.300000e+00	1.486458e-04	
599	3.350000e+00	1.487662e-04	
600	3.400000e+00	1.488692e-04	
601	3.450000e+00	1.489584e-04	
602	3.500000e+00	1.490363e-04	
603	3.550000e+00	1.491052e-04	
604	3.600000e+00	1.491667e-04	
605	3.650000e+00	1.492221e-04	
606	3.700000e+00	1.492724e-04	
607	3.750000e+00	1.493184e-04	
608	3.800000e+00	1.493607e-04	
609	3.850000e+00	1.493999e-04	
610	3.900000e+00	1.494364e-04	
611	3.950000e+00	1.494706e-04	
612	4.000000e+00	1.495027e-04	
613	4.050000e+00	1.495330e-04	
614	4.100000e+00	1.495617e-04	
615	4.150000e+00	1.495890e-04	
616	4.200000e+00	1.496150e-04	
617	4.250000e+00	1.496399e-04	
618	4.300000e+00	1.496638e-04	
619	4.350000e+00	1.496867e-04	
620	4.400000e+00	1.497087e-04	
621	4.450000e+00	1.497300e-04	
622	4.500000e+00	1.497505e-04	
623	4.550000e+00	1.497704e-04	
624	4.600000e+00	1.497897e-04	
625	4.650000e+00	1.498084e-04	
626	4.700000e+00	1.498266e-04	
627	4.750000e+00	1.498444e-04	
628	4.800000e+00	1.498616e-04	
629	4.850000e+00	1.498785e-04	
630	4.900000e+00	1.498950e-04	
631	4.950000e+00	1.499111e-04	
632	5.000000e+00	1.499268e-04	
633	5.050000e+00	1.499423e-04	
634	5.100000e+00	1.499575e-04	

Index   v-sweep         -i(vds)         
--------------------------------------------------------------------------------
635	5.150000e+00	1.499724e-04	
636	5.200000e+00	1.499870e-04	
637	5.250000e+00	1.500015e-04	
638	5.300000e+00	1.500157e-04	
639	5.350000e+00	1.500298e-04	
640	5.400000e+00	1.500438e-04	
641	5.450000e+00	1.500577e-04	
642	5.500000e+00	1.500715e-04	
643	5.550000e+00	1.500854e-04	
644	5.600000e+00	1.500994e-04	
645	5.650000e+00	1.501136e-04	
646	5.700000e+00	1.501280e-04	
647	5.750000e+00	1.501428e-04	
648	5.800000e+00	1.501580e-04	
649	5.850000e+00	1.501739e-04	
650	5.900000e+00	1.501906e-04	
651	5.950000e+00	1.502082e-04	
652	6.000000e+00	1.502271e-04	
653	6.050000e+00	1.502473e-04	
654	6.100000e+00	1.502692e-04	
655	6.150000e+00	1.502931e-04	
656	6.200000e+00	1.503192e-04	
657	6.250000e+00	1.503481e-04	
658	6.300000e+00	1.503799e-04	
659	6.350000e+00	1.504153e-04	
660	6.400000e+00	1.504546e-04	
661	6.450000e+00	1.504984e-04	
662	6.500000e+00	1.505473e-04	
663	6.550000e+00	1.506019e-04	
664	6.600000e+00	1.506627e-04	
665	0.000000e+00	-0.000000e+00	
666	5.000000e-02	5.211049e-06	
667	1.000000e-01	1.034668e-05	
668	1.500000e-01	1.540729e-05	
669	2.000000e-01	2.039324e-05	
670	2.500000e-01	2.530492e-05	
671	3.000000e-01	3.014270e-05	
672	3.500000e-01	3.490695e-05	
673	4.000000e-01	3.959804e-05	
674	4.500000e-01	4.421634e-05	
675	5.000000e-01	4.876222e-05	
676	5.500000e-01	5.323604e-05	
677	6.000000e-01	5.763815e-05	
678	6.500000e-01	6.196891e-05	
679	7.000000e-01	6.622869e-05	
680	7.500000e-01	7.041782e-05	
681	8.000000e-01	7.453667e-05	
682	8.500000e-01	7.858558e-05	
683	9.000000e-01	8.256489e-05	
684	9.500000e-01	8.647495e-05	
685	1.000000e+00	9.031610e-05	
686	1.050000e+00	9.408868e-05	
687	1.100000e+00	9.779302e-05	
688	1.150000e+00	1.014295e-04	
689	1.200000e+00	1.049983e-04	
690	1.250000e+00	1.084999e-04	
691	1.300000e+00	1.119347e-04	
692	1.350000e+00	1.153028e-04	

Index   v-sweep         -i(vds)         
--------------------------------------------------------------------------------
693	1.400000e+00	1.186046e-04	
694	1.450000e+00	1.218405e-04	
695	1.500000e+00	1.250108e-04	
696	1.550000e+00	1.281158e-04	
697	1.600000e+00	1.311558e-04	
698	1.650000e+00	1.341310e-04	
699	1.700000e+00	1.370419e-04	
700	1.750000e+00	1.398888e-04	
701	1.800000e+00	1.426718e-04	
702	1.850000e+00	1.453914e-04	
703	1.900000e+00	1.480479e-04	
704	1.950000e+00	1.506414e-04	
705	2.000000e+00	1.531724e-04	
706	2.050000e+00	1.556411e-04	
707	2.100000e+00	1.580478e-04	
708	2.150000e+00	1.603928e-04	
709	2.200000e+00	1.626764e-04	
710	2.250000e+00	1.648988e-04	
711	2.300000e+00	1.670604e-04	
712	2.350000e+00	1.691614e-04	
713	2.400000e+00	1.712020e-04	
714	2.450000e+00	1.731826e-04	
715	2.500000e+00	1.751034e-04	
716	2.550000e+00	1.769647e-04	
717	2.600000e+00	1.787666e-04	
718	2.650000e+00	1.805096e-04	
719	2.700000e+00	1.821937e-04	
720	2.750000e+00	1.838192e-04	
721	2.800000e+00	1.853864e-04	
722	2.850000e+00	1.868954e-04	
723	2.900000e+00	1.883464e-04	
724	2.950000e+00	1.897396e-04	
725	3.000000e+00	1.910752e-04	
726	3.050000e+00	1.923533e-04	
727	3.100000e+00	1.935739e-04	
728	3.150000e+00	1.947372e-04	
729	3.200000e+00	1.958431e-04	
730	3.250000e+00	1.968917e-04	
731	3.300000e+00	1.978828e-04	
732	3.350000e+00	1.988162e-04	
733	3.400000e+00	1.996916e-04	
734	3.450000e+00	2.005087e-04	
735	3.500000e+00	2.012671e-04	
736	3.550000e+00	2.019662e-04	
737	3.600000e+00	2.026056e-04	
738	3.650000e+00	2.031850e-04	
739	3.700000e+00	2.037047e-04	
740	3.750000e+00	2.041655e-04	
741	3.800000e+00	2.045695e-04	
742	3.850000e+00	2.049200e-04	
743	3.900000e+00	2.052215e-04	
744	3.950000e+00	2.054795e-04	
745	4.000000e+00	2.056999e-04	
746	4.050000e+00	2.058884e-04	
747	4.100000e+00	2.060505e-04	
748	4.150000e+00	2.061907e-04	
749	4.200000e+00	2.063129e-04	
750	4.250000e+00	2.064202e-04	

Index   v-sweep         -i(vds)         
--------------------------------------------------------------------------------
751	4.300000e+00	2.065154e-04	
752	4.350000e+00	2.066004e-04	
753	4.400000e+00	2.066769e-04	
754	4.450000e+00	2.067463e-04	
755	4.500000e+00	2.068097e-04	
756	4.550000e+00	2.068679e-04	
757	4.600000e+00	2.069217e-04	
758	4.650000e+00	2.069716e-04	
759	4.700000e+00	2.070182e-04	
760	4.750000e+00	2.070618e-04	
761	4.800000e+00	2.071029e-04	
762	4.850000e+00	2.071417e-04	
763	4.900000e+00	2.071784e-04	
764	4.950000e+00	2.072133e-04	
765	5.000000e+00	2.072466e-04	
766	5.050000e+00	2.072784e-04	
767	5.100000e+00	2.073088e-04	
768	5.150000e+00	2.073381e-04	
769	5.200000e+00	2.073662e-04	
770	5.250000e+00	2.073932e-04	
771	5.300000e+00	2.074194e-04	
772	5.350000e+00	2.074446e-04	
773	5.400000e+00	2.074691e-04	
774	5.450000e+00	2.074928e-04	
775	5.500000e+00	2.075159e-04	
776	5.550000e+00	2.075383e-04	
777	5.600000e+00	2.075601e-04	
778	5.650000e+00	2.075814e-04	
779	5.700000e+00	2.076021e-04	
780	5.750000e+00	2.076223e-04	
781	5.800000e+00	2.076422e-04	
782	5.850000e+00	2.076615e-04	
783	5.900000e+00	2.076806e-04	
784	5.950000e+00	2.076992e-04	
785	6.000000e+00	2.077176e-04	
786	6.050000e+00	2.077356e-04	
787	6.100000e+00	2.077535e-04	
788	6.150000e+00	2.077711e-04	
789	6.200000e+00	2.077886e-04	
790	6.250000e+00	2.078061e-04	
791	6.300000e+00	2.078236e-04	
792	6.350000e+00	2.078411e-04	
793	6.400000e+00	2.078589e-04	
794	6.450000e+00	2.078769e-04	
795	6.500000e+00	2.078954e-04	
796	6.550000e+00	2.079146e-04	
797	6.600000e+00	2.079345e-04	
Note: No ".plot", ".print", or ".fourier" lines; no simulations run
