
Note: Compatibility modes selected: hs

Warning: m=xx on .subckt line will override multiplier m hierarchy!


Circuit: ***************************

Doing analysis at TEMP = -40.000000 and TNOM = -40.000000


No. of Data Rows : 798
                          ***************************
                          DC transfer characteristic  Mon Jan  9 13:57:41  2023
--------------------------------------------------------------------------------
Index   v-sweep         -i(vds)         
--------------------------------------------------------------------------------
0	0.000000e+00	-0.000000e+00	
1	5.000000e-02	6.353492e-07	
2	1.000000e-01	1.099980e-06	
3	1.500000e-01	1.403493e-06	
4	2.000000e-01	1.570034e-06	
5	2.500000e-01	1.650114e-06	
6	3.000000e-01	1.693260e-06	
7	3.500000e-01	1.722011e-06	
8	4.000000e-01	1.743939e-06	
9	4.500000e-01	1.761927e-06	
10	5.000000e-01	1.777329e-06	
11	5.500000e-01	1.790889e-06	
12	6.000000e-01	1.803066e-06	
13	6.500000e-01	1.814161e-06	
14	7.000000e-01	1.824388e-06	
15	7.500000e-01	1.833900e-06	
16	8.000000e-01	1.842814e-06	
17	8.500000e-01	1.851219e-06	
18	9.000000e-01	1.859186e-06	
19	9.500000e-01	1.866773e-06	
20	1.000000e+00	1.874026e-06	
21	1.050000e+00	1.880983e-06	
22	1.100000e+00	1.887676e-06	
23	1.150000e+00	1.894134e-06	
24	1.200000e+00	1.900378e-06	
25	1.250000e+00	1.906429e-06	
26	1.300000e+00	1.912305e-06	
27	1.350000e+00	1.918019e-06	
28	1.400000e+00	1.923587e-06	
29	1.450000e+00	1.929018e-06	
30	1.500000e+00	1.934324e-06	
31	1.550000e+00	1.939514e-06	
32	1.600000e+00	1.944596e-06	
33	1.650000e+00	1.949577e-06	
34	1.700000e+00	1.954464e-06	
35	1.750000e+00	1.959263e-06	
36	1.800000e+00	1.963980e-06	
37	1.850000e+00	1.968620e-06	
38	1.900000e+00	1.973186e-06	
39	1.950000e+00	1.977684e-06	
40	2.000000e+00	1.982117e-06	
41	2.050000e+00	1.986488e-06	
42	2.100000e+00	1.990801e-06	
43	2.150000e+00	1.995060e-06	
44	2.200000e+00	1.999266e-06	
45	2.250000e+00	2.003422e-06	
46	2.300000e+00	2.007531e-06	
47	2.350000e+00	2.011595e-06	
48	2.400000e+00	2.015617e-06	
49	2.450000e+00	2.019598e-06	
50	2.500000e+00	2.023540e-06	
51	2.550000e+00	2.027446e-06	
52	2.600000e+00	2.031318e-06	
53	2.650000e+00	2.035157e-06	
54	2.700000e+00	2.038965e-06	

Index   v-sweep         -i(vds)         
--------------------------------------------------------------------------------
55	2.750000e+00	2.042746e-06	
56	2.800000e+00	2.046500e-06	
57	2.850000e+00	2.050230e-06	
58	2.900000e+00	2.053938e-06	
59	2.950000e+00	2.057628e-06	
60	3.000000e+00	2.061301e-06	
61	3.050000e+00	2.064962e-06	
62	3.100000e+00	2.068613e-06	
63	3.150000e+00	2.072257e-06	
64	3.200000e+00	2.075900e-06	
65	3.250000e+00	2.079544e-06	
66	3.300000e+00	2.083195e-06	
67	3.350000e+00	2.086859e-06	
68	3.400000e+00	2.090540e-06	
69	3.450000e+00	2.094245e-06	
70	3.500000e+00	2.097981e-06	
71	3.550000e+00	2.101755e-06	
72	3.600000e+00	2.105575e-06	
73	3.650000e+00	2.109449e-06	
74	3.700000e+00	2.113387e-06	
75	3.750000e+00	2.117398e-06	
76	3.800000e+00	2.121493e-06	
77	3.850000e+00	2.125684e-06	
78	3.900000e+00	2.129983e-06	
79	3.950000e+00	2.134402e-06	
80	4.000000e+00	2.138955e-06	
81	4.050000e+00	2.143658e-06	
82	4.100000e+00	2.148524e-06	
83	4.150000e+00	2.153571e-06	
84	4.200000e+00	2.158815e-06	
85	4.250000e+00	2.164274e-06	
86	4.300000e+00	2.169968e-06	
87	4.350000e+00	2.175915e-06	
88	4.400000e+00	2.182137e-06	
89	4.450000e+00	2.188655e-06	
90	4.500000e+00	2.195490e-06	
91	4.550000e+00	2.202668e-06	
92	4.600000e+00	2.210210e-06	
93	4.650000e+00	2.218143e-06	
94	4.700000e+00	2.226492e-06	
95	4.750000e+00	2.235283e-06	
96	4.800000e+00	2.244545e-06	
97	4.850000e+00	2.254306e-06	
98	4.900000e+00	2.264594e-06	
99	4.950000e+00	2.275439e-06	
100	5.000000e+00	2.286873e-06	
101	5.050000e+00	2.298927e-06	
102	5.100000e+00	2.311632e-06	
103	5.150000e+00	2.325023e-06	
104	5.200000e+00	2.339132e-06	
105	5.250000e+00	2.353994e-06	
106	5.300000e+00	2.369645e-06	
107	5.350000e+00	2.386119e-06	
108	5.400000e+00	2.403453e-06	
109	5.450000e+00	2.421684e-06	
110	5.500000e+00	2.440849e-06	
111	5.550000e+00	2.460988e-06	
112	5.600000e+00	2.482138e-06	

Index   v-sweep         -i(vds)         
--------------------------------------------------------------------------------
113	5.650000e+00	2.504338e-06	
114	5.700000e+00	2.527628e-06	
115	5.750000e+00	2.552049e-06	
116	5.800000e+00	2.577640e-06	
117	5.850000e+00	2.604443e-06	
118	5.900000e+00	2.632500e-06	
119	5.950000e+00	2.661852e-06	
120	6.000000e+00	2.692540e-06	
121	6.050000e+00	2.724609e-06	
122	6.100000e+00	2.758100e-06	
123	6.150000e+00	2.793057e-06	
124	6.200000e+00	2.829522e-06	
125	6.250000e+00	2.867540e-06	
126	6.300000e+00	2.907155e-06	
127	6.350000e+00	2.948409e-06	
128	6.400000e+00	2.991348e-06	
129	6.450000e+00	3.036016e-06	
130	6.500000e+00	3.082458e-06	
131	6.550000e+00	3.130717e-06	
132	6.600000e+00	3.180839e-06	
133	0.000000e+00	-0.000000e+00	
134	5.000000e-02	2.723180e-06	
135	1.000000e-01	5.249897e-06	
136	1.500000e-01	7.585422e-06	
137	2.000000e-01	9.734837e-06	
138	2.500000e-01	1.170305e-05	
139	3.000000e-01	1.349478e-05	
140	3.500000e-01	1.511462e-05	
141	4.000000e-01	1.656697e-05	
142	4.500000e-01	1.785611e-05	
143	5.000000e-01	1.898622e-05	
144	5.500000e-01	1.996138e-05	
145	6.000000e-01	2.078585e-05	
146	6.500000e-01	2.146475e-05	
147	7.000000e-01	2.200612e-05	
148	7.500000e-01	2.242464e-05	
149	8.000000e-01	2.274309e-05	
150	8.500000e-01	2.298740e-05	
151	9.000000e-01	2.317970e-05	
152	9.500000e-01	2.333578e-05	
153	1.000000e+00	2.346612e-05	
154	1.050000e+00	2.357761e-05	
155	1.100000e+00	2.367487e-05	
156	1.150000e+00	2.376107e-05	
157	1.200000e+00	2.383847e-05	
158	1.250000e+00	2.390873e-05	
159	1.300000e+00	2.397308e-05	
160	1.350000e+00	2.403246e-05	
161	1.400000e+00	2.408762e-05	
162	1.450000e+00	2.413914e-05	
163	1.500000e+00	2.418751e-05	
164	1.550000e+00	2.423310e-05	
165	1.600000e+00	2.427625e-05	
166	1.650000e+00	2.431722e-05	
167	1.700000e+00	2.435623e-05	
168	1.750000e+00	2.439349e-05	
169	1.800000e+00	2.442916e-05	
170	1.850000e+00	2.446337e-05	

Index   v-sweep         -i(vds)         
--------------------------------------------------------------------------------
171	1.900000e+00	2.449627e-05	
172	1.950000e+00	2.452796e-05	
173	2.000000e+00	2.455853e-05	
174	2.050000e+00	2.458807e-05	
175	2.100000e+00	2.461666e-05	
176	2.150000e+00	2.464436e-05	
177	2.200000e+00	2.467124e-05	
178	2.250000e+00	2.469736e-05	
179	2.300000e+00	2.472275e-05	
180	2.350000e+00	2.474747e-05	
181	2.400000e+00	2.477156e-05	
182	2.450000e+00	2.479505e-05	
183	2.500000e+00	2.481798e-05	
184	2.550000e+00	2.484038e-05	
185	2.600000e+00	2.486229e-05	
186	2.650000e+00	2.488371e-05	
187	2.700000e+00	2.490469e-05	
188	2.750000e+00	2.492524e-05	
189	2.800000e+00	2.494539e-05	
190	2.850000e+00	2.496516e-05	
191	2.900000e+00	2.498456e-05	
192	2.950000e+00	2.500362e-05	
193	3.000000e+00	2.502235e-05	
194	3.050000e+00	2.504077e-05	
195	3.100000e+00	2.505890e-05	
196	3.150000e+00	2.507677e-05	
197	3.200000e+00	2.509438e-05	
198	3.250000e+00	2.511175e-05	
199	3.300000e+00	2.512892e-05	
200	3.350000e+00	2.514590e-05	
201	3.400000e+00	2.516271e-05	
202	3.450000e+00	2.517939e-05	
203	3.500000e+00	2.519596e-05	
204	3.550000e+00	2.521245e-05	
205	3.600000e+00	2.522889e-05	
206	3.650000e+00	2.524534e-05	
207	3.700000e+00	2.526182e-05	
208	3.750000e+00	2.527839e-05	
209	3.800000e+00	2.529510e-05	
210	3.850000e+00	2.531201e-05	
211	3.900000e+00	2.532917e-05	
212	3.950000e+00	2.534666e-05	
213	4.000000e+00	2.536455e-05	
214	4.050000e+00	2.538292e-05	
215	4.100000e+00	2.540186e-05	
216	4.150000e+00	2.542147e-05	
217	4.200000e+00	2.544185e-05	
218	4.250000e+00	2.546311e-05	
219	4.300000e+00	2.548537e-05	
220	4.350000e+00	2.550876e-05	
221	4.400000e+00	2.553341e-05	
222	4.450000e+00	2.555946e-05	
223	4.500000e+00	2.558709e-05	
224	4.550000e+00	2.561643e-05	
225	4.600000e+00	2.564768e-05	
226	4.650000e+00	2.568100e-05	
227	4.700000e+00	2.571660e-05	
228	4.750000e+00	2.575467e-05	

Index   v-sweep         -i(vds)         
--------------------------------------------------------------------------------
229	4.800000e+00	2.579543e-05	
230	4.850000e+00	2.583909e-05	
231	4.900000e+00	2.588588e-05	
232	4.950000e+00	2.593605e-05	
233	5.000000e+00	2.598983e-05	
234	5.050000e+00	2.604750e-05	
235	5.100000e+00	2.610932e-05	
236	5.150000e+00	2.617556e-05	
237	5.200000e+00	2.624652e-05	
238	5.250000e+00	2.632249e-05	
239	5.300000e+00	2.640377e-05	
240	5.350000e+00	2.649067e-05	
241	5.400000e+00	2.658352e-05	
242	5.450000e+00	2.668265e-05	
243	5.500000e+00	2.678839e-05	
244	5.550000e+00	2.690110e-05	
245	5.600000e+00	2.702112e-05	
246	5.650000e+00	2.714882e-05	
247	5.700000e+00	2.728456e-05	
248	5.750000e+00	2.742872e-05	
249	5.800000e+00	2.758169e-05	
250	5.850000e+00	2.774384e-05	
251	5.900000e+00	2.791558e-05	
252	5.950000e+00	2.809730e-05	
253	6.000000e+00	2.828941e-05	
254	6.050000e+00	2.849233e-05	
255	6.100000e+00	2.870646e-05	
256	6.150000e+00	2.893223e-05	
257	6.200000e+00	2.917006e-05	
258	6.250000e+00	2.942039e-05	
259	6.300000e+00	2.968364e-05	
260	6.350000e+00	2.996025e-05	
261	6.400000e+00	3.025066e-05	
262	6.450000e+00	3.055532e-05	
263	6.500000e+00	3.087467e-05	
264	6.550000e+00	3.120916e-05	
265	6.600000e+00	3.155924e-05	
266	0.000000e+00	-0.000000e+00	
267	5.000000e-02	4.356845e-06	
268	1.000000e-01	8.504100e-06	
269	1.500000e-01	1.244746e-05	
270	2.000000e-01	1.619243e-05	
271	2.500000e-01	1.974429e-05	
272	3.000000e-01	2.310813e-05	
273	3.500000e-01	2.628883e-05	
274	4.000000e-01	2.929111e-05	
275	4.500000e-01	3.211949e-05	
276	5.000000e-01	3.477831e-05	
277	5.500000e-01	3.727175e-05	
278	6.000000e-01	3.960381e-05	
279	6.500000e-01	4.177832e-05	
280	7.000000e-01	4.379893e-05	
281	7.500000e-01	4.566906e-05	
282	8.000000e-01	4.739187e-05	
283	8.500000e-01	4.897014e-05	
284	9.000000e-01	5.040607e-05	
285	9.500000e-01	5.170110e-05	
286	1.000000e+00	5.285555e-05	

Index   v-sweep         -i(vds)         
--------------------------------------------------------------------------------
287	1.050000e+00	5.386862e-05	
288	1.100000e+00	5.473939e-05	
289	1.150000e+00	5.546980e-05	
290	1.200000e+00	5.606889e-05	
291	1.250000e+00	5.655415e-05	
292	1.300000e+00	5.694759e-05	
293	1.350000e+00	5.727037e-05	
294	1.400000e+00	5.753970e-05	
295	1.450000e+00	5.776856e-05	
296	1.500000e+00	5.796633e-05	
297	1.550000e+00	5.813982e-05	
298	1.600000e+00	5.829401e-05	
299	1.650000e+00	5.843257e-05	
300	1.700000e+00	5.855829e-05	
301	1.750000e+00	5.867328e-05	
302	1.800000e+00	5.877921e-05	
303	1.850000e+00	5.887740e-05	
304	1.900000e+00	5.896890e-05	
305	1.950000e+00	5.905457e-05	
306	2.000000e+00	5.913513e-05	
307	2.050000e+00	5.921116e-05	
308	2.100000e+00	5.928315e-05	
309	2.150000e+00	5.935153e-05	
310	2.200000e+00	5.941665e-05	
311	2.250000e+00	5.947882e-05	
312	2.300000e+00	5.953832e-05	
313	2.350000e+00	5.959536e-05	
314	2.400000e+00	5.965016e-05	
315	2.450000e+00	5.970290e-05	
316	2.500000e+00	5.975373e-05	
317	2.550000e+00	5.980280e-05	
318	2.600000e+00	5.985023e-05	
319	2.650000e+00	5.989614e-05	
320	2.700000e+00	5.994063e-05	
321	2.750000e+00	5.998380e-05	
322	2.800000e+00	6.002571e-05	
323	2.850000e+00	6.006647e-05	
324	2.900000e+00	6.010612e-05	
325	2.950000e+00	6.014474e-05	
326	3.000000e+00	6.018238e-05	
327	3.050000e+00	6.021910e-05	
328	3.100000e+00	6.025495e-05	
329	3.150000e+00	6.028997e-05	
330	3.200000e+00	6.032421e-05	
331	3.250000e+00	6.035771e-05	
332	3.300000e+00	6.039051e-05	
333	3.350000e+00	6.042264e-05	
334	3.400000e+00	6.045415e-05	
335	3.450000e+00	6.048507e-05	
336	3.500000e+00	6.051544e-05	
337	3.550000e+00	6.054529e-05	
338	3.600000e+00	6.057467e-05	
339	3.650000e+00	6.060361e-05	
340	3.700000e+00	6.063217e-05	
341	3.750000e+00	6.066038e-05	
342	3.800000e+00	6.068830e-05	
343	3.850000e+00	6.071598e-05	
344	3.900000e+00	6.074349e-05	

Index   v-sweep         -i(vds)         
--------------------------------------------------------------------------------
345	3.950000e+00	6.077090e-05	
346	4.000000e+00	6.079829e-05	
347	4.050000e+00	6.082573e-05	
348	4.100000e+00	6.085333e-05	
349	4.150000e+00	6.088119e-05	
350	4.200000e+00	6.090942e-05	
351	4.250000e+00	6.093815e-05	
352	4.300000e+00	6.096753e-05	
353	4.350000e+00	6.099771e-05	
354	4.400000e+00	6.102886e-05	
355	4.450000e+00	6.106117e-05	
356	4.500000e+00	6.109483e-05	
357	4.550000e+00	6.113006e-05	
358	4.600000e+00	6.116711e-05	
359	4.650000e+00	6.120623e-05	
360	4.700000e+00	6.124769e-05	
361	4.750000e+00	6.129178e-05	
362	4.800000e+00	6.133883e-05	
363	4.850000e+00	6.138917e-05	
364	4.900000e+00	6.144315e-05	
365	4.950000e+00	6.150115e-05	
366	5.000000e+00	6.156357e-05	
367	5.050000e+00	6.163085e-05	
368	5.100000e+00	6.170342e-05	
369	5.150000e+00	6.178174e-05	
370	5.200000e+00	6.186632e-05	
371	5.250000e+00	6.195767e-05	
372	5.300000e+00	6.205632e-05	
373	5.350000e+00	6.216284e-05	
374	5.400000e+00	6.227780e-05	
375	5.450000e+00	6.240182e-05	
376	5.500000e+00	6.253551e-05	
377	5.550000e+00	6.267953e-05	
378	5.600000e+00	6.283455e-05	
379	5.650000e+00	6.300127e-05	
380	5.700000e+00	6.318039e-05	
381	5.750000e+00	6.337265e-05	
382	5.800000e+00	6.357881e-05	
383	5.850000e+00	6.379965e-05	
384	5.900000e+00	6.403594e-05	
385	5.950000e+00	6.428852e-05	
386	6.000000e+00	6.455821e-05	
387	6.050000e+00	6.484586e-05	
388	6.100000e+00	6.515233e-05	
389	6.150000e+00	6.547851e-05	
390	6.200000e+00	6.582529e-05	
391	6.250000e+00	6.619360e-05	
392	6.300000e+00	6.658435e-05	
393	6.350000e+00	6.699848e-05	
394	6.400000e+00	6.743696e-05	
395	6.450000e+00	6.790075e-05	
396	6.500000e+00	6.839083e-05	
397	6.550000e+00	6.890818e-05	
398	6.600000e+00	6.945382e-05	
399	0.000000e+00	-0.000000e+00	
400	5.000000e-02	5.635660e-06	
401	1.000000e-01	1.105814e-05	
402	1.500000e-01	1.627297e-05	

Index   v-sweep         -i(vds)         
--------------------------------------------------------------------------------
403	2.000000e-01	2.128552e-05	
404	2.500000e-01	2.610094e-05	
405	3.000000e-01	3.072420e-05	
406	3.500000e-01	3.516011e-05	
407	4.000000e-01	3.941328e-05	
408	4.500000e-01	4.348815e-05	
409	5.000000e-01	4.738900e-05	
410	5.500000e-01	5.111995e-05	
411	6.000000e-01	5.468494e-05	
412	6.500000e-01	5.808781e-05	
413	7.000000e-01	6.133222e-05	
414	7.500000e-01	6.442172e-05	
415	8.000000e-01	6.735972e-05	
416	8.500000e-01	7.014952e-05	
417	9.000000e-01	7.279428e-05	
418	9.500000e-01	7.529701e-05	
419	1.000000e+00	7.766057e-05	
420	1.050000e+00	7.988764e-05	
421	1.100000e+00	8.198063e-05	
422	1.150000e+00	8.394158e-05	
423	1.200000e+00	8.577206e-05	
424	1.250000e+00	8.747288e-05	
425	1.300000e+00	8.904382e-05	
426	1.350000e+00	9.048317e-05	
427	1.400000e+00	9.178750e-05	
428	1.450000e+00	9.295195e-05	
429	1.500000e+00	9.397199e-05	
430	1.550000e+00	9.484711e-05	
431	1.600000e+00	9.558439e-05	
432	1.650000e+00	9.619910e-05	
433	1.700000e+00	9.671115e-05	
434	1.750000e+00	9.714067e-05	
435	1.800000e+00	9.750514e-05	
436	1.850000e+00	9.781855e-05	
437	1.900000e+00	9.809161e-05	
438	1.950000e+00	9.833248e-05	
439	2.000000e+00	9.854729e-05	
440	2.050000e+00	9.874074e-05	
441	2.100000e+00	9.891647e-05	
442	2.150000e+00	9.907728e-05	
443	2.200000e+00	9.922543e-05	
444	2.250000e+00	9.936269e-05	
445	2.300000e+00	9.949054e-05	
446	2.350000e+00	9.961015e-05	
447	2.400000e+00	9.972251e-05	
448	2.450000e+00	9.982845e-05	
449	2.500000e+00	9.992865e-05	
450	2.550000e+00	1.000237e-04	
451	2.600000e+00	1.001142e-04	
452	2.650000e+00	1.002004e-04	
453	2.700000e+00	1.002828e-04	
454	2.750000e+00	1.003618e-04	
455	2.800000e+00	1.004375e-04	
456	2.850000e+00	1.005103e-04	
457	2.900000e+00	1.005804e-04	
458	2.950000e+00	1.006480e-04	
459	3.000000e+00	1.007132e-04	
460	3.050000e+00	1.007763e-04	

Index   v-sweep         -i(vds)         
--------------------------------------------------------------------------------
461	3.100000e+00	1.008374e-04	
462	3.150000e+00	1.008966e-04	
463	3.200000e+00	1.009540e-04	
464	3.250000e+00	1.010097e-04	
465	3.300000e+00	1.010639e-04	
466	3.350000e+00	1.011166e-04	
467	3.400000e+00	1.011679e-04	
468	3.450000e+00	1.012179e-04	
469	3.500000e+00	1.012667e-04	
470	3.550000e+00	1.013143e-04	
471	3.600000e+00	1.013607e-04	
472	3.650000e+00	1.014062e-04	
473	3.700000e+00	1.014506e-04	
474	3.750000e+00	1.014941e-04	
475	3.800000e+00	1.015368e-04	
476	3.850000e+00	1.015786e-04	
477	3.900000e+00	1.016196e-04	
478	3.950000e+00	1.016600e-04	
479	4.000000e+00	1.016997e-04	
480	4.050000e+00	1.017388e-04	
481	4.100000e+00	1.017774e-04	
482	4.150000e+00	1.018155e-04	
483	4.200000e+00	1.018533e-04	
484	4.250000e+00	1.018909e-04	
485	4.300000e+00	1.019283e-04	
486	4.350000e+00	1.019657e-04	
487	4.400000e+00	1.020032e-04	
488	4.450000e+00	1.020409e-04	
489	4.500000e+00	1.020790e-04	
490	4.550000e+00	1.021177e-04	
491	4.600000e+00	1.021572e-04	
492	4.650000e+00	1.021978e-04	
493	4.700000e+00	1.022395e-04	
494	4.750000e+00	1.022828e-04	
495	4.800000e+00	1.023278e-04	
496	4.850000e+00	1.023750e-04	
497	4.900000e+00	1.024246e-04	
498	4.950000e+00	1.024771e-04	
499	5.000000e+00	1.025329e-04	
500	5.050000e+00	1.025923e-04	
501	5.100000e+00	1.026558e-04	
502	5.150000e+00	1.027240e-04	
503	5.200000e+00	1.027974e-04	
504	5.250000e+00	1.028766e-04	
505	5.300000e+00	1.029622e-04	
506	5.350000e+00	1.030547e-04	
507	5.400000e+00	1.031550e-04	
508	5.450000e+00	1.032636e-04	
509	5.500000e+00	1.033815e-04	
510	5.550000e+00	1.035093e-04	
511	5.600000e+00	1.036479e-04	
512	5.650000e+00	1.037982e-04	
513	5.700000e+00	1.039611e-04	
514	5.750000e+00	1.041375e-04	
515	5.800000e+00	1.043284e-04	
516	5.850000e+00	1.045349e-04	
517	5.900000e+00	1.047580e-04	
518	5.950000e+00	1.049988e-04	

Index   v-sweep         -i(vds)         
--------------------------------------------------------------------------------
519	6.000000e+00	1.052584e-04	
520	6.050000e+00	1.055380e-04	
521	6.100000e+00	1.058388e-04	
522	6.150000e+00	1.061621e-04	
523	6.200000e+00	1.065091e-04	
524	6.250000e+00	1.068811e-04	
525	6.300000e+00	1.072794e-04	
526	6.350000e+00	1.077055e-04	
527	6.400000e+00	1.081607e-04	
528	6.450000e+00	1.086465e-04	
529	6.500000e+00	1.091642e-04	
530	6.550000e+00	1.097155e-04	
531	6.600000e+00	1.103017e-04	
532	0.000000e+00	-0.000000e+00	
533	5.000000e-02	6.601022e-06	
534	1.000000e-01	1.299369e-05	
535	1.500000e-01	1.918305e-05	
536	2.000000e-01	2.517398e-05	
537	2.500000e-01	3.097119e-05	
538	3.000000e-01	3.657925e-05	
539	3.500000e-01	4.200257e-05	
540	4.000000e-01	4.724540e-05	
541	4.500000e-01	5.231186e-05	
542	5.000000e-01	5.720591e-05	
543	5.500000e-01	6.193137e-05	
544	6.000000e-01	6.649193e-05	
545	6.500000e-01	7.089114e-05	
546	7.000000e-01	7.513242e-05	
547	7.500000e-01	7.921910e-05	
548	8.000000e-01	8.315436e-05	
549	8.500000e-01	8.694130e-05	
550	9.000000e-01	9.058291e-05	
551	9.500000e-01	9.408208e-05	
552	1.000000e+00	9.744164e-05	
553	1.050000e+00	1.006643e-04	
554	1.100000e+00	1.037527e-04	
555	1.150000e+00	1.067094e-04	
556	1.200000e+00	1.095368e-04	
557	1.250000e+00	1.122374e-04	
558	1.300000e+00	1.148132e-04	
559	1.350000e+00	1.172665e-04	
560	1.400000e+00	1.195991e-04	
561	1.450000e+00	1.218124e-04	
562	1.500000e+00	1.239078e-04	
563	1.550000e+00	1.258858e-04	
564	1.600000e+00	1.277463e-04	
565	1.650000e+00	1.294880e-04	
566	1.700000e+00	1.311079e-04	
567	1.750000e+00	1.326017e-04	
568	1.800000e+00	1.339628e-04	
569	1.850000e+00	1.351845e-04	
570	1.900000e+00	1.362620e-04	
571	1.950000e+00	1.371960e-04	
572	2.000000e+00	1.379949e-04	
573	2.050000e+00	1.386736e-04	
574	2.100000e+00	1.392506e-04	
575	2.150000e+00	1.397438e-04	
576	2.200000e+00	1.401693e-04	

Index   v-sweep         -i(vds)         
--------------------------------------------------------------------------------
577	2.250000e+00	1.405402e-04	
578	2.300000e+00	1.408669e-04	
579	2.350000e+00	1.411577e-04	
580	2.400000e+00	1.414189e-04	
581	2.450000e+00	1.416554e-04	
582	2.500000e+00	1.418712e-04	
583	2.550000e+00	1.420693e-04	
584	2.600000e+00	1.422524e-04	
585	2.650000e+00	1.424224e-04	
586	2.700000e+00	1.425811e-04	
587	2.750000e+00	1.427297e-04	
588	2.800000e+00	1.428695e-04	
589	2.850000e+00	1.430014e-04	
590	2.900000e+00	1.431263e-04	
591	2.950000e+00	1.432448e-04	
592	3.000000e+00	1.433576e-04	
593	3.050000e+00	1.434652e-04	
594	3.100000e+00	1.435681e-04	
595	3.150000e+00	1.436666e-04	
596	3.200000e+00	1.437612e-04	
597	3.250000e+00	1.438520e-04	
598	3.300000e+00	1.439395e-04	
599	3.350000e+00	1.440239e-04	
600	3.400000e+00	1.441053e-04	
601	3.450000e+00	1.441840e-04	
602	3.500000e+00	1.442602e-04	
603	3.550000e+00	1.443340e-04	
604	3.600000e+00	1.444055e-04	
605	3.650000e+00	1.444750e-04	
606	3.700000e+00	1.445425e-04	
607	3.750000e+00	1.446082e-04	
608	3.800000e+00	1.446721e-04	
609	3.850000e+00	1.447343e-04	
610	3.900000e+00	1.447950e-04	
611	3.950000e+00	1.448542e-04	
612	4.000000e+00	1.449121e-04	
613	4.050000e+00	1.449686e-04	
614	4.100000e+00	1.450238e-04	
615	4.150000e+00	1.450779e-04	
616	4.200000e+00	1.451309e-04	
617	4.250000e+00	1.451829e-04	
618	4.300000e+00	1.452339e-04	
619	4.350000e+00	1.452841e-04	
620	4.400000e+00	1.453335e-04	
621	4.450000e+00	1.453823e-04	
622	4.500000e+00	1.454304e-04	
623	4.550000e+00	1.454781e-04	
624	4.600000e+00	1.455254e-04	
625	4.650000e+00	1.455726e-04	
626	4.700000e+00	1.456197e-04	
627	4.750000e+00	1.456669e-04	
628	4.800000e+00	1.457145e-04	
629	4.850000e+00	1.457626e-04	
630	4.900000e+00	1.458115e-04	
631	4.950000e+00	1.458615e-04	
632	5.000000e+00	1.459128e-04	
633	5.050000e+00	1.459658e-04	
634	5.100000e+00	1.460208e-04	

Index   v-sweep         -i(vds)         
--------------------------------------------------------------------------------
635	5.150000e+00	1.460783e-04	
636	5.200000e+00	1.461386e-04	
637	5.250000e+00	1.462023e-04	
638	5.300000e+00	1.462699e-04	
639	5.350000e+00	1.463419e-04	
640	5.400000e+00	1.464188e-04	
641	5.450000e+00	1.465015e-04	
642	5.500000e+00	1.465905e-04	
643	5.550000e+00	1.466867e-04	
644	5.600000e+00	1.467907e-04	
645	5.650000e+00	1.469035e-04	
646	5.700000e+00	1.470259e-04	
647	5.750000e+00	1.471589e-04	
648	5.800000e+00	1.473035e-04	
649	5.850000e+00	1.474608e-04	
650	5.900000e+00	1.476318e-04	
651	5.950000e+00	1.478177e-04	
652	6.000000e+00	1.480197e-04	
653	6.050000e+00	1.482392e-04	
654	6.100000e+00	1.484774e-04	
655	6.150000e+00	1.487357e-04	
656	6.200000e+00	1.490156e-04	
657	6.250000e+00	1.493185e-04	
658	6.300000e+00	1.496460e-04	
659	6.350000e+00	1.499996e-04	
660	6.400000e+00	1.503811e-04	
661	6.450000e+00	1.507921e-04	
662	6.500000e+00	1.512344e-04	
663	6.550000e+00	1.517097e-04	
664	6.600000e+00	1.522199e-04	
665	0.000000e+00	-0.000000e+00	
666	5.000000e-02	7.298679e-06	
667	1.000000e-01	1.439971e-05	
668	1.500000e-01	2.130748e-05	
669	2.000000e-01	2.802624e-05	
670	2.500000e-01	3.456012e-05	
671	3.000000e-01	4.091314e-05	
672	3.500000e-01	4.708916e-05	
673	4.000000e-01	5.309196e-05	
674	4.500000e-01	5.892517e-05	
675	5.000000e-01	6.459233e-05	
676	5.500000e-01	7.009685e-05	
677	6.000000e-01	7.544201e-05	
678	6.500000e-01	8.063102e-05	
679	7.000000e-01	8.566695e-05	
680	7.500000e-01	9.055277e-05	
681	8.000000e-01	9.529138e-05	
682	8.500000e-01	9.988556e-05	
683	9.000000e-01	1.043380e-04	
684	9.500000e-01	1.086513e-04	
685	1.000000e+00	1.128281e-04	
686	1.050000e+00	1.168707e-04	
687	1.100000e+00	1.207816e-04	
688	1.150000e+00	1.245631e-04	
689	1.200000e+00	1.282175e-04	
690	1.250000e+00	1.317470e-04	
691	1.300000e+00	1.351537e-04	
692	1.350000e+00	1.384399e-04	

Index   v-sweep         -i(vds)         
--------------------------------------------------------------------------------
693	1.400000e+00	1.416074e-04	
694	1.450000e+00	1.446584e-04	
695	1.500000e+00	1.475947e-04	
696	1.550000e+00	1.504181e-04	
697	1.600000e+00	1.531305e-04	
698	1.650000e+00	1.557335e-04	
699	1.700000e+00	1.582285e-04	
700	1.750000e+00	1.606169e-04	
701	1.800000e+00	1.628996e-04	
702	1.850000e+00	1.650772e-04	
703	1.900000e+00	1.671499e-04	
704	1.950000e+00	1.691170e-04	
705	2.000000e+00	1.709767e-04	
706	2.050000e+00	1.727261e-04	
707	2.100000e+00	1.743604e-04	
708	2.150000e+00	1.758733e-04	
709	2.200000e+00	1.772574e-04	
710	2.250000e+00	1.785055e-04	
711	2.300000e+00	1.796141e-04	
712	2.350000e+00	1.805849e-04	
713	2.400000e+00	1.814267e-04	
714	2.450000e+00	1.821533e-04	
715	2.500000e+00	1.827809e-04	
716	2.550000e+00	1.833257e-04	
717	2.600000e+00	1.838019e-04	
718	2.650000e+00	1.842217e-04	
719	2.700000e+00	1.845950e-04	
720	2.750000e+00	1.849298e-04	
721	2.800000e+00	1.852325e-04	
722	2.850000e+00	1.855079e-04	
723	2.900000e+00	1.857604e-04	
724	2.950000e+00	1.859930e-04	
725	3.000000e+00	1.862086e-04	
726	3.050000e+00	1.864093e-04	
727	3.100000e+00	1.865970e-04	
728	3.150000e+00	1.867731e-04	
729	3.200000e+00	1.869390e-04	
730	3.250000e+00	1.870957e-04	
731	3.300000e+00	1.872443e-04	
732	3.350000e+00	1.873854e-04	
733	3.400000e+00	1.875198e-04	
734	3.450000e+00	1.876481e-04	
735	3.500000e+00	1.877709e-04	
736	3.550000e+00	1.878885e-04	
737	3.600000e+00	1.880013e-04	
738	3.650000e+00	1.881099e-04	
739	3.700000e+00	1.882144e-04	
740	3.750000e+00	1.883152e-04	
741	3.800000e+00	1.884125e-04	
742	3.850000e+00	1.885066e-04	
743	3.900000e+00	1.885976e-04	
744	3.950000e+00	1.886858e-04	
745	4.000000e+00	1.887714e-04	
746	4.050000e+00	1.888544e-04	
747	4.100000e+00	1.889351e-04	
748	4.150000e+00	1.890136e-04	
749	4.200000e+00	1.890900e-04	
750	4.250000e+00	1.891644e-04	

Index   v-sweep         -i(vds)         
--------------------------------------------------------------------------------
751	4.300000e+00	1.892370e-04	
752	4.350000e+00	1.893078e-04	
753	4.400000e+00	1.893769e-04	
754	4.450000e+00	1.894444e-04	
755	4.500000e+00	1.895105e-04	
756	4.550000e+00	1.895752e-04	
757	4.600000e+00	1.896385e-04	
758	4.650000e+00	1.897007e-04	
759	4.700000e+00	1.897618e-04	
760	4.750000e+00	1.898219e-04	
761	4.800000e+00	1.898810e-04	
762	4.850000e+00	1.899395e-04	
763	4.900000e+00	1.899973e-04	
764	4.950000e+00	1.900546e-04	
765	5.000000e+00	1.901117e-04	
766	5.050000e+00	1.901686e-04	
767	5.100000e+00	1.902257e-04	
768	5.150000e+00	1.902830e-04	
769	5.200000e+00	1.903410e-04	
770	5.250000e+00	1.903999e-04	
771	5.300000e+00	1.904600e-04	
772	5.350000e+00	1.905217e-04	
773	5.400000e+00	1.905854e-04	
774	5.450000e+00	1.906516e-04	
775	5.500000e+00	1.907207e-04	
776	5.550000e+00	1.907932e-04	
777	5.600000e+00	1.908699e-04	
778	5.650000e+00	1.909512e-04	
779	5.700000e+00	1.910379e-04	
780	5.750000e+00	1.911308e-04	
781	5.800000e+00	1.912306e-04	
782	5.850000e+00	1.913383e-04	
783	5.900000e+00	1.914548e-04	
784	5.950000e+00	1.915810e-04	
785	6.000000e+00	1.917180e-04	
786	6.050000e+00	1.918670e-04	
787	6.100000e+00	1.920291e-04	
788	6.150000e+00	1.922057e-04	
789	6.200000e+00	1.923980e-04	
790	6.250000e+00	1.926076e-04	
791	6.300000e+00	1.928357e-04	
792	6.350000e+00	1.930841e-04	
793	6.400000e+00	1.933543e-04	
794	6.450000e+00	1.936480e-04	
795	6.500000e+00	1.939669e-04	
796	6.550000e+00	1.943130e-04	
797	6.600000e+00	1.946881e-04	
Note: No ".plot", ".print", or ".fourier" lines; no simulations run
