
Note: Compatibility modes selected: hs

Warning: m=xx on .subckt line will override multiplier m hierarchy!


Circuit: ***************************

Doing analysis at TEMP = -40.000000 and TNOM = -40.000000


No. of Data Rows : 798
                          ***************************
                          DC transfer characteristic  Mon Jan  9 13:57:41  2023
--------------------------------------------------------------------------------
Index   v-sweep         -i(vds)         
--------------------------------------------------------------------------------
0	0.000000e+00	-0.000000e+00	
1	5.000000e-02	6.683905e-06	
2	1.000000e-01	1.063638e-05	
3	1.500000e-01	1.241311e-05	
4	2.000000e-01	1.309866e-05	
5	2.500000e-01	1.344657e-05	
6	3.000000e-01	1.368170e-05	
7	3.500000e-01	1.386443e-05	
8	4.000000e-01	1.401664e-05	
9	4.500000e-01	1.414862e-05	
10	5.000000e-01	1.426607e-05	
11	5.500000e-01	1.437255e-05	
12	6.000000e-01	1.447041e-05	
13	6.500000e-01	1.456133e-05	
14	7.000000e-01	1.464651e-05	
15	7.500000e-01	1.472689e-05	
16	8.000000e-01	1.480318e-05	
17	8.500000e-01	1.487593e-05	
18	9.000000e-01	1.494562e-05	
19	9.500000e-01	1.501261e-05	
20	1.000000e+00	1.507721e-05	
21	1.050000e+00	1.513967e-05	
22	1.100000e+00	1.520023e-05	
23	1.150000e+00	1.525906e-05	
24	1.200000e+00	1.531633e-05	
25	1.250000e+00	1.537217e-05	
26	1.300000e+00	1.542672e-05	
27	1.350000e+00	1.548006e-05	
28	1.400000e+00	1.553231e-05	
29	1.450000e+00	1.558354e-05	
30	1.500000e+00	1.563383e-05	
31	1.550000e+00	1.568325e-05	
32	1.600000e+00	1.573185e-05	
33	1.650000e+00	1.577968e-05	
34	1.700000e+00	1.582681e-05	
35	1.750000e+00	1.587327e-05	
36	1.800000e+00	1.591910e-05	
37	1.850000e+00	1.596434e-05	
38	1.900000e+00	1.600903e-05	
39	1.950000e+00	1.605319e-05	
40	2.000000e+00	1.609685e-05	
41	2.050000e+00	1.614005e-05	
42	2.100000e+00	1.618280e-05	
43	2.150000e+00	1.622512e-05	
44	2.200000e+00	1.626705e-05	
45	2.250000e+00	1.630859e-05	
46	2.300000e+00	1.634978e-05	
47	2.350000e+00	1.639061e-05	
48	2.400000e+00	1.643113e-05	
49	2.450000e+00	1.647133e-05	
50	2.500000e+00	1.651124e-05	
51	2.550000e+00	1.655087e-05	
52	2.600000e+00	1.659025e-05	
53	2.650000e+00	1.662938e-05	
54	2.700000e+00	1.666828e-05	

Index   v-sweep         -i(vds)         
--------------------------------------------------------------------------------
55	2.750000e+00	1.670698e-05	
56	2.800000e+00	1.674549e-05	
57	2.850000e+00	1.678383e-05	
58	2.900000e+00	1.682202e-05	
59	2.950000e+00	1.686009e-05	
60	3.000000e+00	1.689807e-05	
61	3.050000e+00	1.693597e-05	
62	3.100000e+00	1.697384e-05	
63	3.150000e+00	1.701170e-05	
64	3.200000e+00	1.704959e-05	
65	3.250000e+00	1.708756e-05	
66	3.300000e+00	1.712564e-05	
67	3.350000e+00	1.716388e-05	
68	3.400000e+00	1.720234e-05	
69	3.450000e+00	1.724108e-05	
70	3.500000e+00	1.728015e-05	
71	3.550000e+00	1.731962e-05	
72	3.600000e+00	1.735957e-05	
73	3.650000e+00	1.740007e-05	
74	3.700000e+00	1.744121e-05	
75	3.750000e+00	1.748307e-05	
76	3.800000e+00	1.752577e-05	
77	3.850000e+00	1.756939e-05	
78	3.900000e+00	1.761404e-05	
79	3.950000e+00	1.765985e-05	
80	4.000000e+00	1.770694e-05	
81	4.050000e+00	1.775543e-05	
82	4.100000e+00	1.780547e-05	
83	4.150000e+00	1.785720e-05	
84	4.200000e+00	1.791078e-05	
85	4.250000e+00	1.796636e-05	
86	4.300000e+00	1.802411e-05	
87	4.350000e+00	1.808420e-05	
88	4.400000e+00	1.814683e-05	
89	4.450000e+00	1.821217e-05	
90	4.500000e+00	1.828043e-05	
91	4.550000e+00	1.835182e-05	
92	4.600000e+00	1.842654e-05	
93	4.650000e+00	1.850481e-05	
94	4.700000e+00	1.858687e-05	
95	4.750000e+00	1.867295e-05	
96	4.800000e+00	1.876329e-05	
97	4.850000e+00	1.885814e-05	
98	4.900000e+00	1.895775e-05	
99	4.950000e+00	1.906240e-05	
100	5.000000e+00	1.917235e-05	
101	5.050000e+00	1.928787e-05	
102	5.100000e+00	1.940925e-05	
103	5.150000e+00	1.953679e-05	
104	5.200000e+00	1.967076e-05	
105	5.250000e+00	1.981149e-05	
106	5.300000e+00	1.995927e-05	
107	5.350000e+00	2.011442e-05	
108	5.400000e+00	2.027726e-05	
109	5.450000e+00	2.044811e-05	
110	5.500000e+00	2.062729e-05	
111	5.550000e+00	2.081516e-05	
112	5.600000e+00	2.101204e-05	

Index   v-sweep         -i(vds)         
--------------------------------------------------------------------------------
113	5.650000e+00	2.121827e-05	
114	5.700000e+00	2.143421e-05	
115	5.750000e+00	2.166021e-05	
116	5.800000e+00	2.189663e-05	
117	5.850000e+00	2.214382e-05	
118	5.900000e+00	2.240215e-05	
119	5.950000e+00	2.267198e-05	
120	6.000000e+00	2.295369e-05	
121	6.050000e+00	2.324765e-05	
122	6.100000e+00	2.355424e-05	
123	6.150000e+00	2.387384e-05	
124	6.200000e+00	2.420682e-05	
125	6.250000e+00	2.455357e-05	
126	6.300000e+00	2.491448e-05	
127	6.350000e+00	2.528993e-05	
128	6.400000e+00	2.568032e-05	
129	6.450000e+00	2.608604e-05	
130	6.500000e+00	2.650748e-05	
131	6.550000e+00	2.694503e-05	
132	6.600000e+00	2.739909e-05	
133	0.000000e+00	-0.000000e+00	
134	5.000000e-02	4.304589e-05	
135	1.000000e-01	8.255455e-05	
136	1.500000e-01	1.186412e-04	
137	2.000000e-01	1.514162e-04	
138	2.500000e-01	1.809851e-04	
139	3.000000e-01	2.074488e-04	
140	3.500000e-01	2.309039e-04	
141	4.000000e-01	2.514430e-04	
142	4.500000e-01	2.691545e-04	
143	5.000000e-01	2.841241e-04	
144	5.500000e-01	2.964417e-04	
145	6.000000e-01	3.062275e-04	
146	6.500000e-01	3.136986e-04	
147	7.000000e-01	3.192383e-04	
148	7.500000e-01	3.233423e-04	
149	8.000000e-01	3.264618e-04	
150	8.500000e-01	3.289200e-04	
151	9.000000e-01	3.309256e-04	
152	9.500000e-01	3.326104e-04	
153	1.000000e+00	3.340594e-04	
154	1.050000e+00	3.353295e-04	
155	1.100000e+00	3.364597e-04	
156	1.150000e+00	3.374782e-04	
157	1.200000e+00	3.384053e-04	
158	1.250000e+00	3.392566e-04	
159	1.300000e+00	3.400440e-04	
160	1.350000e+00	3.407769e-04	
161	1.400000e+00	3.414627e-04	
162	1.450000e+00	3.421075e-04	
163	1.500000e+00	3.427162e-04	
164	1.550000e+00	3.432929e-04	
165	1.600000e+00	3.438412e-04	
166	1.650000e+00	3.443640e-04	
167	1.700000e+00	3.448637e-04	
168	1.750000e+00	3.453426e-04	
169	1.800000e+00	3.458024e-04	
170	1.850000e+00	3.462449e-04	

Index   v-sweep         -i(vds)         
--------------------------------------------------------------------------------
171	1.900000e+00	3.466714e-04	
172	1.950000e+00	3.470832e-04	
173	2.000000e+00	3.474815e-04	
174	2.050000e+00	3.478672e-04	
175	2.100000e+00	3.482412e-04	
176	2.150000e+00	3.486043e-04	
177	2.200000e+00	3.489573e-04	
178	2.250000e+00	3.493008e-04	
179	2.300000e+00	3.496353e-04	
180	2.350000e+00	3.499615e-04	
181	2.400000e+00	3.502798e-04	
182	2.450000e+00	3.505906e-04	
183	2.500000e+00	3.508945e-04	
184	2.550000e+00	3.511917e-04	
185	2.600000e+00	3.514826e-04	
186	2.650000e+00	3.517675e-04	
187	2.700000e+00	3.520468e-04	
188	2.750000e+00	3.523208e-04	
189	2.800000e+00	3.525897e-04	
190	2.850000e+00	3.528538e-04	
191	2.900000e+00	3.531133e-04	
192	2.950000e+00	3.533685e-04	
193	3.000000e+00	3.536197e-04	
194	3.050000e+00	3.538671e-04	
195	3.100000e+00	3.541109e-04	
196	3.150000e+00	3.543515e-04	
197	3.200000e+00	3.545892e-04	
198	3.250000e+00	3.548241e-04	
199	3.300000e+00	3.550568e-04	
200	3.350000e+00	3.552874e-04	
201	3.400000e+00	3.555165e-04	
202	3.450000e+00	3.557444e-04	
203	3.500000e+00	3.559717e-04	
204	3.550000e+00	3.561988e-04	
205	3.600000e+00	3.564263e-04	
206	3.650000e+00	3.566549e-04	
207	3.700000e+00	3.568853e-04	
208	3.750000e+00	3.571182e-04	
209	3.800000e+00	3.573545e-04	
210	3.850000e+00	3.575951e-04	
211	3.900000e+00	3.578411e-04	
212	3.950000e+00	3.580935e-04	
213	4.000000e+00	3.583536e-04	
214	4.050000e+00	3.586227e-04	
215	4.100000e+00	3.589022e-04	
216	4.150000e+00	3.591936e-04	
217	4.200000e+00	3.594986e-04	
218	4.250000e+00	3.598188e-04	
219	4.300000e+00	3.601563e-04	
220	4.350000e+00	3.605130e-04	
221	4.400000e+00	3.608909e-04	
222	4.450000e+00	3.612924e-04	
223	4.500000e+00	3.617199e-04	
224	4.550000e+00	3.621759e-04	
225	4.600000e+00	3.626629e-04	
226	4.650000e+00	3.631839e-04	
227	4.700000e+00	3.637417e-04	
228	4.750000e+00	3.643394e-04	

Index   v-sweep         -i(vds)         
--------------------------------------------------------------------------------
229	4.800000e+00	3.649802e-04	
230	4.850000e+00	3.656674e-04	
231	4.900000e+00	3.664044e-04	
232	4.950000e+00	3.671950e-04	
233	5.000000e+00	3.680427e-04	
234	5.050000e+00	3.689515e-04	
235	5.100000e+00	3.699253e-04	
236	5.150000e+00	3.709684e-04	
237	5.200000e+00	3.720848e-04	
238	5.250000e+00	3.732791e-04	
239	5.300000e+00	3.745556e-04	
240	5.350000e+00	3.759191e-04	
241	5.400000e+00	3.773742e-04	
242	5.450000e+00	3.789257e-04	
243	5.500000e+00	3.805787e-04	
244	5.550000e+00	3.823381e-04	
245	5.600000e+00	3.842092e-04	
246	5.650000e+00	3.861971e-04	
247	5.700000e+00	3.883073e-04	
248	5.750000e+00	3.905451e-04	
249	5.800000e+00	3.929162e-04	
250	5.850000e+00	3.954261e-04	
251	5.900000e+00	3.980805e-04	
252	5.950000e+00	4.008852e-04	
253	6.000000e+00	4.038460e-04	
254	6.050000e+00	4.069688e-04	
255	6.100000e+00	4.102597e-04	
256	6.150000e+00	4.137245e-04	
257	6.200000e+00	4.173695e-04	
258	6.250000e+00	4.212008e-04	
259	6.300000e+00	4.252245e-04	
260	6.350000e+00	4.294469e-04	
261	6.400000e+00	4.338743e-04	
262	6.450000e+00	4.385128e-04	
263	6.500000e+00	4.433690e-04	
264	6.550000e+00	4.484492e-04	
265	6.600000e+00	4.537597e-04	
266	0.000000e+00	-0.000000e+00	
267	5.000000e-02	7.102850e-05	
268	1.000000e-01	1.382111e-04	
269	1.500000e-01	2.016732e-04	
270	2.000000e-01	2.615349e-04	
271	2.500000e-01	3.179109e-04	
272	3.000000e-01	3.709107e-04	
273	3.500000e-01	4.206391e-04	
274	4.000000e-01	4.671959e-04	
275	4.500000e-01	5.106765e-04	
276	5.000000e-01	5.511715e-04	
277	5.500000e-01	5.887670e-04	
278	6.000000e-01	6.235442e-04	
279	6.500000e-01	6.555786e-04	
280	7.000000e-01	6.849387e-04	
281	7.500000e-01	7.116838e-04	
282	8.000000e-01	7.358601e-04	
283	8.500000e-01	7.574945e-04	
284	9.000000e-01	7.765877e-04	
285	9.500000e-01	7.931155e-04	
286	1.000000e+00	8.070570e-04	

Index   v-sweep         -i(vds)         
--------------------------------------------------------------------------------
287	1.050000e+00	8.184722e-04	
288	1.100000e+00	8.275894e-04	
289	1.150000e+00	8.347966e-04	
290	1.200000e+00	8.405296e-04	
291	1.250000e+00	8.451689e-04	
292	1.300000e+00	8.490031e-04	
293	1.350000e+00	8.522389e-04	
294	1.400000e+00	8.550212e-04	
295	1.450000e+00	8.574528e-04	
296	1.500000e+00	8.596073e-04	
297	1.550000e+00	8.615388e-04	
298	1.600000e+00	8.632877e-04	
299	1.650000e+00	8.648848e-04	
300	1.700000e+00	8.663540e-04	
301	1.750000e+00	8.677140e-04	
302	1.800000e+00	8.689802e-04	
303	1.850000e+00	8.701646e-04	
304	1.900000e+00	8.712773e-04	
305	1.950000e+00	8.723266e-04	
306	2.000000e+00	8.733197e-04	
307	2.050000e+00	8.742623e-04	
308	2.100000e+00	8.751596e-04	
309	2.150000e+00	8.760158e-04	
310	2.200000e+00	8.768348e-04	
311	2.250000e+00	8.776198e-04	
312	2.300000e+00	8.783736e-04	
313	2.350000e+00	8.790988e-04	
314	2.400000e+00	8.797976e-04	
315	2.450000e+00	8.804720e-04	
316	2.500000e+00	8.811238e-04	
317	2.550000e+00	8.817545e-04	
318	2.600000e+00	8.823656e-04	
319	2.650000e+00	8.829583e-04	
320	2.700000e+00	8.835339e-04	
321	2.750000e+00	8.840933e-04	
322	2.800000e+00	8.846376e-04	
323	2.850000e+00	8.851677e-04	
324	2.900000e+00	8.856843e-04	
325	2.950000e+00	8.861881e-04	
326	3.000000e+00	8.866800e-04	
327	3.050000e+00	8.871605e-04	
328	3.100000e+00	8.876303e-04	
329	3.150000e+00	8.880899e-04	
330	3.200000e+00	8.885399e-04	
331	3.250000e+00	8.889808e-04	
332	3.300000e+00	8.894132e-04	
333	3.350000e+00	8.898375e-04	
334	3.400000e+00	8.902544e-04	
335	3.450000e+00	8.906642e-04	
336	3.500000e+00	8.910677e-04	
337	3.550000e+00	8.914654e-04	
338	3.600000e+00	8.918580e-04	
339	3.650000e+00	8.922461e-04	
340	3.700000e+00	8.926305e-04	
341	3.750000e+00	8.930121e-04	
342	3.800000e+00	8.933918e-04	
343	3.850000e+00	8.937706e-04	
344	3.900000e+00	8.941498e-04	

Index   v-sweep         -i(vds)         
--------------------------------------------------------------------------------
345	3.950000e+00	8.945305e-04	
346	4.000000e+00	8.949142e-04	
347	4.050000e+00	8.953025e-04	
348	4.100000e+00	8.956971e-04	
349	4.150000e+00	8.961000e-04	
350	4.200000e+00	8.965132e-04	
351	4.250000e+00	8.969392e-04	
352	4.300000e+00	8.973804e-04	
353	4.350000e+00	8.978396e-04	
354	4.400000e+00	8.983199e-04	
355	4.450000e+00	8.988246e-04	
356	4.500000e+00	8.993572e-04	
357	4.550000e+00	8.999215e-04	
358	4.600000e+00	9.005216e-04	
359	4.650000e+00	9.011619e-04	
360	4.700000e+00	9.018472e-04	
361	4.750000e+00	9.025825e-04	
362	4.800000e+00	9.033730e-04	
363	4.850000e+00	9.042245e-04	
364	4.900000e+00	9.051429e-04	
365	4.950000e+00	9.061345e-04	
366	5.000000e+00	9.072059e-04	
367	5.050000e+00	9.083642e-04	
368	5.100000e+00	9.096165e-04	
369	5.150000e+00	9.109706e-04	
370	5.200000e+00	9.124345e-04	
371	5.250000e+00	9.140164e-04	
372	5.300000e+00	9.157249e-04	
373	5.350000e+00	9.175692e-04	
374	5.400000e+00	9.195583e-04	
375	5.450000e+00	9.217021e-04	
376	5.500000e+00	9.240104e-04	
377	5.550000e+00	9.264934e-04	
378	5.600000e+00	9.291619e-04	
379	5.650000e+00	9.320265e-04	
380	5.700000e+00	9.350984e-04	
381	5.750000e+00	9.383892e-04	
382	5.800000e+00	9.419106e-04	
383	5.850000e+00	9.456744e-04	
384	5.900000e+00	9.496931e-04	
385	5.950000e+00	9.539792e-04	
386	6.000000e+00	9.585453e-04	
387	6.050000e+00	9.634046e-04	
388	6.100000e+00	9.685702e-04	
389	6.150000e+00	9.740556e-04	
390	6.200000e+00	9.798745e-04	
391	6.250000e+00	9.860407e-04	
392	6.300000e+00	9.925683e-04	
393	6.350000e+00	9.994716e-04	
394	6.400000e+00	1.006765e-03	
395	6.450000e+00	1.014463e-03	
396	6.500000e+00	1.022580e-03	
397	6.550000e+00	1.031131e-03	
398	6.600000e+00	1.040131e-03	
399	0.000000e+00	-0.000000e+00	
400	5.000000e-02	9.240785e-05	
401	1.000000e-01	1.808827e-04	
402	1.500000e-01	2.655462e-04	

Index   v-sweep         -i(vds)         
--------------------------------------------------------------------------------
403	2.000000e-01	3.465148e-04	
404	2.500000e-01	4.239002e-04	
405	3.000000e-01	4.978097e-04	
406	3.500000e-01	5.683456e-04	
407	4.000000e-01	6.356065e-04	
408	4.500000e-01	6.996863e-04	
409	5.000000e-01	7.606752e-04	
410	5.500000e-01	8.186596e-04	
411	6.000000e-01	8.737220e-04	
412	6.500000e-01	9.259416e-04	
413	7.000000e-01	9.753939e-04	
414	7.500000e-01	1.022151e-03	
415	8.000000e-01	1.066281e-03	
416	8.500000e-01	1.107849e-03	
417	9.000000e-01	1.146913e-03	
418	9.500000e-01	1.183530e-03	
419	1.000000e+00	1.217744e-03	
420	1.050000e+00	1.249592e-03	
421	1.100000e+00	1.279096e-03	
422	1.150000e+00	1.306257e-03	
423	1.200000e+00	1.331044e-03	
424	1.250000e+00	1.353390e-03	
425	1.300000e+00	1.373197e-03	
426	1.350000e+00	1.390366e-03	
427	1.400000e+00	1.404883e-03	
428	1.450000e+00	1.416890e-03	
429	1.500000e+00	1.426702e-03	
430	1.550000e+00	1.434716e-03	
431	1.600000e+00	1.441322e-03	
432	1.650000e+00	1.446845e-03	
433	1.700000e+00	1.451535e-03	
434	1.750000e+00	1.455580e-03	
435	1.800000e+00	1.459117e-03	
436	1.850000e+00	1.462249e-03	
437	1.900000e+00	1.465053e-03	
438	1.950000e+00	1.467587e-03	
439	2.000000e+00	1.469895e-03	
440	2.050000e+00	1.472013e-03	
441	2.100000e+00	1.473969e-03	
442	2.150000e+00	1.475786e-03	
443	2.200000e+00	1.477481e-03	
444	2.250000e+00	1.479069e-03	
445	2.300000e+00	1.480563e-03	
446	2.350000e+00	1.481974e-03	
447	2.400000e+00	1.483310e-03	
448	2.450000e+00	1.484579e-03	
449	2.500000e+00	1.485787e-03	
450	2.550000e+00	1.486941e-03	
451	2.600000e+00	1.488044e-03	
452	2.650000e+00	1.489101e-03	
453	2.700000e+00	1.490117e-03	
454	2.750000e+00	1.491093e-03	
455	2.800000e+00	1.492034e-03	
456	2.850000e+00	1.492941e-03	
457	2.900000e+00	1.493818e-03	
458	2.950000e+00	1.494666e-03	
459	3.000000e+00	1.495487e-03	
460	3.050000e+00	1.496283e-03	

Index   v-sweep         -i(vds)         
--------------------------------------------------------------------------------
461	3.100000e+00	1.497056e-03	
462	3.150000e+00	1.497806e-03	
463	3.200000e+00	1.498536e-03	
464	3.250000e+00	1.499246e-03	
465	3.300000e+00	1.499938e-03	
466	3.350000e+00	1.500612e-03	
467	3.400000e+00	1.501270e-03	
468	3.450000e+00	1.501912e-03	
469	3.500000e+00	1.502539e-03	
470	3.550000e+00	1.503153e-03	
471	3.600000e+00	1.503754e-03	
472	3.650000e+00	1.504342e-03	
473	3.700000e+00	1.504919e-03	
474	3.750000e+00	1.505485e-03	
475	3.800000e+00	1.506041e-03	
476	3.850000e+00	1.506589e-03	
477	3.900000e+00	1.507128e-03	
478	3.950000e+00	1.507660e-03	
479	4.000000e+00	1.508187e-03	
480	4.050000e+00	1.508709e-03	
481	4.100000e+00	1.509228e-03	
482	4.150000e+00	1.509745e-03	
483	4.200000e+00	1.510262e-03	
484	4.250000e+00	1.510781e-03	
485	4.300000e+00	1.511304e-03	
486	4.350000e+00	1.511833e-03	
487	4.400000e+00	1.512372e-03	
488	4.450000e+00	1.512923e-03	
489	4.500000e+00	1.513488e-03	
490	4.550000e+00	1.514073e-03	
491	4.600000e+00	1.514680e-03	
492	4.650000e+00	1.515314e-03	
493	4.700000e+00	1.515980e-03	
494	4.750000e+00	1.516683e-03	
495	4.800000e+00	1.517428e-03	
496	4.850000e+00	1.518221e-03	
497	4.900000e+00	1.519069e-03	
498	4.950000e+00	1.519978e-03	
499	5.000000e+00	1.520956e-03	
500	5.050000e+00	1.522012e-03	
501	5.100000e+00	1.523152e-03	
502	5.150000e+00	1.524387e-03	
503	5.200000e+00	1.525726e-03	
504	5.250000e+00	1.527179e-03	
505	5.300000e+00	1.528757e-03	
506	5.350000e+00	1.530470e-03	
507	5.400000e+00	1.532331e-03	
508	5.450000e+00	1.534351e-03	
509	5.500000e+00	1.536544e-03	
510	5.550000e+00	1.538923e-03	
511	5.600000e+00	1.541503e-03	
512	5.650000e+00	1.544297e-03	
513	5.700000e+00	1.547320e-03	
514	5.750000e+00	1.550589e-03	
515	5.800000e+00	1.554120e-03	
516	5.850000e+00	1.557928e-03	
517	5.900000e+00	1.562033e-03	
518	5.950000e+00	1.566450e-03	

Index   v-sweep         -i(vds)         
--------------------------------------------------------------------------------
519	6.000000e+00	1.571200e-03	
520	6.050000e+00	1.576299e-03	
521	6.100000e+00	1.581769e-03	
522	6.150000e+00	1.587627e-03	
523	6.200000e+00	1.593895e-03	
524	6.250000e+00	1.600594e-03	
525	6.300000e+00	1.607743e-03	
526	6.350000e+00	1.615366e-03	
527	6.400000e+00	1.623482e-03	
528	6.450000e+00	1.632116e-03	
529	6.500000e+00	1.641289e-03	
530	6.550000e+00	1.651024e-03	
531	6.600000e+00	1.661345e-03	
532	0.000000e+00	-0.000000e+00	
533	5.000000e-02	1.079085e-04	
534	1.000000e-01	2.119877e-04	
535	1.500000e-01	3.123465e-04	
536	2.000000e-01	4.090901e-04	
537	2.500000e-01	5.023192e-04	
538	3.000000e-01	5.921312e-04	
539	3.500000e-01	6.786193e-04	
540	4.000000e-01	7.618735e-04	
541	4.500000e-01	8.419801e-04	
542	5.000000e-01	9.190221e-04	
543	5.500000e-01	9.930793e-04	
544	6.000000e-01	1.064228e-03	
545	6.500000e-01	1.132543e-03	
546	7.000000e-01	1.198095e-03	
547	7.500000e-01	1.260951e-03	
548	8.000000e-01	1.321178e-03	
549	8.500000e-01	1.378838e-03	
550	9.000000e-01	1.433993e-03	
551	9.500000e-01	1.486700e-03	
552	1.000000e+00	1.537015e-03	
553	1.050000e+00	1.584992e-03	
554	1.100000e+00	1.630679e-03	
555	1.150000e+00	1.674125e-03	
556	1.200000e+00	1.715370e-03	
557	1.250000e+00	1.754454e-03	
558	1.300000e+00	1.791404e-03	
559	1.350000e+00	1.826243e-03	
560	1.400000e+00	1.858975e-03	
561	1.450000e+00	1.889587e-03	
562	1.500000e+00	1.918039e-03	
563	1.550000e+00	1.944253e-03	
564	1.600000e+00	1.968115e-03	
565	1.650000e+00	1.989487e-03	
566	1.700000e+00	2.008249e-03	
567	1.750000e+00	2.024376e-03	
568	1.800000e+00	2.037993e-03	
569	1.850000e+00	2.049375e-03	
570	1.900000e+00	2.058876e-03	
571	1.950000e+00	2.066854e-03	
572	2.000000e+00	2.073623e-03	
573	2.050000e+00	2.079437e-03	
574	2.100000e+00	2.084493e-03	
575	2.150000e+00	2.088941e-03	
576	2.200000e+00	2.092897e-03	

Index   v-sweep         -i(vds)         
--------------------------------------------------------------------------------
577	2.250000e+00	2.096450e-03	
578	2.300000e+00	2.099668e-03	
579	2.350000e+00	2.102604e-03	
580	2.400000e+00	2.105301e-03	
581	2.450000e+00	2.107793e-03	
582	2.500000e+00	2.110108e-03	
583	2.550000e+00	2.112268e-03	
584	2.600000e+00	2.114293e-03	
585	2.650000e+00	2.116197e-03	
586	2.700000e+00	2.117994e-03	
587	2.750000e+00	2.119696e-03	
588	2.800000e+00	2.121312e-03	
589	2.850000e+00	2.122849e-03	
590	2.900000e+00	2.124316e-03	
591	2.950000e+00	2.125719e-03	
592	3.000000e+00	2.127062e-03	
593	3.050000e+00	2.128351e-03	
594	3.100000e+00	2.129591e-03	
595	3.150000e+00	2.130784e-03	
596	3.200000e+00	2.131934e-03	
597	3.250000e+00	2.133045e-03	
598	3.300000e+00	2.134118e-03	
599	3.350000e+00	2.135157e-03	
600	3.400000e+00	2.136163e-03	
601	3.450000e+00	2.137140e-03	
602	3.500000e+00	2.138087e-03	
603	3.550000e+00	2.139008e-03	
604	3.600000e+00	2.139904e-03	
605	3.650000e+00	2.140776e-03	
606	3.700000e+00	2.141625e-03	
607	3.750000e+00	2.142454e-03	
608	3.800000e+00	2.143262e-03	
609	3.850000e+00	2.144051e-03	
610	3.900000e+00	2.144822e-03	
611	3.950000e+00	2.145577e-03	
612	4.000000e+00	2.146316e-03	
613	4.050000e+00	2.147040e-03	
614	4.100000e+00	2.147751e-03	
615	4.150000e+00	2.148450e-03	
616	4.200000e+00	2.149137e-03	
617	4.250000e+00	2.149815e-03	
618	4.300000e+00	2.150484e-03	
619	4.350000e+00	2.151146e-03	
620	4.400000e+00	2.151804e-03	
621	4.450000e+00	2.152458e-03	
622	4.500000e+00	2.153112e-03	
623	4.550000e+00	2.153767e-03	
624	4.600000e+00	2.154427e-03	
625	4.650000e+00	2.155094e-03	
626	4.700000e+00	2.155772e-03	
627	4.750000e+00	2.156465e-03	
628	4.800000e+00	2.157177e-03	
629	4.850000e+00	2.157912e-03	
630	4.900000e+00	2.158677e-03	
631	4.950000e+00	2.159476e-03	
632	5.000000e+00	2.160315e-03	
633	5.050000e+00	2.161202e-03	
634	5.100000e+00	2.162144e-03	

Index   v-sweep         -i(vds)         
--------------------------------------------------------------------------------
635	5.150000e+00	2.163149e-03	
636	5.200000e+00	2.164226e-03	
637	5.250000e+00	2.165383e-03	
638	5.300000e+00	2.166631e-03	
639	5.350000e+00	2.167981e-03	
640	5.400000e+00	2.169443e-03	
641	5.450000e+00	2.171031e-03	
642	5.500000e+00	2.172757e-03	
643	5.550000e+00	2.174635e-03	
644	5.600000e+00	2.176679e-03	
645	5.650000e+00	2.178905e-03	
646	5.700000e+00	2.181328e-03	
647	5.750000e+00	2.183966e-03	
648	5.800000e+00	2.186837e-03	
649	5.850000e+00	2.189958e-03	
650	5.900000e+00	2.193350e-03	
651	5.950000e+00	2.197031e-03	
652	6.000000e+00	2.201024e-03	
653	6.050000e+00	2.205350e-03	
654	6.100000e+00	2.210030e-03	
655	6.150000e+00	2.215090e-03	
656	6.200000e+00	2.220551e-03	
657	6.250000e+00	2.226440e-03	
658	6.300000e+00	2.232782e-03	
659	6.350000e+00	2.239602e-03	
660	6.400000e+00	2.246928e-03	
661	6.450000e+00	2.254787e-03	
662	6.500000e+00	2.263208e-03	
663	6.550000e+00	2.272219e-03	
664	6.600000e+00	2.281849e-03	
665	0.000000e+00	-0.000000e+00	
666	5.000000e-02	1.184384e-04	
667	1.000000e-01	2.332786e-04	
668	1.500000e-01	3.446138e-04	
669	2.000000e-01	4.525339e-04	
670	2.500000e-01	5.571256e-04	
671	3.000000e-01	6.584728e-04	
672	3.500000e-01	7.566564e-04	
673	4.000000e-01	8.517546e-04	
674	4.500000e-01	9.438427e-04	
675	5.000000e-01	1.032993e-03	
676	5.500000e-01	1.119277e-03	
677	6.000000e-01	1.202761e-03	
678	6.500000e-01	1.283512e-03	
679	7.000000e-01	1.361591e-03	
680	7.500000e-01	1.437061e-03	
681	8.000000e-01	1.509979e-03	
682	8.500000e-01	1.580403e-03	
683	9.000000e-01	1.648388e-03	
684	9.500000e-01	1.713986e-03	
685	1.000000e+00	1.777249e-03	
686	1.050000e+00	1.838226e-03	
687	1.100000e+00	1.896966e-03	
688	1.150000e+00	1.953515e-03	
689	1.200000e+00	2.007916e-03	
690	1.250000e+00	2.060214e-03	
691	1.300000e+00	2.110450e-03	
692	1.350000e+00	2.158661e-03	

Index   v-sweep         -i(vds)         
--------------------------------------------------------------------------------
693	1.400000e+00	2.204886e-03	
694	1.450000e+00	2.249157e-03	
695	1.500000e+00	2.291505e-03	
696	1.550000e+00	2.331957e-03	
697	1.600000e+00	2.370531e-03	
698	1.650000e+00	2.407240e-03	
699	1.700000e+00	2.442083e-03	
700	1.750000e+00	2.475045e-03	
701	1.800000e+00	2.506089e-03	
702	1.850000e+00	2.535147e-03	
703	1.900000e+00	2.562120e-03	
704	1.950000e+00	2.586873e-03	
705	2.000000e+00	2.609257e-03	
706	2.050000e+00	2.629148e-03	
707	2.100000e+00	2.646511e-03	
708	2.150000e+00	2.661440e-03	
709	2.200000e+00	2.674158e-03	
710	2.250000e+00	2.684967e-03	
711	2.300000e+00	2.694185e-03	
712	2.350000e+00	2.702105e-03	
713	2.400000e+00	2.708975e-03	
714	2.450000e+00	2.714995e-03	
715	2.500000e+00	2.720323e-03	
716	2.550000e+00	2.725082e-03	
717	2.600000e+00	2.729370e-03	
718	2.650000e+00	2.733264e-03	
719	2.700000e+00	2.736823e-03	
720	2.750000e+00	2.740098e-03	
721	2.800000e+00	2.743128e-03	
722	2.850000e+00	2.745944e-03	
723	2.900000e+00	2.748574e-03	
724	2.950000e+00	2.751039e-03	
725	3.000000e+00	2.753359e-03	
726	3.050000e+00	2.755549e-03	
727	3.100000e+00	2.757623e-03	
728	3.150000e+00	2.759592e-03	
729	3.200000e+00	2.761465e-03	
730	3.250000e+00	2.763253e-03	
731	3.300000e+00	2.764961e-03	
732	3.350000e+00	2.766597e-03	
733	3.400000e+00	2.768167e-03	
734	3.450000e+00	2.769676e-03	
735	3.500000e+00	2.771128e-03	
736	3.550000e+00	2.772528e-03	
737	3.600000e+00	2.773879e-03	
738	3.650000e+00	2.775185e-03	
739	3.700000e+00	2.776448e-03	
740	3.750000e+00	2.777672e-03	
741	3.800000e+00	2.778858e-03	
742	3.850000e+00	2.780009e-03	
743	3.900000e+00	2.781128e-03	
744	3.950000e+00	2.782215e-03	
745	4.000000e+00	2.783273e-03	
746	4.050000e+00	2.784304e-03	
747	4.100000e+00	2.785308e-03	
748	4.150000e+00	2.786288e-03	
749	4.200000e+00	2.787245e-03	
750	4.250000e+00	2.788180e-03	

Index   v-sweep         -i(vds)         
--------------------------------------------------------------------------------
751	4.300000e+00	2.789094e-03	
752	4.350000e+00	2.789990e-03	
753	4.400000e+00	2.790867e-03	
754	4.450000e+00	2.791728e-03	
755	4.500000e+00	2.792574e-03	
756	4.550000e+00	2.793406e-03	
757	4.600000e+00	2.794227e-03	
758	4.650000e+00	2.795038e-03	
759	4.700000e+00	2.795841e-03	
760	4.750000e+00	2.796639e-03	
761	4.800000e+00	2.797434e-03	
762	4.850000e+00	2.798229e-03	
763	4.900000e+00	2.799027e-03	
764	4.950000e+00	2.799832e-03	
765	5.000000e+00	2.800647e-03	
766	5.050000e+00	2.801478e-03	
767	5.100000e+00	2.802329e-03	
768	5.150000e+00	2.803206e-03	
769	5.200000e+00	2.804115e-03	
770	5.250000e+00	2.805063e-03	
771	5.300000e+00	2.806057e-03	
772	5.350000e+00	2.807105e-03	
773	5.400000e+00	2.808216e-03	
774	5.450000e+00	2.809400e-03	
775	5.500000e+00	2.810667e-03	
776	5.550000e+00	2.812029e-03	
777	5.600000e+00	2.813497e-03	
778	5.650000e+00	2.815085e-03	
779	5.700000e+00	2.816807e-03	
780	5.750000e+00	2.818678e-03	
781	5.800000e+00	2.820713e-03	
782	5.850000e+00	2.822930e-03	
783	5.900000e+00	2.825346e-03	
784	5.950000e+00	2.827981e-03	
785	6.000000e+00	2.830853e-03	
786	6.050000e+00	2.833986e-03	
787	6.100000e+00	2.837399e-03	
788	6.150000e+00	2.841117e-03	
789	6.200000e+00	2.845164e-03	
790	6.250000e+00	2.849564e-03	
791	6.300000e+00	2.854344e-03	
792	6.350000e+00	2.859531e-03	
793	6.400000e+00	2.865154e-03	
794	6.450000e+00	2.871241e-03	
795	6.500000e+00	2.877822e-03	
796	6.550000e+00	2.884930e-03	
797	6.600000e+00	2.892597e-03	
Note: No ".plot", ".print", or ".fourier" lines; no simulations run
