
Note: Compatibility modes selected: hs

Warning: m=xx on .subckt line will override multiplier m hierarchy!


Circuit: ***************************

Doing analysis at TEMP = 25.000000 and TNOM = 25.000000


No. of Data Rows : 798
                          ***************************
                          DC transfer characteristic  Mon Jan  9 13:57:40  2023
--------------------------------------------------------------------------------
Index   v-sweep         -i(vds)         
--------------------------------------------------------------------------------
0	0.000000e+00	-0.000000e+00	
1	5.000000e-02	5.679196e-07	
2	1.000000e-01	1.011858e-06	
3	1.500000e-01	1.335964e-06	
4	2.000000e-01	1.548145e-06	
5	2.500000e-01	1.667623e-06	
6	3.000000e-01	1.729540e-06	
7	3.500000e-01	1.765756e-06	
8	4.000000e-01	1.791173e-06	
9	4.500000e-01	1.811180e-06	
10	5.000000e-01	1.827941e-06	
11	5.500000e-01	1.842505e-06	
12	6.000000e-01	1.855464e-06	
13	6.500000e-01	1.867193e-06	
14	7.000000e-01	1.877943e-06	
15	7.500000e-01	1.887894e-06	
16	8.000000e-01	1.897180e-06	
17	8.500000e-01	1.905902e-06	
18	9.000000e-01	1.914141e-06	
19	9.500000e-01	1.921961e-06	
20	1.000000e+00	1.929413e-06	
21	1.050000e+00	1.936540e-06	
22	1.100000e+00	1.943379e-06	
23	1.150000e+00	1.949958e-06	
24	1.200000e+00	1.956304e-06	
25	1.250000e+00	1.962439e-06	
26	1.300000e+00	1.968382e-06	
27	1.350000e+00	1.974148e-06	
28	1.400000e+00	1.979754e-06	
29	1.450000e+00	1.985211e-06	
30	1.500000e+00	1.990532e-06	
31	1.550000e+00	1.995725e-06	
32	1.600000e+00	2.000800e-06	
33	1.650000e+00	2.005766e-06	
34	1.700000e+00	2.010629e-06	
35	1.750000e+00	2.015396e-06	
36	1.800000e+00	2.020073e-06	
37	1.850000e+00	2.024666e-06	
38	1.900000e+00	2.029179e-06	
39	1.950000e+00	2.033617e-06	
40	2.000000e+00	2.037985e-06	
41	2.050000e+00	2.042285e-06	
42	2.100000e+00	2.046522e-06	
43	2.150000e+00	2.050699e-06	
44	2.200000e+00	2.054819e-06	
45	2.250000e+00	2.058884e-06	
46	2.300000e+00	2.062898e-06	
47	2.350000e+00	2.066863e-06	
48	2.400000e+00	2.070781e-06	
49	2.450000e+00	2.074655e-06	
50	2.500000e+00	2.078486e-06	
51	2.550000e+00	2.082278e-06	
52	2.600000e+00	2.086031e-06	
53	2.650000e+00	2.089748e-06	
54	2.700000e+00	2.093431e-06	

Index   v-sweep         -i(vds)         
--------------------------------------------------------------------------------
55	2.750000e+00	2.097082e-06	
56	2.800000e+00	2.100704e-06	
57	2.850000e+00	2.104298e-06	
58	2.900000e+00	2.107867e-06	
59	2.950000e+00	2.111413e-06	
60	3.000000e+00	2.114939e-06	
61	3.050000e+00	2.118448e-06	
62	3.100000e+00	2.121943e-06	
63	3.150000e+00	2.125428e-06	
64	3.200000e+00	2.128906e-06	
65	3.250000e+00	2.132382e-06	
66	3.300000e+00	2.135859e-06	
67	3.350000e+00	2.139343e-06	
68	3.400000e+00	2.142840e-06	
69	3.450000e+00	2.146354e-06	
70	3.500000e+00	2.149893e-06	
71	3.550000e+00	2.153463e-06	
72	3.600000e+00	2.157073e-06	
73	3.650000e+00	2.160729e-06	
74	3.700000e+00	2.164441e-06	
75	3.750000e+00	2.168219e-06	
76	3.800000e+00	2.172072e-06	
77	3.850000e+00	2.176012e-06	
78	3.900000e+00	2.180050e-06	
79	3.950000e+00	2.184199e-06	
80	4.000000e+00	2.188472e-06	
81	4.050000e+00	2.192882e-06	
82	4.100000e+00	2.197446e-06	
83	4.150000e+00	2.202179e-06	
84	4.200000e+00	2.207097e-06	
85	4.250000e+00	2.212218e-06	
86	4.300000e+00	2.217560e-06	
87	4.350000e+00	2.223143e-06	
88	4.400000e+00	2.228987e-06	
89	4.450000e+00	2.235112e-06	
90	4.500000e+00	2.241541e-06	
91	4.550000e+00	2.248296e-06	
92	4.600000e+00	2.255402e-06	
93	4.650000e+00	2.262883e-06	
94	4.700000e+00	2.270763e-06	
95	4.750000e+00	2.279071e-06	
96	4.800000e+00	2.287832e-06	
97	4.850000e+00	2.297074e-06	
98	4.900000e+00	2.306828e-06	
99	4.950000e+00	2.317122e-06	
100	5.000000e+00	2.327986e-06	
101	5.050000e+00	2.339453e-06	
102	5.100000e+00	2.351554e-06	
103	5.150000e+00	2.364322e-06	
104	5.200000e+00	2.377790e-06	
105	5.250000e+00	2.391993e-06	
106	5.300000e+00	2.406966e-06	
107	5.350000e+00	2.422744e-06	
108	5.400000e+00	2.439363e-06	
109	5.450000e+00	2.456860e-06	
110	5.500000e+00	2.475274e-06	
111	5.550000e+00	2.494641e-06	
112	5.600000e+00	2.515001e-06	

Index   v-sweep         -i(vds)         
--------------------------------------------------------------------------------
113	5.650000e+00	2.536393e-06	
114	5.700000e+00	2.558856e-06	
115	5.750000e+00	2.582430e-06	
116	5.800000e+00	2.607157e-06	
117	5.850000e+00	2.633076e-06	
118	5.900000e+00	2.660231e-06	
119	5.950000e+00	2.688662e-06	
120	6.000000e+00	2.718411e-06	
121	6.050000e+00	2.749522e-06	
122	6.100000e+00	2.782037e-06	
123	6.150000e+00	2.816000e-06	
124	6.200000e+00	2.851453e-06	
125	6.250000e+00	2.888441e-06	
126	6.300000e+00	2.927007e-06	
127	6.350000e+00	2.967196e-06	
128	6.400000e+00	3.009051e-06	
129	6.450000e+00	3.052618e-06	
130	6.500000e+00	3.097941e-06	
131	6.550000e+00	3.145065e-06	
132	6.600000e+00	3.194034e-06	
133	0.000000e+00	-0.000000e+00	
134	5.000000e-02	2.128046e-06	
135	1.000000e-01	4.114873e-06	
136	1.500000e-01	5.963636e-06	
137	2.000000e-01	7.677402e-06	
138	2.500000e-01	9.259151e-06	
139	3.000000e-01	1.071179e-05	
140	3.500000e-01	1.203814e-05	
141	4.000000e-01	1.324099e-05	
142	4.500000e-01	1.432305e-05	
143	5.000000e-01	1.528705e-05	
144	5.500000e-01	1.613573e-05	
145	6.000000e-01	1.687199e-05	
146	6.500000e-01	1.749913e-05	
147	7.000000e-01	1.802140e-05	
148	7.500000e-01	1.844517e-05	
149	8.000000e-01	1.878068e-05	
150	8.500000e-01	1.904285e-05	
151	9.000000e-01	1.924890e-05	
152	9.500000e-01	1.941431e-05	
153	1.000000e+00	1.955070e-05	
154	1.050000e+00	1.966607e-05	
155	1.100000e+00	1.976580e-05	
156	1.150000e+00	1.985356e-05	
157	1.200000e+00	1.993191e-05	
158	1.250000e+00	2.000270e-05	
159	1.300000e+00	2.006729e-05	
160	1.350000e+00	2.012671e-05	
161	1.400000e+00	2.018176e-05	
162	1.450000e+00	2.023306e-05	
163	1.500000e+00	2.028113e-05	
164	1.550000e+00	2.032636e-05	
165	1.600000e+00	2.036910e-05	
166	1.650000e+00	2.040963e-05	
167	1.700000e+00	2.044817e-05	
168	1.750000e+00	2.048494e-05	
169	1.800000e+00	2.052010e-05	
170	1.850000e+00	2.055380e-05	

Index   v-sweep         -i(vds)         
--------------------------------------------------------------------------------
171	1.900000e+00	2.058617e-05	
172	1.950000e+00	2.061732e-05	
173	2.000000e+00	2.064736e-05	
174	2.050000e+00	2.067636e-05	
175	2.100000e+00	2.070440e-05	
176	2.150000e+00	2.073156e-05	
177	2.200000e+00	2.075790e-05	
178	2.250000e+00	2.078347e-05	
179	2.300000e+00	2.080832e-05	
180	2.350000e+00	2.083249e-05	
181	2.400000e+00	2.085604e-05	
182	2.450000e+00	2.087899e-05	
183	2.500000e+00	2.090138e-05	
184	2.550000e+00	2.092325e-05	
185	2.600000e+00	2.094461e-05	
186	2.650000e+00	2.096550e-05	
187	2.700000e+00	2.098595e-05	
188	2.750000e+00	2.100597e-05	
189	2.800000e+00	2.102559e-05	
190	2.850000e+00	2.104482e-05	
191	2.900000e+00	2.106369e-05	
192	2.950000e+00	2.108221e-05	
193	3.000000e+00	2.110041e-05	
194	3.050000e+00	2.111829e-05	
195	3.100000e+00	2.113588e-05	
196	3.150000e+00	2.115319e-05	
197	3.200000e+00	2.117024e-05	
198	3.250000e+00	2.118703e-05	
199	3.300000e+00	2.120361e-05	
200	3.350000e+00	2.121997e-05	
201	3.400000e+00	2.123613e-05	
202	3.450000e+00	2.125213e-05	
203	3.500000e+00	2.126798e-05	
204	3.550000e+00	2.128371e-05	
205	3.600000e+00	2.129933e-05	
206	3.650000e+00	2.131489e-05	
207	3.700000e+00	2.133041e-05	
208	3.750000e+00	2.134593e-05	
209	3.800000e+00	2.136148e-05	
210	3.850000e+00	2.137712e-05	
211	3.900000e+00	2.139288e-05	
212	3.950000e+00	2.140882e-05	
213	4.000000e+00	2.142499e-05	
214	4.050000e+00	2.144146e-05	
215	4.100000e+00	2.145829e-05	
216	4.150000e+00	2.147555e-05	
217	4.200000e+00	2.149333e-05	
218	4.250000e+00	2.151170e-05	
219	4.300000e+00	2.153077e-05	
220	4.350000e+00	2.155062e-05	
221	4.400000e+00	2.157137e-05	
222	4.450000e+00	2.159312e-05	
223	4.500000e+00	2.161600e-05	
224	4.550000e+00	2.164013e-05	
225	4.600000e+00	2.166565e-05	
226	4.650000e+00	2.169270e-05	
227	4.700000e+00	2.172143e-05	
228	4.750000e+00	2.175201e-05	

Index   v-sweep         -i(vds)         
--------------------------------------------------------------------------------
229	4.800000e+00	2.178459e-05	
230	4.850000e+00	2.181936e-05	
231	4.900000e+00	2.185650e-05	
232	4.950000e+00	2.189620e-05	
233	5.000000e+00	2.193866e-05	
234	5.050000e+00	2.198408e-05	
235	5.100000e+00	2.203269e-05	
236	5.150000e+00	2.208470e-05	
237	5.200000e+00	2.214036e-05	
238	5.250000e+00	2.219989e-05	
239	5.300000e+00	2.226356e-05	
240	5.350000e+00	2.233160e-05	
241	5.400000e+00	2.240429e-05	
242	5.450000e+00	2.248190e-05	
243	5.500000e+00	2.256470e-05	
244	5.550000e+00	2.265298e-05	
245	5.600000e+00	2.274702e-05	
246	5.650000e+00	2.284713e-05	
247	5.700000e+00	2.295361e-05	
248	5.750000e+00	2.306678e-05	
249	5.800000e+00	2.318694e-05	
250	5.850000e+00	2.331441e-05	
251	5.900000e+00	2.344954e-05	
252	5.950000e+00	2.359265e-05	
253	6.000000e+00	2.374407e-05	
254	6.050000e+00	2.390415e-05	
255	6.100000e+00	2.407325e-05	
256	6.150000e+00	2.425170e-05	
257	6.200000e+00	2.443987e-05	
258	6.250000e+00	2.463812e-05	
259	6.300000e+00	2.484681e-05	
260	6.350000e+00	2.506631e-05	
261	6.400000e+00	2.529698e-05	
262	6.450000e+00	2.553921e-05	
263	6.500000e+00	2.579336e-05	
264	6.550000e+00	2.605982e-05	
265	6.600000e+00	2.633896e-05	
266	0.000000e+00	-0.000000e+00	
267	5.000000e-02	3.354706e-06	
268	1.000000e-01	6.562082e-06	
269	1.500000e-01	9.625413e-06	
270	2.000000e-01	1.254789e-05	
271	2.500000e-01	1.533260e-05	
272	3.000000e-01	1.798256e-05	
273	3.500000e-01	2.050067e-05	
274	4.000000e-01	2.288977e-05	
275	4.500000e-01	2.515259e-05	
276	5.000000e-01	2.729180e-05	
277	5.500000e-01	2.930999e-05	
278	6.000000e-01	3.120966e-05	
279	6.500000e-01	3.299326e-05	
280	7.000000e-01	3.466315e-05	
281	7.500000e-01	3.622162e-05	
282	8.000000e-01	3.767088e-05	
283	8.500000e-01	3.901306e-05	
284	9.000000e-01	4.025019e-05	
285	9.500000e-01	4.138418e-05	
286	1.000000e+00	4.241678e-05	

Index   v-sweep         -i(vds)         
--------------------------------------------------------------------------------
287	1.050000e+00	4.334953e-05	
288	1.100000e+00	4.418372e-05	
289	1.150000e+00	4.492052e-05	
290	1.200000e+00	4.556143e-05	
291	1.250000e+00	4.610945e-05	
292	1.300000e+00	4.657085e-05	
293	1.350000e+00	4.695583e-05	
294	1.400000e+00	4.727722e-05	
295	1.450000e+00	4.754785e-05	
296	1.500000e+00	4.777877e-05	
297	1.550000e+00	4.797868e-05	
298	1.600000e+00	4.815417e-05	
299	1.650000e+00	4.831017e-05	
300	1.700000e+00	4.845037e-05	
301	1.750000e+00	4.857758e-05	
302	1.800000e+00	4.869395e-05	
303	1.850000e+00	4.880116e-05	
304	1.900000e+00	4.890056e-05	
305	1.950000e+00	4.899320e-05	
306	2.000000e+00	4.907995e-05	
307	2.050000e+00	4.916155e-05	
308	2.100000e+00	4.923857e-05	
309	2.150000e+00	4.931152e-05	
310	2.200000e+00	4.938082e-05	
311	2.250000e+00	4.944684e-05	
312	2.300000e+00	4.950987e-05	
313	2.350000e+00	4.957021e-05	
314	2.400000e+00	4.962807e-05	
315	2.450000e+00	4.968366e-05	
316	2.500000e+00	4.973717e-05	
317	2.550000e+00	4.978875e-05	
318	2.600000e+00	4.983855e-05	
319	2.650000e+00	4.988669e-05	
320	2.700000e+00	4.993330e-05	
321	2.750000e+00	4.997847e-05	
322	2.800000e+00	5.002229e-05	
323	2.850000e+00	5.006486e-05	
324	2.900000e+00	5.010624e-05	
325	2.950000e+00	5.014651e-05	
326	3.000000e+00	5.018573e-05	
327	3.050000e+00	5.022397e-05	
328	3.100000e+00	5.026126e-05	
329	3.150000e+00	5.029767e-05	
330	3.200000e+00	5.033324e-05	
331	3.250000e+00	5.036802e-05	
332	3.300000e+00	5.040204e-05	
333	3.350000e+00	5.043534e-05	
334	3.400000e+00	5.046796e-05	
335	3.450000e+00	5.049994e-05	
336	3.500000e+00	5.053131e-05	
337	3.550000e+00	5.056210e-05	
338	3.600000e+00	5.059234e-05	
339	3.650000e+00	5.062207e-05	
340	3.700000e+00	5.065133e-05	
341	3.750000e+00	5.068014e-05	
342	3.800000e+00	5.070856e-05	
343	3.850000e+00	5.073661e-05	
344	3.900000e+00	5.076435e-05	

Index   v-sweep         -i(vds)         
--------------------------------------------------------------------------------
345	3.950000e+00	5.079182e-05	
346	4.000000e+00	5.081908e-05	
347	4.050000e+00	5.084618e-05	
348	4.100000e+00	5.087318e-05	
349	4.150000e+00	5.090017e-05	
350	4.200000e+00	5.092721e-05	
351	4.250000e+00	5.095439e-05	
352	4.300000e+00	5.098181e-05	
353	4.350000e+00	5.100959e-05	
354	4.400000e+00	5.103782e-05	
355	4.450000e+00	5.106665e-05	
356	4.500000e+00	5.109620e-05	
357	4.550000e+00	5.112664e-05	
358	4.600000e+00	5.115813e-05	
359	4.650000e+00	5.119086e-05	
360	4.700000e+00	5.122501e-05	
361	4.750000e+00	5.126080e-05	
362	4.800000e+00	5.129845e-05	
363	4.850000e+00	5.133821e-05	
364	4.900000e+00	5.138035e-05	
365	4.950000e+00	5.142512e-05	
366	5.000000e+00	5.147285e-05	
367	5.050000e+00	5.152382e-05	
368	5.100000e+00	5.157839e-05	
369	5.150000e+00	5.163690e-05	
370	5.200000e+00	5.169971e-05	
371	5.250000e+00	5.176723e-05	
372	5.300000e+00	5.183985e-05	
373	5.350000e+00	5.191800e-05	
374	5.400000e+00	5.200213e-05	
375	5.450000e+00	5.209271e-05	
376	5.500000e+00	5.219022e-05	
377	5.550000e+00	5.229516e-05	
378	5.600000e+00	5.240806e-05	
379	5.650000e+00	5.252946e-05	
380	5.700000e+00	5.265991e-05	
381	5.750000e+00	5.280000e-05	
382	5.800000e+00	5.295032e-05	
383	5.850000e+00	5.311149e-05	
384	5.900000e+00	5.328413e-05	
385	5.950000e+00	5.346889e-05	
386	6.000000e+00	5.366644e-05	
387	6.050000e+00	5.387745e-05	
388	6.100000e+00	5.410263e-05	
389	6.150000e+00	5.434267e-05	
390	6.200000e+00	5.459832e-05	
391	6.250000e+00	5.487029e-05	
392	6.300000e+00	5.515935e-05	
393	6.350000e+00	5.546627e-05	
394	6.400000e+00	5.579181e-05	
395	6.450000e+00	5.613677e-05	
396	6.500000e+00	5.650195e-05	
397	6.550000e+00	5.688816e-05	
398	6.600000e+00	5.729622e-05	
399	0.000000e+00	-0.000000e+00	
400	5.000000e-02	4.306421e-06	
401	1.000000e-01	8.465899e-06	
402	1.500000e-01	1.248154e-05	

Index   v-sweep         -i(vds)         
--------------------------------------------------------------------------------
403	2.000000e-01	1.635637e-05	
404	2.500000e-01	2.009332e-05	
405	3.000000e-01	2.369524e-05	
406	3.500000e-01	2.716491e-05	
407	4.000000e-01	3.050501e-05	
408	4.500000e-01	3.371817e-05	
409	5.000000e-01	3.680693e-05	
410	5.500000e-01	3.977376e-05	
411	6.000000e-01	4.262105e-05	
412	6.500000e-01	4.535116e-05	
413	7.000000e-01	4.796633e-05	
414	7.500000e-01	5.046879e-05	
415	8.000000e-01	5.286068e-05	
416	8.500000e-01	5.514409e-05	
417	9.000000e-01	5.732104e-05	
418	9.500000e-01	5.939351e-05	
419	1.000000e+00	6.136342e-05	
420	1.050000e+00	6.323262e-05	
421	1.100000e+00	6.500289e-05	
422	1.150000e+00	6.667596e-05	
423	1.200000e+00	6.825344e-05	
424	1.250000e+00	6.973684e-05	
425	1.300000e+00	7.112752e-05	
426	1.350000e+00	7.242662e-05	
427	1.400000e+00	7.363500e-05	
428	1.450000e+00	7.475309e-05	
429	1.500000e+00	7.578078e-05	
430	1.550000e+00	7.671729e-05	
431	1.600000e+00	7.756137e-05	
432	1.650000e+00	7.831199e-05	
433	1.700000e+00	7.896980e-05	
434	1.750000e+00	7.953888e-05	
435	1.800000e+00	8.002729e-05	
436	1.850000e+00	8.044592e-05	
437	1.900000e+00	8.080639e-05	
438	1.950000e+00	8.111939e-05	
439	2.000000e+00	8.139392e-05	
440	2.050000e+00	8.163724e-05	
441	2.100000e+00	8.185502e-05	
442	2.150000e+00	8.205171e-05	
443	2.200000e+00	8.223080e-05	
444	2.250000e+00	8.239504e-05	
445	2.300000e+00	8.254662e-05	
446	2.350000e+00	8.268729e-05	
447	2.400000e+00	8.281851e-05	
448	2.450000e+00	8.294144e-05	
449	2.500000e+00	8.305707e-05	
450	2.550000e+00	8.316621e-05	
451	2.600000e+00	8.326957e-05	
452	2.650000e+00	8.336773e-05	
453	2.700000e+00	8.346119e-05	
454	2.750000e+00	8.355039e-05	
455	2.800000e+00	8.363572e-05	
456	2.850000e+00	8.371751e-05	
457	2.900000e+00	8.379604e-05	
458	2.950000e+00	8.387157e-05	
459	3.000000e+00	8.394434e-05	
460	3.050000e+00	8.401454e-05	

Index   v-sweep         -i(vds)         
--------------------------------------------------------------------------------
461	3.100000e+00	8.408236e-05	
462	3.150000e+00	8.414797e-05	
463	3.200000e+00	8.421150e-05	
464	3.250000e+00	8.427310e-05	
465	3.300000e+00	8.433288e-05	
466	3.350000e+00	8.439095e-05	
467	3.400000e+00	8.444742e-05	
468	3.450000e+00	8.450238e-05	
469	3.500000e+00	8.455590e-05	
470	3.550000e+00	8.460808e-05	
471	3.600000e+00	8.465898e-05	
472	3.650000e+00	8.470867e-05	
473	3.700000e+00	8.475721e-05	
474	3.750000e+00	8.480466e-05	
475	3.800000e+00	8.485108e-05	
476	3.850000e+00	8.489651e-05	
477	3.900000e+00	8.494103e-05	
478	3.950000e+00	8.498466e-05	
479	4.000000e+00	8.502747e-05	
480	4.050000e+00	8.506951e-05	
481	4.100000e+00	8.511082e-05	
482	4.150000e+00	8.515147e-05	
483	4.200000e+00	8.519151e-05	
484	4.250000e+00	8.523101e-05	
485	4.300000e+00	8.527003e-05	
486	4.350000e+00	8.530863e-05	
487	4.400000e+00	8.534692e-05	
488	4.450000e+00	8.538497e-05	
489	4.500000e+00	8.542288e-05	
490	4.550000e+00	8.546076e-05	
491	4.600000e+00	8.549874e-05	
492	4.650000e+00	8.553694e-05	
493	4.700000e+00	8.557553e-05	
494	4.750000e+00	8.561465e-05	
495	4.800000e+00	8.565450e-05	
496	4.850000e+00	8.569528e-05	
497	4.900000e+00	8.573721e-05	
498	4.950000e+00	8.578053e-05	
499	5.000000e+00	8.582550e-05	
500	5.050000e+00	8.587241e-05	
501	5.100000e+00	8.592157e-05	
502	5.150000e+00	8.597331e-05	
503	5.200000e+00	8.602801e-05	
504	5.250000e+00	8.608604e-05	
505	5.300000e+00	8.614784e-05	
506	5.350000e+00	8.621383e-05	
507	5.400000e+00	8.628450e-05	
508	5.450000e+00	8.636036e-05	
509	5.500000e+00	8.644193e-05	
510	5.550000e+00	8.652980e-05	
511	5.600000e+00	8.662454e-05	
512	5.650000e+00	8.672681e-05	
513	5.700000e+00	8.683725e-05	
514	5.750000e+00	8.695656e-05	
515	5.800000e+00	8.708548e-05	
516	5.850000e+00	8.722475e-05	
517	5.900000e+00	8.737516e-05	
518	5.950000e+00	8.753755e-05	

Index   v-sweep         -i(vds)         
--------------------------------------------------------------------------------
519	6.000000e+00	8.771276e-05	
520	6.050000e+00	8.790167e-05	
521	6.100000e+00	8.810522e-05	
522	6.150000e+00	8.832433e-05	
523	6.200000e+00	8.855999e-05	
524	6.250000e+00	8.881320e-05	
525	6.300000e+00	8.908500e-05	
526	6.350000e+00	8.937646e-05	
527	6.400000e+00	8.968866e-05	
528	6.450000e+00	9.002272e-05	
529	6.500000e+00	9.037978e-05	
530	6.550000e+00	9.076103e-05	
531	6.600000e+00	9.116764e-05	
532	0.000000e+00	-0.000000e+00	
533	5.000000e-02	5.017788e-06	
534	1.000000e-01	9.894122e-06	
535	1.500000e-01	1.463177e-05	
536	2.000000e-01	1.923343e-05	
537	2.500000e-01	2.370172e-05	
538	3.000000e-01	2.803921e-05	
539	3.500000e-01	3.224838e-05	
540	4.000000e-01	3.633166e-05	
541	4.500000e-01	4.029141e-05	
542	5.000000e-01	4.412993e-05	
543	5.500000e-01	4.784946e-05	
544	6.000000e-01	5.145218e-05	
545	6.500000e-01	5.494021e-05	
546	7.000000e-01	5.831561e-05	
547	7.500000e-01	6.158041e-05	
548	8.000000e-01	6.473655e-05	
549	8.500000e-01	6.778596e-05	
550	9.000000e-01	7.073050e-05	
551	9.500000e-01	7.357197e-05	
552	1.000000e+00	7.631216e-05	
553	1.050000e+00	7.895280e-05	
554	1.100000e+00	8.149556e-05	
555	1.150000e+00	8.394210e-05	
556	1.200000e+00	8.629403e-05	
557	1.250000e+00	8.855290e-05	
558	1.300000e+00	9.072024e-05	
559	1.350000e+00	9.279753e-05	
560	1.400000e+00	9.478620e-05	
561	1.450000e+00	9.668762e-05	
562	1.500000e+00	9.850310e-05	
563	1.550000e+00	1.002339e-04	
564	1.600000e+00	1.018811e-04	
565	1.650000e+00	1.034457e-04	
566	1.700000e+00	1.049285e-04	
567	1.750000e+00	1.063301e-04	
568	1.800000e+00	1.076506e-04	
569	1.850000e+00	1.088899e-04	
570	1.900000e+00	1.100469e-04	
571	1.950000e+00	1.111198e-04	
572	2.000000e+00	1.121063e-04	
573	2.050000e+00	1.130035e-04	
574	2.100000e+00	1.138095e-04	
575	2.150000e+00	1.145246e-04	
576	2.200000e+00	1.151528e-04	

Index   v-sweep         -i(vds)         
--------------------------------------------------------------------------------
577	2.250000e+00	1.157015e-04	
578	2.300000e+00	1.161804e-04	
579	2.350000e+00	1.166000e-04	
580	2.400000e+00	1.169699e-04	
581	2.450000e+00	1.172986e-04	
582	2.500000e+00	1.175930e-04	
583	2.550000e+00	1.178587e-04	
584	2.600000e+00	1.181004e-04	
585	2.650000e+00	1.183217e-04	
586	2.700000e+00	1.185256e-04	
587	2.750000e+00	1.187145e-04	
588	2.800000e+00	1.188903e-04	
589	2.850000e+00	1.190547e-04	
590	2.900000e+00	1.192091e-04	
591	2.950000e+00	1.193546e-04	
592	3.000000e+00	1.194921e-04	
593	3.050000e+00	1.196224e-04	
594	3.100000e+00	1.197464e-04	
595	3.150000e+00	1.198645e-04	
596	3.200000e+00	1.199773e-04	
597	3.250000e+00	1.200853e-04	
598	3.300000e+00	1.201888e-04	
599	3.350000e+00	1.202883e-04	
600	3.400000e+00	1.203840e-04	
601	3.450000e+00	1.204762e-04	
602	3.500000e+00	1.205652e-04	
603	3.550000e+00	1.206512e-04	
604	3.600000e+00	1.207343e-04	
605	3.650000e+00	1.208149e-04	
606	3.700000e+00	1.208930e-04	
607	3.750000e+00	1.209687e-04	
608	3.800000e+00	1.210424e-04	
609	3.850000e+00	1.211139e-04	
610	3.900000e+00	1.211836e-04	
611	3.950000e+00	1.212514e-04	
612	4.000000e+00	1.213175e-04	
613	4.050000e+00	1.213820e-04	
614	4.100000e+00	1.214450e-04	
615	4.150000e+00	1.215064e-04	
616	4.200000e+00	1.215665e-04	
617	4.250000e+00	1.216253e-04	
618	4.300000e+00	1.216828e-04	
619	4.350000e+00	1.217392e-04	
620	4.400000e+00	1.217944e-04	
621	4.450000e+00	1.218486e-04	
622	4.500000e+00	1.219019e-04	
623	4.550000e+00	1.219542e-04	
624	4.600000e+00	1.220057e-04	
625	4.650000e+00	1.220565e-04	
626	4.700000e+00	1.221066e-04	
627	4.750000e+00	1.221562e-04	
628	4.800000e+00	1.222054e-04	
629	4.850000e+00	1.222542e-04	
630	4.900000e+00	1.223028e-04	
631	4.950000e+00	1.223514e-04	
632	5.000000e+00	1.224001e-04	
633	5.050000e+00	1.224491e-04	
634	5.100000e+00	1.224986e-04	

Index   v-sweep         -i(vds)         
--------------------------------------------------------------------------------
635	5.150000e+00	1.225489e-04	
636	5.200000e+00	1.226001e-04	
637	5.250000e+00	1.226526e-04	
638	5.300000e+00	1.227066e-04	
639	5.350000e+00	1.227625e-04	
640	5.400000e+00	1.228206e-04	
641	5.450000e+00	1.228814e-04	
642	5.500000e+00	1.229453e-04	
643	5.550000e+00	1.230126e-04	
644	5.600000e+00	1.230840e-04	
645	5.650000e+00	1.231600e-04	
646	5.700000e+00	1.232411e-04	
647	5.750000e+00	1.233280e-04	
648	5.800000e+00	1.234213e-04	
649	5.850000e+00	1.235217e-04	
650	5.900000e+00	1.236299e-04	
651	5.950000e+00	1.237469e-04	
652	6.000000e+00	1.238733e-04	
653	6.050000e+00	1.240101e-04	
654	6.100000e+00	1.241582e-04	
655	6.150000e+00	1.243185e-04	
656	6.200000e+00	1.244922e-04	
657	6.250000e+00	1.246802e-04	
658	6.300000e+00	1.248836e-04	
659	6.350000e+00	1.251036e-04	
660	6.400000e+00	1.253415e-04	
661	6.450000e+00	1.255984e-04	
662	6.500000e+00	1.258756e-04	
663	6.550000e+00	1.261745e-04	
664	6.600000e+00	1.264965e-04	
665	0.000000e+00	-0.000000e+00	
666	5.000000e-02	5.527167e-06	
667	1.000000e-01	1.092165e-05	
668	1.500000e-01	1.618583e-05	
669	2.000000e-01	2.132201e-05	
670	2.500000e-01	2.633245e-05	
671	3.000000e-01	3.121937e-05	
672	3.500000e-01	3.598491e-05	
673	4.000000e-01	4.063118e-05	
674	4.500000e-01	4.516024e-05	
675	5.000000e-01	4.957407e-05	
676	5.500000e-01	5.387465e-05	
677	6.000000e-01	5.806387e-05	
678	6.500000e-01	6.214359e-05	
679	7.000000e-01	6.611565e-05	
680	7.500000e-01	6.998179e-05	
681	8.000000e-01	7.374377e-05	
682	8.500000e-01	7.740325e-05	
683	9.000000e-01	8.096190e-05	
684	9.500000e-01	8.442132e-05	
685	1.000000e+00	8.778309e-05	
686	1.050000e+00	9.104873e-05	
687	1.100000e+00	9.421975e-05	
688	1.150000e+00	9.729763e-05	
689	1.200000e+00	1.002838e-04	
690	1.250000e+00	1.031796e-04	
691	1.300000e+00	1.059866e-04	
692	1.350000e+00	1.087059e-04	

Index   v-sweep         -i(vds)         
--------------------------------------------------------------------------------
693	1.400000e+00	1.113390e-04	
694	1.450000e+00	1.138871e-04	
695	1.500000e+00	1.163515e-04	
696	1.550000e+00	1.187334e-04	
697	1.600000e+00	1.210340e-04	
698	1.650000e+00	1.232546e-04	
699	1.700000e+00	1.253962e-04	
700	1.750000e+00	1.274599e-04	
701	1.800000e+00	1.294469e-04	
702	1.850000e+00	1.313581e-04	
703	1.900000e+00	1.331944e-04	
704	1.950000e+00	1.349569e-04	
705	2.000000e+00	1.366461e-04	
706	2.050000e+00	1.382628e-04	
707	2.100000e+00	1.398074e-04	
708	2.150000e+00	1.412801e-04	
709	2.200000e+00	1.426807e-04	
710	2.250000e+00	1.440087e-04	
711	2.300000e+00	1.452627e-04	
712	2.350000e+00	1.464409e-04	
713	2.400000e+00	1.475404e-04	
714	2.450000e+00	1.485578e-04	
715	2.500000e+00	1.494898e-04	
716	2.550000e+00	1.503344e-04	
717	2.600000e+00	1.510918e-04	
718	2.650000e+00	1.517657e-04	
719	2.700000e+00	1.523628e-04	
720	2.750000e+00	1.528915e-04	
721	2.800000e+00	1.533610e-04	
722	2.850000e+00	1.537798e-04	
723	2.900000e+00	1.541558e-04	
724	2.950000e+00	1.544954e-04	
725	3.000000e+00	1.548043e-04	
726	3.050000e+00	1.550868e-04	
727	3.100000e+00	1.553469e-04	
728	3.150000e+00	1.555874e-04	
729	3.200000e+00	1.558111e-04	
730	3.250000e+00	1.560199e-04	
731	3.300000e+00	1.562157e-04	
732	3.350000e+00	1.563999e-04	
733	3.400000e+00	1.565738e-04	
734	3.450000e+00	1.567384e-04	
735	3.500000e+00	1.568947e-04	
736	3.550000e+00	1.570435e-04	
737	3.600000e+00	1.571854e-04	
738	3.650000e+00	1.573211e-04	
739	3.700000e+00	1.574511e-04	
740	3.750000e+00	1.575758e-04	
741	3.800000e+00	1.576956e-04	
742	3.850000e+00	1.578110e-04	
743	3.900000e+00	1.579222e-04	
744	3.950000e+00	1.580296e-04	
745	4.000000e+00	1.581334e-04	
746	4.050000e+00	1.582338e-04	
747	4.100000e+00	1.583311e-04	
748	4.150000e+00	1.584254e-04	
749	4.200000e+00	1.585169e-04	
750	4.250000e+00	1.586059e-04	

Index   v-sweep         -i(vds)         
--------------------------------------------------------------------------------
751	4.300000e+00	1.586924e-04	
752	4.350000e+00	1.587766e-04	
753	4.400000e+00	1.588586e-04	
754	4.450000e+00	1.589385e-04	
755	4.500000e+00	1.590164e-04	
756	4.550000e+00	1.590925e-04	
757	4.600000e+00	1.591668e-04	
758	4.650000e+00	1.592395e-04	
759	4.700000e+00	1.593105e-04	
760	4.750000e+00	1.593801e-04	
761	4.800000e+00	1.594482e-04	
762	4.850000e+00	1.595150e-04	
763	4.900000e+00	1.595806e-04	
764	4.950000e+00	1.596450e-04	
765	5.000000e+00	1.597084e-04	
766	5.050000e+00	1.597707e-04	
767	5.100000e+00	1.598323e-04	
768	5.150000e+00	1.598931e-04	
769	5.200000e+00	1.599533e-04	
770	5.250000e+00	1.600131e-04	
771	5.300000e+00	1.600725e-04	
772	5.350000e+00	1.601319e-04	
773	5.400000e+00	1.601913e-04	
774	5.450000e+00	1.602510e-04	
775	5.500000e+00	1.603113e-04	
776	5.550000e+00	1.603724e-04	
777	5.600000e+00	1.604346e-04	
778	5.650000e+00	1.604983e-04	
779	5.700000e+00	1.605639e-04	
780	5.750000e+00	1.606316e-04	
781	5.800000e+00	1.607021e-04	
782	5.850000e+00	1.607757e-04	
783	5.900000e+00	1.608530e-04	
784	5.950000e+00	1.609347e-04	
785	6.000000e+00	1.610212e-04	
786	6.050000e+00	1.611133e-04	
787	6.100000e+00	1.612117e-04	
788	6.150000e+00	1.613172e-04	
789	6.200000e+00	1.614306e-04	
790	6.250000e+00	1.615528e-04	
791	6.300000e+00	1.616847e-04	
792	6.350000e+00	1.618273e-04	
793	6.400000e+00	1.619817e-04	
794	6.450000e+00	1.621491e-04	
795	6.500000e+00	1.623304e-04	
796	6.550000e+00	1.625271e-04	
797	6.600000e+00	1.627404e-04	
Note: No ".plot", ".print", or ".fourier" lines; no simulations run
