
Note: Compatibility modes selected: hs

Warning: m=xx on .subckt line will override multiplier m hierarchy!


Circuit: ***************************

Doing analysis at TEMP = 125.000000 and TNOM = 125.000000


No. of Data Rows : 798
                          ***************************
                          DC transfer characteristic  Mon Jan  9 13:57:41  2023
--------------------------------------------------------------------------------
Index   v-sweep         -i(vds)         
--------------------------------------------------------------------------------
0	0.000000e+00	-0.000000e+00	
1	5.000000e-02	1.157451e-05	
2	1.000000e-01	2.083474e-05	
3	1.500000e-01	2.791663e-05	
4	2.000000e-01	3.295122e-05	
5	2.500000e-01	3.617642e-05	
6	3.000000e-01	3.807617e-05	
7	3.500000e-01	3.926878e-05	
8	4.000000e-01	4.015194e-05	
9	4.500000e-01	4.088489e-05	
10	5.000000e-01	4.152813e-05	
11	5.500000e-01	4.210931e-05	
12	6.000000e-01	4.264378e-05	
13	6.500000e-01	4.314133e-05	
14	7.000000e-01	4.360875e-05	
15	7.500000e-01	4.405102e-05	
16	8.000000e-01	4.447194e-05	
17	8.500000e-01	4.487449e-05	
18	9.000000e-01	4.526106e-05	
19	9.500000e-01	4.563359e-05	
20	1.000000e+00	4.599372e-05	
21	1.050000e+00	4.634277e-05	
22	1.100000e+00	4.668191e-05	
23	1.150000e+00	4.701210e-05	
24	1.200000e+00	4.733418e-05	
25	1.250000e+00	4.764889e-05	
26	1.300000e+00	4.795686e-05	
27	1.350000e+00	4.825865e-05	
28	1.400000e+00	4.855476e-05	
29	1.450000e+00	4.884561e-05	
30	1.500000e+00	4.913161e-05	
31	1.550000e+00	4.941310e-05	
32	1.600000e+00	4.969039e-05	
33	1.650000e+00	4.996377e-05	
34	1.700000e+00	5.023350e-05	
35	1.750000e+00	5.049980e-05	
36	1.800000e+00	5.076288e-05	
37	1.850000e+00	5.102295e-05	
38	1.900000e+00	5.128018e-05	
39	1.950000e+00	5.153472e-05	
40	2.000000e+00	5.178674e-05	
41	2.050000e+00	5.203636e-05	
42	2.100000e+00	5.228371e-05	
43	2.150000e+00	5.252892e-05	
44	2.200000e+00	5.277209e-05	
45	2.250000e+00	5.301332e-05	
46	2.300000e+00	5.325271e-05	
47	2.350000e+00	5.349035e-05	
48	2.400000e+00	5.372632e-05	
49	2.450000e+00	5.396071e-05	
50	2.500000e+00	5.419358e-05	
51	2.550000e+00	5.442502e-05	
52	2.600000e+00	5.465509e-05	
53	2.650000e+00	5.488386e-05	
54	2.700000e+00	5.511141e-05	

Index   v-sweep         -i(vds)         
--------------------------------------------------------------------------------
55	2.750000e+00	5.533779e-05	
56	2.800000e+00	5.556308e-05	
57	2.850000e+00	5.578735e-05	
58	2.900000e+00	5.601066e-05	
59	2.950000e+00	5.623311e-05	
60	3.000000e+00	5.645476e-05	
61	3.050000e+00	5.667570e-05	
62	3.100000e+00	5.689602e-05	
63	3.150000e+00	5.711582e-05	
64	3.200000e+00	5.733521e-05	
65	3.250000e+00	5.755430e-05	
66	3.300000e+00	5.777322e-05	
67	3.350000e+00	5.799210e-05	
68	3.400000e+00	5.821110e-05	
69	3.450000e+00	5.843037e-05	
70	3.500000e+00	5.865010e-05	
71	3.550000e+00	5.887047e-05	
72	3.600000e+00	5.909170e-05	
73	3.650000e+00	5.931401e-05	
74	3.700000e+00	5.953765e-05	
75	3.750000e+00	5.976289e-05	
76	3.800000e+00	5.999001e-05	
77	3.850000e+00	6.021932e-05	
78	3.900000e+00	6.045116e-05	
79	3.950000e+00	6.068587e-05	
80	4.000000e+00	6.092383e-05	
81	4.050000e+00	6.116546e-05	
82	4.100000e+00	6.141117e-05	
83	4.150000e+00	6.166142e-05	
84	4.200000e+00	6.191669e-05	
85	4.250000e+00	6.217750e-05	
86	4.300000e+00	6.244437e-05	
87	4.350000e+00	6.271788e-05	
88	4.400000e+00	6.299862e-05	
89	4.450000e+00	6.328720e-05	
90	4.500000e+00	6.358429e-05	
91	4.550000e+00	6.389056e-05	
92	4.600000e+00	6.420673e-05	
93	4.650000e+00	6.453353e-05	
94	4.700000e+00	6.487173e-05	
95	4.750000e+00	6.522214e-05	
96	4.800000e+00	6.558558e-05	
97	4.850000e+00	6.596290e-05	
98	4.900000e+00	6.635501e-05	
99	4.950000e+00	6.676281e-05	
100	5.000000e+00	6.718726e-05	
101	5.050000e+00	6.762932e-05	
102	5.100000e+00	6.809000e-05	
103	5.150000e+00	6.857033e-05	
104	5.200000e+00	6.907137e-05	
105	5.250000e+00	6.959421e-05	
106	5.300000e+00	7.013995e-05	
107	5.350000e+00	7.070975e-05	
108	5.400000e+00	7.130475e-05	
109	5.450000e+00	7.192616e-05	
110	5.500000e+00	7.257518e-05	
111	5.550000e+00	7.325306e-05	
112	5.600000e+00	7.396106e-05	

Index   v-sweep         -i(vds)         
--------------------------------------------------------------------------------
113	5.650000e+00	7.470047e-05	
114	5.700000e+00	7.547259e-05	
115	5.750000e+00	7.627875e-05	
116	5.800000e+00	7.712032e-05	
117	5.850000e+00	7.799865e-05	
118	5.900000e+00	7.891515e-05	
119	5.950000e+00	7.987123e-05	
120	6.000000e+00	8.086830e-05	
121	6.050000e+00	8.190784e-05	
122	6.100000e+00	8.299129e-05	
123	6.150000e+00	8.412014e-05	
124	6.200000e+00	8.529590e-05	
125	6.250000e+00	8.652008e-05	
126	6.300000e+00	8.779420e-05	
127	6.350000e+00	8.911981e-05	
128	6.400000e+00	9.049846e-05	
129	6.450000e+00	9.193173e-05	
130	6.500000e+00	9.342120e-05	
131	6.550000e+00	9.496846e-05	
132	6.600000e+00	9.657511e-05	
133	0.000000e+00	-0.000000e+00	
134	5.000000e-02	3.762886e-05	
135	1.000000e-01	7.254999e-05	
136	1.500000e-01	1.048925e-04	
137	2.000000e-01	1.347413e-04	
138	2.500000e-01	1.621685e-04	
139	3.000000e-01	1.872413e-04	
140	3.500000e-01	2.100245e-04	
141	4.000000e-01	2.305813e-04	
142	4.500000e-01	2.489740e-04	
143	5.000000e-01	2.652654e-04	
144	5.500000e-01	2.795209e-04	
145	6.000000e-01	2.918128e-04	
146	6.500000e-01	3.022299e-04	
147	7.000000e-01	3.108950e-04	
148	7.500000e-01	3.179900e-04	
149	8.000000e-01	3.237683e-04	
150	8.500000e-01	3.285210e-04	
151	9.000000e-01	3.325113e-04	
152	9.500000e-01	3.359392e-04	
153	1.000000e+00	3.389442e-04	
154	1.050000e+00	3.416227e-04	
155	1.100000e+00	3.440427e-04	
156	1.150000e+00	3.462530e-04	
157	1.200000e+00	3.482902e-04	
158	1.250000e+00	3.501820e-04	
159	1.300000e+00	3.519500e-04	
160	1.350000e+00	3.536116e-04	
161	1.400000e+00	3.551804e-04	
162	1.450000e+00	3.566678e-04	
163	1.500000e+00	3.580831e-04	
164	1.550000e+00	3.594344e-04	
165	1.600000e+00	3.607280e-04	
166	1.650000e+00	3.619699e-04	
167	1.700000e+00	3.631647e-04	
168	1.750000e+00	3.643167e-04	
169	1.800000e+00	3.654297e-04	
170	1.850000e+00	3.665068e-04	

Index   v-sweep         -i(vds)         
--------------------------------------------------------------------------------
171	1.900000e+00	3.675508e-04	
172	1.950000e+00	3.685644e-04	
173	2.000000e+00	3.695497e-04	
174	2.050000e+00	3.705087e-04	
175	2.100000e+00	3.714433e-04	
176	2.150000e+00	3.723550e-04	
177	2.200000e+00	3.732454e-04	
178	2.250000e+00	3.741157e-04	
179	2.300000e+00	3.749673e-04	
180	2.350000e+00	3.758011e-04	
181	2.400000e+00	3.766182e-04	
182	2.450000e+00	3.774195e-04	
183	2.500000e+00	3.782059e-04	
184	2.550000e+00	3.789782e-04	
185	2.600000e+00	3.797370e-04	
186	2.650000e+00	3.804831e-04	
187	2.700000e+00	3.812172e-04	
188	2.750000e+00	3.819397e-04	
189	2.800000e+00	3.826512e-04	
190	2.850000e+00	3.833523e-04	
191	2.900000e+00	3.840434e-04	
192	2.950000e+00	3.847250e-04	
193	3.000000e+00	3.853976e-04	
194	3.050000e+00	3.860615e-04	
195	3.100000e+00	3.867172e-04	
196	3.150000e+00	3.873652e-04	
197	3.200000e+00	3.880057e-04	
198	3.250000e+00	3.886393e-04	
199	3.300000e+00	3.892663e-04	
200	3.350000e+00	3.898872e-04	
201	3.400000e+00	3.905024e-04	
202	3.450000e+00	3.911125e-04	
203	3.500000e+00	3.917179e-04	
204	3.550000e+00	3.923191e-04	
205	3.600000e+00	3.929169e-04	
206	3.650000e+00	3.935117e-04	
207	3.700000e+00	3.941043e-04	
208	3.750000e+00	3.946954e-04	
209	3.800000e+00	3.952860e-04	
210	3.850000e+00	3.958767e-04	
211	3.900000e+00	3.964688e-04	
212	3.950000e+00	3.970631e-04	
213	4.000000e+00	3.976609e-04	
214	4.050000e+00	3.982634e-04	
215	4.100000e+00	3.988720e-04	
216	4.150000e+00	3.994881e-04	
217	4.200000e+00	4.001134e-04	
218	4.250000e+00	4.007496e-04	
219	4.300000e+00	4.013984e-04	
220	4.350000e+00	4.020620e-04	
221	4.400000e+00	4.027423e-04	
222	4.450000e+00	4.034417e-04	
223	4.500000e+00	4.041625e-04	
224	4.550000e+00	4.049072e-04	
225	4.600000e+00	4.056786e-04	
226	4.650000e+00	4.064795e-04	
227	4.700000e+00	4.073130e-04	
228	4.750000e+00	4.081820e-04	

Index   v-sweep         -i(vds)         
--------------------------------------------------------------------------------
229	4.800000e+00	4.090901e-04	
230	4.850000e+00	4.100405e-04	
231	4.900000e+00	4.110371e-04	
232	4.950000e+00	4.120835e-04	
233	5.000000e+00	4.131838e-04	
234	5.050000e+00	4.143420e-04	
235	5.100000e+00	4.155624e-04	
236	5.150000e+00	4.168495e-04	
237	5.200000e+00	4.182078e-04	
238	5.250000e+00	4.196421e-04	
239	5.300000e+00	4.211573e-04	
240	5.350000e+00	4.227584e-04	
241	5.400000e+00	4.244507e-04	
242	5.450000e+00	4.262396e-04	
243	5.500000e+00	4.281304e-04	
244	5.550000e+00	4.301289e-04	
245	5.600000e+00	4.322407e-04	
246	5.650000e+00	4.344720e-04	
247	5.700000e+00	4.368286e-04	
248	5.750000e+00	4.393167e-04	
249	5.800000e+00	4.419427e-04	
250	5.850000e+00	4.447129e-04	
251	5.900000e+00	4.476339e-04	
252	5.950000e+00	4.507123e-04	
253	6.000000e+00	4.539549e-04	
254	6.050000e+00	4.573686e-04	
255	6.100000e+00	4.609601e-04	
256	6.150000e+00	4.647368e-04	
257	6.200000e+00	4.687055e-04	
258	6.250000e+00	4.728737e-04	
259	6.300000e+00	4.772485e-04	
260	6.350000e+00	4.818374e-04	
261	6.400000e+00	4.866478e-04	
262	6.450000e+00	4.916872e-04	
263	6.500000e+00	4.969631e-04	
264	6.550000e+00	5.024834e-04	
265	6.600000e+00	5.082556e-04	
266	0.000000e+00	-0.000000e+00	
267	5.000000e-02	5.726878e-05	
268	1.000000e-01	1.117138e-04	
269	1.500000e-01	1.634647e-04	
270	2.000000e-01	2.126065e-04	
271	2.500000e-01	2.592117e-04	
272	3.000000e-01	3.033474e-04	
273	3.500000e-01	3.450780e-04	
274	4.000000e-01	3.844654e-04	
275	4.500000e-01	4.215694e-04	
276	5.000000e-01	4.564478e-04	
277	5.500000e-01	4.891567e-04	
278	6.000000e-01	5.197501e-04	
279	6.500000e-01	5.482806e-04	
280	7.000000e-01	5.747993e-04	
281	7.500000e-01	5.993557e-04	
282	8.000000e-01	6.219981e-04	
283	8.500000e-01	6.427737e-04	
284	9.000000e-01	6.617290e-04	
285	9.500000e-01	6.789101e-04	
286	1.000000e+00	6.943639e-04	

Index   v-sweep         -i(vds)         
--------------------------------------------------------------------------------
287	1.050000e+00	7.081404e-04	
288	1.100000e+00	7.202987e-04	
289	1.150000e+00	7.309184e-04	
290	1.200000e+00	7.401158e-04	
291	1.250000e+00	7.480520e-04	
292	1.300000e+00	7.549182e-04	
293	1.350000e+00	7.609060e-04	
294	1.400000e+00	7.661837e-04	
295	1.450000e+00	7.708881e-04	
296	1.500000e+00	7.751261e-04	
297	1.550000e+00	7.789803e-04	
298	1.600000e+00	7.825147e-04	
299	1.650000e+00	7.857796e-04	
300	1.700000e+00	7.888146e-04	
301	1.750000e+00	7.916513e-04	
302	1.800000e+00	7.943158e-04	
303	1.850000e+00	7.968290e-04	
304	1.900000e+00	7.992085e-04	
305	1.950000e+00	8.014691e-04	
306	2.000000e+00	8.036232e-04	
307	2.050000e+00	8.056814e-04	
308	2.100000e+00	8.076528e-04	
309	2.150000e+00	8.095454e-04	
310	2.200000e+00	8.113658e-04	
311	2.250000e+00	8.131203e-04	
312	2.300000e+00	8.148140e-04	
313	2.350000e+00	8.164517e-04	
314	2.400000e+00	8.180375e-04	
315	2.450000e+00	8.195752e-04	
316	2.500000e+00	8.210680e-04	
317	2.550000e+00	8.225191e-04	
318	2.600000e+00	8.239310e-04	
319	2.650000e+00	8.253064e-04	
320	2.700000e+00	8.266473e-04	
321	2.750000e+00	8.279558e-04	
322	2.800000e+00	8.292339e-04	
323	2.850000e+00	8.304832e-04	
324	2.900000e+00	8.317052e-04	
325	2.950000e+00	8.329015e-04	
326	3.000000e+00	8.340733e-04	
327	3.050000e+00	8.352220e-04	
328	3.100000e+00	8.363486e-04	
329	3.150000e+00	8.374542e-04	
330	3.200000e+00	8.385399e-04	
331	3.250000e+00	8.396066e-04	
332	3.300000e+00	8.406551e-04	
333	3.350000e+00	8.416864e-04	
334	3.400000e+00	8.427013e-04	
335	3.450000e+00	8.437005e-04	
336	3.500000e+00	8.446848e-04	
337	3.550000e+00	8.456550e-04	
338	3.600000e+00	8.466120e-04	
339	3.650000e+00	8.475564e-04	
340	3.700000e+00	8.484891e-04	
341	3.750000e+00	8.494109e-04	
342	3.800000e+00	8.503227e-04	
343	3.850000e+00	8.512255e-04	
344	3.900000e+00	8.521203e-04	

Index   v-sweep         -i(vds)         
--------------------------------------------------------------------------------
345	3.950000e+00	8.530081e-04	
346	4.000000e+00	8.538902e-04	
347	4.050000e+00	8.547678e-04	
348	4.100000e+00	8.556424e-04	
349	4.150000e+00	8.565155e-04	
350	4.200000e+00	8.573888e-04	
351	4.250000e+00	8.582641e-04	
352	4.300000e+00	8.591435e-04	
353	4.350000e+00	8.600293e-04	
354	4.400000e+00	8.609237e-04	
355	4.450000e+00	8.618295e-04	
356	4.500000e+00	8.627495e-04	
357	4.550000e+00	8.636868e-04	
358	4.600000e+00	8.646446e-04	
359	4.650000e+00	8.656267e-04	
360	4.700000e+00	8.666369e-04	
361	4.750000e+00	8.676793e-04	
362	4.800000e+00	8.687584e-04	
363	4.850000e+00	8.698788e-04	
364	4.900000e+00	8.710457e-04	
365	4.950000e+00	8.722643e-04	
366	5.000000e+00	8.735403e-04	
367	5.050000e+00	8.748798e-04	
368	5.100000e+00	8.762889e-04	
369	5.150000e+00	8.777743e-04	
370	5.200000e+00	8.793430e-04	
371	5.250000e+00	8.810023e-04	
372	5.300000e+00	8.827598e-04	
373	5.350000e+00	8.846235e-04	
374	5.400000e+00	8.866016e-04	
375	5.450000e+00	8.887028e-04	
376	5.500000e+00	8.909361e-04	
377	5.550000e+00	8.933107e-04	
378	5.600000e+00	8.958362e-04	
379	5.650000e+00	8.985226e-04	
380	5.700000e+00	9.013801e-04	
381	5.750000e+00	9.044194e-04	
382	5.800000e+00	9.076511e-04	
383	5.850000e+00	9.110866e-04	
384	5.900000e+00	9.147373e-04	
385	5.950000e+00	9.186149e-04	
386	6.000000e+00	9.227315e-04	
387	6.050000e+00	9.270993e-04	
388	6.100000e+00	9.317309e-04	
389	6.150000e+00	9.366391e-04	
390	6.200000e+00	9.418371e-04	
391	6.250000e+00	9.473380e-04	
392	6.300000e+00	9.531555e-04	
393	6.350000e+00	9.593032e-04	
394	6.400000e+00	9.657952e-04	
395	6.450000e+00	9.726456e-04	
396	6.500000e+00	9.798687e-04	
397	6.550000e+00	9.874792e-04	
398	6.600000e+00	9.954916e-04	
399	0.000000e+00	-0.000000e+00	
400	5.000000e-02	7.164971e-05	
401	1.000000e-01	1.405177e-04	
402	1.500000e-01	2.067269e-04	

Index   v-sweep         -i(vds)         
--------------------------------------------------------------------------------
403	2.000000e-01	2.703565e-04	
404	2.500000e-01	3.314729e-04	
405	3.000000e-01	3.901379e-04	
406	3.500000e-01	4.464106e-04	
407	4.000000e-01	5.003483e-04	
408	4.500000e-01	5.520060e-04	
409	5.000000e-01	6.014374e-04	
410	5.500000e-01	6.486941e-04	
411	6.000000e-01	6.938263e-04	
412	6.500000e-01	7.368826e-04	
413	7.000000e-01	7.779102e-04	
414	7.500000e-01	8.169548e-04	
415	8.000000e-01	8.540606e-04	
416	8.500000e-01	8.892707e-04	
417	9.000000e-01	9.226268e-04	
418	9.500000e-01	9.541694e-04	
419	1.000000e+00	9.839377e-04	
420	1.050000e+00	1.011970e-03	
421	1.100000e+00	1.038302e-03	
422	1.150000e+00	1.062970e-03	
423	1.200000e+00	1.086007e-03	
424	1.250000e+00	1.107444e-03	
425	1.300000e+00	1.127309e-03	
426	1.350000e+00	1.145627e-03	
427	1.400000e+00	1.162418e-03	
428	1.450000e+00	1.177697e-03	
429	1.500000e+00	1.191484e-03	
430	1.550000e+00	1.203811e-03	
431	1.600000e+00	1.214748e-03	
432	1.650000e+00	1.224409e-03	
433	1.700000e+00	1.232945e-03	
434	1.750000e+00	1.240520e-03	
435	1.800000e+00	1.247287e-03	
436	1.850000e+00	1.253381e-03	
437	1.900000e+00	1.258912e-03	
438	1.950000e+00	1.263971e-03	
439	2.000000e+00	1.268629e-03	
440	2.050000e+00	1.272944e-03	
441	2.100000e+00	1.276963e-03	
442	2.150000e+00	1.280726e-03	
443	2.200000e+00	1.284264e-03	
444	2.250000e+00	1.287602e-03	
445	2.300000e+00	1.290765e-03	
446	2.350000e+00	1.293769e-03	
447	2.400000e+00	1.296631e-03	
448	2.450000e+00	1.299365e-03	
449	2.500000e+00	1.301982e-03	
450	2.550000e+00	1.304494e-03	
451	2.600000e+00	1.306908e-03	
452	2.650000e+00	1.309233e-03	
453	2.700000e+00	1.311475e-03	
454	2.750000e+00	1.313642e-03	
455	2.800000e+00	1.315738e-03	
456	2.850000e+00	1.317768e-03	
457	2.900000e+00	1.319737e-03	
458	2.950000e+00	1.321650e-03	
459	3.000000e+00	1.323508e-03	
460	3.050000e+00	1.325317e-03	

Index   v-sweep         -i(vds)         
--------------------------------------------------------------------------------
461	3.100000e+00	1.327079e-03	
462	3.150000e+00	1.328796e-03	
463	3.200000e+00	1.330471e-03	
464	3.250000e+00	1.332107e-03	
465	3.300000e+00	1.333705e-03	
466	3.350000e+00	1.335268e-03	
467	3.400000e+00	1.336797e-03	
468	3.450000e+00	1.338294e-03	
469	3.500000e+00	1.339761e-03	
470	3.550000e+00	1.341199e-03	
471	3.600000e+00	1.342610e-03	
472	3.650000e+00	1.343994e-03	
473	3.700000e+00	1.345353e-03	
474	3.750000e+00	1.346688e-03	
475	3.800000e+00	1.348001e-03	
476	3.850000e+00	1.349293e-03	
477	3.900000e+00	1.350564e-03	
478	3.950000e+00	1.351815e-03	
479	4.000000e+00	1.353049e-03	
480	4.050000e+00	1.354265e-03	
481	4.100000e+00	1.355466e-03	
482	4.150000e+00	1.356653e-03	
483	4.200000e+00	1.357826e-03	
484	4.250000e+00	1.358988e-03	
485	4.300000e+00	1.360140e-03	
486	4.350000e+00	1.361283e-03	
487	4.400000e+00	1.362421e-03	
488	4.450000e+00	1.363554e-03	
489	4.500000e+00	1.364685e-03	
490	4.550000e+00	1.365816e-03	
491	4.600000e+00	1.366951e-03	
492	4.650000e+00	1.368092e-03	
493	4.700000e+00	1.369243e-03	
494	4.750000e+00	1.370407e-03	
495	4.800000e+00	1.371588e-03	
496	4.850000e+00	1.372791e-03	
497	4.900000e+00	1.374019e-03	
498	4.950000e+00	1.375279e-03	
499	5.000000e+00	1.376576e-03	
500	5.050000e+00	1.377915e-03	
501	5.100000e+00	1.379303e-03	
502	5.150000e+00	1.380747e-03	
503	5.200000e+00	1.382253e-03	
504	5.250000e+00	1.383829e-03	
505	5.300000e+00	1.385485e-03	
506	5.350000e+00	1.387227e-03	
507	5.400000e+00	1.389066e-03	
508	5.450000e+00	1.391011e-03	
509	5.500000e+00	1.393072e-03	
510	5.550000e+00	1.395260e-03	
511	5.600000e+00	1.397586e-03	
512	5.650000e+00	1.400062e-03	
513	5.700000e+00	1.402700e-03	
514	5.750000e+00	1.405513e-03	
515	5.800000e+00	1.408514e-03	
516	5.850000e+00	1.411718e-03	
517	5.900000e+00	1.415137e-03	
518	5.950000e+00	1.418789e-03	

Index   v-sweep         -i(vds)         
--------------------------------------------------------------------------------
519	6.000000e+00	1.422686e-03	
520	6.050000e+00	1.426846e-03	
521	6.100000e+00	1.431285e-03	
522	6.150000e+00	1.436020e-03	
523	6.200000e+00	1.441067e-03	
524	6.250000e+00	1.446446e-03	
525	6.300000e+00	1.452173e-03	
526	6.350000e+00	1.458268e-03	
527	6.400000e+00	1.464749e-03	
528	6.450000e+00	1.471636e-03	
529	6.500000e+00	1.478950e-03	
530	6.550000e+00	1.486710e-03	
531	6.600000e+00	1.494937e-03	
532	0.000000e+00	-0.000000e+00	
533	5.000000e-02	8.157758e-05	
534	1.000000e-01	1.605231e-04	
535	1.500000e-01	2.369500e-04	
536	2.000000e-01	3.109280e-04	
537	2.500000e-01	3.825150e-04	
538	3.000000e-01	4.517644e-04	
539	3.500000e-01	5.187276e-04	
540	4.000000e-01	5.834543e-04	
541	4.500000e-01	6.459926e-04	
542	5.000000e-01	7.063892e-04	
543	5.500000e-01	7.646896e-04	
544	6.000000e-01	8.209379e-04	
545	6.500000e-01	8.751768e-04	
546	7.000000e-01	9.274481e-04	
547	7.500000e-01	9.777921e-04	
548	8.000000e-01	1.026248e-03	
549	8.500000e-01	1.072854e-03	
550	9.000000e-01	1.117648e-03	
551	9.500000e-01	1.160666e-03	
552	1.000000e+00	1.201942e-03	
553	1.050000e+00	1.241512e-03	
554	1.100000e+00	1.279408e-03	
555	1.150000e+00	1.315663e-03	
556	1.200000e+00	1.350309e-03	
557	1.250000e+00	1.383376e-03	
558	1.300000e+00	1.414894e-03	
559	1.350000e+00	1.444892e-03	
560	1.400000e+00	1.473397e-03	
561	1.450000e+00	1.500436e-03	
562	1.500000e+00	1.526033e-03	
563	1.550000e+00	1.550212e-03	
564	1.600000e+00	1.572993e-03	
565	1.650000e+00	1.594390e-03	
566	1.700000e+00	1.614416e-03	
567	1.750000e+00	1.633074e-03	
568	1.800000e+00	1.650360e-03	
569	1.850000e+00	1.666266e-03	
570	1.900000e+00	1.680787e-03	
571	1.950000e+00	1.693940e-03	
572	2.000000e+00	1.705778e-03	
573	2.050000e+00	1.716398e-03	
574	2.100000e+00	1.725929e-03	
575	2.150000e+00	1.734508e-03	
576	2.200000e+00	1.742270e-03	

Index   v-sweep         -i(vds)         
--------------------------------------------------------------------------------
577	2.250000e+00	1.749334e-03	
578	2.300000e+00	1.755804e-03	
579	2.350000e+00	1.761763e-03	
580	2.400000e+00	1.767284e-03	
581	2.450000e+00	1.772425e-03	
582	2.500000e+00	1.777233e-03	
583	2.550000e+00	1.781749e-03	
584	2.600000e+00	1.786008e-03	
585	2.650000e+00	1.790037e-03	
586	2.700000e+00	1.793860e-03	
587	2.750000e+00	1.797499e-03	
588	2.800000e+00	1.800970e-03	
589	2.850000e+00	1.804290e-03	
590	2.900000e+00	1.807471e-03	
591	2.950000e+00	1.810526e-03	
592	3.000000e+00	1.813465e-03	
593	3.050000e+00	1.816296e-03	
594	3.100000e+00	1.819029e-03	
595	3.150000e+00	1.821669e-03	
596	3.200000e+00	1.824224e-03	
597	3.250000e+00	1.826700e-03	
598	3.300000e+00	1.829101e-03	
599	3.350000e+00	1.831433e-03	
600	3.400000e+00	1.833699e-03	
601	3.450000e+00	1.835904e-03	
602	3.500000e+00	1.838052e-03	
603	3.550000e+00	1.840145e-03	
604	3.600000e+00	1.842186e-03	
605	3.650000e+00	1.844179e-03	
606	3.700000e+00	1.846126e-03	
607	3.750000e+00	1.848029e-03	
608	3.800000e+00	1.849890e-03	
609	3.850000e+00	1.851712e-03	
610	3.900000e+00	1.853497e-03	
611	3.950000e+00	1.855245e-03	
612	4.000000e+00	1.856960e-03	
613	4.050000e+00	1.858642e-03	
614	4.100000e+00	1.860293e-03	
615	4.150000e+00	1.861915e-03	
616	4.200000e+00	1.863508e-03	
617	4.250000e+00	1.865075e-03	
618	4.300000e+00	1.866617e-03	
619	4.350000e+00	1.868136e-03	
620	4.400000e+00	1.869632e-03	
621	4.450000e+00	1.871108e-03	
622	4.500000e+00	1.872565e-03	
623	4.550000e+00	1.874005e-03	
624	4.600000e+00	1.875429e-03	
625	4.650000e+00	1.876841e-03	
626	4.700000e+00	1.878241e-03	
627	4.750000e+00	1.879633e-03	
628	4.800000e+00	1.881020e-03	
629	4.850000e+00	1.882404e-03	
630	4.900000e+00	1.883788e-03	
631	4.950000e+00	1.885176e-03	
632	5.000000e+00	1.886573e-03	
633	5.050000e+00	1.887981e-03	
634	5.100000e+00	1.889407e-03	

Index   v-sweep         -i(vds)         
--------------------------------------------------------------------------------
635	5.150000e+00	1.890856e-03	
636	5.200000e+00	1.892332e-03	
637	5.250000e+00	1.893843e-03	
638	5.300000e+00	1.895394e-03	
639	5.350000e+00	1.896994e-03	
640	5.400000e+00	1.898649e-03	
641	5.450000e+00	1.900369e-03	
642	5.500000e+00	1.902162e-03	
643	5.550000e+00	1.904038e-03	
644	5.600000e+00	1.906007e-03	
645	5.650000e+00	1.908079e-03	
646	5.700000e+00	1.910268e-03	
647	5.750000e+00	1.912584e-03	
648	5.800000e+00	1.915040e-03	
649	5.850000e+00	1.917651e-03	
650	5.900000e+00	1.920431e-03	
651	5.950000e+00	1.923395e-03	
652	6.000000e+00	1.926558e-03	
653	6.050000e+00	1.929938e-03	
654	6.100000e+00	1.933550e-03	
655	6.150000e+00	1.937414e-03	
656	6.200000e+00	1.941548e-03	
657	6.250000e+00	1.945971e-03	
658	6.300000e+00	1.950703e-03	
659	6.350000e+00	1.955766e-03	
660	6.400000e+00	1.961180e-03	
661	6.450000e+00	1.966967e-03	
662	6.500000e+00	1.973151e-03	
663	6.550000e+00	1.979755e-03	
664	6.600000e+00	1.986803e-03	
665	0.000000e+00	-0.000000e+00	
666	5.000000e-02	8.794184e-05	
667	1.000000e-01	1.734602e-04	
668	1.500000e-01	2.566583e-04	
669	2.000000e-01	3.375963e-04	
670	2.500000e-01	4.163226e-04	
671	3.000000e-01	4.928818e-04	
672	3.500000e-01	5.673169e-04	
673	4.000000e-01	6.396693e-04	
674	4.500000e-01	7.099796e-04	
675	5.000000e-01	7.782869e-04	
676	5.500000e-01	8.446298e-04	
677	6.000000e-01	9.090454e-04	
678	6.500000e-01	9.715701e-04	
679	7.000000e-01	1.032239e-03	
680	7.500000e-01	1.091088e-03	
681	8.000000e-01	1.148149e-03	
682	8.500000e-01	1.203455e-03	
683	9.000000e-01	1.257039e-03	
684	9.500000e-01	1.308932e-03	
685	1.000000e+00	1.359163e-03	
686	1.050000e+00	1.407763e-03	
687	1.100000e+00	1.454761e-03	
688	1.150000e+00	1.500185e-03	
689	1.200000e+00	1.544063e-03	
690	1.250000e+00	1.586421e-03	
691	1.300000e+00	1.627285e-03	
692	1.350000e+00	1.666683e-03	

Index   v-sweep         -i(vds)         
--------------------------------------------------------------------------------
693	1.400000e+00	1.704637e-03	
694	1.450000e+00	1.741175e-03	
695	1.500000e+00	1.776318e-03	
696	1.550000e+00	1.810090e-03	
697	1.600000e+00	1.842514e-03	
698	1.650000e+00	1.873612e-03	
699	1.700000e+00	1.903404e-03	
700	1.750000e+00	1.931912e-03	
701	1.800000e+00	1.959154e-03	
702	1.850000e+00	1.985147e-03	
703	1.900000e+00	2.009907e-03	
704	1.950000e+00	2.033448e-03	
705	2.000000e+00	2.055778e-03	
706	2.050000e+00	2.076902e-03	
707	2.100000e+00	2.096818e-03	
708	2.150000e+00	2.115515e-03	
709	2.200000e+00	2.132976e-03	
710	2.250000e+00	2.149180e-03	
711	2.300000e+00	2.164114e-03	
712	2.350000e+00	2.177787e-03	
713	2.400000e+00	2.190243e-03	
714	2.450000e+00	2.201561e-03	
715	2.500000e+00	2.211846e-03	
716	2.550000e+00	2.221214e-03	
717	2.600000e+00	2.229779e-03	
718	2.650000e+00	2.237645e-03	
719	2.700000e+00	2.244905e-03	
720	2.750000e+00	2.251638e-03	
721	2.800000e+00	2.257909e-03	
722	2.850000e+00	2.263777e-03	
723	2.900000e+00	2.269288e-03	
724	2.950000e+00	2.274483e-03	
725	3.000000e+00	2.279395e-03	
726	3.050000e+00	2.284055e-03	
727	3.100000e+00	2.288487e-03	
728	3.150000e+00	2.292714e-03	
729	3.200000e+00	2.296753e-03	
730	3.250000e+00	2.300621e-03	
731	3.300000e+00	2.304333e-03	
732	3.350000e+00	2.307902e-03	
733	3.400000e+00	2.311338e-03	
734	3.450000e+00	2.314652e-03	
735	3.500000e+00	2.317852e-03	
736	3.550000e+00	2.320946e-03	
737	3.600000e+00	2.323943e-03	
738	3.650000e+00	2.326847e-03	
739	3.700000e+00	2.329666e-03	
740	3.750000e+00	2.332404e-03	
741	3.800000e+00	2.335066e-03	
742	3.850000e+00	2.337656e-03	
743	3.900000e+00	2.340180e-03	
744	3.950000e+00	2.342640e-03	
745	4.000000e+00	2.345039e-03	
746	4.050000e+00	2.347382e-03	
747	4.100000e+00	2.349670e-03	
748	4.150000e+00	2.351908e-03	
749	4.200000e+00	2.354096e-03	
750	4.250000e+00	2.356238e-03	

Index   v-sweep         -i(vds)         
--------------------------------------------------------------------------------
751	4.300000e+00	2.358336e-03	
752	4.350000e+00	2.360391e-03	
753	4.400000e+00	2.362406e-03	
754	4.450000e+00	2.364383e-03	
755	4.500000e+00	2.366324e-03	
756	4.550000e+00	2.368230e-03	
757	4.600000e+00	2.370103e-03	
758	4.650000e+00	2.371944e-03	
759	4.700000e+00	2.373757e-03	
760	4.750000e+00	2.375541e-03	
761	4.800000e+00	2.377300e-03	
762	4.850000e+00	2.379035e-03	
763	4.900000e+00	2.380748e-03	
764	4.950000e+00	2.382442e-03	
765	5.000000e+00	2.384119e-03	
766	5.050000e+00	2.385782e-03	
767	5.100000e+00	2.387433e-03	
768	5.150000e+00	2.389076e-03	
769	5.200000e+00	2.390714e-03	
770	5.250000e+00	2.392351e-03	
771	5.300000e+00	2.393992e-03	
772	5.350000e+00	2.395640e-03	
773	5.400000e+00	2.397303e-03	
774	5.450000e+00	2.398984e-03	
775	5.500000e+00	2.400690e-03	
776	5.550000e+00	2.402428e-03	
777	5.600000e+00	2.404206e-03	
778	5.650000e+00	2.406031e-03	
779	5.700000e+00	2.407912e-03	
780	5.750000e+00	2.409859e-03	
781	5.800000e+00	2.411882e-03	
782	5.850000e+00	2.413991e-03	
783	5.900000e+00	2.416198e-03	
784	5.950000e+00	2.418516e-03	
785	6.000000e+00	2.420958e-03	
786	6.050000e+00	2.423538e-03	
787	6.100000e+00	2.426272e-03	
788	6.150000e+00	2.429174e-03	
789	6.200000e+00	2.432262e-03	
790	6.250000e+00	2.435553e-03	
791	6.300000e+00	2.439067e-03	
792	6.350000e+00	2.442821e-03	
793	6.400000e+00	2.446838e-03	
794	6.450000e+00	2.451137e-03	
795	6.500000e+00	2.455741e-03	
796	6.550000e+00	2.460674e-03	
797	6.600000e+00	2.465958e-03	
Note: No ".plot", ".print", or ".fourier" lines; no simulations run
