
Note: Compatibility modes selected: hs

Warning: m=xx on .subckt line will override multiplier m hierarchy!


Circuit: ***************************

Doing analysis at TEMP = -40.000000 and TNOM = -40.000000


No. of Data Rows : 798
                          ***************************
                          DC transfer characteristic  Mon Jan  9 13:57:41  2023
--------------------------------------------------------------------------------
Index   v-sweep         -i(vds)         
--------------------------------------------------------------------------------
0	0.000000e+00	-0.000000e+00	
1	5.000000e-02	1.608247e-07	
2	1.000000e-01	2.772414e-07	
3	1.500000e-01	3.509183e-07	
4	2.000000e-01	3.876401e-07	
5	2.500000e-01	4.011544e-07	
6	3.000000e-01	4.057074e-07	
7	3.500000e-01	4.076085e-07	
8	4.000000e-01	4.086556e-07	
9	4.500000e-01	4.093696e-07	
10	5.000000e-01	4.099299e-07	
11	5.500000e-01	4.104094e-07	
12	6.000000e-01	4.108421e-07	
13	6.500000e-01	4.112455e-07	
14	7.000000e-01	4.116294e-07	
15	7.500000e-01	4.119998e-07	
16	8.000000e-01	4.123604e-07	
17	8.500000e-01	4.127136e-07	
18	9.000000e-01	4.130611e-07	
19	9.500000e-01	4.134042e-07	
20	1.000000e+00	4.137436e-07	
21	1.050000e+00	4.140801e-07	
22	1.100000e+00	4.144141e-07	
23	1.150000e+00	4.147460e-07	
24	1.200000e+00	4.150762e-07	
25	1.250000e+00	4.154049e-07	
26	1.300000e+00	4.157322e-07	
27	1.350000e+00	4.160583e-07	
28	1.400000e+00	4.163835e-07	
29	1.450000e+00	4.167077e-07	
30	1.500000e+00	4.170311e-07	
31	1.550000e+00	4.173537e-07	
32	1.600000e+00	4.176757e-07	
33	1.650000e+00	4.179971e-07	
34	1.700000e+00	4.183179e-07	
35	1.750000e+00	4.186382e-07	
36	1.800000e+00	4.189580e-07	
37	1.850000e+00	4.192774e-07	
38	1.900000e+00	4.195964e-07	
39	1.950000e+00	4.199151e-07	
40	2.000000e+00	4.202334e-07	
41	2.050000e+00	4.205513e-07	
42	2.100000e+00	4.208690e-07	
43	2.150000e+00	4.211864e-07	
44	2.200000e+00	4.215036e-07	
45	2.250000e+00	4.218206e-07	
46	2.300000e+00	4.221374e-07	
47	2.350000e+00	4.224540e-07	
48	2.400000e+00	4.227705e-07	
49	2.450000e+00	4.230870e-07	
50	2.500000e+00	4.234034e-07	
51	2.550000e+00	4.237200e-07	
52	2.600000e+00	4.240367e-07	
53	2.650000e+00	4.243537e-07	
54	2.700000e+00	4.246711e-07	

Index   v-sweep         -i(vds)         
--------------------------------------------------------------------------------
55	2.750000e+00	4.249891e-07	
56	2.800000e+00	4.253078e-07	
57	2.850000e+00	4.256276e-07	
58	2.900000e+00	4.259486e-07	
59	2.950000e+00	4.262713e-07	
60	3.000000e+00	4.265959e-07	
61	3.050000e+00	4.269229e-07	
62	3.100000e+00	4.272528e-07	
63	3.150000e+00	4.275862e-07	
64	3.200000e+00	4.279237e-07	
65	3.250000e+00	4.282660e-07	
66	3.300000e+00	4.286140e-07	
67	3.350000e+00	4.289686e-07	
68	3.400000e+00	4.293308e-07	
69	3.450000e+00	4.297017e-07	
70	3.500000e+00	4.300825e-07	
71	3.550000e+00	4.304747e-07	
72	3.600000e+00	4.308796e-07	
73	3.650000e+00	4.312990e-07	
74	3.700000e+00	4.317345e-07	
75	3.750000e+00	4.321881e-07	
76	3.800000e+00	4.326618e-07	
77	3.850000e+00	4.331578e-07	
78	3.900000e+00	4.336784e-07	
79	3.950000e+00	4.342261e-07	
80	4.000000e+00	4.348036e-07	
81	4.050000e+00	4.354138e-07	
82	4.100000e+00	4.360595e-07	
83	4.150000e+00	4.367441e-07	
84	4.200000e+00	4.374707e-07	
85	4.250000e+00	4.382429e-07	
86	4.300000e+00	4.390644e-07	
87	4.350000e+00	4.399389e-07	
88	4.400000e+00	4.408706e-07	
89	4.450000e+00	4.418635e-07	
90	4.500000e+00	4.429221e-07	
91	4.550000e+00	4.440508e-07	
92	4.600000e+00	4.452544e-07	
93	4.650000e+00	4.465377e-07	
94	4.700000e+00	4.479057e-07	
95	4.750000e+00	4.493636e-07	
96	4.800000e+00	4.509168e-07	
97	4.850000e+00	4.525707e-07	
98	4.900000e+00	4.543311e-07	
99	4.950000e+00	4.562036e-07	
100	5.000000e+00	4.581943e-07	
101	5.050000e+00	4.603092e-07	
102	5.100000e+00	4.625547e-07	
103	5.150000e+00	4.649369e-07	
104	5.200000e+00	4.674626e-07	
105	5.250000e+00	4.701382e-07	
106	5.300000e+00	4.729706e-07	
107	5.350000e+00	4.759666e-07	
108	5.400000e+00	4.791331e-07	
109	5.450000e+00	4.824774e-07	
110	5.500000e+00	4.860066e-07	
111	5.550000e+00	4.897279e-07	
112	5.600000e+00	4.936489e-07	

Index   v-sweep         -i(vds)         
--------------------------------------------------------------------------------
113	5.650000e+00	4.977769e-07	
114	5.700000e+00	5.021196e-07	
115	5.750000e+00	5.066845e-07	
116	5.800000e+00	5.114796e-07	
117	5.850000e+00	5.165124e-07	
118	5.900000e+00	5.217909e-07	
119	5.950000e+00	5.273231e-07	
120	6.000000e+00	5.331169e-07	
121	6.050000e+00	5.391803e-07	
122	6.100000e+00	5.455215e-07	
123	6.150000e+00	5.521486e-07	
124	6.200000e+00	5.590698e-07	
125	6.250000e+00	5.662932e-07	
126	6.300000e+00	5.738270e-07	
127	6.350000e+00	5.816797e-07	
128	6.400000e+00	5.898594e-07	
129	6.450000e+00	5.983745e-07	
130	6.500000e+00	6.072332e-07	
131	6.550000e+00	6.164439e-07	
132	6.600000e+00	6.260149e-07	
133	0.000000e+00	-0.000000e+00	
134	5.000000e-02	8.792995e-07	
135	1.000000e-01	1.710661e-06	
136	1.500000e-01	2.494220e-06	
137	2.000000e-01	3.230114e-06	
138	2.500000e-01	3.918481e-06	
139	3.000000e-01	4.559458e-06	
140	3.500000e-01	5.153188e-06	
141	4.000000e-01	5.699816e-06	
142	4.500000e-01	6.199494e-06	
143	5.000000e-01	6.652384e-06	
144	5.500000e-01	7.058669e-06	
145	6.000000e-01	7.418565e-06	
146	6.500000e-01	7.732350e-06	
147	7.000000e-01	8.000423e-06	
148	7.500000e-01	8.223418e-06	
149	8.000000e-01	8.402441e-06	
150	8.500000e-01	8.539533e-06	
151	9.000000e-01	8.638408e-06	
152	9.500000e-01	8.705134e-06	
153	1.000000e+00	8.747778e-06	
154	1.050000e+00	8.774501e-06	
155	1.100000e+00	8.791625e-06	
156	1.150000e+00	8.803176e-06	
157	1.200000e+00	8.811462e-06	
158	1.250000e+00	8.817771e-06	
159	1.300000e+00	8.822827e-06	
160	1.350000e+00	8.827055e-06	
161	1.400000e+00	8.830713e-06	
162	1.450000e+00	8.833965e-06	
163	1.500000e+00	8.836917e-06	
164	1.550000e+00	8.839643e-06	
165	1.600000e+00	8.842193e-06	
166	1.650000e+00	8.844603e-06	
167	1.700000e+00	8.846902e-06	
168	1.750000e+00	8.849109e-06	
169	1.800000e+00	8.851240e-06	
170	1.850000e+00	8.853307e-06	

Index   v-sweep         -i(vds)         
--------------------------------------------------------------------------------
171	1.900000e+00	8.855320e-06	
172	1.950000e+00	8.857286e-06	
173	2.000000e+00	8.859212e-06	
174	2.050000e+00	8.861102e-06	
175	2.100000e+00	8.862961e-06	
176	2.150000e+00	8.864793e-06	
177	2.200000e+00	8.866600e-06	
178	2.250000e+00	8.868385e-06	
179	2.300000e+00	8.870150e-06	
180	2.350000e+00	8.871898e-06	
181	2.400000e+00	8.873630e-06	
182	2.450000e+00	8.875346e-06	
183	2.500000e+00	8.877049e-06	
184	2.550000e+00	8.878740e-06	
185	2.600000e+00	8.880419e-06	
186	2.650000e+00	8.882088e-06	
187	2.700000e+00	8.883747e-06	
188	2.750000e+00	8.885397e-06	
189	2.800000e+00	8.887039e-06	
190	2.850000e+00	8.888673e-06	
191	2.900000e+00	8.890300e-06	
192	2.950000e+00	8.891920e-06	
193	3.000000e+00	8.893535e-06	
194	3.050000e+00	8.895145e-06	
195	3.100000e+00	8.896751e-06	
196	3.150000e+00	8.898353e-06	
197	3.200000e+00	8.899954e-06	
198	3.250000e+00	8.901554e-06	
199	3.300000e+00	8.903155e-06	
200	3.350000e+00	8.904759e-06	
201	3.400000e+00	8.906369e-06	
202	3.450000e+00	8.907987e-06	
203	3.500000e+00	8.909617e-06	
204	3.550000e+00	8.911263e-06	
205	3.600000e+00	8.912931e-06	
206	3.650000e+00	8.914626e-06	
207	3.700000e+00	8.916354e-06	
208	3.750000e+00	8.918125e-06	
209	3.800000e+00	8.919947e-06	
210	3.850000e+00	8.921830e-06	
211	3.900000e+00	8.923788e-06	
212	3.950000e+00	8.925832e-06	
213	4.000000e+00	8.927979e-06	
214	4.050000e+00	8.930246e-06	
215	4.100000e+00	8.932652e-06	
216	4.150000e+00	8.935218e-06	
217	4.200000e+00	8.937968e-06	
218	4.250000e+00	8.940927e-06	
219	4.300000e+00	8.944125e-06	
220	4.350000e+00	8.947591e-06	
221	4.400000e+00	8.951359e-06	
222	4.450000e+00	8.955466e-06	
223	4.500000e+00	8.959950e-06	
224	4.550000e+00	8.964854e-06	
225	4.600000e+00	8.970223e-06	
226	4.650000e+00	8.976105e-06	
227	4.700000e+00	8.982551e-06	
228	4.750000e+00	8.989617e-06	

Index   v-sweep         -i(vds)         
--------------------------------------------------------------------------------
229	4.800000e+00	8.997359e-06	
230	4.850000e+00	9.005839e-06	
231	4.900000e+00	9.015121e-06	
232	4.950000e+00	9.025274e-06	
233	5.000000e+00	9.036367e-06	
234	5.050000e+00	9.048477e-06	
235	5.100000e+00	9.061680e-06	
236	5.150000e+00	9.076058e-06	
237	5.200000e+00	9.091695e-06	
238	5.250000e+00	9.108680e-06	
239	5.300000e+00	9.127103e-06	
240	5.350000e+00	9.147059e-06	
241	5.400000e+00	9.168645e-06	
242	5.450000e+00	9.191963e-06	
243	5.500000e+00	9.217116e-06	
244	5.550000e+00	9.244211e-06	
245	5.600000e+00	9.273358e-06	
246	5.650000e+00	9.304669e-06	
247	5.700000e+00	9.338261e-06	
248	5.750000e+00	9.374252e-06	
249	5.800000e+00	9.412762e-06	
250	5.850000e+00	9.453915e-06	
251	5.900000e+00	9.497838e-06	
252	5.950000e+00	9.544658e-06	
253	6.000000e+00	9.594507e-06	
254	6.050000e+00	9.647518e-06	
255	6.100000e+00	9.703825e-06	
256	6.150000e+00	9.763566e-06	
257	6.200000e+00	9.826880e-06	
258	6.250000e+00	9.893909e-06	
259	6.300000e+00	9.964793e-06	
260	6.350000e+00	1.003968e-05	
261	6.400000e+00	1.011871e-05	
262	6.450000e+00	1.020204e-05	
263	6.500000e+00	1.028980e-05	
264	6.550000e+00	1.038216e-05	
265	6.600000e+00	1.047927e-05	
266	0.000000e+00	-0.000000e+00	
267	5.000000e-02	1.498957e-06	
268	1.000000e-01	2.952642e-06	
269	1.500000e-01	4.361190e-06	
270	2.000000e-01	5.724736e-06	
271	2.500000e-01	7.043413e-06	
272	3.000000e-01	8.317355e-06	
273	3.500000e-01	9.546695e-06	
274	4.000000e-01	1.073157e-05	
275	4.500000e-01	1.187210e-05	
276	5.000000e-01	1.296843e-05	
277	5.500000e-01	1.402068e-05	
278	6.000000e-01	1.502898e-05	
279	6.500000e-01	1.599348e-05	
280	7.000000e-01	1.691428e-05	
281	7.500000e-01	1.779153e-05	
282	8.000000e-01	1.862535e-05	
283	8.500000e-01	1.941588e-05	
284	9.000000e-01	2.016323e-05	
285	9.500000e-01	2.086755e-05	
286	1.000000e+00	2.152895e-05	

Index   v-sweep         -i(vds)         
--------------------------------------------------------------------------------
287	1.050000e+00	2.214758e-05	
288	1.100000e+00	2.272356e-05	
289	1.150000e+00	2.325704e-05	
290	1.200000e+00	2.374816e-05	
291	1.250000e+00	2.419708e-05	
292	1.300000e+00	2.460399e-05	
293	1.350000e+00	2.496912e-05	
294	1.400000e+00	2.529276e-05	
295	1.450000e+00	2.557534e-05	
296	1.500000e+00	2.581751e-05	
297	1.550000e+00	2.602032e-05	
298	1.600000e+00	2.618549e-05	
299	1.650000e+00	2.631576e-05	
300	1.700000e+00	2.641512e-05	
301	1.750000e+00	2.648878e-05	
302	1.800000e+00	2.654248e-05	
303	1.850000e+00	2.658163e-05	
304	1.900000e+00	2.661059e-05	
305	1.950000e+00	2.663257e-05	
306	2.000000e+00	2.664976e-05	
307	2.050000e+00	2.666361e-05	
308	2.100000e+00	2.667510e-05	
309	2.150000e+00	2.668488e-05	
310	2.200000e+00	2.669338e-05	
311	2.250000e+00	2.670092e-05	
312	2.300000e+00	2.670771e-05	
313	2.350000e+00	2.671391e-05	
314	2.400000e+00	2.671964e-05	
315	2.450000e+00	2.672499e-05	
316	2.500000e+00	2.673001e-05	
317	2.550000e+00	2.673477e-05	
318	2.600000e+00	2.673931e-05	
319	2.650000e+00	2.674366e-05	
320	2.700000e+00	2.674784e-05	
321	2.750000e+00	2.675188e-05	
322	2.800000e+00	2.675580e-05	
323	2.850000e+00	2.675961e-05	
324	2.900000e+00	2.676332e-05	
325	2.950000e+00	2.676694e-05	
326	3.000000e+00	2.677049e-05	
327	3.050000e+00	2.677396e-05	
328	3.100000e+00	2.677738e-05	
329	3.150000e+00	2.678074e-05	
330	3.200000e+00	2.678404e-05	
331	3.250000e+00	2.678730e-05	
332	3.300000e+00	2.679052e-05	
333	3.350000e+00	2.679370e-05	
334	3.400000e+00	2.679683e-05	
335	3.450000e+00	2.679994e-05	
336	3.500000e+00	2.680301e-05	
337	3.550000e+00	2.680606e-05	
338	3.600000e+00	2.680908e-05	
339	3.650000e+00	2.681207e-05	
340	3.700000e+00	2.681504e-05	
341	3.750000e+00	2.681800e-05	
342	3.800000e+00	2.682093e-05	
343	3.850000e+00	2.682385e-05	
344	3.900000e+00	2.682676e-05	

Index   v-sweep         -i(vds)         
--------------------------------------------------------------------------------
345	3.950000e+00	2.682965e-05	
346	4.000000e+00	2.683255e-05	
347	4.050000e+00	2.683544e-05	
348	4.100000e+00	2.683834e-05	
349	4.150000e+00	2.684126e-05	
350	4.200000e+00	2.684419e-05	
351	4.250000e+00	2.684716e-05	
352	4.300000e+00	2.685017e-05	
353	4.350000e+00	2.685324e-05	
354	4.400000e+00	2.685639e-05	
355	4.450000e+00	2.685963e-05	
356	4.500000e+00	2.686299e-05	
357	4.550000e+00	2.686650e-05	
358	4.600000e+00	2.687018e-05	
359	4.650000e+00	2.687408e-05	
360	4.700000e+00	2.687822e-05	
361	4.750000e+00	2.688266e-05	
362	4.800000e+00	2.688745e-05	
363	4.850000e+00	2.689264e-05	
364	4.900000e+00	2.689829e-05	
365	4.950000e+00	2.690448e-05	
366	5.000000e+00	2.691127e-05	
367	5.050000e+00	2.691876e-05	
368	5.100000e+00	2.692703e-05	
369	5.150000e+00	2.693617e-05	
370	5.200000e+00	2.694631e-05	
371	5.250000e+00	2.695755e-05	
372	5.300000e+00	2.697001e-05	
373	5.350000e+00	2.698384e-05	
374	5.400000e+00	2.699916e-05	
375	5.450000e+00	2.701614e-05	
376	5.500000e+00	2.703494e-05	
377	5.550000e+00	2.705571e-05	
378	5.600000e+00	2.707866e-05	
379	5.650000e+00	2.710396e-05	
380	5.700000e+00	2.713181e-05	
381	5.750000e+00	2.716243e-05	
382	5.800000e+00	2.719604e-05	
383	5.850000e+00	2.723287e-05	
384	5.900000e+00	2.727316e-05	
385	5.950000e+00	2.731715e-05	
386	6.000000e+00	2.736512e-05	
387	6.050000e+00	2.741732e-05	
388	6.100000e+00	2.747405e-05	
389	6.150000e+00	2.753559e-05	
390	6.200000e+00	2.760223e-05	
391	6.250000e+00	2.767429e-05	
392	6.300000e+00	2.775209e-05	
393	6.350000e+00	2.783594e-05	
394	6.400000e+00	2.792619e-05	
395	6.450000e+00	2.802318e-05	
396	6.500000e+00	2.812726e-05	
397	6.550000e+00	2.823880e-05	
398	6.600000e+00	2.835814e-05	
399	0.000000e+00	-0.000000e+00	
400	5.000000e-02	1.998136e-06	
401	1.000000e-01	3.954717e-06	
402	1.500000e-01	5.869865e-06	

Index   v-sweep         -i(vds)         
--------------------------------------------------------------------------------
403	2.000000e-01	7.743702e-06	
404	2.500000e-01	9.576348e-06	
405	3.000000e-01	1.136792e-05	
406	3.500000e-01	1.311855e-05	
407	4.000000e-01	1.482834e-05	
408	4.500000e-01	1.649742e-05	
409	5.000000e-01	1.812590e-05	
410	5.500000e-01	1.971391e-05	
411	6.000000e-01	2.126155e-05	
412	6.500000e-01	2.276895e-05	
413	7.000000e-01	2.423622e-05	
414	7.500000e-01	2.566349e-05	
415	8.000000e-01	2.705085e-05	
416	8.500000e-01	2.839843e-05	
417	9.000000e-01	2.970635e-05	
418	9.500000e-01	3.097471e-05	
419	1.000000e+00	3.220363e-05	
420	1.050000e+00	3.339322e-05	
421	1.100000e+00	3.454359e-05	
422	1.150000e+00	3.565486e-05	
423	1.200000e+00	3.672713e-05	
424	1.250000e+00	3.776052e-05	
425	1.300000e+00	3.875513e-05	
426	1.350000e+00	3.971108e-05	
427	1.400000e+00	4.062847e-05	
428	1.450000e+00	4.150740e-05	
429	1.500000e+00	4.234799e-05	
430	1.550000e+00	4.315034e-05	
431	1.600000e+00	4.391456e-05	
432	1.650000e+00	4.464075e-05	
433	1.700000e+00	4.532900e-05	
434	1.750000e+00	4.597944e-05	
435	1.800000e+00	4.659215e-05	
436	1.850000e+00	4.716723e-05	
437	1.900000e+00	4.770480e-05	
438	1.950000e+00	4.820496e-05	
439	2.000000e+00	4.866782e-05	
440	2.050000e+00	4.909351e-05	
441	2.100000e+00	4.948217e-05	
442	2.150000e+00	4.983399e-05	
443	2.200000e+00	5.014923e-05	
444	2.250000e+00	5.042828e-05	
445	2.300000e+00	5.067172e-05	
446	2.350000e+00	5.088051e-05	
447	2.400000e+00	5.105610e-05	
448	2.450000e+00	5.120069e-05	
449	2.500000e+00	5.131731e-05	
450	2.550000e+00	5.140976e-05	
451	2.600000e+00	5.148226e-05	
452	2.650000e+00	5.153900e-05	
453	2.700000e+00	5.158368e-05	
454	2.750000e+00	5.161932e-05	
455	2.800000e+00	5.164822e-05	
456	2.850000e+00	5.167211e-05	
457	2.900000e+00	5.169222e-05	
458	2.950000e+00	5.170947e-05	
459	3.000000e+00	5.172450e-05	
460	3.050000e+00	5.173779e-05	

Index   v-sweep         -i(vds)         
--------------------------------------------------------------------------------
461	3.100000e+00	5.174971e-05	
462	3.150000e+00	5.176052e-05	
463	3.200000e+00	5.177042e-05	
464	3.250000e+00	5.177957e-05	
465	3.300000e+00	5.178811e-05	
466	3.350000e+00	5.179611e-05	
467	3.400000e+00	5.180367e-05	
468	3.450000e+00	5.181085e-05	
469	3.500000e+00	5.181769e-05	
470	3.550000e+00	5.182424e-05	
471	3.600000e+00	5.183054e-05	
472	3.650000e+00	5.183662e-05	
473	3.700000e+00	5.184249e-05	
474	3.750000e+00	5.184819e-05	
475	3.800000e+00	5.185373e-05	
476	3.850000e+00	5.185913e-05	
477	3.900000e+00	5.186439e-05	
478	3.950000e+00	5.186954e-05	
479	4.000000e+00	5.187458e-05	
480	4.050000e+00	5.187953e-05	
481	4.100000e+00	5.188438e-05	
482	4.150000e+00	5.188915e-05	
483	4.200000e+00	5.189385e-05	
484	4.250000e+00	5.189848e-05	
485	4.300000e+00	5.190304e-05	
486	4.350000e+00	5.190754e-05	
487	4.400000e+00	5.191198e-05	
488	4.450000e+00	5.191638e-05	
489	4.500000e+00	5.192073e-05	
490	4.550000e+00	5.192503e-05	
491	4.600000e+00	5.192930e-05	
492	4.650000e+00	5.193354e-05	
493	4.700000e+00	5.193776e-05	
494	4.750000e+00	5.194195e-05	
495	4.800000e+00	5.194614e-05	
496	4.850000e+00	5.195032e-05	
497	4.900000e+00	5.195452e-05	
498	4.950000e+00	5.195874e-05	
499	5.000000e+00	5.196300e-05	
500	5.050000e+00	5.196733e-05	
501	5.100000e+00	5.197175e-05	
502	5.150000e+00	5.197628e-05	
503	5.200000e+00	5.198096e-05	
504	5.250000e+00	5.198583e-05	
505	5.300000e+00	5.199094e-05	
506	5.350000e+00	5.199633e-05	
507	5.400000e+00	5.200207e-05	
508	5.450000e+00	5.200823e-05	
509	5.500000e+00	5.201488e-05	
510	5.550000e+00	5.202211e-05	
511	5.600000e+00	5.203003e-05	
512	5.650000e+00	5.203873e-05	
513	5.700000e+00	5.204834e-05	
514	5.750000e+00	5.205900e-05	
515	5.800000e+00	5.207085e-05	
516	5.850000e+00	5.208406e-05	
517	5.900000e+00	5.209880e-05	
518	5.950000e+00	5.211527e-05	

Index   v-sweep         -i(vds)         
--------------------------------------------------------------------------------
519	6.000000e+00	5.213366e-05	
520	6.050000e+00	5.215421e-05	
521	6.100000e+00	5.217716e-05	
522	6.150000e+00	5.220277e-05	
523	6.200000e+00	5.223131e-05	
524	6.250000e+00	5.226308e-05	
525	6.300000e+00	5.229838e-05	
526	6.350000e+00	5.233756e-05	
527	6.400000e+00	5.238096e-05	
528	6.450000e+00	5.242896e-05	
529	6.500000e+00	5.248194e-05	
530	6.550000e+00	5.254030e-05	
531	6.600000e+00	5.260449e-05	
532	0.000000e+00	-0.000000e+00	
533	5.000000e-02	2.375497e-06	
534	1.000000e-01	4.713621e-06	
535	1.500000e-01	7.014473e-06	
536	2.000000e-01	9.278158e-06	
537	2.500000e-01	1.150478e-05	
538	3.000000e-01	1.369443e-05	
539	3.500000e-01	1.584722e-05	
540	4.000000e-01	1.796325e-05	
541	4.500000e-01	2.004263e-05	
542	5.000000e-01	2.208544e-05	
543	5.500000e-01	2.409179e-05	
544	6.000000e-01	2.606178e-05	
545	6.500000e-01	2.799551e-05	
546	7.000000e-01	2.989308e-05	
547	7.500000e-01	3.175458e-05	
548	8.000000e-01	3.358012e-05	
549	8.500000e-01	3.536980e-05	
550	9.000000e-01	3.712370e-05	
551	9.500000e-01	3.884193e-05	
552	1.000000e+00	4.052458e-05	
553	1.050000e+00	4.217175e-05	
554	1.100000e+00	4.378354e-05	
555	1.150000e+00	4.536004e-05	
556	1.200000e+00	4.690134e-05	
557	1.250000e+00	4.840755e-05	
558	1.300000e+00	4.987875e-05	
559	1.350000e+00	5.131504e-05	
560	1.400000e+00	5.271651e-05	
561	1.450000e+00	5.408325e-05	
562	1.500000e+00	5.541537e-05	
563	1.550000e+00	5.671294e-05	
564	1.600000e+00	5.797606e-05	
565	1.650000e+00	5.920482e-05	
566	1.700000e+00	6.039932e-05	
567	1.750000e+00	6.155964e-05	
568	1.800000e+00	6.268587e-05	
569	1.850000e+00	6.377810e-05	
570	1.900000e+00	6.483641e-05	
571	1.950000e+00	6.586091e-05	
572	2.000000e+00	6.685166e-05	
573	2.050000e+00	6.780877e-05	
574	2.100000e+00	6.873231e-05	
575	2.150000e+00	6.962236e-05	
576	2.200000e+00	7.047902e-05	

Index   v-sweep         -i(vds)         
--------------------------------------------------------------------------------
577	2.250000e+00	7.130236e-05	
578	2.300000e+00	7.209245e-05	
579	2.350000e+00	7.284939e-05	
580	2.400000e+00	7.357325e-05	
581	2.450000e+00	7.426410e-05	
582	2.500000e+00	7.492202e-05	
583	2.550000e+00	7.554707e-05	
584	2.600000e+00	7.613932e-05	
585	2.650000e+00	7.669884e-05	
586	2.700000e+00	7.722570e-05	
587	2.750000e+00	7.771995e-05	
588	2.800000e+00	7.818165e-05	
589	2.850000e+00	7.861087e-05	
590	2.900000e+00	7.900769e-05	
591	2.950000e+00	7.937218e-05	
592	3.000000e+00	7.970449e-05	
593	3.050000e+00	8.000481e-05	
594	3.100000e+00	8.027345e-05	
595	3.150000e+00	8.051093e-05	
596	3.200000e+00	8.071805e-05	
597	3.250000e+00	8.089606e-05	
598	3.300000e+00	8.104676e-05	
599	3.350000e+00	8.117252e-05	
600	3.400000e+00	8.127628e-05	
601	3.450000e+00	8.136127e-05	
602	3.500000e+00	8.143074e-05	
603	3.550000e+00	8.148771e-05	
604	3.600000e+00	8.153479e-05	
605	3.650000e+00	8.157411e-05	
606	3.700000e+00	8.160735e-05	
607	3.750000e+00	8.163583e-05	
608	3.800000e+00	8.166054e-05	
609	3.850000e+00	8.168225e-05	
610	3.900000e+00	8.170156e-05	
611	3.950000e+00	8.171889e-05	
612	4.000000e+00	8.173462e-05	
613	4.050000e+00	8.174902e-05	
614	4.100000e+00	8.176229e-05	
615	4.150000e+00	8.177462e-05	
616	4.200000e+00	8.178615e-05	
617	4.250000e+00	8.179698e-05	
618	4.300000e+00	8.180722e-05	
619	4.350000e+00	8.181693e-05	
620	4.400000e+00	8.182620e-05	
621	4.450000e+00	8.183505e-05	
622	4.500000e+00	8.184356e-05	
623	4.550000e+00	8.185174e-05	
624	4.600000e+00	8.185964e-05	
625	4.650000e+00	8.186729e-05	
626	4.700000e+00	8.187471e-05	
627	4.750000e+00	8.188191e-05	
628	4.800000e+00	8.188893e-05	
629	4.850000e+00	8.189578e-05	
630	4.900000e+00	8.190246e-05	
631	4.950000e+00	8.190900e-05	
632	5.000000e+00	8.191541e-05	
633	5.050000e+00	8.192169e-05	
634	5.100000e+00	8.192786e-05	

Index   v-sweep         -i(vds)         
--------------------------------------------------------------------------------
635	5.150000e+00	8.193392e-05	
636	5.200000e+00	8.193989e-05	
637	5.250000e+00	8.194576e-05	
638	5.300000e+00	8.195156e-05	
639	5.350000e+00	8.195728e-05	
640	5.400000e+00	8.196293e-05	
641	5.450000e+00	8.196852e-05	
642	5.500000e+00	8.197406e-05	
643	5.550000e+00	8.197957e-05	
644	5.600000e+00	8.198504e-05	
645	5.650000e+00	8.199050e-05	
646	5.700000e+00	8.199596e-05	
647	5.750000e+00	8.200145e-05	
648	5.800000e+00	8.200698e-05	
649	5.850000e+00	8.201258e-05	
650	5.900000e+00	8.201829e-05	
651	5.950000e+00	8.202416e-05	
652	6.000000e+00	8.203021e-05	
653	6.050000e+00	8.203652e-05	
654	6.100000e+00	8.204314e-05	
655	6.150000e+00	8.205016e-05	
656	6.200000e+00	8.205765e-05	
657	6.250000e+00	8.206571e-05	
658	6.300000e+00	8.207447e-05	
659	6.350000e+00	8.208403e-05	
660	6.400000e+00	8.209456e-05	
661	6.450000e+00	8.210620e-05	
662	6.500000e+00	8.211913e-05	
663	6.550000e+00	8.213356e-05	
664	6.600000e+00	8.214970e-05	
665	0.000000e+00	-0.000000e+00	
666	5.000000e-02	2.642746e-06	
667	1.000000e-01	5.252384e-06	
668	1.500000e-01	7.828999e-06	
669	2.000000e-01	1.037267e-05	
670	2.500000e-01	1.288349e-05	
671	3.000000e-01	1.536154e-05	
672	3.500000e-01	1.780690e-05	
673	4.000000e-01	2.021965e-05	
674	4.500000e-01	2.259988e-05	
675	5.000000e-01	2.494767e-05	
676	5.500000e-01	2.726309e-05	
677	6.000000e-01	2.954624e-05	
678	6.500000e-01	3.179720e-05	
679	7.000000e-01	3.401604e-05	
680	7.500000e-01	3.620284e-05	
681	8.000000e-01	3.835769e-05	
682	8.500000e-01	4.048067e-05	
683	9.000000e-01	4.257185e-05	
684	9.500000e-01	4.463132e-05	
685	1.000000e+00	4.665916e-05	
686	1.050000e+00	4.865544e-05	
687	1.100000e+00	5.062025e-05	
688	1.150000e+00	5.255365e-05	
689	1.200000e+00	5.445574e-05	
690	1.250000e+00	5.632659e-05	
691	1.300000e+00	5.816627e-05	
692	1.350000e+00	5.997487e-05	

Index   v-sweep         -i(vds)         
--------------------------------------------------------------------------------
693	1.400000e+00	6.175246e-05	
694	1.450000e+00	6.349912e-05	
695	1.500000e+00	6.521493e-05	
696	1.550000e+00	6.689995e-05	
697	1.600000e+00	6.855427e-05	
698	1.650000e+00	7.017797e-05	
699	1.700000e+00	7.177112e-05	
700	1.750000e+00	7.333378e-05	
701	1.800000e+00	7.486605e-05	
702	1.850000e+00	7.636799e-05	
703	1.900000e+00	7.783968e-05	
704	1.950000e+00	7.928119e-05	
705	2.000000e+00	8.069260e-05	
706	2.050000e+00	8.207397e-05	
707	2.100000e+00	8.342539e-05	
708	2.150000e+00	8.474692e-05	
709	2.200000e+00	8.603863e-05	
710	2.250000e+00	8.730061e-05	
711	2.300000e+00	8.853291e-05	
712	2.350000e+00	8.973561e-05	
713	2.400000e+00	9.090878e-05	
714	2.450000e+00	9.205250e-05	
715	2.500000e+00	9.316683e-05	
716	2.550000e+00	9.425183e-05	
717	2.600000e+00	9.530758e-05	
718	2.650000e+00	9.633415e-05	
719	2.700000e+00	9.733160e-05	
720	2.750000e+00	9.830001e-05	
721	2.800000e+00	9.923942e-05	
722	2.850000e+00	1.001499e-04	
723	2.900000e+00	1.010316e-04	
724	2.950000e+00	1.018844e-04	
725	3.000000e+00	1.027085e-04	
726	3.050000e+00	1.035040e-04	
727	3.100000e+00	1.042708e-04	
728	3.150000e+00	1.050091e-04	
729	3.200000e+00	1.057188e-04	
730	3.250000e+00	1.064001e-04	
731	3.300000e+00	1.070530e-04	
732	3.350000e+00	1.076776e-04	
733	3.400000e+00	1.082738e-04	
734	3.450000e+00	1.088418e-04	
735	3.500000e+00	1.093815e-04	
736	3.550000e+00	1.098929e-04	
737	3.600000e+00	1.103762e-04	
738	3.650000e+00	1.108313e-04	
739	3.700000e+00	1.112583e-04	
740	3.750000e+00	1.116571e-04	
741	3.800000e+00	1.120277e-04	
742	3.850000e+00	1.123703e-04	
743	3.900000e+00	1.126848e-04	
744	3.950000e+00	1.129714e-04	
745	4.000000e+00	1.132303e-04	
746	4.050000e+00	1.134619e-04	
747	4.100000e+00	1.136669e-04	
748	4.150000e+00	1.138462e-04	
749	4.200000e+00	1.140013e-04	
750	4.250000e+00	1.141341e-04	

Index   v-sweep         -i(vds)         
--------------------------------------------------------------------------------
751	4.300000e+00	1.142468e-04	
752	4.350000e+00	1.143418e-04	
753	4.400000e+00	1.144219e-04	
754	4.450000e+00	1.144894e-04	
755	4.500000e+00	1.145466e-04	
756	4.550000e+00	1.145954e-04	
757	4.600000e+00	1.146374e-04	
758	4.650000e+00	1.146739e-04	
759	4.700000e+00	1.147059e-04	
760	4.750000e+00	1.147342e-04	
761	4.800000e+00	1.147595e-04	
762	4.850000e+00	1.147823e-04	
763	4.900000e+00	1.148031e-04	
764	4.950000e+00	1.148221e-04	
765	5.000000e+00	1.148396e-04	
766	5.050000e+00	1.148559e-04	
767	5.100000e+00	1.148711e-04	
768	5.150000e+00	1.148853e-04	
769	5.200000e+00	1.148987e-04	
770	5.250000e+00	1.149114e-04	
771	5.300000e+00	1.149235e-04	
772	5.350000e+00	1.149350e-04	
773	5.400000e+00	1.149460e-04	
774	5.450000e+00	1.149566e-04	
775	5.500000e+00	1.149667e-04	
776	5.550000e+00	1.149765e-04	
777	5.600000e+00	1.149860e-04	
778	5.650000e+00	1.149952e-04	
779	5.700000e+00	1.150041e-04	
780	5.750000e+00	1.150128e-04	
781	5.800000e+00	1.150213e-04	
782	5.850000e+00	1.150295e-04	
783	5.900000e+00	1.150375e-04	
784	5.950000e+00	1.150454e-04	
785	6.000000e+00	1.150531e-04	
786	6.050000e+00	1.150607e-04	
787	6.100000e+00	1.150681e-04	
788	6.150000e+00	1.150754e-04	
789	6.200000e+00	1.150826e-04	
790	6.250000e+00	1.150897e-04	
791	6.300000e+00	1.150966e-04	
792	6.350000e+00	1.151035e-04	
793	6.400000e+00	1.151104e-04	
794	6.450000e+00	1.151171e-04	
795	6.500000e+00	1.151238e-04	
796	6.550000e+00	1.151306e-04	
797	6.600000e+00	1.151373e-04	
Note: No ".plot", ".print", or ".fourier" lines; no simulations run
