
Note: Compatibility modes selected: hs

Warning: m=xx on .subckt line will override multiplier m hierarchy!


Circuit: ***************************

Doing analysis at TEMP = 125.000000 and TNOM = 125.000000


No. of Data Rows : 798
                          ***************************
                          DC transfer characteristic  Mon Jan  9 13:57:41  2023
--------------------------------------------------------------------------------
Index   v-sweep         -i(vds)         
--------------------------------------------------------------------------------
0	0.000000e+00	-0.000000e+00	
1	5.000000e-02	8.181843e-07	
2	1.000000e-01	1.459682e-06	
3	1.500000e-01	1.980690e-06	
4	2.000000e-01	2.396014e-06	
5	2.500000e-01	2.710787e-06	
6	3.000000e-01	2.929717e-06	
7	3.500000e-01	3.062717e-06	
8	4.000000e-01	3.130531e-06	
9	4.500000e-01	3.161074e-06	
10	5.000000e-01	3.175224e-06	
11	5.500000e-01	3.182781e-06	
12	6.000000e-01	3.187526e-06	
13	6.500000e-01	3.190934e-06	
14	7.000000e-01	3.193637e-06	
15	7.500000e-01	3.195933e-06	
16	8.000000e-01	3.197976e-06	
17	8.500000e-01	3.199853e-06	
18	9.000000e-01	3.201614e-06	
19	9.500000e-01	3.203294e-06	
20	1.000000e+00	3.204911e-06	
21	1.050000e+00	3.206482e-06	
22	1.100000e+00	3.208015e-06	
23	1.150000e+00	3.209519e-06	
24	1.200000e+00	3.210999e-06	
25	1.250000e+00	3.212459e-06	
26	1.300000e+00	3.213902e-06	
27	1.350000e+00	3.215331e-06	
28	1.400000e+00	3.216747e-06	
29	1.450000e+00	3.218153e-06	
30	1.500000e+00	3.219549e-06	
31	1.550000e+00	3.220938e-06	
32	1.600000e+00	3.222318e-06	
33	1.650000e+00	3.223693e-06	
34	1.700000e+00	3.225061e-06	
35	1.750000e+00	3.226425e-06	
36	1.800000e+00	3.227783e-06	
37	1.850000e+00	3.229137e-06	
38	1.900000e+00	3.230487e-06	
39	1.950000e+00	3.231834e-06	
40	2.000000e+00	3.233177e-06	
41	2.050000e+00	3.234516e-06	
42	2.100000e+00	3.235853e-06	
43	2.150000e+00	3.237188e-06	
44	2.200000e+00	3.238519e-06	
45	2.250000e+00	3.239849e-06	
46	2.300000e+00	3.241176e-06	
47	2.350000e+00	3.242501e-06	
48	2.400000e+00	3.243825e-06	
49	2.450000e+00	3.245147e-06	
50	2.500000e+00	3.246468e-06	
51	2.550000e+00	3.247788e-06	
52	2.600000e+00	3.249107e-06	
53	2.650000e+00	3.250426e-06	
54	2.700000e+00	3.251745e-06	

Index   v-sweep         -i(vds)         
--------------------------------------------------------------------------------
55	2.750000e+00	3.253065e-06	
56	2.800000e+00	3.254387e-06	
57	2.850000e+00	3.255711e-06	
58	2.900000e+00	3.257039e-06	
59	2.950000e+00	3.258372e-06	
60	3.000000e+00	3.259711e-06	
61	3.050000e+00	3.261059e-06	
62	3.100000e+00	3.262417e-06	
63	3.150000e+00	3.263789e-06	
64	3.200000e+00	3.265176e-06	
65	3.250000e+00	3.266583e-06	
66	3.300000e+00	3.268013e-06	
67	3.350000e+00	3.269472e-06	
68	3.400000e+00	3.270963e-06	
69	3.450000e+00	3.272492e-06	
70	3.500000e+00	3.274067e-06	
71	3.550000e+00	3.275693e-06	
72	3.600000e+00	3.277379e-06	
73	3.650000e+00	3.279134e-06	
74	3.700000e+00	3.280966e-06	
75	3.750000e+00	3.282886e-06	
76	3.800000e+00	3.284906e-06	
77	3.850000e+00	3.287038e-06	
78	3.900000e+00	3.289294e-06	
79	3.950000e+00	3.291690e-06	
80	4.000000e+00	3.294240e-06	
81	4.050000e+00	3.296962e-06	
82	4.100000e+00	3.299872e-06	
83	4.150000e+00	3.302990e-06	
84	4.200000e+00	3.306334e-06	
85	4.250000e+00	3.309927e-06	
86	4.300000e+00	3.313790e-06	
87	4.350000e+00	3.317947e-06	
88	4.400000e+00	3.322423e-06	
89	4.450000e+00	3.327243e-06	
90	4.500000e+00	3.332434e-06	
91	4.550000e+00	3.338025e-06	
92	4.600000e+00	3.344045e-06	
93	4.650000e+00	3.350525e-06	
94	4.700000e+00	3.357497e-06	
95	4.750000e+00	3.364993e-06	
96	4.800000e+00	3.373049e-06	
97	4.850000e+00	3.381698e-06	
98	4.900000e+00	3.390979e-06	
99	4.950000e+00	3.400929e-06	
100	5.000000e+00	3.411586e-06	
101	5.050000e+00	3.422990e-06	
102	5.100000e+00	3.435182e-06	
103	5.150000e+00	3.448205e-06	
104	5.200000e+00	3.462100e-06	
105	5.250000e+00	3.476913e-06	
106	5.300000e+00	3.492687e-06	
107	5.350000e+00	3.509469e-06	
108	5.400000e+00	3.527306e-06	
109	5.450000e+00	3.546244e-06	
110	5.500000e+00	3.566332e-06	
111	5.550000e+00	3.587620e-06	
112	5.600000e+00	3.610157e-06	

Index   v-sweep         -i(vds)         
--------------------------------------------------------------------------------
113	5.650000e+00	3.633993e-06	
114	5.700000e+00	3.659181e-06	
115	5.750000e+00	3.685771e-06	
116	5.800000e+00	3.713817e-06	
117	5.850000e+00	3.743371e-06	
118	5.900000e+00	3.774487e-06	
119	5.950000e+00	3.807220e-06	
120	6.000000e+00	3.841623e-06	
121	6.050000e+00	3.877752e-06	
122	6.100000e+00	3.915663e-06	
123	6.150000e+00	3.955410e-06	
124	6.200000e+00	3.997051e-06	
125	6.250000e+00	4.040642e-06	
126	6.300000e+00	4.086239e-06	
127	6.350000e+00	4.133899e-06	
128	6.400000e+00	4.183679e-06	
129	6.450000e+00	4.235638e-06	
130	6.500000e+00	4.289831e-06	
131	6.550000e+00	4.346317e-06	
132	6.600000e+00	4.405153e-06	
133	0.000000e+00	-0.000000e+00	
134	5.000000e-02	2.394069e-06	
135	1.000000e-01	4.608639e-06	
136	1.500000e-01	6.699673e-06	
137	2.000000e-01	8.681435e-06	
138	2.500000e-01	1.055773e-05	
139	3.000000e-01	1.232973e-05	
140	3.500000e-01	1.399795e-05	
141	4.000000e-01	1.556276e-05	
142	4.500000e-01	1.702448e-05	
143	5.000000e-01	1.838341e-05	
144	5.500000e-01	1.963988e-05	
145	6.000000e-01	2.079423e-05	
146	6.500000e-01	2.184683e-05	
147	7.000000e-01	2.279807e-05	
148	7.500000e-01	2.364843e-05	
149	8.000000e-01	2.439851e-05	
150	8.500000e-01	2.504912e-05	
151	9.000000e-01	2.560148e-05	
152	9.500000e-01	2.605756e-05	
153	1.000000e+00	2.642074e-05	
154	1.050000e+00	2.669690e-05	
155	1.100000e+00	2.689577e-05	
156	1.150000e+00	2.703148e-05	
157	1.200000e+00	2.712074e-05	
158	1.250000e+00	2.717912e-05	
159	1.300000e+00	2.721833e-05	
160	1.350000e+00	2.724591e-05	
161	1.400000e+00	2.726636e-05	
162	1.450000e+00	2.728234e-05	
163	1.500000e+00	2.729537e-05	
164	1.550000e+00	2.730642e-05	
165	1.600000e+00	2.731606e-05	
166	1.650000e+00	2.732468e-05	
167	1.700000e+00	2.733254e-05	
168	1.750000e+00	2.733981e-05	
169	1.800000e+00	2.734663e-05	
170	1.850000e+00	2.735308e-05	

Index   v-sweep         -i(vds)         
--------------------------------------------------------------------------------
171	1.900000e+00	2.735924e-05	
172	1.950000e+00	2.736515e-05	
173	2.000000e+00	2.737086e-05	
174	2.050000e+00	2.737640e-05	
175	2.100000e+00	2.738179e-05	
176	2.150000e+00	2.738705e-05	
177	2.200000e+00	2.739220e-05	
178	2.250000e+00	2.739725e-05	
179	2.300000e+00	2.740222e-05	
180	2.350000e+00	2.740711e-05	
181	2.400000e+00	2.741194e-05	
182	2.450000e+00	2.741670e-05	
183	2.500000e+00	2.742141e-05	
184	2.550000e+00	2.742607e-05	
185	2.600000e+00	2.743068e-05	
186	2.650000e+00	2.743526e-05	
187	2.700000e+00	2.743979e-05	
188	2.750000e+00	2.744429e-05	
189	2.800000e+00	2.744875e-05	
190	2.850000e+00	2.745319e-05	
191	2.900000e+00	2.745760e-05	
192	2.950000e+00	2.746198e-05	
193	3.000000e+00	2.746634e-05	
194	3.050000e+00	2.747068e-05	
195	3.100000e+00	2.747500e-05	
196	3.150000e+00	2.747930e-05	
197	3.200000e+00	2.748358e-05	
198	3.250000e+00	2.748785e-05	
199	3.300000e+00	2.749211e-05	
200	3.350000e+00	2.749636e-05	
201	3.400000e+00	2.750061e-05	
202	3.450000e+00	2.750486e-05	
203	3.500000e+00	2.750911e-05	
204	3.550000e+00	2.751338e-05	
205	3.600000e+00	2.751767e-05	
206	3.650000e+00	2.752198e-05	
207	3.700000e+00	2.752634e-05	
208	3.750000e+00	2.753075e-05	
209	3.800000e+00	2.753524e-05	
210	3.850000e+00	2.753982e-05	
211	3.900000e+00	2.754450e-05	
212	3.950000e+00	2.754933e-05	
213	4.000000e+00	2.755432e-05	
214	4.050000e+00	2.755952e-05	
215	4.100000e+00	2.756496e-05	
216	4.150000e+00	2.757068e-05	
217	4.200000e+00	2.757673e-05	
218	4.250000e+00	2.758317e-05	
219	4.300000e+00	2.759006e-05	
220	4.350000e+00	2.759746e-05	
221	4.400000e+00	2.760546e-05	
222	4.450000e+00	2.761413e-05	
223	4.500000e+00	2.762356e-05	
224	4.550000e+00	2.763385e-05	
225	4.600000e+00	2.764510e-05	
226	4.650000e+00	2.765743e-05	
227	4.700000e+00	2.767097e-05	
228	4.750000e+00	2.768584e-05	

Index   v-sweep         -i(vds)         
--------------------------------------------------------------------------------
229	4.800000e+00	2.770219e-05	
230	4.850000e+00	2.772016e-05	
231	4.900000e+00	2.773992e-05	
232	4.950000e+00	2.776165e-05	
233	5.000000e+00	2.778551e-05	
234	5.050000e+00	2.781170e-05	
235	5.100000e+00	2.784043e-05	
236	5.150000e+00	2.787190e-05	
237	5.200000e+00	2.790633e-05	
238	5.250000e+00	2.794397e-05	
239	5.300000e+00	2.798504e-05	
240	5.350000e+00	2.802981e-05	
241	5.400000e+00	2.807853e-05	
242	5.450000e+00	2.813148e-05	
243	5.500000e+00	2.818894e-05	
244	5.550000e+00	2.825121e-05	
245	5.600000e+00	2.831858e-05	
246	5.650000e+00	2.839138e-05	
247	5.700000e+00	2.846991e-05	
248	5.750000e+00	2.855452e-05	
249	5.800000e+00	2.864554e-05	
250	5.850000e+00	2.874332e-05	
251	5.900000e+00	2.884822e-05	
252	5.950000e+00	2.896061e-05	
253	6.000000e+00	2.908085e-05	
254	6.050000e+00	2.920933e-05	
255	6.100000e+00	2.934644e-05	
256	6.150000e+00	2.949257e-05	
257	6.200000e+00	2.964813e-05	
258	6.250000e+00	2.981353e-05	
259	6.300000e+00	2.998918e-05	
260	6.350000e+00	3.017551e-05	
261	6.400000e+00	3.037295e-05	
262	6.450000e+00	3.058192e-05	
263	6.500000e+00	3.080287e-05	
264	6.550000e+00	3.103624e-05	
265	6.600000e+00	3.128248e-05	
266	0.000000e+00	-0.000000e+00	
267	5.000000e-02	3.714983e-06	
268	1.000000e-01	7.257334e-06	
269	1.500000e-01	1.068298e-05	
270	2.000000e-01	1.400617e-05	
271	2.500000e-01	1.723066e-05	
272	3.000000e-01	2.035759e-05	
273	3.500000e-01	2.338746e-05	
274	4.000000e-01	2.632058e-05	
275	4.500000e-01	2.915723e-05	
276	5.000000e-01	3.189766e-05	
277	5.500000e-01	3.454215e-05	
278	6.000000e-01	3.709094e-05	
279	6.500000e-01	3.954431e-05	
280	7.000000e-01	4.190250e-05	
281	7.500000e-01	4.416578e-05	
282	8.000000e-01	4.633440e-05	
283	8.500000e-01	4.840862e-05	
284	9.000000e-01	5.038870e-05	
285	9.500000e-01	5.227488e-05	
286	1.000000e+00	5.406744e-05	

Index   v-sweep         -i(vds)         
--------------------------------------------------------------------------------
287	1.050000e+00	5.576663e-05	
288	1.100000e+00	5.737270e-05	
289	1.150000e+00	5.888593e-05	
290	1.200000e+00	6.030658e-05	
291	1.250000e+00	6.163493e-05	
292	1.300000e+00	6.287127e-05	
293	1.350000e+00	6.401590e-05	
294	1.400000e+00	6.506916e-05	
295	1.450000e+00	6.603143e-05	
296	1.500000e+00	6.690316e-05	
297	1.550000e+00	6.768493e-05	
298	1.600000e+00	6.837751e-05	
299	1.650000e+00	6.898201e-05	
300	1.700000e+00	6.950012e-05	
301	1.750000e+00	6.993445e-05	
302	1.800000e+00	7.028910e-05	
303	1.850000e+00	7.057027e-05	
304	1.900000e+00	7.078662e-05	
305	1.950000e+00	7.094900e-05	
306	2.000000e+00	7.106917e-05	
307	2.050000e+00	7.115813e-05	
308	2.100000e+00	7.122489e-05	
309	2.150000e+00	7.127616e-05	
310	2.200000e+00	7.131665e-05	
311	2.250000e+00	7.134955e-05	
312	2.300000e+00	7.137701e-05	
313	2.350000e+00	7.140049e-05	
314	2.400000e+00	7.142101e-05	
315	2.450000e+00	7.143927e-05	
316	2.500000e+00	7.145577e-05	
317	2.550000e+00	7.147088e-05	
318	2.600000e+00	7.148487e-05	
319	2.650000e+00	7.149795e-05	
320	2.700000e+00	7.151027e-05	
321	2.750000e+00	7.152196e-05	
322	2.800000e+00	7.153312e-05	
323	2.850000e+00	7.154382e-05	
324	2.900000e+00	7.155413e-05	
325	2.950000e+00	7.156409e-05	
326	3.000000e+00	7.157376e-05	
327	3.050000e+00	7.158316e-05	
328	3.100000e+00	7.159233e-05	
329	3.150000e+00	7.160129e-05	
330	3.200000e+00	7.161007e-05	
331	3.250000e+00	7.161867e-05	
332	3.300000e+00	7.162713e-05	
333	3.350000e+00	7.163544e-05	
334	3.400000e+00	7.164363e-05	
335	3.450000e+00	7.165170e-05	
336	3.500000e+00	7.165967e-05	
337	3.550000e+00	7.166754e-05	
338	3.600000e+00	7.167532e-05	
339	3.650000e+00	7.168302e-05	
340	3.700000e+00	7.169064e-05	
341	3.750000e+00	7.169819e-05	
342	3.800000e+00	7.170567e-05	
343	3.850000e+00	7.171309e-05	
344	3.900000e+00	7.172046e-05	

Index   v-sweep         -i(vds)         
--------------------------------------------------------------------------------
345	3.950000e+00	7.172778e-05	
346	4.000000e+00	7.173506e-05	
347	4.050000e+00	7.174230e-05	
348	4.100000e+00	7.174951e-05	
349	4.150000e+00	7.175670e-05	
350	4.200000e+00	7.176388e-05	
351	4.250000e+00	7.177106e-05	
352	4.300000e+00	7.177827e-05	
353	4.350000e+00	7.178551e-05	
354	4.400000e+00	7.179282e-05	
355	4.450000e+00	7.180021e-05	
356	4.500000e+00	7.180773e-05	
357	4.550000e+00	7.181540e-05	
358	4.600000e+00	7.182328e-05	
359	4.650000e+00	7.183142e-05	
360	4.700000e+00	7.183988e-05	
361	4.750000e+00	7.184874e-05	
362	4.800000e+00	7.185806e-05	
363	4.850000e+00	7.186796e-05	
364	4.900000e+00	7.187852e-05	
365	4.950000e+00	7.188989e-05	
366	5.000000e+00	7.190217e-05	
367	5.050000e+00	7.191554e-05	
368	5.100000e+00	7.193015e-05	
369	5.150000e+00	7.194619e-05	
370	5.200000e+00	7.196386e-05	
371	5.250000e+00	7.198338e-05	
372	5.300000e+00	7.200499e-05	
373	5.350000e+00	7.202896e-05	
374	5.400000e+00	7.205558e-05	
375	5.450000e+00	7.208514e-05	
376	5.500000e+00	7.211799e-05	
377	5.550000e+00	7.215447e-05	
378	5.600000e+00	7.219497e-05	
379	5.650000e+00	7.223989e-05	
380	5.700000e+00	7.228966e-05	
381	5.750000e+00	7.234474e-05	
382	5.800000e+00	7.240561e-05	
383	5.850000e+00	7.247278e-05	
384	5.900000e+00	7.254678e-05	
385	5.950000e+00	7.262818e-05	
386	6.000000e+00	7.271756e-05	
387	6.050000e+00	7.281554e-05	
388	6.100000e+00	7.292277e-05	
389	6.150000e+00	7.303991e-05	
390	6.200000e+00	7.316765e-05	
391	6.250000e+00	7.330673e-05	
392	6.300000e+00	7.345788e-05	
393	6.350000e+00	7.362189e-05	
394	6.400000e+00	7.379954e-05	
395	6.450000e+00	7.399166e-05	
396	6.500000e+00	7.419910e-05	
397	6.550000e+00	7.442273e-05	
398	6.600000e+00	7.466344e-05	
399	0.000000e+00	-0.000000e+00	
400	5.000000e-02	4.770243e-06	
401	1.000000e-01	9.376639e-06	
402	1.500000e-01	1.387508e-05	

Index   v-sweep         -i(vds)         
--------------------------------------------------------------------------------
403	2.000000e-01	1.827977e-05	
404	2.500000e-01	2.259443e-05	
405	3.000000e-01	2.682018e-05	
406	3.500000e-01	3.095745e-05	
407	4.000000e-01	3.500653e-05	
408	4.500000e-01	3.896766e-05	
409	5.000000e-01	4.284106e-05	
410	5.500000e-01	4.662696e-05	
411	6.000000e-01	5.032558e-05	
412	6.500000e-01	5.393713e-05	
413	7.000000e-01	5.746185e-05	
414	7.500000e-01	6.089994e-05	
415	8.000000e-01	6.425163e-05	
416	8.500000e-01	6.751714e-05	
417	9.000000e-01	7.069668e-05	
418	9.500000e-01	7.379046e-05	
419	1.000000e+00	7.679871e-05	
420	1.050000e+00	7.972164e-05	
421	1.100000e+00	8.255947e-05	
422	1.150000e+00	8.531240e-05	
423	1.200000e+00	8.798065e-05	
424	1.250000e+00	9.056443e-05	
425	1.300000e+00	9.306395e-05	
426	1.350000e+00	9.547942e-05	
427	1.400000e+00	9.781106e-05	
428	1.450000e+00	1.000591e-04	
429	1.500000e+00	1.022237e-04	
430	1.550000e+00	1.043050e-04	
431	1.600000e+00	1.063034e-04	
432	1.650000e+00	1.082190e-04	
433	1.700000e+00	1.100519e-04	
434	1.750000e+00	1.118025e-04	
435	1.800000e+00	1.134709e-04	
436	1.850000e+00	1.150573e-04	
437	1.900000e+00	1.165620e-04	
438	1.950000e+00	1.179851e-04	
439	2.000000e+00	1.193268e-04	
440	2.050000e+00	1.205875e-04	
441	2.100000e+00	1.217672e-04	
442	2.150000e+00	1.228662e-04	
443	2.200000e+00	1.238849e-04	
444	2.250000e+00	1.248235e-04	
445	2.300000e+00	1.256823e-04	
446	2.350000e+00	1.264619e-04	
447	2.400000e+00	1.271629e-04	
448	2.450000e+00	1.277861e-04	
449	2.500000e+00	1.283330e-04	
450	2.550000e+00	1.288054e-04	
451	2.600000e+00	1.292064e-04	
452	2.650000e+00	1.295402e-04	
453	2.700000e+00	1.298127e-04	
454	2.750000e+00	1.300314e-04	
455	2.800000e+00	1.302048e-04	
456	2.850000e+00	1.303416e-04	
457	2.900000e+00	1.304498e-04	
458	2.950000e+00	1.305363e-04	
459	3.000000e+00	1.306065e-04	
460	3.050000e+00	1.306644e-04	

Index   v-sweep         -i(vds)         
--------------------------------------------------------------------------------
461	3.100000e+00	1.307131e-04	
462	3.150000e+00	1.307547e-04	
463	3.200000e+00	1.307910e-04	
464	3.250000e+00	1.308230e-04	
465	3.300000e+00	1.308517e-04	
466	3.350000e+00	1.308776e-04	
467	3.400000e+00	1.309014e-04	
468	3.450000e+00	1.309234e-04	
469	3.500000e+00	1.309439e-04	
470	3.550000e+00	1.309632e-04	
471	3.600000e+00	1.309813e-04	
472	3.650000e+00	1.309986e-04	
473	3.700000e+00	1.310150e-04	
474	3.750000e+00	1.310308e-04	
475	3.800000e+00	1.310459e-04	
476	3.850000e+00	1.310606e-04	
477	3.900000e+00	1.310747e-04	
478	3.950000e+00	1.310885e-04	
479	4.000000e+00	1.311018e-04	
480	4.050000e+00	1.311148e-04	
481	4.100000e+00	1.311275e-04	
482	4.150000e+00	1.311400e-04	
483	4.200000e+00	1.311521e-04	
484	4.250000e+00	1.311641e-04	
485	4.300000e+00	1.311758e-04	
486	4.350000e+00	1.311874e-04	
487	4.400000e+00	1.311987e-04	
488	4.450000e+00	1.312099e-04	
489	4.500000e+00	1.312209e-04	
490	4.550000e+00	1.312318e-04	
491	4.600000e+00	1.312426e-04	
492	4.650000e+00	1.312532e-04	
493	4.700000e+00	1.312637e-04	
494	4.750000e+00	1.312742e-04	
495	4.800000e+00	1.312845e-04	
496	4.850000e+00	1.312948e-04	
497	4.900000e+00	1.313050e-04	
498	4.950000e+00	1.313151e-04	
499	5.000000e+00	1.313252e-04	
500	5.050000e+00	1.313354e-04	
501	5.100000e+00	1.313455e-04	
502	5.150000e+00	1.313557e-04	
503	5.200000e+00	1.313660e-04	
504	5.250000e+00	1.313764e-04	
505	5.300000e+00	1.313870e-04	
506	5.350000e+00	1.313979e-04	
507	5.400000e+00	1.314092e-04	
508	5.450000e+00	1.314208e-04	
509	5.500000e+00	1.314331e-04	
510	5.550000e+00	1.314460e-04	
511	5.600000e+00	1.314597e-04	
512	5.650000e+00	1.314743e-04	
513	5.700000e+00	1.314902e-04	
514	5.750000e+00	1.315074e-04	
515	5.800000e+00	1.315262e-04	
516	5.850000e+00	1.315469e-04	
517	5.900000e+00	1.315698e-04	
518	5.950000e+00	1.315951e-04	

Index   v-sweep         -i(vds)         
--------------------------------------------------------------------------------
519	6.000000e+00	1.316233e-04	
520	6.050000e+00	1.316548e-04	
521	6.100000e+00	1.316899e-04	
522	6.150000e+00	1.317291e-04	
523	6.200000e+00	1.317730e-04	
524	6.250000e+00	1.318221e-04	
525	6.300000e+00	1.318770e-04	
526	6.350000e+00	1.319383e-04	
527	6.400000e+00	1.320068e-04	
528	6.450000e+00	1.320830e-04	
529	6.500000e+00	1.321678e-04	
530	6.550000e+00	1.322620e-04	
531	6.600000e+00	1.323665e-04	
532	0.000000e+00	-0.000000e+00	
533	5.000000e-02	5.573896e-06	
534	1.000000e-01	1.099326e-05	
535	1.500000e-01	1.631394e-05	
536	2.000000e-01	2.155011e-05	
537	2.500000e-01	2.670544e-05	
538	3.000000e-01	3.178102e-05	
539	3.500000e-01	3.677724e-05	
540	4.000000e-01	4.169435e-05	
541	4.500000e-01	4.653255e-05	
542	5.000000e-01	5.129202e-05	
543	5.500000e-01	5.597296e-05	
544	6.000000e-01	6.057554e-05	
545	6.500000e-01	6.509995e-05	
546	7.000000e-01	6.954638e-05	
547	7.500000e-01	7.391500e-05	
548	8.000000e-01	7.820599e-05	
549	8.500000e-01	8.241955e-05	
550	9.000000e-01	8.655584e-05	
551	9.500000e-01	9.061504e-05	
552	1.000000e+00	9.459735e-05	
553	1.050000e+00	9.850293e-05	
554	1.100000e+00	1.023320e-04	
555	1.150000e+00	1.060846e-04	
556	1.200000e+00	1.097611e-04	
557	1.250000e+00	1.133616e-04	
558	1.300000e+00	1.168862e-04	
559	1.350000e+00	1.203351e-04	
560	1.400000e+00	1.237086e-04	
561	1.450000e+00	1.270067e-04	
562	1.500000e+00	1.302297e-04	
563	1.550000e+00	1.333778e-04	
564	1.600000e+00	1.364510e-04	
565	1.650000e+00	1.394496e-04	
566	1.700000e+00	1.423737e-04	
567	1.750000e+00	1.452236e-04	
568	1.800000e+00	1.479993e-04	
569	1.850000e+00	1.507011e-04	
570	1.900000e+00	1.533292e-04	
571	1.950000e+00	1.558836e-04	
572	2.000000e+00	1.583645e-04	
573	2.050000e+00	1.607722e-04	
574	2.100000e+00	1.631068e-04	
575	2.150000e+00	1.653684e-04	
576	2.200000e+00	1.675572e-04	

Index   v-sweep         -i(vds)         
--------------------------------------------------------------------------------
577	2.250000e+00	1.696735e-04	
578	2.300000e+00	1.717172e-04	
579	2.350000e+00	1.736886e-04	
580	2.400000e+00	1.755879e-04	
581	2.450000e+00	1.774153e-04	
582	2.500000e+00	1.791707e-04	
583	2.550000e+00	1.808546e-04	
584	2.600000e+00	1.824669e-04	
585	2.650000e+00	1.840078e-04	
586	2.700000e+00	1.854775e-04	
587	2.750000e+00	1.868761e-04	
588	2.800000e+00	1.882039e-04	
589	2.850000e+00	1.894609e-04	
590	2.900000e+00	1.906472e-04	
591	2.950000e+00	1.917632e-04	
592	3.000000e+00	1.928088e-04	
593	3.050000e+00	1.937843e-04	
594	3.100000e+00	1.946900e-04	
595	3.150000e+00	1.955259e-04	
596	3.200000e+00	1.962926e-04	
597	3.250000e+00	1.969904e-04	
598	3.300000e+00	1.976200e-04	
599	3.350000e+00	1.981823e-04	
600	3.400000e+00	1.986788e-04	
601	3.450000e+00	1.991115e-04	
602	3.500000e+00	1.994835e-04	
603	3.550000e+00	1.997988e-04	
604	3.600000e+00	2.000626e-04	
605	3.650000e+00	2.002812e-04	
606	3.700000e+00	2.004611e-04	
607	3.750000e+00	2.006090e-04	
608	3.800000e+00	2.007311e-04	
609	3.850000e+00	2.008326e-04	
610	3.900000e+00	2.009179e-04	
611	3.950000e+00	2.009905e-04	
612	4.000000e+00	2.010529e-04	
613	4.050000e+00	2.011075e-04	
614	4.100000e+00	2.011556e-04	
615	4.150000e+00	2.011986e-04	
616	4.200000e+00	2.012374e-04	
617	4.250000e+00	2.012728e-04	
618	4.300000e+00	2.013053e-04	
619	4.350000e+00	2.013354e-04	
620	4.400000e+00	2.013634e-04	
621	4.450000e+00	2.013897e-04	
622	4.500000e+00	2.014146e-04	
623	4.550000e+00	2.014381e-04	
624	4.600000e+00	2.014605e-04	
625	4.650000e+00	2.014819e-04	
626	4.700000e+00	2.015024e-04	
627	4.750000e+00	2.015221e-04	
628	4.800000e+00	2.015412e-04	
629	4.850000e+00	2.015596e-04	
630	4.900000e+00	2.015774e-04	
631	4.950000e+00	2.015948e-04	
632	5.000000e+00	2.016117e-04	
633	5.050000e+00	2.016282e-04	
634	5.100000e+00	2.016443e-04	

Index   v-sweep         -i(vds)         
--------------------------------------------------------------------------------
635	5.150000e+00	2.016600e-04	
636	5.200000e+00	2.016754e-04	
637	5.250000e+00	2.016906e-04	
638	5.300000e+00	2.017054e-04	
639	5.350000e+00	2.017200e-04	
640	5.400000e+00	2.017344e-04	
641	5.450000e+00	2.017485e-04	
642	5.500000e+00	2.017624e-04	
643	5.550000e+00	2.017762e-04	
644	5.600000e+00	2.017898e-04	
645	5.650000e+00	2.018032e-04	
646	5.700000e+00	2.018166e-04	
647	5.750000e+00	2.018298e-04	
648	5.800000e+00	2.018429e-04	
649	5.850000e+00	2.018559e-04	
650	5.900000e+00	2.018690e-04	
651	5.950000e+00	2.018820e-04	
652	6.000000e+00	2.018951e-04	
653	6.050000e+00	2.019084e-04	
654	6.100000e+00	2.019218e-04	
655	6.150000e+00	2.019355e-04	
656	6.200000e+00	2.019496e-04	
657	6.250000e+00	2.019642e-04	
658	6.300000e+00	2.019793e-04	
659	6.350000e+00	2.019953e-04	
660	6.400000e+00	2.020122e-04	
661	6.450000e+00	2.020304e-04	
662	6.500000e+00	2.020499e-04	
663	6.550000e+00	2.020711e-04	
664	6.600000e+00	2.020943e-04	
665	0.000000e+00	-0.000000e+00	
666	5.000000e-02	6.156788e-06	
667	1.000000e-01	1.216820e-05	
668	1.500000e-01	1.809004e-05	
669	2.000000e-01	2.393645e-05	
670	2.500000e-01	2.971107e-05	
671	3.000000e-01	3.541495e-05	
672	3.500000e-01	4.104844e-05	
673	4.000000e-01	4.661177e-05	
674	4.500000e-01	5.210508e-05	
675	5.000000e-01	5.752854e-05	
676	5.500000e-01	6.288230e-05	
677	6.000000e-01	6.816650e-05	
678	6.500000e-01	7.338130e-05	
679	7.000000e-01	7.852685e-05	
680	7.500000e-01	8.360328e-05	
681	8.000000e-01	8.861076e-05	
682	8.500000e-01	9.354942e-05	
683	9.000000e-01	9.841941e-05	
684	9.500000e-01	1.032209e-04	
685	1.000000e+00	1.079540e-04	
686	1.050000e+00	1.126189e-04	
687	1.100000e+00	1.172156e-04	
688	1.150000e+00	1.217445e-04	
689	1.200000e+00	1.262056e-04	
690	1.250000e+00	1.305990e-04	
691	1.300000e+00	1.349248e-04	
692	1.350000e+00	1.391834e-04	

Index   v-sweep         -i(vds)         
--------------------------------------------------------------------------------
693	1.400000e+00	1.433747e-04	
694	1.450000e+00	1.474989e-04	
695	1.500000e+00	1.515562e-04	
696	1.550000e+00	1.555467e-04	
697	1.600000e+00	1.594705e-04	
698	1.650000e+00	1.633278e-04	
699	1.700000e+00	1.671188e-04	
700	1.750000e+00	1.708435e-04	
701	1.800000e+00	1.745021e-04	
702	1.850000e+00	1.780948e-04	
703	1.900000e+00	1.816216e-04	
704	1.950000e+00	1.850827e-04	
705	2.000000e+00	1.884783e-04	
706	2.050000e+00	1.918085e-04	
707	2.100000e+00	1.950734e-04	
708	2.150000e+00	1.982732e-04	
709	2.200000e+00	2.014080e-04	
710	2.250000e+00	2.044779e-04	
711	2.300000e+00	2.074831e-04	
712	2.350000e+00	2.104237e-04	
713	2.400000e+00	2.132998e-04	
714	2.450000e+00	2.161116e-04	
715	2.500000e+00	2.188592e-04	
716	2.550000e+00	2.215427e-04	
717	2.600000e+00	2.241623e-04	
718	2.650000e+00	2.267181e-04	
719	2.700000e+00	2.292102e-04	
720	2.750000e+00	2.316388e-04	
721	2.800000e+00	2.340039e-04	
722	2.850000e+00	2.363058e-04	
723	2.900000e+00	2.385445e-04	
724	2.950000e+00	2.407202e-04	
725	3.000000e+00	2.428329e-04	
726	3.050000e+00	2.448829e-04	
727	3.100000e+00	2.468702e-04	
728	3.150000e+00	2.487949e-04	
729	3.200000e+00	2.506573e-04	
730	3.250000e+00	2.524573e-04	
731	3.300000e+00	2.541951e-04	
732	3.350000e+00	2.558709e-04	
733	3.400000e+00	2.574847e-04	
734	3.450000e+00	2.590367e-04	
735	3.500000e+00	2.605269e-04	
736	3.550000e+00	2.619555e-04	
737	3.600000e+00	2.633226e-04	
738	3.650000e+00	2.646282e-04	
739	3.700000e+00	2.658725e-04	
740	3.750000e+00	2.670555e-04	
741	3.800000e+00	2.681774e-04	
742	3.850000e+00	2.692383e-04	
743	3.900000e+00	2.702381e-04	
744	3.950000e+00	2.711771e-04	
745	4.000000e+00	2.720553e-04	
746	4.050000e+00	2.728729e-04	
747	4.100000e+00	2.736300e-04	
748	4.150000e+00	2.743270e-04	
749	4.200000e+00	2.749641e-04	
750	4.250000e+00	2.755421e-04	

Index   v-sweep         -i(vds)         
--------------------------------------------------------------------------------
751	4.300000e+00	2.760617e-04	
752	4.350000e+00	2.765244e-04	
753	4.400000e+00	2.769322e-04	
754	4.450000e+00	2.772876e-04	
755	4.500000e+00	2.775943e-04	
756	4.550000e+00	2.778565e-04	
757	4.600000e+00	2.780793e-04	
758	4.650000e+00	2.782679e-04	
759	4.700000e+00	2.784276e-04	
760	4.750000e+00	2.785631e-04	
761	4.800000e+00	2.786787e-04	
762	4.850000e+00	2.787782e-04	
763	4.900000e+00	2.788646e-04	
764	4.950000e+00	2.789402e-04	
765	5.000000e+00	2.790071e-04	
766	5.050000e+00	2.790668e-04	
767	5.100000e+00	2.791206e-04	
768	5.150000e+00	2.791695e-04	
769	5.200000e+00	2.792142e-04	
770	5.250000e+00	2.792554e-04	
771	5.300000e+00	2.792937e-04	
772	5.350000e+00	2.793293e-04	
773	5.400000e+00	2.793628e-04	
774	5.450000e+00	2.793944e-04	
775	5.500000e+00	2.794243e-04	
776	5.550000e+00	2.794527e-04	
777	5.600000e+00	2.794798e-04	
778	5.650000e+00	2.795058e-04	
779	5.700000e+00	2.795307e-04	
780	5.750000e+00	2.795548e-04	
781	5.800000e+00	2.795779e-04	
782	5.850000e+00	2.796004e-04	
783	5.900000e+00	2.796221e-04	
784	5.950000e+00	2.796432e-04	
785	6.000000e+00	2.796638e-04	
786	6.050000e+00	2.796838e-04	
787	6.100000e+00	2.797034e-04	
788	6.150000e+00	2.797225e-04	
789	6.200000e+00	2.797412e-04	
790	6.250000e+00	2.797595e-04	
791	6.300000e+00	2.797775e-04	
792	6.350000e+00	2.797952e-04	
793	6.400000e+00	2.798126e-04	
794	6.450000e+00	2.798297e-04	
795	6.500000e+00	2.798465e-04	
796	6.550000e+00	2.798631e-04	
797	6.600000e+00	2.798795e-04	
Note: No ".plot", ".print", or ".fourier" lines; no simulations run
