
Note: Compatibility modes selected: hs

Warning: m=xx on .subckt line will override multiplier m hierarchy!


Circuit: ***************************

Doing analysis at TEMP = 125.000000 and TNOM = 125.000000


No. of Data Rows : 798
                          ***************************
                          DC transfer characteristic  Mon Jan  9 13:57:41  2023
--------------------------------------------------------------------------------
Index   v-sweep         -i(vds)         
--------------------------------------------------------------------------------
0	0.000000e+00	-0.000000e+00	
1	5.000000e-02	1.664264e-07	
2	1.000000e-01	2.976122e-07	
3	1.500000e-01	4.047944e-07	
4	2.000000e-01	4.909236e-07	
5	2.500000e-01	5.569932e-07	
6	3.000000e-01	6.038423e-07	
7	3.500000e-01	6.331759e-07	
8	4.000000e-01	6.486933e-07	
9	4.500000e-01	6.558375e-07	
10	5.000000e-01	6.591260e-07	
11	5.500000e-01	6.608429e-07	
12	6.000000e-01	6.618948e-07	
13	6.500000e-01	6.626349e-07	
14	7.000000e-01	6.632127e-07	
15	7.500000e-01	6.636980e-07	
16	8.000000e-01	6.641263e-07	
17	8.500000e-01	6.645176e-07	
18	9.000000e-01	6.648833e-07	
19	9.500000e-01	6.652308e-07	
20	1.000000e+00	6.655648e-07	
21	1.050000e+00	6.658885e-07	
22	1.100000e+00	6.662042e-07	
23	1.150000e+00	6.665134e-07	
24	1.200000e+00	6.668174e-07	
25	1.250000e+00	6.671170e-07	
26	1.300000e+00	6.674131e-07	
27	1.350000e+00	6.677061e-07	
28	1.400000e+00	6.679964e-07	
29	1.450000e+00	6.682845e-07	
30	1.500000e+00	6.685705e-07	
31	1.550000e+00	6.688548e-07	
32	1.600000e+00	6.691376e-07	
33	1.650000e+00	6.694189e-07	
34	1.700000e+00	6.696990e-07	
35	1.750000e+00	6.699780e-07	
36	1.800000e+00	6.702560e-07	
37	1.850000e+00	6.705330e-07	
38	1.900000e+00	6.708092e-07	
39	1.950000e+00	6.710845e-07	
40	2.000000e+00	6.713592e-07	
41	2.050000e+00	6.716332e-07	
42	2.100000e+00	6.719066e-07	
43	2.150000e+00	6.721794e-07	
44	2.200000e+00	6.724517e-07	
45	2.250000e+00	6.727235e-07	
46	2.300000e+00	6.729948e-07	
47	2.350000e+00	6.732658e-07	
48	2.400000e+00	6.735363e-07	
49	2.450000e+00	6.738066e-07	
50	2.500000e+00	6.740765e-07	
51	2.550000e+00	6.743463e-07	
52	2.600000e+00	6.746159e-07	
53	2.650000e+00	6.748854e-07	
54	2.700000e+00	6.751549e-07	

Index   v-sweep         -i(vds)         
--------------------------------------------------------------------------------
55	2.750000e+00	6.754246e-07	
56	2.800000e+00	6.756947e-07	
57	2.850000e+00	6.759652e-07	
58	2.900000e+00	6.762364e-07	
59	2.950000e+00	6.765086e-07	
60	3.000000e+00	6.767821e-07	
61	3.050000e+00	6.770572e-07	
62	3.100000e+00	6.773345e-07	
63	3.150000e+00	6.776144e-07	
64	3.200000e+00	6.778976e-07	
65	3.250000e+00	6.781846e-07	
66	3.300000e+00	6.784764e-07	
67	3.350000e+00	6.787738e-07	
68	3.400000e+00	6.790778e-07	
69	3.450000e+00	6.793896e-07	
70	3.500000e+00	6.797106e-07	
71	3.550000e+00	6.800420e-07	
72	3.600000e+00	6.803856e-07	
73	3.650000e+00	6.807430e-07	
74	3.700000e+00	6.811163e-07	
75	3.750000e+00	6.815075e-07	
76	3.800000e+00	6.819190e-07	
77	3.850000e+00	6.823533e-07	
78	3.900000e+00	6.828130e-07	
79	3.950000e+00	6.833012e-07	
80	4.000000e+00	6.838210e-07	
81	4.050000e+00	6.843757e-07	
82	4.100000e+00	6.849689e-07	
83	4.150000e+00	6.856046e-07	
84	4.200000e+00	6.862868e-07	
85	4.250000e+00	6.870198e-07	
86	4.300000e+00	6.878082e-07	
87	4.350000e+00	6.886569e-07	
88	4.400000e+00	6.895708e-07	
89	4.450000e+00	6.905554e-07	
90	4.500000e+00	6.916162e-07	
91	4.550000e+00	6.927590e-07	
92	4.600000e+00	6.939900e-07	
93	4.650000e+00	6.953154e-07	
94	4.700000e+00	6.967419e-07	
95	4.750000e+00	6.982762e-07	
96	4.800000e+00	6.999255e-07	
97	4.850000e+00	7.016971e-07	
98	4.900000e+00	7.035984e-07	
99	4.950000e+00	7.056374e-07	
100	5.000000e+00	7.078221e-07	
101	5.050000e+00	7.101606e-07	
102	5.100000e+00	7.126615e-07	
103	5.150000e+00	7.153333e-07	
104	5.200000e+00	7.181851e-07	
105	5.250000e+00	7.212259e-07	
106	5.300000e+00	7.244650e-07	
107	5.350000e+00	7.279119e-07	
108	5.400000e+00	7.315762e-07	
109	5.450000e+00	7.354677e-07	
110	5.500000e+00	7.395966e-07	
111	5.550000e+00	7.439729e-07	
112	5.600000e+00	7.486071e-07	

Index   v-sweep         -i(vds)         
--------------------------------------------------------------------------------
113	5.650000e+00	7.535095e-07	
114	5.700000e+00	7.586908e-07	
115	5.750000e+00	7.641619e-07	
116	5.800000e+00	7.699334e-07	
117	5.850000e+00	7.760166e-07	
118	5.900000e+00	7.824224e-07	
119	5.950000e+00	7.891622e-07	
120	6.000000e+00	7.962472e-07	
121	6.050000e+00	8.036888e-07	
122	6.100000e+00	8.114987e-07	
123	6.150000e+00	8.196882e-07	
124	6.200000e+00	8.282692e-07	
125	6.250000e+00	8.372533e-07	
126	6.300000e+00	8.466522e-07	
127	6.350000e+00	8.564779e-07	
128	6.400000e+00	8.667420e-07	
129	6.450000e+00	8.774566e-07	
130	6.500000e+00	8.886336e-07	
131	6.550000e+00	9.002849e-07	
132	6.600000e+00	9.124224e-07	
133	0.000000e+00	-0.000000e+00	
134	5.000000e-02	4.806611e-07	
135	1.000000e-01	9.255260e-07	
136	1.500000e-01	1.345789e-06	
137	2.000000e-01	1.744306e-06	
138	2.500000e-01	2.121838e-06	
139	3.000000e-01	2.478623e-06	
140	3.500000e-01	2.814767e-06	
141	4.000000e-01	3.130343e-06	
142	4.500000e-01	3.425415e-06	
143	5.000000e-01	3.700050e-06	
144	5.500000e-01	3.954313e-06	
145	6.000000e-01	4.188271e-06	
146	6.500000e-01	4.401999e-06	
147	7.000000e-01	4.595576e-06	
148	7.500000e-01	4.769095e-06	
149	8.000000e-01	4.922670e-06	
150	8.500000e-01	5.056454e-06	
151	9.000000e-01	5.170666e-06	
152	9.500000e-01	5.265660e-06	
153	1.000000e+00	5.342030e-06	
154	1.050000e+00	5.400814e-06	
155	1.100000e+00	5.443750e-06	
156	1.150000e+00	5.473450e-06	
157	1.200000e+00	5.493160e-06	
158	1.250000e+00	5.506072e-06	
159	1.300000e+00	5.514699e-06	
160	1.350000e+00	5.520712e-06	
161	1.400000e+00	5.525127e-06	
162	1.450000e+00	5.528539e-06	
163	1.500000e+00	5.531298e-06	
164	1.550000e+00	5.533618e-06	
165	1.600000e+00	5.535630e-06	
166	1.650000e+00	5.537419e-06	
167	1.700000e+00	5.539043e-06	
168	1.750000e+00	5.540541e-06	
169	1.800000e+00	5.541941e-06	
170	1.850000e+00	5.543262e-06	

Index   v-sweep         -i(vds)         
--------------------------------------------------------------------------------
171	1.900000e+00	5.544520e-06	
172	1.950000e+00	5.545725e-06	
173	2.000000e+00	5.546888e-06	
174	2.050000e+00	5.548014e-06	
175	2.100000e+00	5.549108e-06	
176	2.150000e+00	5.550176e-06	
177	2.200000e+00	5.551220e-06	
178	2.250000e+00	5.552244e-06	
179	2.300000e+00	5.553250e-06	
180	2.350000e+00	5.554240e-06	
181	2.400000e+00	5.555216e-06	
182	2.450000e+00	5.556179e-06	
183	2.500000e+00	5.557131e-06	
184	2.550000e+00	5.558072e-06	
185	2.600000e+00	5.559004e-06	
186	2.650000e+00	5.559927e-06	
187	2.700000e+00	5.560842e-06	
188	2.750000e+00	5.561750e-06	
189	2.800000e+00	5.562651e-06	
190	2.850000e+00	5.563545e-06	
191	2.900000e+00	5.564434e-06	
192	2.950000e+00	5.565318e-06	
193	3.000000e+00	5.566197e-06	
194	3.050000e+00	5.567071e-06	
195	3.100000e+00	5.567942e-06	
196	3.150000e+00	5.568808e-06	
197	3.200000e+00	5.569671e-06	
198	3.250000e+00	5.570531e-06	
199	3.300000e+00	5.571389e-06	
200	3.350000e+00	5.572245e-06	
201	3.400000e+00	5.573100e-06	
202	3.450000e+00	5.573955e-06	
203	3.500000e+00	5.574811e-06	
204	3.550000e+00	5.575669e-06	
205	3.600000e+00	5.576530e-06	
206	3.650000e+00	5.577398e-06	
207	3.700000e+00	5.578273e-06	
208	3.750000e+00	5.579159e-06	
209	3.800000e+00	5.580058e-06	
210	3.850000e+00	5.580975e-06	
211	3.900000e+00	5.581913e-06	
212	3.950000e+00	5.582879e-06	
213	4.000000e+00	5.583877e-06	
214	4.050000e+00	5.584914e-06	
215	4.100000e+00	5.585999e-06	
216	4.150000e+00	5.587139e-06	
217	4.200000e+00	5.588344e-06	
218	4.250000e+00	5.589624e-06	
219	4.300000e+00	5.590994e-06	
220	4.350000e+00	5.592464e-06	
221	4.400000e+00	5.594051e-06	
222	4.450000e+00	5.595770e-06	
223	4.500000e+00	5.597640e-06	
224	4.550000e+00	5.599679e-06	
225	4.600000e+00	5.601909e-06	
226	4.650000e+00	5.604353e-06	
227	4.700000e+00	5.607034e-06	
228	4.750000e+00	5.609981e-06	

Index   v-sweep         -i(vds)         
--------------------------------------------------------------------------------
229	4.800000e+00	5.613220e-06	
230	4.850000e+00	5.616781e-06	
231	4.900000e+00	5.620699e-06	
232	4.950000e+00	5.625005e-06	
233	5.000000e+00	5.629737e-06	
234	5.050000e+00	5.634933e-06	
235	5.100000e+00	5.640633e-06	
236	5.150000e+00	5.646879e-06	
237	5.200000e+00	5.653717e-06	
238	5.250000e+00	5.661192e-06	
239	5.300000e+00	5.669354e-06	
240	5.350000e+00	5.678252e-06	
241	5.400000e+00	5.687940e-06	
242	5.450000e+00	5.698474e-06	
243	5.500000e+00	5.709908e-06	
244	5.550000e+00	5.722304e-06	
245	5.600000e+00	5.735720e-06	
246	5.650000e+00	5.750221e-06	
247	5.700000e+00	5.765872e-06	
248	5.750000e+00	5.782738e-06	
249	5.800000e+00	5.800888e-06	
250	5.850000e+00	5.820393e-06	
251	5.900000e+00	5.841325e-06	
252	5.950000e+00	5.863757e-06	
253	6.000000e+00	5.887764e-06	
254	6.050000e+00	5.913425e-06	
255	6.100000e+00	5.940816e-06	
256	6.150000e+00	5.970019e-06	
257	6.200000e+00	6.001115e-06	
258	6.250000e+00	6.034186e-06	
259	6.300000e+00	6.069316e-06	
260	6.350000e+00	6.106591e-06	
261	6.400000e+00	6.146098e-06	
262	6.450000e+00	6.187923e-06	
263	6.500000e+00	6.232157e-06	
264	6.550000e+00	6.278887e-06	
265	6.600000e+00	6.328206e-06	
266	0.000000e+00	-0.000000e+00	
267	5.000000e-02	7.446410e-07	
268	1.000000e-01	1.454812e-06	
269	1.500000e-01	2.141701e-06	
270	2.000000e-01	2.808156e-06	
271	2.500000e-01	3.454935e-06	
272	3.000000e-01	4.082266e-06	
273	3.500000e-01	4.690250e-06	
274	4.000000e-01	5.278951e-06	
275	4.500000e-01	5.848426e-06	
276	5.000000e-01	6.398729e-06	
277	5.500000e-01	6.929915e-06	
278	6.000000e-01	7.442037e-06	
279	6.500000e-01	7.935148e-06	
280	7.000000e-01	8.409303e-06	
281	7.500000e-01	8.864552e-06	
282	8.000000e-01	9.300951e-06	
283	8.500000e-01	9.718552e-06	
284	9.000000e-01	1.011741e-05	
285	9.500000e-01	1.049757e-05	
286	1.000000e+00	1.085909e-05	

Index   v-sweep         -i(vds)         
--------------------------------------------------------------------------------
287	1.050000e+00	1.120203e-05	
288	1.100000e+00	1.152643e-05	
289	1.150000e+00	1.183235e-05	
290	1.200000e+00	1.211985e-05	
291	1.250000e+00	1.238898e-05	
292	1.300000e+00	1.263980e-05	
293	1.350000e+00	1.287237e-05	
294	1.400000e+00	1.308676e-05	
295	1.450000e+00	1.328304e-05	
296	1.500000e+00	1.346129e-05	
297	1.550000e+00	1.362163e-05	
298	1.600000e+00	1.376419e-05	
299	1.650000e+00	1.388918e-05	
300	1.700000e+00	1.399689e-05	
301	1.750000e+00	1.408780e-05	
302	1.800000e+00	1.416261e-05	
303	1.850000e+00	1.422244e-05	
304	1.900000e+00	1.426889e-05	
305	1.950000e+00	1.430401e-05	
306	2.000000e+00	1.433011e-05	
307	2.050000e+00	1.434945e-05	
308	2.100000e+00	1.436392e-05	
309	2.150000e+00	1.437497e-05	
310	2.200000e+00	1.438365e-05	
311	2.250000e+00	1.439066e-05	
312	2.300000e+00	1.439647e-05	
313	2.350000e+00	1.440141e-05	
314	2.400000e+00	1.440571e-05	
315	2.450000e+00	1.440951e-05	
316	2.500000e+00	1.441293e-05	
317	2.550000e+00	1.441606e-05	
318	2.600000e+00	1.441894e-05	
319	2.650000e+00	1.442163e-05	
320	2.700000e+00	1.442415e-05	
321	2.750000e+00	1.442654e-05	
322	2.800000e+00	1.442882e-05	
323	2.850000e+00	1.443100e-05	
324	2.900000e+00	1.443310e-05	
325	2.950000e+00	1.443513e-05	
326	3.000000e+00	1.443709e-05	
327	3.050000e+00	1.443900e-05	
328	3.100000e+00	1.444086e-05	
329	3.150000e+00	1.444267e-05	
330	3.200000e+00	1.444445e-05	
331	3.250000e+00	1.444619e-05	
332	3.300000e+00	1.444790e-05	
333	3.350000e+00	1.444957e-05	
334	3.400000e+00	1.445123e-05	
335	3.450000e+00	1.445286e-05	
336	3.500000e+00	1.445446e-05	
337	3.550000e+00	1.445605e-05	
338	3.600000e+00	1.445762e-05	
339	3.650000e+00	1.445917e-05	
340	3.700000e+00	1.446070e-05	
341	3.750000e+00	1.446222e-05	
342	3.800000e+00	1.446373e-05	
343	3.850000e+00	1.446522e-05	
344	3.900000e+00	1.446671e-05	

Index   v-sweep         -i(vds)         
--------------------------------------------------------------------------------
345	3.950000e+00	1.446818e-05	
346	4.000000e+00	1.446964e-05	
347	4.050000e+00	1.447110e-05	
348	4.100000e+00	1.447255e-05	
349	4.150000e+00	1.447399e-05	
350	4.200000e+00	1.447543e-05	
351	4.250000e+00	1.447687e-05	
352	4.300000e+00	1.447832e-05	
353	4.350000e+00	1.447977e-05	
354	4.400000e+00	1.448123e-05	
355	4.450000e+00	1.448271e-05	
356	4.500000e+00	1.448421e-05	
357	4.550000e+00	1.448575e-05	
358	4.600000e+00	1.448732e-05	
359	4.650000e+00	1.448894e-05	
360	4.700000e+00	1.449062e-05	
361	4.750000e+00	1.449238e-05	
362	4.800000e+00	1.449423e-05	
363	4.850000e+00	1.449618e-05	
364	4.900000e+00	1.449827e-05	
365	4.950000e+00	1.450052e-05	
366	5.000000e+00	1.450294e-05	
367	5.050000e+00	1.450557e-05	
368	5.100000e+00	1.450845e-05	
369	5.150000e+00	1.451160e-05	
370	5.200000e+00	1.451507e-05	
371	5.250000e+00	1.451891e-05	
372	5.300000e+00	1.452315e-05	
373	5.350000e+00	1.452786e-05	
374	5.400000e+00	1.453308e-05	
375	5.450000e+00	1.453889e-05	
376	5.500000e+00	1.454533e-05	
377	5.550000e+00	1.455250e-05	
378	5.600000e+00	1.456046e-05	
379	5.650000e+00	1.456928e-05	
380	5.700000e+00	1.457907e-05	
381	5.750000e+00	1.458990e-05	
382	5.800000e+00	1.460188e-05	
383	5.850000e+00	1.461510e-05	
384	5.900000e+00	1.462967e-05	
385	5.950000e+00	1.464570e-05	
386	6.000000e+00	1.466332e-05	
387	6.050000e+00	1.468264e-05	
388	6.100000e+00	1.470380e-05	
389	6.150000e+00	1.472692e-05	
390	6.200000e+00	1.475214e-05	
391	6.250000e+00	1.477961e-05	
392	6.300000e+00	1.480949e-05	
393	6.350000e+00	1.484191e-05	
394	6.400000e+00	1.487705e-05	
395	6.450000e+00	1.491507e-05	
396	6.500000e+00	1.495613e-05	
397	6.550000e+00	1.500042e-05	
398	6.600000e+00	1.504811e-05	
399	0.000000e+00	-0.000000e+00	
400	5.000000e-02	9.561394e-07	
401	1.000000e-01	1.879522e-06	
402	1.500000e-01	2.781329e-06	

Index   v-sweep         -i(vds)         
--------------------------------------------------------------------------------
403	2.000000e-01	3.664400e-06	
404	2.500000e-01	4.529484e-06	
405	3.000000e-01	5.376803e-06	
406	3.500000e-01	6.206449e-06	
407	4.000000e-01	7.018478e-06	
408	4.500000e-01	7.812941e-06	
409	5.000000e-01	8.589883e-06	
410	5.500000e-01	9.349352e-06	
411	6.000000e-01	1.009139e-05	
412	6.500000e-01	1.081605e-05	
413	7.000000e-01	1.152337e-05	
414	7.500000e-01	1.221340e-05	
415	8.000000e-01	1.288618e-05	
416	8.500000e-01	1.354177e-05	
417	9.000000e-01	1.418019e-05	
418	9.500000e-01	1.480150e-05	
419	1.000000e+00	1.540575e-05	
420	1.050000e+00	1.599297e-05	
421	1.100000e+00	1.656322e-05	
422	1.150000e+00	1.711653e-05	
423	1.200000e+00	1.765295e-05	
424	1.250000e+00	1.817252e-05	
425	1.300000e+00	1.867529e-05	
426	1.350000e+00	1.916130e-05	
427	1.400000e+00	1.963059e-05	
428	1.450000e+00	2.008321e-05	
429	1.500000e+00	2.051920e-05	
430	1.550000e+00	2.093860e-05	
431	1.600000e+00	2.134145e-05	
432	1.650000e+00	2.172780e-05	
433	1.700000e+00	2.209769e-05	
434	1.750000e+00	2.245115e-05	
435	1.800000e+00	2.278825e-05	
436	1.850000e+00	2.310900e-05	
437	1.900000e+00	2.341347e-05	
438	1.950000e+00	2.370168e-05	
439	2.000000e+00	2.397369e-05	
440	2.050000e+00	2.422953e-05	
441	2.100000e+00	2.446926e-05	
442	2.150000e+00	2.469291e-05	
443	2.200000e+00	2.490055e-05	
444	2.250000e+00	2.509222e-05	
445	2.300000e+00	2.526801e-05	
446	2.350000e+00	2.542798e-05	
447	2.400000e+00	2.557226e-05	
448	2.450000e+00	2.570100e-05	
449	2.500000e+00	2.581445e-05	
450	2.550000e+00	2.591294e-05	
451	2.600000e+00	2.599700e-05	
452	2.650000e+00	2.606742e-05	
453	2.700000e+00	2.612526e-05	
454	2.750000e+00	2.617193e-05	
455	2.800000e+00	2.620908e-05	
456	2.850000e+00	2.623844e-05	
457	2.900000e+00	2.626167e-05	
458	2.950000e+00	2.628020e-05	
459	3.000000e+00	2.629517e-05	
460	3.050000e+00	2.630749e-05	

Index   v-sweep         -i(vds)         
--------------------------------------------------------------------------------
461	3.100000e+00	2.631779e-05	
462	3.150000e+00	2.632657e-05	
463	3.200000e+00	2.633418e-05	
464	3.250000e+00	2.634087e-05	
465	3.300000e+00	2.634684e-05	
466	3.350000e+00	2.635223e-05	
467	3.400000e+00	2.635715e-05	
468	3.450000e+00	2.636169e-05	
469	3.500000e+00	2.636591e-05	
470	3.550000e+00	2.636986e-05	
471	3.600000e+00	2.637359e-05	
472	3.650000e+00	2.637711e-05	
473	3.700000e+00	2.638048e-05	
474	3.750000e+00	2.638369e-05	
475	3.800000e+00	2.638678e-05	
476	3.850000e+00	2.638975e-05	
477	3.900000e+00	2.639263e-05	
478	3.950000e+00	2.639542e-05	
479	4.000000e+00	2.639813e-05	
480	4.050000e+00	2.640076e-05	
481	4.100000e+00	2.640334e-05	
482	4.150000e+00	2.640585e-05	
483	4.200000e+00	2.640831e-05	
484	4.250000e+00	2.641073e-05	
485	4.300000e+00	2.641310e-05	
486	4.350000e+00	2.641543e-05	
487	4.400000e+00	2.641772e-05	
488	4.450000e+00	2.641997e-05	
489	4.500000e+00	2.642220e-05	
490	4.550000e+00	2.642439e-05	
491	4.600000e+00	2.642656e-05	
492	4.650000e+00	2.642870e-05	
493	4.700000e+00	2.643082e-05	
494	4.750000e+00	2.643292e-05	
495	4.800000e+00	2.643500e-05	
496	4.850000e+00	2.643706e-05	
497	4.900000e+00	2.643911e-05	
498	4.950000e+00	2.644115e-05	
499	5.000000e+00	2.644318e-05	
500	5.050000e+00	2.644521e-05	
501	5.100000e+00	2.644724e-05	
502	5.150000e+00	2.644928e-05	
503	5.200000e+00	2.645134e-05	
504	5.250000e+00	2.645342e-05	
505	5.300000e+00	2.645554e-05	
506	5.350000e+00	2.645771e-05	
507	5.400000e+00	2.645995e-05	
508	5.450000e+00	2.646227e-05	
509	5.500000e+00	2.646469e-05	
510	5.550000e+00	2.646724e-05	
511	5.600000e+00	2.646995e-05	
512	5.650000e+00	2.647284e-05	
513	5.700000e+00	2.647596e-05	
514	5.750000e+00	2.647934e-05	
515	5.800000e+00	2.648304e-05	
516	5.850000e+00	2.648710e-05	
517	5.900000e+00	2.649158e-05	
518	5.950000e+00	2.649654e-05	

Index   v-sweep         -i(vds)         
--------------------------------------------------------------------------------
519	6.000000e+00	2.650206e-05	
520	6.050000e+00	2.650821e-05	
521	6.100000e+00	2.651508e-05	
522	6.150000e+00	2.652276e-05	
523	6.200000e+00	2.653135e-05	
524	6.250000e+00	2.654096e-05	
525	6.300000e+00	2.655170e-05	
526	6.350000e+00	2.656370e-05	
527	6.400000e+00	2.657709e-05	
528	6.450000e+00	2.659203e-05	
529	6.500000e+00	2.660865e-05	
530	6.550000e+00	2.662713e-05	
531	6.600000e+00	2.664763e-05	
532	0.000000e+00	-0.000000e+00	
533	5.000000e-02	1.117852e-06	
534	1.000000e-01	2.204774e-06	
535	1.500000e-01	3.271938e-06	
536	2.000000e-01	4.322178e-06	
537	2.500000e-01	5.356233e-06	
538	3.000000e-01	6.374318e-06	
539	3.500000e-01	7.376516e-06	
540	4.000000e-01	8.362877e-06	
541	4.500000e-01	9.333442e-06	
542	5.000000e-01	1.028825e-05	
543	5.500000e-01	1.122734e-05	
544	6.000000e-01	1.215075e-05	
545	6.500000e-01	1.305851e-05	
546	7.000000e-01	1.395068e-05	
547	7.500000e-01	1.482727e-05	
548	8.000000e-01	1.568834e-05	
549	8.500000e-01	1.653391e-05	
550	9.000000e-01	1.736403e-05	
551	9.500000e-01	1.817873e-05	
552	1.000000e+00	1.897805e-05	
553	1.050000e+00	1.976203e-05	
554	1.100000e+00	2.053070e-05	
555	1.150000e+00	2.128411e-05	
556	1.200000e+00	2.202228e-05	
557	1.250000e+00	2.274525e-05	
558	1.300000e+00	2.345306e-05	
559	1.350000e+00	2.414575e-05	
560	1.400000e+00	2.482335e-05	
561	1.450000e+00	2.548590e-05	
562	1.500000e+00	2.613344e-05	
563	1.550000e+00	2.676599e-05	
564	1.600000e+00	2.738360e-05	
565	1.650000e+00	2.798630e-05	
566	1.700000e+00	2.857412e-05	
567	1.750000e+00	2.914711e-05	
568	1.800000e+00	2.970529e-05	
569	1.850000e+00	3.024870e-05	
570	1.900000e+00	3.077738e-05	
571	1.950000e+00	3.129135e-05	
572	2.000000e+00	3.179067e-05	
573	2.050000e+00	3.227535e-05	
574	2.100000e+00	3.274543e-05	
575	2.150000e+00	3.320095e-05	
576	2.200000e+00	3.364194e-05	

Index   v-sweep         -i(vds)         
--------------------------------------------------------------------------------
577	2.250000e+00	3.406844e-05	
578	2.300000e+00	3.448047e-05	
579	2.350000e+00	3.487807e-05	
580	2.400000e+00	3.526127e-05	
581	2.450000e+00	3.563011e-05	
582	2.500000e+00	3.598462e-05	
583	2.550000e+00	3.632482e-05	
584	2.600000e+00	3.665076e-05	
585	2.650000e+00	3.696245e-05	
586	2.700000e+00	3.725994e-05	
587	2.750000e+00	3.754326e-05	
588	2.800000e+00	3.781242e-05	
589	2.850000e+00	3.806747e-05	
590	2.900000e+00	3.830844e-05	
591	2.950000e+00	3.853534e-05	
592	3.000000e+00	3.874823e-05	
593	3.050000e+00	3.894713e-05	
594	3.100000e+00	3.913207e-05	
595	3.150000e+00	3.930311e-05	
596	3.200000e+00	3.946030e-05	
597	3.250000e+00	3.960373e-05	
598	3.300000e+00	3.973349e-05	
599	3.350000e+00	3.984978e-05	
600	3.400000e+00	3.995282e-05	
601	3.450000e+00	4.004299e-05	
602	3.500000e+00	4.012084e-05	
603	3.550000e+00	4.018712e-05	
604	3.600000e+00	4.024280e-05	
605	3.650000e+00	4.028906e-05	
606	3.700000e+00	4.032724e-05	
607	3.750000e+00	4.035865e-05	
608	3.800000e+00	4.038456e-05	
609	3.850000e+00	4.040607e-05	
610	3.900000e+00	4.042410e-05	
611	3.950000e+00	4.043940e-05	
612	4.000000e+00	4.045254e-05	
613	4.050000e+00	4.046396e-05	
614	4.100000e+00	4.047402e-05	
615	4.150000e+00	4.048298e-05	
616	4.200000e+00	4.049104e-05	
617	4.250000e+00	4.049837e-05	
618	4.300000e+00	4.050508e-05	
619	4.350000e+00	4.051129e-05	
620	4.400000e+00	4.051706e-05	
621	4.450000e+00	4.052246e-05	
622	4.500000e+00	4.052755e-05	
623	4.550000e+00	4.053237e-05	
624	4.600000e+00	4.053694e-05	
625	4.650000e+00	4.054131e-05	
626	4.700000e+00	4.054549e-05	
627	4.750000e+00	4.054951e-05	
628	4.800000e+00	4.055338e-05	
629	4.850000e+00	4.055713e-05	
630	4.900000e+00	4.056075e-05	
631	4.950000e+00	4.056427e-05	
632	5.000000e+00	4.056770e-05	
633	5.050000e+00	4.057104e-05	
634	5.100000e+00	4.057429e-05	

Index   v-sweep         -i(vds)         
--------------------------------------------------------------------------------
635	5.150000e+00	4.057748e-05	
636	5.200000e+00	4.058059e-05	
637	5.250000e+00	4.058365e-05	
638	5.300000e+00	4.058665e-05	
639	5.350000e+00	4.058959e-05	
640	5.400000e+00	4.059249e-05	
641	5.450000e+00	4.059534e-05	
642	5.500000e+00	4.059815e-05	
643	5.550000e+00	4.060092e-05	
644	5.600000e+00	4.060366e-05	
645	5.650000e+00	4.060637e-05	
646	5.700000e+00	4.060905e-05	
647	5.750000e+00	4.061170e-05	
648	5.800000e+00	4.061434e-05	
649	5.850000e+00	4.061696e-05	
650	5.900000e+00	4.061958e-05	
651	5.950000e+00	4.062219e-05	
652	6.000000e+00	4.062482e-05	
653	6.050000e+00	4.062747e-05	
654	6.100000e+00	4.063015e-05	
655	6.150000e+00	4.063289e-05	
656	6.200000e+00	4.063569e-05	
657	6.250000e+00	4.063859e-05	
658	6.300000e+00	4.064160e-05	
659	6.350000e+00	4.064477e-05	
660	6.400000e+00	4.064812e-05	
661	6.450000e+00	4.065169e-05	
662	6.500000e+00	4.065554e-05	
663	6.550000e+00	4.065972e-05	
664	6.600000e+00	4.066428e-05	
665	0.000000e+00	-0.000000e+00	
666	5.000000e-02	1.235795e-06	
667	1.000000e-01	2.442463e-06	
668	1.500000e-01	3.631169e-06	
669	2.000000e-01	4.804738e-06	
670	2.500000e-01	5.963903e-06	
671	3.000000e-01	7.108872e-06	
672	3.500000e-01	8.239721e-06	
673	4.000000e-01	9.356491e-06	
674	4.500000e-01	1.045922e-05	
675	5.000000e-01	1.154793e-05	
676	5.500000e-01	1.262266e-05	
677	6.000000e-01	1.368344e-05	
678	6.500000e-01	1.473031e-05	
679	7.000000e-01	1.576328e-05	
680	7.500000e-01	1.678240e-05	
681	8.000000e-01	1.778769e-05	
682	8.500000e-01	1.877918e-05	
683	9.000000e-01	1.975691e-05	
684	9.500000e-01	2.072090e-05	
685	1.000000e+00	2.167119e-05	
686	1.050000e+00	2.260780e-05	
687	1.100000e+00	2.353077e-05	
688	1.150000e+00	2.444012e-05	
689	1.200000e+00	2.533588e-05	
690	1.250000e+00	2.621809e-05	
691	1.300000e+00	2.708678e-05	
692	1.350000e+00	2.794196e-05	

Index   v-sweep         -i(vds)         
--------------------------------------------------------------------------------
693	1.400000e+00	2.878369e-05	
694	1.450000e+00	2.961197e-05	
695	1.500000e+00	3.042685e-05	
696	1.550000e+00	3.122835e-05	
697	1.600000e+00	3.201650e-05	
698	1.650000e+00	3.279132e-05	
699	1.700000e+00	3.355286e-05	
700	1.750000e+00	3.430114e-05	
701	1.800000e+00	3.503618e-05	
702	1.850000e+00	3.575801e-05	
703	1.900000e+00	3.646667e-05	
704	1.950000e+00	3.716219e-05	
705	2.000000e+00	3.784458e-05	
706	2.050000e+00	3.851388e-05	
707	2.100000e+00	3.917012e-05	
708	2.150000e+00	3.981332e-05	
709	2.200000e+00	4.044352e-05	
710	2.250000e+00	4.106074e-05	
711	2.300000e+00	4.166501e-05	
712	2.350000e+00	4.225635e-05	
713	2.400000e+00	4.283480e-05	
714	2.450000e+00	4.340038e-05	
715	2.500000e+00	4.395312e-05	
716	2.550000e+00	4.449304e-05	
717	2.600000e+00	4.502018e-05	
718	2.650000e+00	4.553456e-05	
719	2.700000e+00	4.603621e-05	
720	2.750000e+00	4.652515e-05	
721	2.800000e+00	4.700141e-05	
722	2.850000e+00	4.746502e-05	
723	2.900000e+00	4.791600e-05	
724	2.950000e+00	4.835438e-05	
725	3.000000e+00	4.878019e-05	
726	3.050000e+00	4.919344e-05	
727	3.100000e+00	4.959418e-05	
728	3.150000e+00	4.998241e-05	
729	3.200000e+00	5.035817e-05	
730	3.250000e+00	5.072147e-05	
731	3.300000e+00	5.107235e-05	
732	3.350000e+00	5.141083e-05	
733	3.400000e+00	5.173693e-05	
734	3.450000e+00	5.205067e-05	
735	3.500000e+00	5.235208e-05	
736	3.550000e+00	5.264117e-05	
737	3.600000e+00	5.291797e-05	
738	3.650000e+00	5.318250e-05	
739	3.700000e+00	5.343477e-05	
740	3.750000e+00	5.367481e-05	
741	3.800000e+00	5.390263e-05	
742	3.850000e+00	5.411825e-05	
743	3.900000e+00	5.432169e-05	
744	3.950000e+00	5.451295e-05	
745	4.000000e+00	5.469207e-05	
746	4.050000e+00	5.485907e-05	
747	4.100000e+00	5.501396e-05	
748	4.150000e+00	5.515681e-05	
749	4.200000e+00	5.528767e-05	
750	4.250000e+00	5.540665e-05	

Index   v-sweep         -i(vds)         
--------------------------------------------------------------------------------
751	4.300000e+00	5.551390e-05	
752	4.350000e+00	5.560967e-05	
753	4.400000e+00	5.569431e-05	
754	4.450000e+00	5.576832e-05	
755	4.500000e+00	5.583236e-05	
756	4.550000e+00	5.588726e-05	
757	4.600000e+00	5.593399e-05	
758	4.650000e+00	5.597360e-05	
759	4.700000e+00	5.600713e-05	
760	4.750000e+00	5.603559e-05	
761	4.800000e+00	5.605985e-05	
762	4.850000e+00	5.608069e-05	
763	4.900000e+00	5.609875e-05	
764	4.950000e+00	5.611453e-05	
765	5.000000e+00	5.612846e-05	
766	5.050000e+00	5.614087e-05	
767	5.100000e+00	5.615203e-05	
768	5.150000e+00	5.616213e-05	
769	5.200000e+00	5.617137e-05	
770	5.250000e+00	5.617986e-05	
771	5.300000e+00	5.618773e-05	
772	5.350000e+00	5.619506e-05	
773	5.400000e+00	5.620193e-05	
774	5.450000e+00	5.620839e-05	
775	5.500000e+00	5.621451e-05	
776	5.550000e+00	5.622032e-05	
777	5.600000e+00	5.622585e-05	
778	5.650000e+00	5.623114e-05	
779	5.700000e+00	5.623622e-05	
780	5.750000e+00	5.624110e-05	
781	5.800000e+00	5.624582e-05	
782	5.850000e+00	5.625037e-05	
783	5.900000e+00	5.625478e-05	
784	5.950000e+00	5.625906e-05	
785	6.000000e+00	5.626323e-05	
786	6.050000e+00	5.626729e-05	
787	6.100000e+00	5.627124e-05	
788	6.150000e+00	5.627511e-05	
789	6.200000e+00	5.627889e-05	
790	6.250000e+00	5.628260e-05	
791	6.300000e+00	5.628623e-05	
792	6.350000e+00	5.628979e-05	
793	6.400000e+00	5.629330e-05	
794	6.450000e+00	5.629674e-05	
795	6.500000e+00	5.630014e-05	
796	6.550000e+00	5.630349e-05	
797	6.600000e+00	5.630679e-05	
Note: No ".plot", ".print", or ".fourier" lines; no simulations run
