
Note: Compatibility modes selected: hs

Warning: m=xx on .subckt line will override multiplier m hierarchy!


Circuit: ***************************

Doing analysis at TEMP = -40.000000 and TNOM = -40.000000


No. of Data Rows : 798
                          ***************************
                          DC transfer characteristic  Mon Jan  9 13:57:41  2023
--------------------------------------------------------------------------------
Index   v-sweep         -i(vds)         
--------------------------------------------------------------------------------
0	0.000000e+00	-0.000000e+00	
1	5.000000e-02	2.201348e-05	
2	1.000000e-01	3.517782e-05	
3	1.500000e-01	4.147932e-05	
4	2.000000e-01	4.438925e-05	
5	2.500000e-01	4.617987e-05	
6	3.000000e-01	4.753886e-05	
7	3.500000e-01	4.867187e-05	
8	4.000000e-01	4.966313e-05	
9	4.500000e-01	5.055612e-05	
10	5.000000e-01	5.137664e-05	
11	5.500000e-01	5.214141e-05	
12	6.000000e-01	5.286193e-05	
13	6.500000e-01	5.354649e-05	
14	7.000000e-01	5.420126e-05	
15	7.500000e-01	5.483097e-05	
16	8.000000e-01	5.543931e-05	
17	8.500000e-01	5.602922e-05	
18	9.000000e-01	5.660310e-05	
19	9.500000e-01	5.716290e-05	
20	1.000000e+00	5.771026e-05	
21	1.050000e+00	5.824655e-05	
22	1.100000e+00	5.877293e-05	
23	1.150000e+00	5.929039e-05	
24	1.200000e+00	5.979979e-05	
25	1.250000e+00	6.030187e-05	
26	1.300000e+00	6.079728e-05	
27	1.350000e+00	6.128660e-05	
28	1.400000e+00	6.177031e-05	
29	1.450000e+00	6.224887e-05	
30	1.500000e+00	6.272268e-05	
31	1.550000e+00	6.319209e-05	
32	1.600000e+00	6.365741e-05	
33	1.650000e+00	6.411894e-05	
34	1.700000e+00	6.457694e-05	
35	1.750000e+00	6.503163e-05	
36	1.800000e+00	6.548324e-05	
37	1.850000e+00	6.593196e-05	
38	1.900000e+00	6.637797e-05	
39	1.950000e+00	6.682143e-05	
40	2.000000e+00	6.726250e-05	
41	2.050000e+00	6.770130e-05	
42	2.100000e+00	6.813798e-05	
43	2.150000e+00	6.857264e-05	
44	2.200000e+00	6.900541e-05	
45	2.250000e+00	6.943638e-05	
46	2.300000e+00	6.986566e-05	
47	2.350000e+00	7.029333e-05	
48	2.400000e+00	7.071949e-05	
49	2.450000e+00	7.114422e-05	
50	2.500000e+00	7.156760e-05	
51	2.550000e+00	7.198973e-05	
52	2.600000e+00	7.241067e-05	
53	2.650000e+00	7.283052e-05	
54	2.700000e+00	7.324935e-05	

Index   v-sweep         -i(vds)         
--------------------------------------------------------------------------------
55	2.750000e+00	7.366727e-05	
56	2.800000e+00	7.408435e-05	
57	2.850000e+00	7.450070e-05	
58	2.900000e+00	7.491642e-05	
59	2.950000e+00	7.533163e-05	
60	3.000000e+00	7.574646e-05	
61	3.050000e+00	7.616102e-05	
62	3.100000e+00	7.657548e-05	
63	3.150000e+00	7.699000e-05	
64	3.200000e+00	7.740474e-05	
65	3.250000e+00	7.781991e-05	
66	3.300000e+00	7.823572e-05	
67	3.350000e+00	7.865241e-05	
68	3.400000e+00	7.907022e-05	
69	3.450000e+00	7.948945e-05	
70	3.500000e+00	7.991039e-05	
71	3.550000e+00	8.033338e-05	
72	3.600000e+00	8.075878e-05	
73	3.650000e+00	8.118697e-05	
74	3.700000e+00	8.161839e-05	
75	3.750000e+00	8.205348e-05	
76	3.800000e+00	8.249273e-05	
77	3.850000e+00	8.293667e-05	
78	3.900000e+00	8.338586e-05	
79	3.950000e+00	8.384089e-05	
80	4.000000e+00	8.430240e-05	
81	4.050000e+00	8.477107e-05	
82	4.100000e+00	8.524762e-05	
83	4.150000e+00	8.573280e-05	
84	4.200000e+00	8.622742e-05	
85	4.250000e+00	8.673232e-05	
86	4.300000e+00	8.724839e-05	
87	4.350000e+00	8.777657e-05	
88	4.400000e+00	8.831783e-05	
89	4.450000e+00	8.887320e-05	
90	4.500000e+00	8.944375e-05	
91	4.550000e+00	9.003060e-05	
92	4.600000e+00	9.063491e-05	
93	4.650000e+00	9.125789e-05	
94	4.700000e+00	9.190080e-05	
95	4.750000e+00	9.256494e-05	
96	4.800000e+00	9.325166e-05	
97	4.850000e+00	9.396236e-05	
98	4.900000e+00	9.469847e-05	
99	4.950000e+00	9.546150e-05	
100	5.000000e+00	9.625298e-05	
101	5.050000e+00	9.707448e-05	
102	5.100000e+00	9.792764e-05	
103	5.150000e+00	9.881412e-05	
104	5.200000e+00	9.973564e-05	
105	5.250000e+00	1.006940e-04	
106	5.300000e+00	1.016909e-04	
107	5.350000e+00	1.027282e-04	
108	5.400000e+00	1.038079e-04	
109	5.450000e+00	1.049319e-04	
110	5.500000e+00	1.061021e-04	
111	5.550000e+00	1.073205e-04	
112	5.600000e+00	1.085892e-04	

Index   v-sweep         -i(vds)         
--------------------------------------------------------------------------------
113	5.650000e+00	1.099103e-04	
114	5.700000e+00	1.112859e-04	
115	5.750000e+00	1.127181e-04	
116	5.800000e+00	1.142092e-04	
117	5.850000e+00	1.157614e-04	
118	5.900000e+00	1.173769e-04	
119	5.950000e+00	1.190580e-04	
120	6.000000e+00	1.208071e-04	
121	6.050000e+00	1.226266e-04	
122	6.100000e+00	1.245187e-04	
123	6.150000e+00	1.264861e-04	
124	6.200000e+00	1.285310e-04	
125	6.250000e+00	1.306560e-04	
126	6.300000e+00	1.328636e-04	
127	6.350000e+00	1.351563e-04	
128	6.400000e+00	1.375366e-04	
129	6.450000e+00	1.400072e-04	
130	6.500000e+00	1.425707e-04	
131	6.550000e+00	1.452296e-04	
132	6.600000e+00	1.479867e-04	
133	0.000000e+00	-0.000000e+00	
134	5.000000e-02	1.235420e-04	
135	1.000000e-01	2.352769e-04	
136	1.500000e-01	3.358040e-04	
137	2.000000e-01	4.256814e-04	
138	2.500000e-01	5.054280e-04	
139	3.000000e-01	5.755246e-04	
140	3.500000e-01	6.364131e-04	
141	4.000000e-01	6.884907e-04	
142	4.500000e-01	7.321017e-04	
143	5.000000e-01	7.675519e-04	
144	5.500000e-01	7.952555e-04	
145	6.000000e-01	8.160979e-04	
146	6.500000e-01	8.315755e-04	
147	7.000000e-01	8.432971e-04	
148	7.500000e-01	8.525001e-04	
149	8.000000e-01	8.599956e-04	
150	8.500000e-01	8.662938e-04	
151	9.000000e-01	8.717203e-04	
152	9.500000e-01	8.764903e-04	
153	1.000000e+00	8.807506e-04	
154	1.050000e+00	8.846055e-04	
155	1.100000e+00	8.881308e-04	
156	1.150000e+00	8.913834e-04	
157	1.200000e+00	8.944069e-04	
158	1.250000e+00	8.972354e-04	
159	1.300000e+00	8.998960e-04	
160	1.350000e+00	9.024106e-04	
161	1.400000e+00	9.047971e-04	
162	1.450000e+00	9.070704e-04	
163	1.500000e+00	9.092430e-04	
164	1.550000e+00	9.113252e-04	
165	1.600000e+00	9.133262e-04	
166	1.650000e+00	9.152536e-04	
167	1.700000e+00	9.171140e-04	
168	1.750000e+00	9.189134e-04	
169	1.800000e+00	9.206567e-04	
170	1.850000e+00	9.223484e-04	

Index   v-sweep         -i(vds)         
--------------------------------------------------------------------------------
171	1.900000e+00	9.239926e-04	
172	1.950000e+00	9.255927e-04	
173	2.000000e+00	9.271520e-04	
174	2.050000e+00	9.286732e-04	
175	2.100000e+00	9.301589e-04	
176	2.150000e+00	9.316114e-04	
177	2.200000e+00	9.330327e-04	
178	2.250000e+00	9.344249e-04	
179	2.300000e+00	9.357896e-04	
180	2.350000e+00	9.371283e-04	
181	2.400000e+00	9.384427e-04	
182	2.450000e+00	9.397339e-04	
183	2.500000e+00	9.410033e-04	
184	2.550000e+00	9.422519e-04	
185	2.600000e+00	9.434810e-04	
186	2.650000e+00	9.446914e-04	
187	2.700000e+00	9.458841e-04	
188	2.750000e+00	9.470601e-04	
189	2.800000e+00	9.482201e-04	
190	2.850000e+00	9.493651e-04	
191	2.900000e+00	9.504959e-04	
192	2.950000e+00	9.516133e-04	
193	3.000000e+00	9.527180e-04	
194	3.050000e+00	9.538111e-04	
195	3.100000e+00	9.548933e-04	
196	3.150000e+00	9.559656e-04	
197	3.200000e+00	9.570289e-04	
198	3.250000e+00	9.580843e-04	
199	3.300000e+00	9.591329e-04	
200	3.350000e+00	9.601759e-04	
201	3.400000e+00	9.612147e-04	
202	3.450000e+00	9.622507e-04	
203	3.500000e+00	9.632855e-04	
204	3.550000e+00	9.643209e-04	
205	3.600000e+00	9.653588e-04	
206	3.650000e+00	9.664013e-04	
207	3.700000e+00	9.674508e-04	
208	3.750000e+00	9.685098e-04	
209	3.800000e+00	9.695809e-04	
210	3.850000e+00	9.706674e-04	
211	3.900000e+00	9.717723e-04	
212	3.950000e+00	9.728993e-04	
213	4.000000e+00	9.740523e-04	
214	4.050000e+00	9.752352e-04	
215	4.100000e+00	9.764526e-04	
216	4.150000e+00	9.777092e-04	
217	4.200000e+00	9.790101e-04	
218	4.250000e+00	9.803608e-04	
219	4.300000e+00	9.817670e-04	
220	4.350000e+00	9.832348e-04	
221	4.400000e+00	9.847707e-04	
222	4.450000e+00	9.863816e-04	
223	4.500000e+00	9.880746e-04	
224	4.550000e+00	9.898575e-04	
225	4.600000e+00	9.917382e-04	
226	4.650000e+00	9.937250e-04	
227	4.700000e+00	9.958267e-04	
228	4.750000e+00	9.980524e-04	

Index   v-sweep         -i(vds)         
--------------------------------------------------------------------------------
229	4.800000e+00	1.000412e-03	
230	4.850000e+00	1.002914e-03	
231	4.900000e+00	1.005570e-03	
232	4.950000e+00	1.008391e-03	
233	5.000000e+00	1.011386e-03	
234	5.050000e+00	1.014569e-03	
235	5.100000e+00	1.017949e-03	
236	5.150000e+00	1.021541e-03	
237	5.200000e+00	1.025355e-03	
238	5.250000e+00	1.029404e-03	
239	5.300000e+00	1.033703e-03	
240	5.350000e+00	1.038263e-03	
241	5.400000e+00	1.043100e-03	
242	5.450000e+00	1.048226e-03	
243	5.500000e+00	1.053657e-03	
244	5.550000e+00	1.059407e-03	
245	5.600000e+00	1.065491e-03	
246	5.650000e+00	1.071924e-03	
247	5.700000e+00	1.078722e-03	
248	5.750000e+00	1.085900e-03	
249	5.800000e+00	1.093475e-03	
250	5.850000e+00	1.101462e-03	
251	5.900000e+00	1.109879e-03	
252	5.950000e+00	1.118740e-03	
253	6.000000e+00	1.128065e-03	
254	6.050000e+00	1.137869e-03	
255	6.100000e+00	1.148169e-03	
256	6.150000e+00	1.158984e-03	
257	6.200000e+00	1.170330e-03	
258	6.250000e+00	1.182226e-03	
259	6.300000e+00	1.194689e-03	
260	6.350000e+00	1.207736e-03	
261	6.400000e+00	1.221387e-03	
262	6.450000e+00	1.235659e-03	
263	6.500000e+00	1.250570e-03	
264	6.550000e+00	1.266139e-03	
265	6.600000e+00	1.282384e-03	
266	0.000000e+00	-0.000000e+00	
267	5.000000e-02	1.986967e-04	
268	1.000000e-01	3.841761e-04	
269	1.500000e-01	5.570895e-04	
270	2.000000e-01	7.180449e-04	
271	2.500000e-01	8.676091e-04	
272	3.000000e-01	1.006310e-03	
273	3.500000e-01	1.134639e-03	
274	4.000000e-01	1.253052e-03	
275	4.500000e-01	1.361970e-03	
276	5.000000e-01	1.461779e-03	
277	5.500000e-01	1.552825e-03	
278	6.000000e-01	1.635402e-03	
279	6.500000e-01	1.709732e-03	
280	7.000000e-01	1.775929e-03	
281	7.500000e-01	1.833954e-03	
282	8.000000e-01	1.883610e-03	
283	8.500000e-01	1.924728e-03	
284	9.000000e-01	1.957603e-03	
285	9.500000e-01	1.983305e-03	
286	1.000000e+00	2.003385e-03	

Index   v-sweep         -i(vds)         
--------------------------------------------------------------------------------
287	1.050000e+00	2.019335e-03	
288	1.100000e+00	2.032313e-03	
289	1.150000e+00	2.043134e-03	
290	1.200000e+00	2.052358e-03	
291	1.250000e+00	2.060369e-03	
292	1.300000e+00	2.067438e-03	
293	1.350000e+00	2.073759e-03	
294	1.400000e+00	2.079474e-03	
295	1.450000e+00	2.084689e-03	
296	1.500000e+00	2.089488e-03	
297	1.550000e+00	2.093933e-03	
298	1.600000e+00	2.098075e-03	
299	1.650000e+00	2.101956e-03	
300	1.700000e+00	2.105608e-03	
301	1.750000e+00	2.109059e-03	
302	1.800000e+00	2.112331e-03	
303	1.850000e+00	2.115444e-03	
304	1.900000e+00	2.118415e-03	
305	1.950000e+00	2.121257e-03	
306	2.000000e+00	2.123982e-03	
307	2.050000e+00	2.126600e-03	
308	2.100000e+00	2.129122e-03	
309	2.150000e+00	2.131554e-03	
310	2.200000e+00	2.133904e-03	
311	2.250000e+00	2.136179e-03	
312	2.300000e+00	2.138383e-03	
313	2.350000e+00	2.140522e-03	
314	2.400000e+00	2.142600e-03	
315	2.450000e+00	2.144622e-03	
316	2.500000e+00	2.146591e-03	
317	2.550000e+00	2.148510e-03	
318	2.600000e+00	2.150382e-03	
319	2.650000e+00	2.152210e-03	
320	2.700000e+00	2.153997e-03	
321	2.750000e+00	2.155745e-03	
322	2.800000e+00	2.157456e-03	
323	2.850000e+00	2.159133e-03	
324	2.900000e+00	2.160776e-03	
325	2.950000e+00	2.162388e-03	
326	3.000000e+00	2.163970e-03	
327	3.050000e+00	2.165524e-03	
328	3.100000e+00	2.167052e-03	
329	3.150000e+00	2.168555e-03	
330	3.200000e+00	2.170034e-03	
331	3.250000e+00	2.171491e-03	
332	3.300000e+00	2.172928e-03	
333	3.350000e+00	2.174346e-03	
334	3.400000e+00	2.175747e-03	
335	3.450000e+00	2.177133e-03	
336	3.500000e+00	2.178505e-03	
337	3.550000e+00	2.179866e-03	
338	3.600000e+00	2.181217e-03	
339	3.650000e+00	2.182563e-03	
340	3.700000e+00	2.183904e-03	
341	3.750000e+00	2.185246e-03	
342	3.800000e+00	2.186589e-03	
343	3.850000e+00	2.187940e-03	
344	3.900000e+00	2.189301e-03	

Index   v-sweep         -i(vds)         
--------------------------------------------------------------------------------
345	3.950000e+00	2.190678e-03	
346	4.000000e+00	2.192075e-03	
347	4.050000e+00	2.193498e-03	
348	4.100000e+00	2.194953e-03	
349	4.150000e+00	2.196447e-03	
350	4.200000e+00	2.197986e-03	
351	4.250000e+00	2.199579e-03	
352	4.300000e+00	2.201235e-03	
353	4.350000e+00	2.202961e-03	
354	4.400000e+00	2.204768e-03	
355	4.450000e+00	2.206667e-03	
356	4.500000e+00	2.208669e-03	
357	4.550000e+00	2.210786e-03	
358	4.600000e+00	2.213030e-03	
359	4.650000e+00	2.215415e-03	
360	4.700000e+00	2.217956e-03	
361	4.750000e+00	2.220667e-03	
362	4.800000e+00	2.223565e-03	
363	4.850000e+00	2.226666e-03	
364	4.900000e+00	2.229988e-03	
365	4.950000e+00	2.233550e-03	
366	5.000000e+00	2.237371e-03	
367	5.050000e+00	2.241470e-03	
368	5.100000e+00	2.245869e-03	
369	5.150000e+00	2.250590e-03	
370	5.200000e+00	2.255655e-03	
371	5.250000e+00	2.261087e-03	
372	5.300000e+00	2.266911e-03	
373	5.350000e+00	2.273152e-03	
374	5.400000e+00	2.279835e-03	
375	5.450000e+00	2.286987e-03	
376	5.500000e+00	2.294636e-03	
377	5.550000e+00	2.302809e-03	
378	5.600000e+00	2.311534e-03	
379	5.650000e+00	2.320842e-03	
380	5.700000e+00	2.330763e-03	
381	5.750000e+00	2.341327e-03	
382	5.800000e+00	2.352565e-03	
383	5.850000e+00	2.364509e-03	
384	5.900000e+00	2.377193e-03	
385	5.950000e+00	2.390649e-03	
386	6.000000e+00	2.404910e-03	
387	6.050000e+00	2.420012e-03	
388	6.100000e+00	2.435989e-03	
389	6.150000e+00	2.452875e-03	
390	6.200000e+00	2.470707e-03	
391	6.250000e+00	2.489520e-03	
392	6.300000e+00	2.509351e-03	
393	6.350000e+00	2.530237e-03	
394	6.400000e+00	2.552215e-03	
395	6.450000e+00	2.575322e-03	
396	6.500000e+00	2.599596e-03	
397	6.550000e+00	2.625076e-03	
398	6.600000e+00	2.651798e-03	
399	0.000000e+00	-0.000000e+00	
400	5.000000e-02	2.556256e-04	
401	1.000000e-01	4.974967e-04	
402	1.500000e-01	7.262468e-04	

Index   v-sweep         -i(vds)         
--------------------------------------------------------------------------------
403	2.000000e-01	9.424706e-04	
404	2.500000e-01	1.146725e-03	
405	3.000000e-01	1.339534e-03	
406	3.500000e-01	1.521385e-03	
407	4.000000e-01	1.692737e-03	
408	4.500000e-01	1.854019e-03	
409	5.000000e-01	2.005631e-03	
410	5.500000e-01	2.147948e-03	
411	6.000000e-01	2.281319e-03	
412	6.500000e-01	2.406066e-03	
413	7.000000e-01	2.522484e-03	
414	7.500000e-01	2.630835e-03	
415	8.000000e-01	2.731336e-03	
416	8.500000e-01	2.824145e-03	
417	9.000000e-01	2.909331e-03	
418	9.500000e-01	2.986830e-03	
419	1.000000e+00	3.056399e-03	
420	1.050000e+00	3.117613e-03	
421	1.100000e+00	3.170021e-03	
422	1.150000e+00	3.213526e-03	
423	1.200000e+00	3.248752e-03	
424	1.250000e+00	3.276980e-03	
425	1.300000e+00	3.299714e-03	
426	1.350000e+00	3.318298e-03	
427	1.400000e+00	3.333775e-03	
428	1.450000e+00	3.346911e-03	
429	1.500000e+00	3.358254e-03	
430	1.550000e+00	3.368199e-03	
431	1.600000e+00	3.377032e-03	
432	1.650000e+00	3.384966e-03	
433	1.700000e+00	3.392162e-03	
434	1.750000e+00	3.398742e-03	
435	1.800000e+00	3.404803e-03	
436	1.850000e+00	3.410421e-03	
437	1.900000e+00	3.415656e-03	
438	1.950000e+00	3.420559e-03	
439	2.000000e+00	3.425170e-03	
440	2.050000e+00	3.429523e-03	
441	2.100000e+00	3.433646e-03	
442	2.150000e+00	3.437565e-03	
443	2.200000e+00	3.441299e-03	
444	2.250000e+00	3.444866e-03	
445	2.300000e+00	3.448282e-03	
446	2.350000e+00	3.451559e-03	
447	2.400000e+00	3.454710e-03	
448	2.450000e+00	3.457744e-03	
449	2.500000e+00	3.460671e-03	
450	2.550000e+00	3.463500e-03	
451	2.600000e+00	3.466236e-03	
452	2.650000e+00	3.468887e-03	
453	2.700000e+00	3.471458e-03	
454	2.750000e+00	3.473956e-03	
455	2.800000e+00	3.476383e-03	
456	2.850000e+00	3.478746e-03	
457	2.900000e+00	3.481047e-03	
458	2.950000e+00	3.483290e-03	
459	3.000000e+00	3.485479e-03	
460	3.050000e+00	3.487617e-03	

Index   v-sweep         -i(vds)         
--------------------------------------------------------------------------------
461	3.100000e+00	3.489706e-03	
462	3.150000e+00	3.491749e-03	
463	3.200000e+00	3.493749e-03	
464	3.250000e+00	3.495708e-03	
465	3.300000e+00	3.497628e-03	
466	3.350000e+00	3.499512e-03	
467	3.400000e+00	3.501361e-03	
468	3.450000e+00	3.503178e-03	
469	3.500000e+00	3.504965e-03	
470	3.550000e+00	3.506724e-03	
471	3.600000e+00	3.508458e-03	
472	3.650000e+00	3.510169e-03	
473	3.700000e+00	3.511859e-03	
474	3.750000e+00	3.513531e-03	
475	3.800000e+00	3.515189e-03	
476	3.850000e+00	3.516837e-03	
477	3.900000e+00	3.518477e-03	
478	3.950000e+00	3.520114e-03	
479	4.000000e+00	3.521753e-03	
480	4.050000e+00	3.523399e-03	
481	4.100000e+00	3.525059e-03	
482	4.150000e+00	3.526737e-03	
483	4.200000e+00	3.528442e-03	
484	4.250000e+00	3.530181e-03	
485	4.300000e+00	3.531963e-03	
486	4.350000e+00	3.533797e-03	
487	4.400000e+00	3.535693e-03	
488	4.450000e+00	3.537664e-03	
489	4.500000e+00	3.539720e-03	
490	4.550000e+00	3.541876e-03	
491	4.600000e+00	3.544145e-03	
492	4.650000e+00	3.546544e-03	
493	4.700000e+00	3.549088e-03	
494	4.750000e+00	3.551795e-03	
495	4.800000e+00	3.554684e-03	
496	4.850000e+00	3.557775e-03	
497	4.900000e+00	3.561089e-03	
498	4.950000e+00	3.564650e-03	
499	5.000000e+00	3.568481e-03	
500	5.050000e+00	3.572607e-03	
501	5.100000e+00	3.577055e-03	
502	5.150000e+00	3.581853e-03	
503	5.200000e+00	3.587030e-03	
504	5.250000e+00	3.592616e-03	
505	5.300000e+00	3.598643e-03	
506	5.350000e+00	3.605144e-03	
507	5.400000e+00	3.612154e-03	
508	5.450000e+00	3.619709e-03	
509	5.500000e+00	3.627845e-03	
510	5.550000e+00	3.636601e-03	
511	5.600000e+00	3.646017e-03	
512	5.650000e+00	3.656133e-03	
513	5.700000e+00	3.666991e-03	
514	5.750000e+00	3.678635e-03	
515	5.800000e+00	3.691109e-03	
516	5.850000e+00	3.704458e-03	
517	5.900000e+00	3.718729e-03	
518	5.950000e+00	3.733970e-03	

Index   v-sweep         -i(vds)         
--------------------------------------------------------------------------------
519	6.000000e+00	3.750229e-03	
520	6.050000e+00	3.767557e-03	
521	6.100000e+00	3.786003e-03	
522	6.150000e+00	3.805620e-03	
523	6.200000e+00	3.826461e-03	
524	6.250000e+00	3.848577e-03	
525	6.300000e+00	3.872025e-03	
526	6.350000e+00	3.896858e-03	
527	6.400000e+00	3.923132e-03	
528	6.450000e+00	3.950905e-03	
529	6.500000e+00	3.980232e-03	
530	6.550000e+00	4.011172e-03	
531	6.600000e+00	4.043783e-03	
532	0.000000e+00	-0.000000e+00	
533	5.000000e-02	2.967576e-04	
534	1.000000e-01	5.799694e-04	
535	1.500000e-01	8.502067e-04	
536	2.000000e-01	1.108009e-03	
537	2.500000e-01	1.353884e-03	
538	3.000000e-01	1.588313e-03	
539	3.500000e-01	1.811748e-03	
540	4.000000e-01	2.024614e-03	
541	4.500000e-01	2.227314e-03	
542	5.000000e-01	2.420226e-03	
543	5.500000e-01	2.603706e-03	
544	6.000000e-01	2.778089e-03	
545	6.500000e-01	2.943693e-03	
546	7.000000e-01	3.100816e-03	
547	7.500000e-01	3.249737e-03	
548	8.000000e-01	3.390719e-03	
549	8.500000e-01	3.524007e-03	
550	9.000000e-01	3.649821e-03	
551	9.500000e-01	3.768358e-03	
552	1.000000e+00	3.879781e-03	
553	1.050000e+00	3.984207e-03	
554	1.100000e+00	4.081683e-03	
555	1.150000e+00	4.172161e-03	
556	1.200000e+00	4.255449e-03	
557	1.250000e+00	4.331179e-03	
558	1.300000e+00	4.398817e-03	
559	1.350000e+00	4.457817e-03	
560	1.400000e+00	4.507938e-03	
561	1.450000e+00	4.549563e-03	
562	1.500000e+00	4.583714e-03	
563	1.550000e+00	4.611732e-03	
564	1.600000e+00	4.634929e-03	
565	1.650000e+00	4.654404e-03	
566	1.700000e+00	4.671008e-03	
567	1.750000e+00	4.685377e-03	
568	1.800000e+00	4.697983e-03	
569	1.850000e+00	4.709176e-03	
570	1.900000e+00	4.719221e-03	
571	1.950000e+00	4.728319e-03	
572	2.000000e+00	4.736626e-03	
573	2.050000e+00	4.744264e-03	
574	2.100000e+00	4.751331e-03	
575	2.150000e+00	4.757905e-03	
576	2.200000e+00	4.764049e-03	

Index   v-sweep         -i(vds)         
--------------------------------------------------------------------------------
577	2.250000e+00	4.769818e-03	
578	2.300000e+00	4.775253e-03	
579	2.350000e+00	4.780393e-03	
580	2.400000e+00	4.785269e-03	
581	2.450000e+00	4.789907e-03	
582	2.500000e+00	4.794330e-03	
583	2.550000e+00	4.798558e-03	
584	2.600000e+00	4.802608e-03	
585	2.650000e+00	4.806495e-03	
586	2.700000e+00	4.810233e-03	
587	2.750000e+00	4.813833e-03	
588	2.800000e+00	4.817306e-03	
589	2.850000e+00	4.820661e-03	
590	2.900000e+00	4.823907e-03	
591	2.950000e+00	4.827051e-03	
592	3.000000e+00	4.830099e-03	
593	3.050000e+00	4.833059e-03	
594	3.100000e+00	4.835935e-03	
595	3.150000e+00	4.838732e-03	
596	3.200000e+00	4.841456e-03	
597	3.250000e+00	4.844110e-03	
598	3.300000e+00	4.846699e-03	
599	3.350000e+00	4.849225e-03	
600	3.400000e+00	4.851694e-03	
601	3.450000e+00	4.854106e-03	
602	3.500000e+00	4.856467e-03	
603	3.550000e+00	4.858778e-03	
604	3.600000e+00	4.861043e-03	
605	3.650000e+00	4.863264e-03	
606	3.700000e+00	4.865444e-03	
607	3.750000e+00	4.867586e-03	
608	3.800000e+00	4.869693e-03	
609	3.850000e+00	4.871767e-03	
610	3.900000e+00	4.873813e-03	
611	3.950000e+00	4.875834e-03	
612	4.000000e+00	4.877833e-03	
613	4.050000e+00	4.879815e-03	
614	4.100000e+00	4.881784e-03	
615	4.150000e+00	4.883746e-03	
616	4.200000e+00	4.885706e-03	
617	4.250000e+00	4.887671e-03	
618	4.300000e+00	4.889648e-03	
619	4.350000e+00	4.891644e-03	
620	4.400000e+00	4.893669e-03	
621	4.450000e+00	4.895733e-03	
622	4.500000e+00	4.897845e-03	
623	4.550000e+00	4.900018e-03	
624	4.600000e+00	4.902265e-03	
625	4.650000e+00	4.904599e-03	
626	4.700000e+00	4.907037e-03	
627	4.750000e+00	4.909595e-03	
628	4.800000e+00	4.912291e-03	
629	4.850000e+00	4.915145e-03	
630	4.900000e+00	4.918178e-03	
631	4.950000e+00	4.921412e-03	
632	5.000000e+00	4.924873e-03	
633	5.050000e+00	4.928587e-03	
634	5.100000e+00	4.932580e-03	

Index   v-sweep         -i(vds)         
--------------------------------------------------------------------------------
635	5.150000e+00	4.936882e-03	
636	5.200000e+00	4.941525e-03	
637	5.250000e+00	4.946542e-03	
638	5.300000e+00	4.951966e-03	
639	5.350000e+00	4.957836e-03	
640	5.400000e+00	4.964189e-03	
641	5.450000e+00	4.971065e-03	
642	5.500000e+00	4.978507e-03	
643	5.550000e+00	4.986559e-03	
644	5.600000e+00	4.995265e-03	
645	5.650000e+00	5.004674e-03	
646	5.700000e+00	5.014836e-03	
647	5.750000e+00	5.025801e-03	
648	5.800000e+00	5.037621e-03	
649	5.850000e+00	5.050353e-03	
650	5.900000e+00	5.064051e-03	
651	5.950000e+00	5.078775e-03	
652	6.000000e+00	5.094583e-03	
653	6.050000e+00	5.111537e-03	
654	6.100000e+00	5.129700e-03	
655	6.150000e+00	5.149136e-03	
656	6.200000e+00	5.169912e-03	
657	6.250000e+00	5.192093e-03	
658	6.300000e+00	5.215749e-03	
659	6.350000e+00	5.240950e-03	
660	6.400000e+00	5.267767e-03	
661	6.450000e+00	5.296272e-03	
662	6.500000e+00	5.326540e-03	
663	6.550000e+00	5.358645e-03	
664	6.600000e+00	5.392663e-03	
665	0.000000e+00	-0.000000e+00	
666	5.000000e-02	3.246473e-04	
667	1.000000e-01	6.364627e-04	
668	1.500000e-01	9.359360e-04	
669	2.000000e-01	1.223532e-03	
670	2.500000e-01	1.499693e-03	
671	3.000000e-01	1.764836e-03	
672	3.500000e-01	2.019360e-03	
673	4.000000e-01	2.263641e-03	
674	4.500000e-01	2.498036e-03	
675	5.000000e-01	2.722884e-03	
676	5.500000e-01	2.938507e-03	
677	6.000000e-01	3.145207e-03	
678	6.500000e-01	3.343274e-03	
679	7.000000e-01	3.532982e-03	
680	7.500000e-01	3.714591e-03	
681	8.000000e-01	3.888348e-03	
682	8.500000e-01	4.054488e-03	
683	9.000000e-01	4.213233e-03	
684	9.500000e-01	4.364794e-03	
685	1.000000e+00	4.509371e-03	
686	1.050000e+00	4.647147e-03	
687	1.100000e+00	4.778293e-03	
688	1.150000e+00	4.902959e-03	
689	1.200000e+00	5.021274e-03	
690	1.250000e+00	5.133331e-03	
691	1.300000e+00	5.239178e-03	
692	1.350000e+00	5.338796e-03	

Index   v-sweep         -i(vds)         
--------------------------------------------------------------------------------
693	1.400000e+00	5.432071e-03	
694	1.450000e+00	5.518759e-03	
695	1.500000e+00	5.598453e-03	
696	1.550000e+00	5.670604e-03	
697	1.600000e+00	5.734634e-03	
698	1.650000e+00	5.790189e-03	
699	1.700000e+00	5.837409e-03	
700	1.750000e+00	5.877010e-03	
701	1.800000e+00	5.910092e-03	
702	1.850000e+00	5.937851e-03	
703	1.900000e+00	5.961372e-03	
704	1.950000e+00	5.981545e-03	
705	2.000000e+00	5.999067e-03	
706	2.050000e+00	6.014471e-03	
707	2.100000e+00	6.028163e-03	
708	2.150000e+00	6.040456e-03	
709	2.200000e+00	6.051588e-03	
710	2.250000e+00	6.061748e-03	
711	2.300000e+00	6.071084e-03	
712	2.350000e+00	6.079715e-03	
713	2.400000e+00	6.087738e-03	
714	2.450000e+00	6.095229e-03	
715	2.500000e+00	6.102255e-03	
716	2.550000e+00	6.108870e-03	
717	2.600000e+00	6.115118e-03	
718	2.650000e+00	6.121039e-03	
719	2.700000e+00	6.126666e-03	
720	2.750000e+00	6.132027e-03	
721	2.800000e+00	6.137146e-03	
722	2.850000e+00	6.142045e-03	
723	2.900000e+00	6.146743e-03	
724	2.950000e+00	6.151255e-03	
725	3.000000e+00	6.155598e-03	
726	3.050000e+00	6.159783e-03	
727	3.100000e+00	6.163823e-03	
728	3.150000e+00	6.167727e-03	
729	3.200000e+00	6.171505e-03	
730	3.250000e+00	6.175166e-03	
731	3.300000e+00	6.178716e-03	
732	3.350000e+00	6.182164e-03	
733	3.400000e+00	6.185514e-03	
734	3.450000e+00	6.188773e-03	
735	3.500000e+00	6.191947e-03	
736	3.550000e+00	6.195039e-03	
737	3.600000e+00	6.198055e-03	
738	3.650000e+00	6.200999e-03	
739	3.700000e+00	6.203875e-03	
740	3.750000e+00	6.206686e-03	
741	3.800000e+00	6.209436e-03	
742	3.850000e+00	6.212129e-03	
743	3.900000e+00	6.214767e-03	
744	3.950000e+00	6.217356e-03	
745	4.000000e+00	6.219897e-03	
746	4.050000e+00	6.222395e-03	
747	4.100000e+00	6.224853e-03	
748	4.150000e+00	6.227276e-03	
749	4.200000e+00	6.229668e-03	
750	4.250000e+00	6.232033e-03	

Index   v-sweep         -i(vds)         
--------------------------------------------------------------------------------
751	4.300000e+00	6.234377e-03	
752	4.350000e+00	6.236706e-03	
753	4.400000e+00	6.239026e-03	
754	4.450000e+00	6.241344e-03	
755	4.500000e+00	6.243668e-03	
756	4.550000e+00	6.246007e-03	
757	4.600000e+00	6.248371e-03	
758	4.650000e+00	6.250770e-03	
759	4.700000e+00	6.253218e-03	
760	4.750000e+00	6.255727e-03	
761	4.800000e+00	6.258313e-03	
762	4.850000e+00	6.260991e-03	
763	4.900000e+00	6.263778e-03	
764	4.950000e+00	6.266696e-03	
765	5.000000e+00	6.269764e-03	
766	5.050000e+00	6.273006e-03	
767	5.100000e+00	6.276446e-03	
768	5.150000e+00	6.280111e-03	
769	5.200000e+00	6.284030e-03	
770	5.250000e+00	6.288233e-03	
771	5.300000e+00	6.292754e-03	
772	5.350000e+00	6.297626e-03	
773	5.400000e+00	6.302888e-03	
774	5.450000e+00	6.308579e-03	
775	5.500000e+00	6.314740e-03	
776	5.550000e+00	6.321416e-03	
777	5.600000e+00	6.328652e-03	
778	5.650000e+00	6.336498e-03	
779	5.700000e+00	6.345003e-03	
780	5.750000e+00	6.354223e-03	
781	5.800000e+00	6.364211e-03	
782	5.850000e+00	6.375027e-03	
783	5.900000e+00	6.386730e-03	
784	5.950000e+00	6.399383e-03	
785	6.000000e+00	6.413050e-03	
786	6.050000e+00	6.427800e-03	
787	6.100000e+00	6.443701e-03	
788	6.150000e+00	6.460824e-03	
789	6.200000e+00	6.479244e-03	
790	6.250000e+00	6.499035e-03	
791	6.300000e+00	6.520277e-03	
792	6.350000e+00	6.543048e-03	
793	6.400000e+00	6.567430e-03	
794	6.450000e+00	6.593507e-03	
795	6.500000e+00	6.621365e-03	
796	6.550000e+00	6.651090e-03	
797	6.600000e+00	6.682772e-03	
Note: No ".plot", ".print", or ".fourier" lines; no simulations run
