
Note: Compatibility modes selected: hs

Warning: m=xx on .subckt line will override multiplier m hierarchy!


Circuit: ***************************

Doing analysis at TEMP = 125.000000 and TNOM = 125.000000


No. of Data Rows : 798
                          ***************************
                          DC transfer characteristic  Mon Jan  9 13:57:41  2023
--------------------------------------------------------------------------------
Index   v-sweep         -i(vds)         
--------------------------------------------------------------------------------
0	0.000000e+00	-0.000000e+00	
1	5.000000e-02	1.531475e-06	
2	1.000000e-01	2.775691e-06	
3	1.500000e-01	3.790033e-06	
4	2.000000e-01	4.590953e-06	
5	2.500000e-01	5.186505e-06	
6	3.000000e-01	5.588023e-06	
7	3.500000e-01	5.821383e-06	
8	4.000000e-01	5.936200e-06	
9	4.500000e-01	5.989027e-06	
10	5.000000e-01	6.015688e-06	
11	5.500000e-01	6.031515e-06	
12	6.000000e-01	6.042389e-06	
13	6.500000e-01	6.050708e-06	
14	7.000000e-01	6.057559e-06	
15	7.500000e-01	6.063489e-06	
16	8.000000e-01	6.068802e-06	
17	8.500000e-01	6.073677e-06	
18	9.000000e-01	6.078228e-06	
19	9.500000e-01	6.082531e-06	
20	1.000000e+00	6.086638e-06	
21	1.050000e+00	6.090586e-06	
22	1.100000e+00	6.094404e-06	
23	1.150000e+00	6.098113e-06	
24	1.200000e+00	6.101729e-06	
25	1.250000e+00	6.105266e-06	
26	1.300000e+00	6.108732e-06	
27	1.350000e+00	6.112138e-06	
28	1.400000e+00	6.115490e-06	
29	1.450000e+00	6.118793e-06	
30	1.500000e+00	6.122054e-06	
31	1.550000e+00	6.125276e-06	
32	1.600000e+00	6.128462e-06	
33	1.650000e+00	6.131617e-06	
34	1.700000e+00	6.134742e-06	
35	1.750000e+00	6.137840e-06	
36	1.800000e+00	6.140913e-06	
37	1.850000e+00	6.143963e-06	
38	1.900000e+00	6.146992e-06	
39	1.950000e+00	6.150001e-06	
40	2.000000e+00	6.152991e-06	
41	2.050000e+00	6.155965e-06	
42	2.100000e+00	6.158922e-06	
43	2.150000e+00	6.161863e-06	
44	2.200000e+00	6.164791e-06	
45	2.250000e+00	6.167705e-06	
46	2.300000e+00	6.170607e-06	
47	2.350000e+00	6.173497e-06	
48	2.400000e+00	6.176376e-06	
49	2.450000e+00	6.179245e-06	
50	2.500000e+00	6.182105e-06	
51	2.550000e+00	6.184957e-06	
52	2.600000e+00	6.187801e-06	
53	2.650000e+00	6.190638e-06	
54	2.700000e+00	6.193471e-06	

Index   v-sweep         -i(vds)         
--------------------------------------------------------------------------------
55	2.750000e+00	6.196301e-06	
56	2.800000e+00	6.199129e-06	
57	2.850000e+00	6.201957e-06	
58	2.900000e+00	6.204788e-06	
59	2.950000e+00	6.207625e-06	
60	3.000000e+00	6.210471e-06	
61	3.050000e+00	6.213330e-06	
62	3.100000e+00	6.216207e-06	
63	3.150000e+00	6.219107e-06	
64	3.200000e+00	6.222036e-06	
65	3.250000e+00	6.225002e-06	
66	3.300000e+00	6.228012e-06	
67	3.350000e+00	6.231075e-06	
68	3.400000e+00	6.234202e-06	
69	3.450000e+00	6.237403e-06	
70	3.500000e+00	6.240693e-06	
71	3.550000e+00	6.244085e-06	
72	3.600000e+00	6.247595e-06	
73	3.650000e+00	6.251240e-06	
74	3.700000e+00	6.255040e-06	
75	3.750000e+00	6.259014e-06	
76	3.800000e+00	6.263186e-06	
77	3.850000e+00	6.267580e-06	
78	3.900000e+00	6.272223e-06	
79	3.950000e+00	6.277142e-06	
80	4.000000e+00	6.282369e-06	
81	4.050000e+00	6.287936e-06	
82	4.100000e+00	6.293878e-06	
83	4.150000e+00	6.300232e-06	
84	4.200000e+00	6.307038e-06	
85	4.250000e+00	6.314337e-06	
86	4.300000e+00	6.322173e-06	
87	4.350000e+00	6.330592e-06	
88	4.400000e+00	6.339643e-06	
89	4.450000e+00	6.349377e-06	
90	4.500000e+00	6.359847e-06	
91	4.550000e+00	6.371110e-06	
92	4.600000e+00	6.383222e-06	
93	4.650000e+00	6.396245e-06	
94	4.700000e+00	6.410242e-06	
95	4.750000e+00	6.425277e-06	
96	4.800000e+00	6.441418e-06	
97	4.850000e+00	6.458734e-06	
98	4.900000e+00	6.477297e-06	
99	4.950000e+00	6.497181e-06	
100	5.000000e+00	6.518463e-06	
101	5.050000e+00	6.541219e-06	
102	5.100000e+00	6.565532e-06	
103	5.150000e+00	6.591482e-06	
104	5.200000e+00	6.619155e-06	
105	5.250000e+00	6.648635e-06	
106	5.300000e+00	6.680012e-06	
107	5.350000e+00	6.713374e-06	
108	5.400000e+00	6.748813e-06	
109	5.450000e+00	6.786422e-06	
110	5.500000e+00	6.826295e-06	
111	5.550000e+00	6.868529e-06	
112	5.600000e+00	6.913221e-06	

Index   v-sweep         -i(vds)         
--------------------------------------------------------------------------------
113	5.650000e+00	6.960470e-06	
114	5.700000e+00	7.010376e-06	
115	5.750000e+00	7.063041e-06	
116	5.800000e+00	7.118567e-06	
117	5.850000e+00	7.177057e-06	
118	5.900000e+00	7.238617e-06	
119	5.950000e+00	7.303353e-06	
120	6.000000e+00	7.371370e-06	
121	6.050000e+00	7.442777e-06	
122	6.100000e+00	7.517681e-06	
123	6.150000e+00	7.596191e-06	
124	6.200000e+00	7.678417e-06	
125	6.250000e+00	7.764469e-06	
126	6.300000e+00	7.854457e-06	
127	6.350000e+00	7.948493e-06	
128	6.400000e+00	8.046688e-06	
129	6.450000e+00	8.149153e-06	
130	6.500000e+00	8.256001e-06	
131	6.550000e+00	8.367344e-06	
132	6.600000e+00	8.483293e-06	
133	0.000000e+00	-0.000000e+00	
134	5.000000e-02	4.729348e-06	
135	1.000000e-01	9.160244e-06	
136	1.500000e-01	1.334957e-05	
137	2.000000e-01	1.731252e-05	
138	2.500000e-01	2.105379e-05	
139	3.000000e-01	2.457547e-05	
140	3.500000e-01	2.787898e-05	
141	4.000000e-01	3.096558e-05	
142	4.500000e-01	3.383649e-05	
143	5.000000e-01	3.649292e-05	
144	5.500000e-01	3.893611e-05	
145	6.000000e-01	4.116733e-05	
146	6.500000e-01	4.318789e-05	
147	7.000000e-01	4.499925e-05	
148	7.500000e-01	4.660302e-05	
149	8.000000e-01	4.800118e-05	
150	8.500000e-01	4.919637e-05	
151	9.000000e-01	5.019250e-05	
152	9.500000e-01	5.099597e-05	
153	1.000000e+00	5.161773e-05	
154	1.050000e+00	5.207620e-05	
155	1.100000e+00	5.239888e-05	
156	1.150000e+00	5.261947e-05	
157	1.200000e+00	5.277038e-05	
158	1.250000e+00	5.287665e-05	
159	1.300000e+00	5.295484e-05	
160	1.350000e+00	5.301513e-05	
161	1.400000e+00	5.306362e-05	
162	1.450000e+00	5.310403e-05	
163	1.500000e+00	5.313871e-05	
164	1.550000e+00	5.316917e-05	
165	1.600000e+00	5.319643e-05	
166	1.650000e+00	5.322120e-05	
167	1.700000e+00	5.324400e-05	
168	1.750000e+00	5.326519e-05	
169	1.800000e+00	5.328505e-05	
170	1.850000e+00	5.330381e-05	

Index   v-sweep         -i(vds)         
--------------------------------------------------------------------------------
171	1.900000e+00	5.332163e-05	
172	1.950000e+00	5.333864e-05	
173	2.000000e+00	5.335494e-05	
174	2.050000e+00	5.337064e-05	
175	2.100000e+00	5.338580e-05	
176	2.150000e+00	5.340048e-05	
177	2.200000e+00	5.341474e-05	
178	2.250000e+00	5.342861e-05	
179	2.300000e+00	5.344213e-05	
180	2.350000e+00	5.345535e-05	
181	2.400000e+00	5.346827e-05	
182	2.450000e+00	5.348093e-05	
183	2.500000e+00	5.349336e-05	
184	2.550000e+00	5.350556e-05	
185	2.600000e+00	5.351755e-05	
186	2.650000e+00	5.352936e-05	
187	2.700000e+00	5.354099e-05	
188	2.750000e+00	5.355245e-05	
189	2.800000e+00	5.356377e-05	
190	2.850000e+00	5.357494e-05	
191	2.900000e+00	5.358597e-05	
192	2.950000e+00	5.359688e-05	
193	3.000000e+00	5.360767e-05	
194	3.050000e+00	5.361835e-05	
195	3.100000e+00	5.362893e-05	
196	3.150000e+00	5.363941e-05	
197	3.200000e+00	5.364981e-05	
198	3.250000e+00	5.366012e-05	
199	3.300000e+00	5.367037e-05	
200	3.350000e+00	5.368055e-05	
201	3.400000e+00	5.369069e-05	
202	3.450000e+00	5.370079e-05	
203	3.500000e+00	5.371086e-05	
204	3.550000e+00	5.372093e-05	
205	3.600000e+00	5.373102e-05	
206	3.650000e+00	5.374114e-05	
207	3.700000e+00	5.375134e-05	
208	3.750000e+00	5.376163e-05	
209	3.800000e+00	5.377207e-05	
210	3.850000e+00	5.378269e-05	
211	3.900000e+00	5.379354e-05	
212	3.950000e+00	5.380469e-05	
213	4.000000e+00	5.381620e-05	
214	4.050000e+00	5.382815e-05	
215	4.100000e+00	5.384062e-05	
216	4.150000e+00	5.385371e-05	
217	4.200000e+00	5.386753e-05	
218	4.250000e+00	5.388220e-05	
219	4.300000e+00	5.389784e-05	
220	4.350000e+00	5.391461e-05	
221	4.400000e+00	5.393267e-05	
222	4.450000e+00	5.395219e-05	
223	4.500000e+00	5.397337e-05	
224	4.550000e+00	5.399640e-05	
225	4.600000e+00	5.402152e-05	
226	4.650000e+00	5.404896e-05	
227	4.700000e+00	5.407898e-05	
228	4.750000e+00	5.411187e-05	

Index   v-sweep         -i(vds)         
--------------------------------------------------------------------------------
229	4.800000e+00	5.414791e-05	
230	4.850000e+00	5.418743e-05	
231	4.900000e+00	5.423075e-05	
232	4.950000e+00	5.427823e-05	
233	5.000000e+00	5.433024e-05	
234	5.050000e+00	5.438718e-05	
235	5.100000e+00	5.444947e-05	
236	5.150000e+00	5.451752e-05	
237	5.200000e+00	5.459181e-05	
238	5.250000e+00	5.467280e-05	
239	5.300000e+00	5.476098e-05	
240	5.350000e+00	5.485688e-05	
241	5.400000e+00	5.496102e-05	
242	5.450000e+00	5.507397e-05	
243	5.500000e+00	5.519628e-05	
244	5.550000e+00	5.532857e-05	
245	5.600000e+00	5.547143e-05	
246	5.650000e+00	5.562549e-05	
247	5.700000e+00	5.579141e-05	
248	5.750000e+00	5.596985e-05	
249	5.800000e+00	5.616149e-05	
250	5.850000e+00	5.636703e-05	
251	5.900000e+00	5.658719e-05	
252	5.950000e+00	5.682269e-05	
253	6.000000e+00	5.707429e-05	
254	6.050000e+00	5.734275e-05	
255	6.100000e+00	5.762884e-05	
256	6.150000e+00	5.793335e-05	
257	6.200000e+00	5.825709e-05	
258	6.250000e+00	5.860086e-05	
259	6.300000e+00	5.896551e-05	
260	6.350000e+00	5.935185e-05	
261	6.400000e+00	5.976075e-05	
262	6.450000e+00	6.019306e-05	
263	6.500000e+00	6.064966e-05	
264	6.550000e+00	6.113141e-05	
265	6.600000e+00	6.163920e-05	
266	0.000000e+00	-0.000000e+00	
267	5.000000e-02	7.385472e-06	
268	1.000000e-01	1.448268e-05	
269	1.500000e-01	2.134842e-05	
270	2.000000e-01	2.799778e-05	
271	2.500000e-01	3.443538e-05	
272	3.000000e-01	4.066319e-05	
273	3.500000e-01	4.668253e-05	
274	4.000000e-01	5.249455e-05	
275	4.500000e-01	5.810034e-05	
276	5.000000e-01	6.350098e-05	
277	5.500000e-01	6.869753e-05	
278	6.000000e-01	7.369106e-05	
279	6.500000e-01	7.848261e-05	
280	7.000000e-01	8.307324e-05	
281	7.500000e-01	8.746398e-05	
282	8.000000e-01	9.165586e-05	
283	8.500000e-01	9.564991e-05	
284	9.000000e-01	9.944715e-05	
285	9.500000e-01	1.030486e-04	
286	1.000000e+00	1.064553e-04	

Index   v-sweep         -i(vds)         
--------------------------------------------------------------------------------
287	1.050000e+00	1.096681e-04	
288	1.100000e+00	1.126883e-04	
289	1.150000e+00	1.155166e-04	
290	1.200000e+00	1.181542e-04	
291	1.250000e+00	1.206021e-04	
292	1.300000e+00	1.228613e-04	
293	1.350000e+00	1.249329e-04	
294	1.400000e+00	1.268181e-04	
295	1.450000e+00	1.285183e-04	
296	1.500000e+00	1.300350e-04	
297	1.550000e+00	1.313703e-04	
298	1.600000e+00	1.325272e-04	
299	1.650000e+00	1.335102e-04	
300	1.700000e+00	1.343264e-04	
301	1.750000e+00	1.349871e-04	
302	1.800000e+00	1.355087e-04	
303	1.850000e+00	1.359124e-04	
304	1.900000e+00	1.362219e-04	
305	1.950000e+00	1.364601e-04	
306	2.000000e+00	1.366460e-04	
307	2.050000e+00	1.367941e-04	
308	2.100000e+00	1.369150e-04	
309	2.150000e+00	1.370160e-04	
310	2.200000e+00	1.371021e-04	
311	2.250000e+00	1.371770e-04	
312	2.300000e+00	1.372432e-04	
313	2.350000e+00	1.373024e-04	
314	2.400000e+00	1.373561e-04	
315	2.450000e+00	1.374053e-04	
316	2.500000e+00	1.374508e-04	
317	2.550000e+00	1.374931e-04	
318	2.600000e+00	1.375328e-04	
319	2.650000e+00	1.375701e-04	
320	2.700000e+00	1.376055e-04	
321	2.750000e+00	1.376392e-04	
322	2.800000e+00	1.376714e-04	
323	2.850000e+00	1.377022e-04	
324	2.900000e+00	1.377318e-04	
325	2.950000e+00	1.377603e-04	
326	3.000000e+00	1.377879e-04	
327	3.050000e+00	1.378146e-04	
328	3.100000e+00	1.378406e-04	
329	3.150000e+00	1.378658e-04	
330	3.200000e+00	1.378903e-04	
331	3.250000e+00	1.379142e-04	
332	3.300000e+00	1.379376e-04	
333	3.350000e+00	1.379604e-04	
334	3.400000e+00	1.379828e-04	
335	3.450000e+00	1.380047e-04	
336	3.500000e+00	1.380262e-04	
337	3.550000e+00	1.380474e-04	
338	3.600000e+00	1.380681e-04	
339	3.650000e+00	1.380885e-04	
340	3.700000e+00	1.381086e-04	
341	3.750000e+00	1.381284e-04	
342	3.800000e+00	1.381480e-04	
343	3.850000e+00	1.381672e-04	
344	3.900000e+00	1.381863e-04	

Index   v-sweep         -i(vds)         
--------------------------------------------------------------------------------
345	3.950000e+00	1.382051e-04	
346	4.000000e+00	1.382237e-04	
347	4.050000e+00	1.382421e-04	
348	4.100000e+00	1.382605e-04	
349	4.150000e+00	1.382787e-04	
350	4.200000e+00	1.382968e-04	
351	4.250000e+00	1.383149e-04	
352	4.300000e+00	1.383330e-04	
353	4.350000e+00	1.383512e-04	
354	4.400000e+00	1.383695e-04	
355	4.450000e+00	1.383880e-04	
356	4.500000e+00	1.384069e-04	
357	4.550000e+00	1.384262e-04	
358	4.600000e+00	1.384460e-04	
359	4.650000e+00	1.384666e-04	
360	4.700000e+00	1.384880e-04	
361	4.750000e+00	1.385104e-04	
362	4.800000e+00	1.385341e-04	
363	4.850000e+00	1.385592e-04	
364	4.900000e+00	1.385861e-04	
365	4.950000e+00	1.386151e-04	
366	5.000000e+00	1.386464e-04	
367	5.050000e+00	1.386805e-04	
368	5.100000e+00	1.387177e-04	
369	5.150000e+00	1.387584e-04	
370	5.200000e+00	1.388032e-04	
371	5.250000e+00	1.388526e-04	
372	5.300000e+00	1.389070e-04	
373	5.350000e+00	1.389672e-04	
374	5.400000e+00	1.390337e-04	
375	5.450000e+00	1.391072e-04	
376	5.500000e+00	1.391886e-04	
377	5.550000e+00	1.392785e-04	
378	5.600000e+00	1.393778e-04	
379	5.650000e+00	1.394874e-04	
380	5.700000e+00	1.396082e-04	
381	5.750000e+00	1.397413e-04	
382	5.800000e+00	1.398876e-04	
383	5.850000e+00	1.400483e-04	
384	5.900000e+00	1.402244e-04	
385	5.950000e+00	1.404172e-04	
386	6.000000e+00	1.406280e-04	
387	6.050000e+00	1.408580e-04	
388	6.100000e+00	1.411086e-04	
389	6.150000e+00	1.413811e-04	
390	6.200000e+00	1.416771e-04	
391	6.250000e+00	1.419980e-04	
392	6.300000e+00	1.423454e-04	
393	6.350000e+00	1.427208e-04	
394	6.400000e+00	1.431260e-04	
395	6.450000e+00	1.435625e-04	
396	6.500000e+00	1.440321e-04	
397	6.550000e+00	1.445366e-04	
398	6.600000e+00	1.450779e-04	
399	0.000000e+00	-0.000000e+00	
400	5.000000e-02	9.488680e-06	
401	1.000000e-01	1.870478e-05	
402	1.500000e-01	2.770494e-05	

Index   v-sweep         -i(vds)         
--------------------------------------------------------------------------------
403	2.000000e-01	3.650411e-05	
404	2.500000e-01	4.510676e-05	
405	3.000000e-01	5.351473e-05	
406	3.500000e-01	6.172920e-05	
407	4.000000e-01	6.975116e-05	
408	4.500000e-01	7.758158e-05	
409	5.000000e-01	8.522139e-05	
410	5.500000e-01	9.267153e-05	
411	6.000000e-01	9.993291e-05	
412	6.500000e-01	1.070065e-04	
413	7.000000e-01	1.138931e-04	
414	7.500000e-01	1.205937e-04	
415	8.000000e-01	1.271092e-04	
416	8.500000e-01	1.334404e-04	
417	9.000000e-01	1.395884e-04	
418	9.500000e-01	1.455538e-04	
419	1.000000e+00	1.513377e-04	
420	1.050000e+00	1.569409e-04	
421	1.100000e+00	1.623642e-04	
422	1.150000e+00	1.676086e-04	
423	1.200000e+00	1.726748e-04	
424	1.250000e+00	1.775637e-04	
425	1.300000e+00	1.822762e-04	
426	1.350000e+00	1.868130e-04	
427	1.400000e+00	1.911750e-04	
428	1.450000e+00	1.953631e-04	
429	1.500000e+00	1.993780e-04	
430	1.550000e+00	2.032205e-04	
431	1.600000e+00	2.068915e-04	
432	1.650000e+00	2.103917e-04	
433	1.700000e+00	2.137219e-04	
434	1.750000e+00	2.168829e-04	
435	1.800000e+00	2.198754e-04	
436	1.850000e+00	2.227003e-04	
437	1.900000e+00	2.253581e-04	
438	1.950000e+00	2.278497e-04	
439	2.000000e+00	2.301758e-04	
440	2.050000e+00	2.323371e-04	
441	2.100000e+00	2.343344e-04	
442	2.150000e+00	2.361683e-04	
443	2.200000e+00	2.378399e-04	
444	2.250000e+00	2.393500e-04	
445	2.300000e+00	2.407004e-04	
446	2.350000e+00	2.418930e-04	
447	2.400000e+00	2.429314e-04	
448	2.450000e+00	2.438211e-04	
449	2.500000e+00	2.445706e-04	
450	2.550000e+00	2.451920e-04	
451	2.600000e+00	2.457008e-04	
452	2.650000e+00	2.461146e-04	
453	2.700000e+00	2.464512e-04	
454	2.750000e+00	2.467268e-04	
455	2.800000e+00	2.469550e-04	
456	2.850000e+00	2.471467e-04	
457	2.900000e+00	2.473100e-04	
458	2.950000e+00	2.474512e-04	
459	3.000000e+00	2.475749e-04	
460	3.050000e+00	2.476847e-04	

Index   v-sweep         -i(vds)         
--------------------------------------------------------------------------------
461	3.100000e+00	2.477832e-04	
462	3.150000e+00	2.478725e-04	
463	3.200000e+00	2.479541e-04	
464	3.250000e+00	2.480293e-04	
465	3.300000e+00	2.480990e-04	
466	3.350000e+00	2.481641e-04	
467	3.400000e+00	2.482252e-04	
468	3.450000e+00	2.482828e-04	
469	3.500000e+00	2.483373e-04	
470	3.550000e+00	2.483891e-04	
471	3.600000e+00	2.484385e-04	
472	3.650000e+00	2.484858e-04	
473	3.700000e+00	2.485311e-04	
474	3.750000e+00	2.485747e-04	
475	3.800000e+00	2.486168e-04	
476	3.850000e+00	2.486574e-04	
477	3.900000e+00	2.486967e-04	
478	3.950000e+00	2.487349e-04	
479	4.000000e+00	2.487719e-04	
480	4.050000e+00	2.488079e-04	
481	4.100000e+00	2.488430e-04	
482	4.150000e+00	2.488772e-04	
483	4.200000e+00	2.489106e-04	
484	4.250000e+00	2.489433e-04	
485	4.300000e+00	2.489753e-04	
486	4.350000e+00	2.490066e-04	
487	4.400000e+00	2.490373e-04	
488	4.450000e+00	2.490675e-04	
489	4.500000e+00	2.490971e-04	
490	4.550000e+00	2.491262e-04	
491	4.600000e+00	2.491548e-04	
492	4.650000e+00	2.491831e-04	
493	4.700000e+00	2.492109e-04	
494	4.750000e+00	2.492384e-04	
495	4.800000e+00	2.492656e-04	
496	4.850000e+00	2.492926e-04	
497	4.900000e+00	2.493193e-04	
498	4.950000e+00	2.493460e-04	
499	5.000000e+00	2.493726e-04	
500	5.050000e+00	2.493992e-04	
501	5.100000e+00	2.494261e-04	
502	5.150000e+00	2.494531e-04	
503	5.200000e+00	2.494807e-04	
504	5.250000e+00	2.495088e-04	
505	5.300000e+00	2.495378e-04	
506	5.350000e+00	2.495678e-04	
507	5.400000e+00	2.495990e-04	
508	5.450000e+00	2.496319e-04	
509	5.500000e+00	2.496668e-04	
510	5.550000e+00	2.497039e-04	
511	5.600000e+00	2.497439e-04	
512	5.650000e+00	2.497871e-04	
513	5.700000e+00	2.498341e-04	
514	5.750000e+00	2.498855e-04	
515	5.800000e+00	2.499419e-04	
516	5.850000e+00	2.500041e-04	
517	5.900000e+00	2.500730e-04	
518	5.950000e+00	2.501492e-04	

Index   v-sweep         -i(vds)         
--------------------------------------------------------------------------------
519	6.000000e+00	2.502338e-04	
520	6.050000e+00	2.503279e-04	
521	6.100000e+00	2.504324e-04	
522	6.150000e+00	2.505486e-04	
523	6.200000e+00	2.506777e-04	
524	6.250000e+00	2.508211e-04	
525	6.300000e+00	2.509802e-04	
526	6.350000e+00	2.511566e-04	
527	6.400000e+00	2.513518e-04	
528	6.450000e+00	2.515675e-04	
529	6.500000e+00	2.518056e-04	
530	6.550000e+00	2.520680e-04	
531	6.600000e+00	2.523565e-04	
532	0.000000e+00	-0.000000e+00	
533	5.000000e-02	1.107400e-05	
534	1.000000e-01	2.189353e-05	
535	1.500000e-01	3.251505e-05	
536	2.000000e-01	4.295337e-05	
537	2.500000e-01	5.321280e-05	
538	3.000000e-01	6.329501e-05	
539	3.500000e-01	7.320104e-05	
540	4.000000e-01	8.293174e-05	
541	4.500000e-01	9.248791e-05	
542	5.000000e-01	1.018703e-04	
543	5.500000e-01	1.110798e-04	
544	6.000000e-01	1.201171e-04	
545	6.500000e-01	1.289830e-04	
546	7.000000e-01	1.376782e-04	
547	7.500000e-01	1.462036e-04	
548	8.000000e-01	1.545599e-04	
549	8.500000e-01	1.627478e-04	
550	9.000000e-01	1.707680e-04	
551	9.500000e-01	1.786214e-04	
552	1.000000e+00	1.863087e-04	
553	1.050000e+00	1.938306e-04	
554	1.100000e+00	2.011878e-04	
555	1.150000e+00	2.083811e-04	
556	1.200000e+00	2.154112e-04	
557	1.250000e+00	2.222788e-04	
558	1.300000e+00	2.289846e-04	
559	1.350000e+00	2.355294e-04	
560	1.400000e+00	2.419137e-04	
561	1.450000e+00	2.481384e-04	
562	1.500000e+00	2.542042e-04	
563	1.550000e+00	2.601116e-04	
564	1.600000e+00	2.658615e-04	
565	1.650000e+00	2.714544e-04	
566	1.700000e+00	2.768911e-04	
567	1.750000e+00	2.821723e-04	
568	1.800000e+00	2.872985e-04	
569	1.850000e+00	2.922705e-04	
570	1.900000e+00	2.970890e-04	
571	1.950000e+00	3.017545e-04	
572	2.000000e+00	3.062677e-04	
573	2.050000e+00	3.106293e-04	
574	2.100000e+00	3.148398e-04	
575	2.150000e+00	3.189000e-04	
576	2.200000e+00	3.228104e-04	

Index   v-sweep         -i(vds)         
--------------------------------------------------------------------------------
577	2.250000e+00	3.265717e-04	
578	2.300000e+00	3.301844e-04	
579	2.350000e+00	3.336491e-04	
580	2.400000e+00	3.369665e-04	
581	2.450000e+00	3.401369e-04	
582	2.500000e+00	3.431611e-04	
583	2.550000e+00	3.460395e-04	
584	2.600000e+00	3.487727e-04	
585	2.650000e+00	3.513610e-04	
586	2.700000e+00	3.538050e-04	
587	2.750000e+00	3.561050e-04	
588	2.800000e+00	3.582614e-04	
589	2.850000e+00	3.602746e-04	
590	2.900000e+00	3.621447e-04	
591	2.950000e+00	3.638722e-04	
592	3.000000e+00	3.654573e-04	
593	3.050000e+00	3.669007e-04	
594	3.100000e+00	3.682032e-04	
595	3.150000e+00	3.693664e-04	
596	3.200000e+00	3.703934e-04	
597	3.250000e+00	3.712888e-04	
598	3.300000e+00	3.720601e-04	
599	3.350000e+00	3.727172e-04	
600	3.400000e+00	3.732727e-04	
601	3.450000e+00	3.737406e-04	
602	3.500000e+00	3.741348e-04	
603	3.550000e+00	3.744685e-04	
604	3.600000e+00	3.747531e-04	
605	3.650000e+00	3.749981e-04	
606	3.700000e+00	3.752112e-04	
607	3.750000e+00	3.753985e-04	
608	3.800000e+00	3.755647e-04	
609	3.850000e+00	3.757136e-04	
610	3.900000e+00	3.758482e-04	
611	3.950000e+00	3.759708e-04	
612	4.000000e+00	3.760833e-04	
613	4.050000e+00	3.761872e-04	
614	4.100000e+00	3.762838e-04	
615	4.150000e+00	3.763739e-04	
616	4.200000e+00	3.764585e-04	
617	4.250000e+00	3.765383e-04	
618	4.300000e+00	3.766137e-04	
619	4.350000e+00	3.766853e-04	
620	4.400000e+00	3.767535e-04	
621	4.450000e+00	3.768187e-04	
622	4.500000e+00	3.768811e-04	
623	4.550000e+00	3.769410e-04	
624	4.600000e+00	3.769987e-04	
625	4.650000e+00	3.770543e-04	
626	4.700000e+00	3.771080e-04	
627	4.750000e+00	3.771599e-04	
628	4.800000e+00	3.772103e-04	
629	4.850000e+00	3.772592e-04	
630	4.900000e+00	3.773068e-04	
631	4.950000e+00	3.773530e-04	
632	5.000000e+00	3.773981e-04	
633	5.050000e+00	3.774421e-04	
634	5.100000e+00	3.774851e-04	

Index   v-sweep         -i(vds)         
--------------------------------------------------------------------------------
635	5.150000e+00	3.775271e-04	
636	5.200000e+00	3.775683e-04	
637	5.250000e+00	3.776086e-04	
638	5.300000e+00	3.776481e-04	
639	5.350000e+00	3.776869e-04	
640	5.400000e+00	3.777250e-04	
641	5.450000e+00	3.777625e-04	
642	5.500000e+00	3.777995e-04	
643	5.550000e+00	3.778360e-04	
644	5.600000e+00	3.778721e-04	
645	5.650000e+00	3.779078e-04	
646	5.700000e+00	3.779434e-04	
647	5.750000e+00	3.779788e-04	
648	5.800000e+00	3.780142e-04	
649	5.850000e+00	3.780498e-04	
650	5.900000e+00	3.780857e-04	
651	5.950000e+00	3.781222e-04	
652	6.000000e+00	3.781596e-04	
653	6.050000e+00	3.781980e-04	
654	6.100000e+00	3.782378e-04	
655	6.150000e+00	3.782794e-04	
656	6.200000e+00	3.783233e-04	
657	6.250000e+00	3.783699e-04	
658	6.300000e+00	3.784197e-04	
659	6.350000e+00	3.784735e-04	
660	6.400000e+00	3.785319e-04	
661	6.450000e+00	3.785957e-04	
662	6.500000e+00	3.786657e-04	
663	6.550000e+00	3.787430e-04	
664	6.600000e+00	3.788286e-04	
665	0.000000e+00	-0.000000e+00	
666	5.000000e-02	1.220948e-05	
667	1.000000e-01	2.418321e-05	
668	1.500000e-01	3.597753e-05	
669	2.000000e-01	4.760707e-05	
670	2.500000e-01	5.907600e-05	
671	3.000000e-01	7.038587e-05	
672	3.500000e-01	8.153755e-05	
673	4.000000e-01	9.253175e-05	
674	4.500000e-01	1.033691e-04	
675	5.000000e-01	1.140503e-04	
676	5.500000e-01	1.245760e-04	
677	6.000000e-01	1.349468e-04	
678	6.500000e-01	1.451633e-04	
679	7.000000e-01	1.552262e-04	
680	7.500000e-01	1.651361e-04	
681	8.000000e-01	1.748937e-04	
682	8.500000e-01	1.844995e-04	
683	9.000000e-01	1.939541e-04	
684	9.500000e-01	2.032582e-04	
685	1.000000e+00	2.124125e-04	
686	1.050000e+00	2.214174e-04	
687	1.100000e+00	2.302736e-04	
688	1.150000e+00	2.389817e-04	
689	1.200000e+00	2.475424e-04	
690	1.250000e+00	2.559561e-04	
691	1.300000e+00	2.642235e-04	
692	1.350000e+00	2.723452e-04	

Index   v-sweep         -i(vds)         
--------------------------------------------------------------------------------
693	1.400000e+00	2.803217e-04	
694	1.450000e+00	2.881537e-04	
695	1.500000e+00	2.958417e-04	
696	1.550000e+00	3.033863e-04	
697	1.600000e+00	3.107880e-04	
698	1.650000e+00	3.180475e-04	
699	1.700000e+00	3.251653e-04	
700	1.750000e+00	3.321419e-04	
701	1.800000e+00	3.389779e-04	
702	1.850000e+00	3.456740e-04	
703	1.900000e+00	3.522305e-04	
704	1.950000e+00	3.586481e-04	
705	2.000000e+00	3.649274e-04	
706	2.050000e+00	3.710687e-04	
707	2.100000e+00	3.770728e-04	
708	2.150000e+00	3.829402e-04	
709	2.200000e+00	3.886713e-04	
710	2.250000e+00	3.942667e-04	
711	2.300000e+00	3.997269e-04	
712	2.350000e+00	4.050525e-04	
713	2.400000e+00	4.102439e-04	
714	2.450000e+00	4.153017e-04	
715	2.500000e+00	4.202264e-04	
716	2.550000e+00	4.250185e-04	
717	2.600000e+00	4.296785e-04	
718	2.650000e+00	4.342068e-04	
719	2.700000e+00	4.386041e-04	
720	2.750000e+00	4.428707e-04	
721	2.800000e+00	4.470071e-04	
722	2.850000e+00	4.510139e-04	
723	2.900000e+00	4.548914e-04	
724	2.950000e+00	4.586402e-04	
725	3.000000e+00	4.622606e-04	
726	3.050000e+00	4.657532e-04	
727	3.100000e+00	4.691183e-04	
728	3.150000e+00	4.723564e-04	
729	3.200000e+00	4.754677e-04	
730	3.250000e+00	4.784528e-04	
731	3.300000e+00	4.813119e-04	
732	3.350000e+00	4.840453e-04	
733	3.400000e+00	4.866534e-04	
734	3.450000e+00	4.891363e-04	
735	3.500000e+00	4.914943e-04	
736	3.550000e+00	4.937274e-04	
737	3.600000e+00	4.958357e-04	
738	3.650000e+00	4.978192e-04	
739	3.700000e+00	4.996778e-04	
740	3.750000e+00	5.014113e-04	
741	3.800000e+00	5.030195e-04	
742	3.850000e+00	5.045024e-04	
743	3.900000e+00	5.058599e-04	
744	3.950000e+00	5.070927e-04	
745	4.000000e+00	5.082021e-04	
746	4.050000e+00	5.091910e-04	
747	4.100000e+00	5.100638e-04	
748	4.150000e+00	5.108271e-04	
749	4.200000e+00	5.114899e-04	
750	4.250000e+00	5.120627e-04	

Index   v-sweep         -i(vds)         
--------------------------------------------------------------------------------
751	4.300000e+00	5.125566e-04	
752	4.350000e+00	5.129831e-04	
753	4.400000e+00	5.133528e-04	
754	4.450000e+00	5.136751e-04	
755	4.500000e+00	5.139580e-04	
756	4.550000e+00	5.142082e-04	
757	4.600000e+00	5.144312e-04	
758	4.650000e+00	5.146316e-04	
759	4.700000e+00	5.148129e-04	
760	4.750000e+00	5.149782e-04	
761	4.800000e+00	5.151297e-04	
762	4.850000e+00	5.152694e-04	
763	4.900000e+00	5.153991e-04	
764	4.950000e+00	5.155199e-04	
765	5.000000e+00	5.156330e-04	
766	5.050000e+00	5.157394e-04	
767	5.100000e+00	5.158398e-04	
768	5.150000e+00	5.159349e-04	
769	5.200000e+00	5.160252e-04	
770	5.250000e+00	5.161113e-04	
771	5.300000e+00	5.161935e-04	
772	5.350000e+00	5.162722e-04	
773	5.400000e+00	5.163478e-04	
774	5.450000e+00	5.164205e-04	
775	5.500000e+00	5.164906e-04	
776	5.550000e+00	5.165582e-04	
777	5.600000e+00	5.166236e-04	
778	5.650000e+00	5.166870e-04	
779	5.700000e+00	5.167484e-04	
780	5.750000e+00	5.168081e-04	
781	5.800000e+00	5.168661e-04	
782	5.850000e+00	5.169226e-04	
783	5.900000e+00	5.169777e-04	
784	5.950000e+00	5.170314e-04	
785	6.000000e+00	5.170839e-04	
786	6.050000e+00	5.171352e-04	
787	6.100000e+00	5.171855e-04	
788	6.150000e+00	5.172347e-04	
789	6.200000e+00	5.172830e-04	
790	6.250000e+00	5.173305e-04	
791	6.300000e+00	5.173771e-04	
792	6.350000e+00	5.174231e-04	
793	6.400000e+00	5.174685e-04	
794	6.450000e+00	5.175134e-04	
795	6.500000e+00	5.175580e-04	
796	6.550000e+00	5.176024e-04	
797	6.600000e+00	5.176468e-04	
Note: No ".plot", ".print", or ".fourier" lines; no simulations run
