
Note: Compatibility modes selected: hs

Warning: m=xx on .subckt line will override multiplier m hierarchy!


Circuit: ***************************

Doing analysis at TEMP = 125.000000 and TNOM = 125.000000


No. of Data Rows : 798
                          ***************************
                          DC transfer characteristic  Mon Jan  9 13:57:41  2023
--------------------------------------------------------------------------------
Index   v-sweep         -i(vds)         
--------------------------------------------------------------------------------
0	0.000000e+00	-0.000000e+00	
1	5.000000e-02	2.247112e-05	
2	1.000000e-01	4.033352e-05	
3	1.500000e-01	5.386414e-05	
4	2.000000e-01	6.334097e-05	
5	2.500000e-01	6.928840e-05	
6	3.000000e-01	7.274767e-05	
7	3.500000e-01	7.494335e-05	
8	4.000000e-01	7.659525e-05	
9	4.500000e-01	7.797876e-05	
10	5.000000e-01	7.919890e-05	
11	5.500000e-01	8.030468e-05	
12	6.000000e-01	8.132384e-05	
13	6.500000e-01	8.227421e-05	
14	7.000000e-01	8.316828e-05	
15	7.500000e-01	8.401525e-05	
16	8.000000e-01	8.482218e-05	
17	8.500000e-01	8.559461e-05	
18	9.000000e-01	8.633699e-05	
19	9.500000e-01	8.705298e-05	
20	1.000000e+00	8.774559e-05	
21	1.050000e+00	8.841735e-05	
22	1.100000e+00	8.907040e-05	
23	1.150000e+00	8.970658e-05	
24	1.200000e+00	9.032746e-05	
25	1.250000e+00	9.093442e-05	
26	1.300000e+00	9.152865e-05	
27	1.350000e+00	9.211120e-05	
28	1.400000e+00	9.268301e-05	
29	1.450000e+00	9.324490e-05	
30	1.500000e+00	9.379760e-05	
31	1.550000e+00	9.434178e-05	
32	1.600000e+00	9.487802e-05	
33	1.650000e+00	9.540686e-05	
34	1.700000e+00	9.592878e-05	
35	1.750000e+00	9.644422e-05	
36	1.800000e+00	9.695359e-05	
37	1.850000e+00	9.745724e-05	
38	1.900000e+00	9.795551e-05	
39	1.950000e+00	9.844870e-05	
40	2.000000e+00	9.893711e-05	
41	2.050000e+00	9.942098e-05	
42	2.100000e+00	9.990057e-05	
43	2.150000e+00	1.003761e-04	
44	2.200000e+00	1.008477e-04	
45	2.250000e+00	1.013157e-04	
46	2.300000e+00	1.017802e-04	
47	2.350000e+00	1.022414e-04	
48	2.400000e+00	1.026995e-04	
49	2.450000e+00	1.031545e-04	
50	2.500000e+00	1.036067e-04	
51	2.550000e+00	1.040561e-04	
52	2.600000e+00	1.045030e-04	
53	2.650000e+00	1.049474e-04	
54	2.700000e+00	1.053895e-04	

Index   v-sweep         -i(vds)         
--------------------------------------------------------------------------------
55	2.750000e+00	1.058294e-04	
56	2.800000e+00	1.062672e-04	
57	2.850000e+00	1.067032e-04	
58	2.900000e+00	1.071373e-04	
59	2.950000e+00	1.075698e-04	
60	3.000000e+00	1.080008e-04	
61	3.050000e+00	1.084304e-04	
62	3.100000e+00	1.088590e-04	
63	3.150000e+00	1.092865e-04	
64	3.200000e+00	1.097133e-04	
65	3.250000e+00	1.101396e-04	
66	3.300000e+00	1.105656e-04	
67	3.350000e+00	1.109916e-04	
68	3.400000e+00	1.114178e-04	
69	3.450000e+00	1.118446e-04	
70	3.500000e+00	1.122724e-04	
71	3.550000e+00	1.127014e-04	
72	3.600000e+00	1.131322e-04	
73	3.650000e+00	1.135651e-04	
74	3.700000e+00	1.140006e-04	
75	3.750000e+00	1.144392e-04	
76	3.800000e+00	1.148815e-04	
77	3.850000e+00	1.153282e-04	
78	3.900000e+00	1.157797e-04	
79	3.950000e+00	1.162369e-04	
80	4.000000e+00	1.167004e-04	
81	4.050000e+00	1.171710e-04	
82	4.100000e+00	1.176496e-04	
83	4.150000e+00	1.181370e-04	
84	4.200000e+00	1.186341e-04	
85	4.250000e+00	1.191420e-04	
86	4.300000e+00	1.196617e-04	
87	4.350000e+00	1.201942e-04	
88	4.400000e+00	1.207408e-04	
89	4.450000e+00	1.213026e-04	
90	4.500000e+00	1.218809e-04	
91	4.550000e+00	1.224769e-04	
92	4.600000e+00	1.230921e-04	
93	4.650000e+00	1.237279e-04	
94	4.700000e+00	1.243858e-04	
95	4.750000e+00	1.250673e-04	
96	4.800000e+00	1.257740e-04	
97	4.850000e+00	1.265076e-04	
98	4.900000e+00	1.272698e-04	
99	4.950000e+00	1.280624e-04	
100	5.000000e+00	1.288871e-04	
101	5.050000e+00	1.297459e-04	
102	5.100000e+00	1.306406e-04	
103	5.150000e+00	1.315734e-04	
104	5.200000e+00	1.325462e-04	
105	5.250000e+00	1.335611e-04	
106	5.300000e+00	1.346203e-04	
107	5.350000e+00	1.357260e-04	
108	5.400000e+00	1.368803e-04	
109	5.450000e+00	1.380857e-04	
110	5.500000e+00	1.393444e-04	
111	5.550000e+00	1.406589e-04	
112	5.600000e+00	1.420316e-04	

Index   v-sweep         -i(vds)         
--------------------------------------------------------------------------------
113	5.650000e+00	1.434649e-04	
114	5.700000e+00	1.449614e-04	
115	5.750000e+00	1.465236e-04	
116	5.800000e+00	1.481542e-04	
117	5.850000e+00	1.498558e-04	
118	5.900000e+00	1.516311e-04	
119	5.950000e+00	1.534828e-04	
120	6.000000e+00	1.554137e-04	
121	6.050000e+00	1.574265e-04	
122	6.100000e+00	1.595242e-04	
123	6.150000e+00	1.617095e-04	
124	6.200000e+00	1.639854e-04	
125	6.250000e+00	1.663547e-04	
126	6.300000e+00	1.688205e-04	
127	6.350000e+00	1.713856e-04	
128	6.400000e+00	1.740532e-04	
129	6.450000e+00	1.768262e-04	
130	6.500000e+00	1.797077e-04	
131	6.550000e+00	1.827007e-04	
132	6.600000e+00	1.858084e-04	
133	0.000000e+00	-0.000000e+00	
134	5.000000e-02	7.468177e-05	
135	1.000000e-01	1.439452e-04	
136	1.500000e-01	2.080498e-04	
137	2.000000e-01	2.671666e-04	
138	2.500000e-01	3.214407e-04	
139	3.000000e-01	3.710079e-04	
140	3.500000e-01	4.159987e-04	
141	4.000000e-01	4.565406e-04	
142	4.500000e-01	4.927595e-04	
143	5.000000e-01	5.247822e-04	
144	5.500000e-01	5.527417e-04	
145	6.000000e-01	5.767863e-04	
146	6.500000e-01	5.971005e-04	
147	7.000000e-01	6.139423e-04	
148	7.500000e-01	6.276949e-04	
149	8.000000e-01	6.388837e-04	
150	8.500000e-01	6.480941e-04	
151	9.000000e-01	6.558416e-04	
152	9.500000e-01	6.625102e-04	
153	1.000000e+00	6.683664e-04	
154	1.050000e+00	6.735940e-04	
155	1.100000e+00	6.783225e-04	
156	1.150000e+00	6.826458e-04	
157	1.200000e+00	6.866338e-04	
158	1.250000e+00	6.903399e-04	
159	1.300000e+00	6.938058e-04	
160	1.350000e+00	6.970647e-04	
161	1.400000e+00	7.001432e-04	
162	1.450000e+00	7.030632e-04	
163	1.500000e+00	7.058429e-04	
164	1.550000e+00	7.084975e-04	
165	1.600000e+00	7.110400e-04	
166	1.650000e+00	7.134812e-04	
167	1.700000e+00	7.158307e-04	
168	1.750000e+00	7.180966e-04	
169	1.800000e+00	7.202862e-04	
170	1.850000e+00	7.224056e-04	

Index   v-sweep         -i(vds)         
--------------------------------------------------------------------------------
171	1.900000e+00	7.244605e-04	
172	1.950000e+00	7.264557e-04	
173	2.000000e+00	7.283956e-04	
174	2.050000e+00	7.302841e-04	
175	2.100000e+00	7.321248e-04	
176	2.150000e+00	7.339207e-04	
177	2.200000e+00	7.356748e-04	
178	2.250000e+00	7.373897e-04	
179	2.300000e+00	7.390678e-04	
180	2.350000e+00	7.407111e-04	
181	2.400000e+00	7.423217e-04	
182	2.450000e+00	7.439013e-04	
183	2.500000e+00	7.454518e-04	
184	2.550000e+00	7.469745e-04	
185	2.600000e+00	7.484709e-04	
186	2.650000e+00	7.499424e-04	
187	2.700000e+00	7.513901e-04	
188	2.750000e+00	7.528153e-04	
189	2.800000e+00	7.542189e-04	
190	2.850000e+00	7.556020e-04	
191	2.900000e+00	7.569656e-04	
192	2.950000e+00	7.583106e-04	
193	3.000000e+00	7.596378e-04	
194	3.050000e+00	7.609481e-04	
195	3.100000e+00	7.622423e-04	
196	3.150000e+00	7.635212e-04	
197	3.200000e+00	7.647857e-04	
198	3.250000e+00	7.660364e-04	
199	3.300000e+00	7.672744e-04	
200	3.350000e+00	7.685004e-04	
201	3.400000e+00	7.697154e-04	
202	3.450000e+00	7.709203e-04	
203	3.500000e+00	7.721160e-04	
204	3.550000e+00	7.733038e-04	
205	3.600000e+00	7.744847e-04	
206	3.650000e+00	7.756601e-04	
207	3.700000e+00	7.768313e-04	
208	3.750000e+00	7.779998e-04	
209	3.800000e+00	7.791672e-04	
210	3.850000e+00	7.803354e-04	
211	3.900000e+00	7.815063e-04	
212	3.950000e+00	7.826820e-04	
213	4.000000e+00	7.838648e-04	
214	4.050000e+00	7.850572e-04	
215	4.100000e+00	7.862619e-04	
216	4.150000e+00	7.874819e-04	
217	4.200000e+00	7.887203e-04	
218	4.250000e+00	7.899806e-04	
219	4.300000e+00	7.912663e-04	
220	4.350000e+00	7.925815e-04	
221	4.400000e+00	7.939302e-04	
222	4.450000e+00	7.953171e-04	
223	4.500000e+00	7.967468e-04	
224	4.550000e+00	7.982243e-04	
225	4.600000e+00	7.997550e-04	
226	4.650000e+00	8.013446e-04	
227	4.700000e+00	8.029990e-04	
228	4.750000e+00	8.047245e-04	

Index   v-sweep         -i(vds)         
--------------------------------------------------------------------------------
229	4.800000e+00	8.065276e-04	
230	4.850000e+00	8.084151e-04	
231	4.900000e+00	8.103944e-04	
232	4.950000e+00	8.124730e-04	
233	5.000000e+00	8.146586e-04	
234	5.050000e+00	8.169594e-04	
235	5.100000e+00	8.193839e-04	
236	5.150000e+00	8.219409e-04	
237	5.200000e+00	8.246395e-04	
238	5.250000e+00	8.274890e-04	
239	5.300000e+00	8.304991e-04	
240	5.350000e+00	8.336799e-04	
241	5.400000e+00	8.370417e-04	
242	5.450000e+00	8.405951e-04	
243	5.500000e+00	8.443508e-04	
244	5.550000e+00	8.483201e-04	
245	5.600000e+00	8.525144e-04	
246	5.650000e+00	8.569454e-04	
247	5.700000e+00	8.616250e-04	
248	5.750000e+00	8.665654e-04	
249	5.800000e+00	8.717791e-04	
250	5.850000e+00	8.772787e-04	
251	5.900000e+00	8.830771e-04	
252	5.950000e+00	8.891875e-04	
253	6.000000e+00	8.956232e-04	
254	6.050000e+00	9.023977e-04	
255	6.100000e+00	9.095247e-04	
256	6.150000e+00	9.170182e-04	
257	6.200000e+00	9.248922e-04	
258	6.250000e+00	9.331611e-04	
259	6.300000e+00	9.418391e-04	
260	6.350000e+00	9.509410e-04	
261	6.400000e+00	9.604813e-04	
262	6.450000e+00	9.704750e-04	
263	6.500000e+00	9.809370e-04	
264	6.550000e+00	9.918823e-04	
265	6.600000e+00	1.003326e-03	
266	0.000000e+00	-0.000000e+00	
267	5.000000e-02	1.139884e-04	
268	1.000000e-01	2.223211e-04	
269	1.500000e-01	3.252586e-04	
270	2.000000e-01	4.229725e-04	
271	2.500000e-01	5.156086e-04	
272	3.000000e-01	6.033024e-04	
273	3.500000e-01	6.861837e-04	
274	4.000000e-01	7.643773e-04	
275	4.500000e-01	8.380037e-04	
276	5.000000e-01	9.071795e-04	
277	5.500000e-01	9.720174e-04	
278	6.000000e-01	1.032626e-03	
279	6.500000e-01	1.089113e-03	
280	7.000000e-01	1.141578e-03	
281	7.500000e-01	1.190124e-03	
282	8.000000e-01	1.234846e-03	
283	8.500000e-01	1.275839e-03	
284	9.000000e-01	1.313198e-03	
285	9.500000e-01	1.347016e-03	
286	1.000000e+00	1.377386e-03	

Index   v-sweep         -i(vds)         
--------------------------------------------------------------------------------
287	1.050000e+00	1.404412e-03	
288	1.100000e+00	1.428215e-03	
289	1.150000e+00	1.448964e-03	
290	1.200000e+00	1.466905e-03	
291	1.250000e+00	1.482372e-03	
292	1.300000e+00	1.495755e-03	
293	1.350000e+00	1.507434e-03	
294	1.400000e+00	1.517738e-03	
295	1.450000e+00	1.526933e-03	
296	1.500000e+00	1.535224e-03	
297	1.550000e+00	1.542771e-03	
298	1.600000e+00	1.549698e-03	
299	1.650000e+00	1.556101e-03	
300	1.700000e+00	1.562057e-03	
301	1.750000e+00	1.567627e-03	
302	1.800000e+00	1.572862e-03	
303	1.850000e+00	1.577801e-03	
304	1.900000e+00	1.582480e-03	
305	1.950000e+00	1.586926e-03	
306	2.000000e+00	1.591164e-03	
307	2.050000e+00	1.595215e-03	
308	2.100000e+00	1.599096e-03	
309	2.150000e+00	1.602823e-03	
310	2.200000e+00	1.606408e-03	
311	2.250000e+00	1.609865e-03	
312	2.300000e+00	1.613202e-03	
313	2.350000e+00	1.616429e-03	
314	2.400000e+00	1.619555e-03	
315	2.450000e+00	1.622587e-03	
316	2.500000e+00	1.625530e-03	
317	2.550000e+00	1.628391e-03	
318	2.600000e+00	1.631176e-03	
319	2.650000e+00	1.633889e-03	
320	2.700000e+00	1.636534e-03	
321	2.750000e+00	1.639116e-03	
322	2.800000e+00	1.641638e-03	
323	2.850000e+00	1.644103e-03	
324	2.900000e+00	1.646515e-03	
325	2.950000e+00	1.648876e-03	
326	3.000000e+00	1.651189e-03	
327	3.050000e+00	1.653456e-03	
328	3.100000e+00	1.655680e-03	
329	3.150000e+00	1.657863e-03	
330	3.200000e+00	1.660007e-03	
331	3.250000e+00	1.662113e-03	
332	3.300000e+00	1.664184e-03	
333	3.350000e+00	1.666221e-03	
334	3.400000e+00	1.668225e-03	
335	3.450000e+00	1.670199e-03	
336	3.500000e+00	1.672144e-03	
337	3.550000e+00	1.674060e-03	
338	3.600000e+00	1.675951e-03	
339	3.650000e+00	1.677817e-03	
340	3.700000e+00	1.679660e-03	
341	3.750000e+00	1.681482e-03	
342	3.800000e+00	1.683285e-03	
343	3.850000e+00	1.685070e-03	
344	3.900000e+00	1.686839e-03	

Index   v-sweep         -i(vds)         
--------------------------------------------------------------------------------
345	3.950000e+00	1.688595e-03	
346	4.000000e+00	1.690339e-03	
347	4.050000e+00	1.692076e-03	
348	4.100000e+00	1.693806e-03	
349	4.150000e+00	1.695535e-03	
350	4.200000e+00	1.697264e-03	
351	4.250000e+00	1.698997e-03	
352	4.300000e+00	1.700740e-03	
353	4.350000e+00	1.702495e-03	
354	4.400000e+00	1.704269e-03	
355	4.450000e+00	1.706065e-03	
356	4.500000e+00	1.707891e-03	
357	4.550000e+00	1.709752e-03	
358	4.600000e+00	1.711654e-03	
359	4.650000e+00	1.713605e-03	
360	4.700000e+00	1.715614e-03	
361	4.750000e+00	1.717687e-03	
362	4.800000e+00	1.719834e-03	
363	4.850000e+00	1.722064e-03	
364	4.900000e+00	1.724387e-03	
365	4.950000e+00	1.726814e-03	
366	5.000000e+00	1.729357e-03	
367	5.050000e+00	1.732027e-03	
368	5.100000e+00	1.734836e-03	
369	5.150000e+00	1.737799e-03	
370	5.200000e+00	1.740928e-03	
371	5.250000e+00	1.744239e-03	
372	5.300000e+00	1.747746e-03	
373	5.350000e+00	1.751465e-03	
374	5.400000e+00	1.755413e-03	
375	5.450000e+00	1.759608e-03	
376	5.500000e+00	1.764066e-03	
377	5.550000e+00	1.768807e-03	
378	5.600000e+00	1.773849e-03	
379	5.650000e+00	1.779212e-03	
380	5.700000e+00	1.784916e-03	
381	5.750000e+00	1.790984e-03	
382	5.800000e+00	1.797435e-03	
383	5.850000e+00	1.804293e-03	
384	5.900000e+00	1.811580e-03	
385	5.950000e+00	1.819319e-03	
386	6.000000e+00	1.827535e-03	
387	6.050000e+00	1.836251e-03	
388	6.100000e+00	1.845493e-03	
389	6.150000e+00	1.855286e-03	
390	6.200000e+00	1.865656e-03	
391	6.250000e+00	1.876629e-03	
392	6.300000e+00	1.888233e-03	
393	6.350000e+00	1.900494e-03	
394	6.400000e+00	1.913440e-03	
395	6.450000e+00	1.927100e-03	
396	6.500000e+00	1.941501e-03	
397	6.550000e+00	1.956673e-03	
398	6.600000e+00	1.972645e-03	
399	0.000000e+00	-0.000000e+00	
400	5.000000e-02	1.427419e-04	
401	1.000000e-01	2.799107e-04	
402	1.500000e-01	4.117536e-04	

Index   v-sweep         -i(vds)         
--------------------------------------------------------------------------------
403	2.000000e-01	5.384298e-04	
404	2.500000e-01	6.600733e-04	
405	3.000000e-01	7.768089e-04	
406	3.500000e-01	8.887557e-04	
407	4.000000e-01	9.960290e-04	
408	4.500000e-01	1.098740e-03	
409	5.000000e-01	1.196996e-03	
410	5.500000e-01	1.290903e-03	
411	6.000000e-01	1.380560e-03	
412	6.500000e-01	1.466065e-03	
413	7.000000e-01	1.547515e-03	
414	7.500000e-01	1.625000e-03	
415	8.000000e-01	1.698609e-03	
416	8.500000e-01	1.768430e-03	
417	9.000000e-01	1.834546e-03	
418	9.500000e-01	1.897039e-03	
419	1.000000e+00	1.955987e-03	
420	1.050000e+00	2.011467e-03	
421	1.100000e+00	2.063553e-03	
422	1.150000e+00	2.112314e-03	
423	1.200000e+00	2.157817e-03	
424	1.250000e+00	2.200125e-03	
425	1.300000e+00	2.239293e-03	
426	1.350000e+00	2.275370e-03	
427	1.400000e+00	2.308393e-03	
428	1.450000e+00	2.338395e-03	
429	1.500000e+00	2.365413e-03	
430	1.550000e+00	2.389525e-03	
431	1.600000e+00	2.410882e-03	
432	1.650000e+00	2.429731e-03	
433	1.700000e+00	2.446381e-03	
434	1.750000e+00	2.461161e-03	
435	1.800000e+00	2.474376e-03	
436	1.850000e+00	2.486285e-03	
437	1.900000e+00	2.497105e-03	
438	1.950000e+00	2.507008e-03	
439	2.000000e+00	2.516133e-03	
440	2.050000e+00	2.524593e-03	
441	2.100000e+00	2.532479e-03	
442	2.150000e+00	2.539865e-03	
443	2.200000e+00	2.546812e-03	
444	2.250000e+00	2.553372e-03	
445	2.300000e+00	2.559588e-03	
446	2.350000e+00	2.565495e-03	
447	2.400000e+00	2.571125e-03	
448	2.450000e+00	2.576505e-03	
449	2.500000e+00	2.581656e-03	
450	2.550000e+00	2.586600e-03	
451	2.600000e+00	2.591354e-03	
452	2.650000e+00	2.595933e-03	
453	2.700000e+00	2.600351e-03	
454	2.750000e+00	2.604620e-03	
455	2.800000e+00	2.608750e-03	
456	2.850000e+00	2.612753e-03	
457	2.900000e+00	2.616635e-03	
458	2.950000e+00	2.620405e-03	
459	3.000000e+00	2.624071e-03	
460	3.050000e+00	2.627638e-03	

Index   v-sweep         -i(vds)         
--------------------------------------------------------------------------------
461	3.100000e+00	2.631112e-03	
462	3.150000e+00	2.634500e-03	
463	3.200000e+00	2.637805e-03	
464	3.250000e+00	2.641032e-03	
465	3.300000e+00	2.644186e-03	
466	3.350000e+00	2.647271e-03	
467	3.400000e+00	2.650289e-03	
468	3.450000e+00	2.653244e-03	
469	3.500000e+00	2.656140e-03	
470	3.550000e+00	2.658979e-03	
471	3.600000e+00	2.661763e-03	
472	3.650000e+00	2.664497e-03	
473	3.700000e+00	2.667181e-03	
474	3.750000e+00	2.669818e-03	
475	3.800000e+00	2.672411e-03	
476	3.850000e+00	2.674961e-03	
477	3.900000e+00	2.677472e-03	
478	3.950000e+00	2.679945e-03	
479	4.000000e+00	2.682382e-03	
480	4.050000e+00	2.684786e-03	
481	4.100000e+00	2.687159e-03	
482	4.150000e+00	2.689505e-03	
483	4.200000e+00	2.691824e-03	
484	4.250000e+00	2.694122e-03	
485	4.300000e+00	2.696400e-03	
486	4.350000e+00	2.698662e-03	
487	4.400000e+00	2.700913e-03	
488	4.450000e+00	2.703155e-03	
489	4.500000e+00	2.705395e-03	
490	4.550000e+00	2.707636e-03	
491	4.600000e+00	2.709885e-03	
492	4.650000e+00	2.712148e-03	
493	4.700000e+00	2.714431e-03	
494	4.750000e+00	2.716741e-03	
495	4.800000e+00	2.719087e-03	
496	4.850000e+00	2.721476e-03	
497	4.900000e+00	2.723919e-03	
498	4.950000e+00	2.726426e-03	
499	5.000000e+00	2.729007e-03	
500	5.050000e+00	2.731674e-03	
501	5.100000e+00	2.734440e-03	
502	5.150000e+00	2.737318e-03	
503	5.200000e+00	2.740324e-03	
504	5.250000e+00	2.743471e-03	
505	5.300000e+00	2.746776e-03	
506	5.350000e+00	2.750258e-03	
507	5.400000e+00	2.753933e-03	
508	5.450000e+00	2.757822e-03	
509	5.500000e+00	2.761945e-03	
510	5.550000e+00	2.766322e-03	
511	5.600000e+00	2.770977e-03	
512	5.650000e+00	2.775933e-03	
513	5.700000e+00	2.781215e-03	
514	5.750000e+00	2.786847e-03	
515	5.800000e+00	2.792856e-03	
516	5.850000e+00	2.799271e-03	
517	5.900000e+00	2.806119e-03	
518	5.950000e+00	2.813431e-03	

Index   v-sweep         -i(vds)         
--------------------------------------------------------------------------------
519	6.000000e+00	2.821236e-03	
520	6.050000e+00	2.829567e-03	
521	6.100000e+00	2.838455e-03	
522	6.150000e+00	2.847935e-03	
523	6.200000e+00	2.858041e-03	
524	6.250000e+00	2.868808e-03	
525	6.300000e+00	2.880273e-03	
526	6.350000e+00	2.892472e-03	
527	6.400000e+00	2.905444e-03	
528	6.450000e+00	2.919227e-03	
529	6.500000e+00	2.933860e-03	
530	6.550000e+00	2.949385e-03	
531	6.600000e+00	2.965842e-03	
532	0.000000e+00	-0.000000e+00	
533	5.000000e-02	1.625604e-04	
534	1.000000e-01	3.198481e-04	
535	1.500000e-01	4.720907e-04	
536	2.000000e-01	6.194290e-04	
537	2.500000e-01	7.619792e-04	
538	3.000000e-01	8.998494e-04	
539	3.500000e-01	1.033143e-03	
540	4.000000e-01	1.161960e-03	
541	4.500000e-01	1.286397e-03	
542	5.000000e-01	1.406549e-03	
543	5.500000e-01	1.522507e-03	
544	6.000000e-01	1.634360e-03	
545	6.500000e-01	1.742194e-03	
546	7.000000e-01	1.846093e-03	
547	7.500000e-01	1.946139e-03	
548	8.000000e-01	2.042409e-03	
549	8.500000e-01	2.134982e-03	
550	9.000000e-01	2.223933e-03	
551	9.500000e-01	2.309333e-03	
552	1.000000e+00	2.391254e-03	
553	1.050000e+00	2.469764e-03	
554	1.100000e+00	2.544932e-03	
555	1.150000e+00	2.616822e-03	
556	1.200000e+00	2.685496e-03	
557	1.250000e+00	2.751018e-03	
558	1.300000e+00	2.813447e-03	
559	1.350000e+00	2.872840e-03	
560	1.400000e+00	2.929253e-03	
561	1.450000e+00	2.982738e-03	
562	1.500000e+00	3.033345e-03	
563	1.550000e+00	3.081118e-03	
564	1.600000e+00	3.126097e-03	
565	1.650000e+00	3.168313e-03	
566	1.700000e+00	3.207784e-03	
567	1.750000e+00	3.244516e-03	
568	1.800000e+00	3.278498e-03	
569	1.850000e+00	3.309713e-03	
570	1.900000e+00	3.338156e-03	
571	1.950000e+00	3.363871e-03	
572	2.000000e+00	3.386983e-03	
573	2.050000e+00	3.407702e-03	
574	2.100000e+00	3.426291e-03	
575	2.150000e+00	3.443029e-03	
576	2.200000e+00	3.458183e-03	

Index   v-sweep         -i(vds)         
--------------------------------------------------------------------------------
577	2.250000e+00	3.471985e-03	
578	2.300000e+00	3.484635e-03	
579	2.350000e+00	3.496297e-03	
580	2.400000e+00	3.507108e-03	
581	2.450000e+00	3.517181e-03	
582	2.500000e+00	3.526609e-03	
583	2.550000e+00	3.535470e-03	
584	2.600000e+00	3.543828e-03	
585	2.650000e+00	3.551740e-03	
586	2.700000e+00	3.559251e-03	
587	2.750000e+00	3.566403e-03	
588	2.800000e+00	3.573228e-03	
589	2.850000e+00	3.579757e-03	
590	2.900000e+00	3.586016e-03	
591	2.950000e+00	3.592027e-03	
592	3.000000e+00	3.597811e-03	
593	3.050000e+00	3.603386e-03	
594	3.100000e+00	3.608766e-03	
595	3.150000e+00	3.613967e-03	
596	3.200000e+00	3.619001e-03	
597	3.250000e+00	3.623879e-03	
598	3.300000e+00	3.628611e-03	
599	3.350000e+00	3.633207e-03	
600	3.400000e+00	3.637675e-03	
601	3.450000e+00	3.642022e-03	
602	3.500000e+00	3.646257e-03	
603	3.550000e+00	3.650384e-03	
604	3.600000e+00	3.654411e-03	
605	3.650000e+00	3.658342e-03	
606	3.700000e+00	3.662182e-03	
607	3.750000e+00	3.665937e-03	
608	3.800000e+00	3.669609e-03	
609	3.850000e+00	3.673205e-03	
610	3.900000e+00	3.676726e-03	
611	3.950000e+00	3.680177e-03	
612	4.000000e+00	3.683562e-03	
613	4.050000e+00	3.686882e-03	
614	4.100000e+00	3.690142e-03	
615	4.150000e+00	3.693343e-03	
616	4.200000e+00	3.696490e-03	
617	4.250000e+00	3.699585e-03	
618	4.300000e+00	3.702631e-03	
619	4.350000e+00	3.705630e-03	
620	4.400000e+00	3.708586e-03	
621	4.450000e+00	3.711503e-03	
622	4.500000e+00	3.714382e-03	
623	4.550000e+00	3.717228e-03	
624	4.600000e+00	3.720045e-03	
625	4.650000e+00	3.722836e-03	
626	4.700000e+00	3.725607e-03	
627	4.750000e+00	3.728362e-03	
628	4.800000e+00	3.731107e-03	
629	4.850000e+00	3.733847e-03	
630	4.900000e+00	3.736590e-03	
631	4.950000e+00	3.739342e-03	
632	5.000000e+00	3.742113e-03	
633	5.050000e+00	3.744909e-03	
634	5.100000e+00	3.747741e-03	

Index   v-sweep         -i(vds)         
--------------------------------------------------------------------------------
635	5.150000e+00	3.750620e-03	
636	5.200000e+00	3.753557e-03	
637	5.250000e+00	3.756563e-03	
638	5.300000e+00	3.759654e-03	
639	5.350000e+00	3.762842e-03	
640	5.400000e+00	3.766145e-03	
641	5.450000e+00	3.769578e-03	
642	5.500000e+00	3.773159e-03	
643	5.550000e+00	3.776909e-03	
644	5.600000e+00	3.780847e-03	
645	5.650000e+00	3.784995e-03	
646	5.700000e+00	3.789376e-03	
647	5.750000e+00	3.794016e-03	
648	5.800000e+00	3.798940e-03	
649	5.850000e+00	3.804175e-03	
650	5.900000e+00	3.809750e-03	
651	5.950000e+00	3.815696e-03	
652	6.000000e+00	3.822043e-03	
653	6.050000e+00	3.828825e-03	
654	6.100000e+00	3.836076e-03	
655	6.150000e+00	3.843832e-03	
656	6.200000e+00	3.852130e-03	
657	6.250000e+00	3.861009e-03	
658	6.300000e+00	3.870509e-03	
659	6.350000e+00	3.880672e-03	
660	6.400000e+00	3.891540e-03	
661	6.450000e+00	3.903156e-03	
662	6.500000e+00	3.915567e-03	
663	6.550000e+00	3.928820e-03	
664	6.600000e+00	3.942962e-03	
665	0.000000e+00	-0.000000e+00	
666	5.000000e-02	1.752329e-04	
667	1.000000e-01	3.456125e-04	
668	1.500000e-01	5.113458e-04	
669	2.000000e-01	6.725538e-04	
670	2.500000e-01	8.293342e-04	
671	3.000000e-01	9.817768e-04	
672	3.500000e-01	1.129968e-03	
673	4.000000e-01	1.273991e-03	
674	4.500000e-01	1.413929e-03	
675	5.000000e-01	1.549858e-03	
676	5.500000e-01	1.681858e-03	
677	6.000000e-01	1.810003e-03	
678	6.500000e-01	1.934367e-03	
679	7.000000e-01	2.055019e-03	
680	7.500000e-01	2.172031e-03	
681	8.000000e-01	2.285469e-03	
682	8.500000e-01	2.395400e-03	
683	9.000000e-01	2.501888e-03	
684	9.500000e-01	2.604995e-03	
685	1.000000e+00	2.704783e-03	
686	1.050000e+00	2.801312e-03	
687	1.100000e+00	2.894639e-03	
688	1.150000e+00	2.984821e-03	
689	1.200000e+00	3.071915e-03	
690	1.250000e+00	3.155973e-03	
691	1.300000e+00	3.237050e-03	
692	1.350000e+00	3.315195e-03	

Index   v-sweep         -i(vds)         
--------------------------------------------------------------------------------
693	1.400000e+00	3.390461e-03	
694	1.450000e+00	3.462896e-03	
695	1.500000e+00	3.532548e-03	
696	1.550000e+00	3.599464e-03	
697	1.600000e+00	3.663688e-03	
698	1.650000e+00	3.725265e-03	
699	1.700000e+00	3.784237e-03	
700	1.750000e+00	3.840644e-03	
701	1.800000e+00	3.894524e-03	
702	1.850000e+00	3.945911e-03	
703	1.900000e+00	3.994836e-03	
704	1.950000e+00	4.041324e-03	
705	2.000000e+00	4.085392e-03	
706	2.050000e+00	4.127047e-03	
707	2.100000e+00	4.166280e-03	
708	2.150000e+00	4.203067e-03	
709	2.200000e+00	4.237370e-03	
710	2.250000e+00	4.269149e-03	
711	2.300000e+00	4.298383e-03	
712	2.350000e+00	4.325105e-03	
713	2.400000e+00	4.349418e-03	
714	2.450000e+00	4.371495e-03	
715	2.500000e+00	4.391553e-03	
716	2.550000e+00	4.409828e-03	
717	2.600000e+00	4.426545e-03	
718	2.650000e+00	4.441909e-03	
719	2.700000e+00	4.456099e-03	
720	2.750000e+00	4.469267e-03	
721	2.800000e+00	4.481542e-03	
722	2.850000e+00	4.493034e-03	
723	2.900000e+00	4.503833e-03	
724	2.950000e+00	4.514019e-03	
725	3.000000e+00	4.523657e-03	
726	3.050000e+00	4.532803e-03	
727	3.100000e+00	4.541506e-03	
728	3.150000e+00	4.549807e-03	
729	3.200000e+00	4.557744e-03	
730	3.250000e+00	4.565349e-03	
731	3.300000e+00	4.572648e-03	
732	3.350000e+00	4.579666e-03	
733	3.400000e+00	4.586426e-03	
734	3.450000e+00	4.592947e-03	
735	3.500000e+00	4.599246e-03	
736	3.550000e+00	4.605339e-03	
737	3.600000e+00	4.611239e-03	
738	3.650000e+00	4.616960e-03	
739	3.700000e+00	4.622512e-03	
740	3.750000e+00	4.627906e-03	
741	3.800000e+00	4.633152e-03	
742	3.850000e+00	4.638257e-03	
743	3.900000e+00	4.643231e-03	
744	3.950000e+00	4.648080e-03	
745	4.000000e+00	4.652812e-03	
746	4.050000e+00	4.657431e-03	
747	4.100000e+00	4.661944e-03	
748	4.150000e+00	4.666357e-03	
749	4.200000e+00	4.670674e-03	
750	4.250000e+00	4.674899e-03	

Index   v-sweep         -i(vds)         
--------------------------------------------------------------------------------
751	4.300000e+00	4.679038e-03	
752	4.350000e+00	4.683093e-03	
753	4.400000e+00	4.687070e-03	
754	4.450000e+00	4.690972e-03	
755	4.500000e+00	4.694802e-03	
756	4.550000e+00	4.698564e-03	
757	4.600000e+00	4.702262e-03	
758	4.650000e+00	4.705898e-03	
759	4.700000e+00	4.709477e-03	
760	4.750000e+00	4.713001e-03	
761	4.800000e+00	4.716476e-03	
762	4.850000e+00	4.719904e-03	
763	4.900000e+00	4.723289e-03	
764	4.950000e+00	4.726638e-03	
765	5.000000e+00	4.729954e-03	
766	5.050000e+00	4.733242e-03	
767	5.100000e+00	4.736509e-03	
768	5.150000e+00	4.739761e-03	
769	5.200000e+00	4.743005e-03	
770	5.250000e+00	4.746250e-03	
771	5.300000e+00	4.749503e-03	
772	5.350000e+00	4.752774e-03	
773	5.400000e+00	4.756074e-03	
774	5.450000e+00	4.759414e-03	
775	5.500000e+00	4.762807e-03	
776	5.550000e+00	4.766267e-03	
777	5.600000e+00	4.769808e-03	
778	5.650000e+00	4.773446e-03	
779	5.700000e+00	4.777200e-03	
780	5.750000e+00	4.781087e-03	
781	5.800000e+00	4.785130e-03	
782	5.850000e+00	4.789348e-03	
783	5.900000e+00	4.793767e-03	
784	5.950000e+00	4.798411e-03	
785	6.000000e+00	4.803306e-03	
786	6.050000e+00	4.808481e-03	
787	6.100000e+00	4.813967e-03	
788	6.150000e+00	4.819795e-03	
789	6.200000e+00	4.825998e-03	
790	6.250000e+00	4.832612e-03	
791	6.300000e+00	4.839674e-03	
792	6.350000e+00	4.847223e-03	
793	6.400000e+00	4.855300e-03	
794	6.450000e+00	4.863947e-03	
795	6.500000e+00	4.873209e-03	
796	6.550000e+00	4.883132e-03	
797	6.600000e+00	4.893763e-03	
Note: No ".plot", ".print", or ".fourier" lines; no simulations run
