
Note: Compatibility modes selected: hs

Warning: m=xx on .subckt line will override multiplier m hierarchy!


Circuit: ***************************

Doing analysis at TEMP = 125.000000 and TNOM = 125.000000


No. of Data Rows : 798
                          ***************************
                          DC transfer characteristic  Mon Jan  9 13:57:41  2023
--------------------------------------------------------------------------------
Index   v-sweep         -i(vds)         
--------------------------------------------------------------------------------
0	0.000000e+00	-0.000000e+00	
1	5.000000e-02	9.906902e-07	
2	1.000000e-01	1.835892e-06	
3	1.500000e-01	2.542014e-06	
4	2.000000e-01	3.113405e-06	
5	2.500000e-01	3.555046e-06	
6	3.000000e-01	3.875291e-06	
7	3.500000e-01	4.091222e-06	
8	4.000000e-01	4.232913e-06	
9	4.500000e-01	4.333141e-06	
10	5.000000e-01	4.412486e-06	
11	5.500000e-01	4.480215e-06	
12	6.000000e-01	4.540415e-06	
13	6.500000e-01	4.595164e-06	
14	7.000000e-01	4.645698e-06	
15	7.500000e-01	4.692832e-06	
16	8.000000e-01	4.737150e-06	
17	8.500000e-01	4.779089e-06	
18	9.000000e-01	4.818987e-06	
19	9.500000e-01	4.857113e-06	
20	1.000000e+00	4.893687e-06	
21	1.050000e+00	4.928888e-06	
22	1.100000e+00	4.962867e-06	
23	1.150000e+00	4.995750e-06	
24	1.200000e+00	5.027646e-06	
25	1.250000e+00	5.058647e-06	
26	1.300000e+00	5.088836e-06	
27	1.350000e+00	5.118280e-06	
28	1.400000e+00	5.147043e-06	
29	1.450000e+00	5.175179e-06	
30	1.500000e+00	5.202735e-06	
31	1.550000e+00	5.229756e-06	
32	1.600000e+00	5.256278e-06	
33	1.650000e+00	5.282337e-06	
34	1.700000e+00	5.307963e-06	
35	1.750000e+00	5.333186e-06	
36	1.800000e+00	5.358030e-06	
37	1.850000e+00	5.382518e-06	
38	1.900000e+00	5.406672e-06	
39	1.950000e+00	5.430511e-06	
40	2.000000e+00	5.454054e-06	
41	2.050000e+00	5.477316e-06	
42	2.100000e+00	5.500312e-06	
43	2.150000e+00	5.523056e-06	
44	2.200000e+00	5.545562e-06	
45	2.250000e+00	5.567842e-06	
46	2.300000e+00	5.589906e-06	
47	2.350000e+00	5.611765e-06	
48	2.400000e+00	5.633428e-06	
49	2.450000e+00	5.654906e-06	
50	2.500000e+00	5.676206e-06	
51	2.550000e+00	5.697337e-06	
52	2.600000e+00	5.718307e-06	
53	2.650000e+00	5.739123e-06	
54	2.700000e+00	5.759793e-06	

Index   v-sweep         -i(vds)         
--------------------------------------------------------------------------------
55	2.750000e+00	5.780324e-06	
56	2.800000e+00	5.800723e-06	
57	2.850000e+00	5.820997e-06	
58	2.900000e+00	5.841154e-06	
59	2.950000e+00	5.861201e-06	
60	3.000000e+00	5.881145e-06	
61	3.050000e+00	5.900995e-06	
62	3.100000e+00	5.920759e-06	
63	3.150000e+00	5.940446e-06	
64	3.200000e+00	5.960066e-06	
65	3.250000e+00	5.979629e-06	
66	3.300000e+00	5.999147e-06	
67	3.350000e+00	6.018631e-06	
68	3.400000e+00	6.038096e-06	
69	3.450000e+00	6.057555e-06	
70	3.500000e+00	6.077024e-06	
71	3.550000e+00	6.096521e-06	
72	3.600000e+00	6.116065e-06	
73	3.650000e+00	6.135675e-06	
74	3.700000e+00	6.155374e-06	
75	3.750000e+00	6.175185e-06	
76	3.800000e+00	6.195135e-06	
77	3.850000e+00	6.215251e-06	
78	3.900000e+00	6.235564e-06	
79	3.950000e+00	6.256105e-06	
80	4.000000e+00	6.276909e-06	
81	4.050000e+00	6.298013e-06	
82	4.100000e+00	6.319456e-06	
83	4.150000e+00	6.341280e-06	
84	4.200000e+00	6.363530e-06	
85	4.250000e+00	6.386251e-06	
86	4.300000e+00	6.409495e-06	
87	4.350000e+00	6.433314e-06	
88	4.400000e+00	6.457762e-06	
89	4.450000e+00	6.482899e-06	
90	4.500000e+00	6.508784e-06	
91	4.550000e+00	6.535483e-06	
92	4.600000e+00	6.563061e-06	
93	4.650000e+00	6.591588e-06	
94	4.700000e+00	6.621136e-06	
95	4.750000e+00	6.651782e-06	
96	4.800000e+00	6.683603e-06	
97	4.850000e+00	6.716682e-06	
98	4.900000e+00	6.751101e-06	
99	4.950000e+00	6.786948e-06	
100	5.000000e+00	6.824314e-06	
101	5.050000e+00	6.863290e-06	
102	5.100000e+00	6.903973e-06	
103	5.150000e+00	6.946461e-06	
104	5.200000e+00	6.990855e-06	
105	5.250000e+00	7.037258e-06	
106	5.300000e+00	7.085777e-06	
107	5.350000e+00	7.136521e-06	
108	5.400000e+00	7.189602e-06	
109	5.450000e+00	7.245134e-06	
110	5.500000e+00	7.303234e-06	
111	5.550000e+00	7.364019e-06	
112	5.600000e+00	7.427612e-06	

Index   v-sweep         -i(vds)         
--------------------------------------------------------------------------------
113	5.650000e+00	7.494136e-06	
114	5.700000e+00	7.563717e-06	
115	5.750000e+00	7.636483e-06	
116	5.800000e+00	7.712563e-06	
117	5.850000e+00	7.792090e-06	
118	5.900000e+00	7.875197e-06	
119	5.950000e+00	7.962021e-06	
120	6.000000e+00	8.052699e-06	
121	6.050000e+00	8.147370e-06	
122	6.100000e+00	8.246175e-06	
123	6.150000e+00	8.349258e-06	
124	6.200000e+00	8.456763e-06	
125	6.250000e+00	8.568834e-06	
126	6.300000e+00	8.685619e-06	
127	6.350000e+00	8.807268e-06	
128	6.400000e+00	8.933928e-06	
129	6.450000e+00	9.065752e-06	
130	6.500000e+00	9.202891e-06	
131	6.550000e+00	9.345498e-06	
132	6.600000e+00	9.493728e-06	
133	0.000000e+00	-0.000000e+00	
134	5.000000e-02	2.566606e-06	
135	1.000000e-01	4.975684e-06	
136	1.500000e-01	7.233803e-06	
137	2.000000e-01	9.344947e-06	
138	2.500000e-01	1.131239e-05	
139	3.000000e-01	1.313917e-05	
140	3.500000e-01	1.482823e-05	
141	4.000000e-01	1.638244e-05	
142	4.500000e-01	1.780462e-05	
143	5.000000e-01	1.909758e-05	
144	5.500000e-01	2.026416e-05	
145	6.000000e-01	2.130728e-05	
146	6.500000e-01	2.223009e-05	
147	7.000000e-01	2.303623e-05	
148	7.500000e-01	2.373032e-05	
149	8.000000e-01	2.431889e-05	
150	8.500000e-01	2.481160e-05	
151	9.000000e-01	2.522208e-05	
152	9.500000e-01	2.556655e-05	
153	1.000000e+00	2.586050e-05	
154	1.050000e+00	2.611629e-05	
155	1.100000e+00	2.634285e-05	
156	1.150000e+00	2.654649e-05	
157	1.200000e+00	2.673173e-05	
158	1.250000e+00	2.690187e-05	
159	1.300000e+00	2.705941e-05	
160	1.350000e+00	2.720627e-05	
161	1.400000e+00	2.734397e-05	
162	1.450000e+00	2.747373e-05	
163	1.500000e+00	2.759653e-05	
164	1.550000e+00	2.771319e-05	
165	1.600000e+00	2.782439e-05	
166	1.650000e+00	2.793070e-05	
167	1.700000e+00	2.803262e-05	
168	1.750000e+00	2.813055e-05	
169	1.800000e+00	2.822487e-05	
170	1.850000e+00	2.831588e-05	

Index   v-sweep         -i(vds)         
--------------------------------------------------------------------------------
171	1.900000e+00	2.840386e-05	
172	1.950000e+00	2.848906e-05	
173	2.000000e+00	2.857169e-05	
174	2.050000e+00	2.865194e-05	
175	2.100000e+00	2.872998e-05	
176	2.150000e+00	2.880596e-05	
177	2.200000e+00	2.888002e-05	
178	2.250000e+00	2.895229e-05	
179	2.300000e+00	2.902288e-05	
180	2.350000e+00	2.909190e-05	
181	2.400000e+00	2.915942e-05	
182	2.450000e+00	2.922555e-05	
183	2.500000e+00	2.929035e-05	
184	2.550000e+00	2.935391e-05	
185	2.600000e+00	2.941628e-05	
186	2.650000e+00	2.947753e-05	
187	2.700000e+00	2.953771e-05	
188	2.750000e+00	2.959688e-05	
189	2.800000e+00	2.965509e-05	
190	2.850000e+00	2.971238e-05	
191	2.900000e+00	2.976880e-05	
192	2.950000e+00	2.982438e-05	
193	3.000000e+00	2.987917e-05	
194	3.050000e+00	2.993319e-05	
195	3.100000e+00	2.998649e-05	
196	3.150000e+00	3.003910e-05	
197	3.200000e+00	3.009105e-05	
198	3.250000e+00	3.014237e-05	
199	3.300000e+00	3.019310e-05	
200	3.350000e+00	3.024326e-05	
201	3.400000e+00	3.029290e-05	
202	3.450000e+00	3.034203e-05	
203	3.500000e+00	3.039071e-05	
204	3.550000e+00	3.043896e-05	
205	3.600000e+00	3.048682e-05	
206	3.650000e+00	3.053434e-05	
207	3.700000e+00	3.058156e-05	
208	3.750000e+00	3.062853e-05	
209	3.800000e+00	3.067530e-05	
210	3.850000e+00	3.072193e-05	
211	3.900000e+00	3.076849e-05	
212	3.950000e+00	3.081503e-05	
213	4.000000e+00	3.086164e-05	
214	4.050000e+00	3.090839e-05	
215	4.100000e+00	3.095538e-05	
216	4.150000e+00	3.100269e-05	
217	4.200000e+00	3.105045e-05	
218	4.250000e+00	3.109874e-05	
219	4.300000e+00	3.114771e-05	
220	4.350000e+00	3.119747e-05	
221	4.400000e+00	3.124817e-05	
222	4.450000e+00	3.129997e-05	
223	4.500000e+00	3.135301e-05	
224	4.550000e+00	3.140748e-05	
225	4.600000e+00	3.146356e-05	
226	4.650000e+00	3.152144e-05	
227	4.700000e+00	3.158133e-05	
228	4.750000e+00	3.164344e-05	

Index   v-sweep         -i(vds)         
--------------------------------------------------------------------------------
229	4.800000e+00	3.170802e-05	
230	4.850000e+00	3.177529e-05	
231	4.900000e+00	3.184552e-05	
232	4.950000e+00	3.191897e-05	
233	5.000000e+00	3.199592e-05	
234	5.050000e+00	3.207666e-05	
235	5.100000e+00	3.216151e-05	
236	5.150000e+00	3.225077e-05	
237	5.200000e+00	3.234478e-05	
238	5.250000e+00	3.244387e-05	
239	5.300000e+00	3.254841e-05	
240	5.350000e+00	3.265876e-05	
241	5.400000e+00	3.277530e-05	
242	5.450000e+00	3.289842e-05	
243	5.500000e+00	3.302852e-05	
244	5.550000e+00	3.316601e-05	
245	5.600000e+00	3.331133e-05	
246	5.650000e+00	3.346491e-05	
247	5.700000e+00	3.362719e-05	
248	5.750000e+00	3.379863e-05	
249	5.800000e+00	3.397971e-05	
250	5.850000e+00	3.417089e-05	
251	5.900000e+00	3.437267e-05	
252	5.950000e+00	3.458555e-05	
253	6.000000e+00	3.481003e-05	
254	6.050000e+00	3.504663e-05	
255	6.100000e+00	3.529587e-05	
256	6.150000e+00	3.555828e-05	
257	6.200000e+00	3.583440e-05	
258	6.250000e+00	3.612479e-05	
259	6.300000e+00	3.642998e-05	
260	6.350000e+00	3.675056e-05	
261	6.400000e+00	3.708707e-05	
262	6.450000e+00	3.744010e-05	
263	6.500000e+00	3.781023e-05	
264	6.550000e+00	3.819804e-05	
265	6.600000e+00	3.860412e-05	
266	0.000000e+00	-0.000000e+00	
267	5.000000e-02	3.774065e-06	
268	1.000000e-01	7.387799e-06	
269	1.500000e-01	1.084778e-05	
270	2.000000e-01	1.415799e-05	
271	2.500000e-01	1.732170e-05	
272	3.000000e-01	2.034195e-05	
273	3.500000e-01	2.322163e-05	
274	4.000000e-01	2.596358e-05	
275	4.500000e-01	2.857053e-05	
276	5.000000e-01	3.104515e-05	
277	5.500000e-01	3.339003e-05	
278	6.000000e-01	3.560772e-05	
279	6.500000e-01	3.770067e-05	
280	7.000000e-01	3.967130e-05	
281	7.500000e-01	4.152199e-05	
282	8.000000e-01	4.325506e-05	
283	8.500000e-01	4.487280e-05	
284	9.000000e-01	4.637747e-05	
285	9.500000e-01	4.777132e-05	
286	1.000000e+00	4.905661e-05	

Index   v-sweep         -i(vds)         
--------------------------------------------------------------------------------
287	1.050000e+00	5.023565e-05	
288	1.100000e+00	5.131084e-05	
289	1.150000e+00	5.228480e-05	
290	1.200000e+00	5.316056e-05	
291	1.250000e+00	5.394191e-05	
292	1.300000e+00	5.463394e-05	
293	1.350000e+00	5.524363e-05	
294	1.400000e+00	5.577992e-05	
295	1.450000e+00	5.625302e-05	
296	1.500000e+00	5.667310e-05	
297	1.550000e+00	5.704924e-05	
298	1.600000e+00	5.738905e-05	
299	1.650000e+00	5.769866e-05	
300	1.700000e+00	5.798294e-05	
301	1.750000e+00	5.824576e-05	
302	1.800000e+00	5.849022e-05	
303	1.850000e+00	5.871883e-05	
304	1.900000e+00	5.893361e-05	
305	1.950000e+00	5.913625e-05	
306	2.000000e+00	5.932815e-05	
307	2.050000e+00	5.951048e-05	
308	2.100000e+00	5.968424e-05	
309	2.150000e+00	5.985026e-05	
310	2.200000e+00	6.000929e-05	
311	2.250000e+00	6.016196e-05	
312	2.300000e+00	6.030881e-05	
313	2.350000e+00	6.045032e-05	
314	2.400000e+00	6.058693e-05	
315	2.450000e+00	6.071902e-05	
316	2.500000e+00	6.084691e-05	
317	2.550000e+00	6.097090e-05	
318	2.600000e+00	6.109127e-05	
319	2.650000e+00	6.120826e-05	
320	2.700000e+00	6.132208e-05	
321	2.750000e+00	6.143294e-05	
322	2.800000e+00	6.154101e-05	
323	2.850000e+00	6.164646e-05	
324	2.900000e+00	6.174944e-05	
325	2.950000e+00	6.185009e-05	
326	3.000000e+00	6.194853e-05	
327	3.050000e+00	6.204488e-05	
328	3.100000e+00	6.213925e-05	
329	3.150000e+00	6.223174e-05	
330	3.200000e+00	6.232244e-05	
331	3.250000e+00	6.241144e-05	
332	3.300000e+00	6.249882e-05	
333	3.350000e+00	6.258465e-05	
334	3.400000e+00	6.266901e-05	
335	3.450000e+00	6.275196e-05	
336	3.500000e+00	6.283357e-05	
337	3.550000e+00	6.291390e-05	
338	3.600000e+00	6.299301e-05	
339	3.650000e+00	6.307097e-05	
340	3.700000e+00	6.314781e-05	
341	3.750000e+00	6.322362e-05	
342	3.800000e+00	6.329844e-05	
343	3.850000e+00	6.337234e-05	
344	3.900000e+00	6.344537e-05	

Index   v-sweep         -i(vds)         
--------------------------------------------------------------------------------
345	3.950000e+00	6.351761e-05	
346	4.000000e+00	6.358913e-05	
347	4.050000e+00	6.366001e-05	
348	4.100000e+00	6.373031e-05	
349	4.150000e+00	6.380014e-05	
350	4.200000e+00	6.386959e-05	
351	4.250000e+00	6.393877e-05	
352	4.300000e+00	6.400778e-05	
353	4.350000e+00	6.407676e-05	
354	4.400000e+00	6.414584e-05	
355	4.450000e+00	6.421517e-05	
356	4.500000e+00	6.428493e-05	
357	4.550000e+00	6.435528e-05	
358	4.600000e+00	6.442642e-05	
359	4.650000e+00	6.449857e-05	
360	4.700000e+00	6.457195e-05	
361	4.750000e+00	6.464682e-05	
362	4.800000e+00	6.472343e-05	
363	4.850000e+00	6.480208e-05	
364	4.900000e+00	6.488308e-05	
365	4.950000e+00	6.496675e-05	
366	5.000000e+00	6.505344e-05	
367	5.050000e+00	6.514354e-05	
368	5.100000e+00	6.523744e-05	
369	5.150000e+00	6.533555e-05	
370	5.200000e+00	6.543834e-05	
371	5.250000e+00	6.554625e-05	
372	5.300000e+00	6.565980e-05	
373	5.350000e+00	6.577949e-05	
374	5.400000e+00	6.590588e-05	
375	5.450000e+00	6.603953e-05	
376	5.500000e+00	6.618103e-05	
377	5.550000e+00	6.633101e-05	
378	5.600000e+00	6.649010e-05	
379	5.650000e+00	6.665899e-05	
380	5.700000e+00	6.683835e-05	
381	5.750000e+00	6.702892e-05	
382	5.800000e+00	6.723143e-05	
383	5.850000e+00	6.744665e-05	
384	5.900000e+00	6.767537e-05	
385	5.950000e+00	6.791840e-05	
386	6.000000e+00	6.817659e-05	
387	6.050000e+00	6.845077e-05	
388	6.100000e+00	6.874184e-05	
389	6.150000e+00	6.905070e-05	
390	6.200000e+00	6.937827e-05	
391	6.250000e+00	6.972548e-05	
392	6.300000e+00	7.009330e-05	
393	6.350000e+00	7.048271e-05	
394	6.400000e+00	7.089471e-05	
395	6.450000e+00	7.133031e-05	
396	6.500000e+00	7.179054e-05	
397	6.550000e+00	7.227644e-05	
398	6.600000e+00	7.278909e-05	
399	0.000000e+00	-0.000000e+00	
400	5.000000e-02	4.688909e-06	
401	1.000000e-01	9.220813e-06	
402	1.500000e-01	1.360203e-05	

Index   v-sweep         -i(vds)         
--------------------------------------------------------------------------------
403	2.000000e-01	1.783630e-05	
404	2.500000e-01	2.192666e-05	
405	3.000000e-01	2.587592e-05	
406	3.500000e-01	2.968676e-05	
407	4.000000e-01	3.336180e-05	
408	4.500000e-01	3.690357e-05	
409	5.000000e-01	4.031456e-05	
410	5.500000e-01	4.359717e-05	
411	6.000000e-01	4.675374e-05	
412	6.500000e-01	4.978656e-05	
413	7.000000e-01	5.269784e-05	
414	7.500000e-01	5.548977e-05	
415	8.000000e-01	5.816445e-05	
416	8.500000e-01	6.072397e-05	
417	9.000000e-01	6.317033e-05	
418	9.500000e-01	6.550553e-05	
419	1.000000e+00	6.773151e-05	
420	1.050000e+00	6.985016e-05	
421	1.100000e+00	7.186335e-05	
422	1.150000e+00	7.377292e-05	
423	1.200000e+00	7.558066e-05	
424	1.250000e+00	7.728834e-05	
425	1.300000e+00	7.889769e-05	
426	1.350000e+00	8.041041e-05	
427	1.400000e+00	8.182815e-05	
428	1.450000e+00	8.315253e-05	
429	1.500000e+00	8.438508e-05	
430	1.550000e+00	8.552731e-05	
431	1.600000e+00	8.658066e-05	
432	1.650000e+00	8.754664e-05	
433	1.700000e+00	8.842709e-05	
434	1.750000e+00	8.922473e-05	
435	1.800000e+00	8.994382e-05	
436	1.850000e+00	9.059045e-05	
437	1.900000e+00	9.117227e-05	
438	1.950000e+00	9.169748e-05	
439	2.000000e+00	9.217401e-05	
440	2.050000e+00	9.260897e-05	
441	2.100000e+00	9.300841e-05	
442	2.150000e+00	9.337741e-05	
443	2.200000e+00	9.372015e-05	
444	2.250000e+00	9.404009e-05	
445	2.300000e+00	9.434010e-05	
446	2.350000e+00	9.462257e-05	
447	2.400000e+00	9.488951e-05	
448	2.450000e+00	9.514258e-05	
449	2.500000e+00	9.538325e-05	
450	2.550000e+00	9.561272e-05	
451	2.600000e+00	9.583207e-05	
452	2.650000e+00	9.604220e-05	
453	2.700000e+00	9.624393e-05	
454	2.750000e+00	9.643794e-05	
455	2.800000e+00	9.662487e-05	
456	2.850000e+00	9.680525e-05	
457	2.900000e+00	9.697958e-05	
458	2.950000e+00	9.714829e-05	
459	3.000000e+00	9.731177e-05	
460	3.050000e+00	9.747038e-05	

Index   v-sweep         -i(vds)         
--------------------------------------------------------------------------------
461	3.100000e+00	9.762442e-05	
462	3.150000e+00	9.777419e-05	
463	3.200000e+00	9.791995e-05	
464	3.250000e+00	9.806194e-05	
465	3.300000e+00	9.820037e-05	
466	3.350000e+00	9.833544e-05	
467	3.400000e+00	9.846735e-05	
468	3.450000e+00	9.859625e-05	
469	3.500000e+00	9.872230e-05	
470	3.550000e+00	9.884565e-05	
471	3.600000e+00	9.896643e-05	
472	3.650000e+00	9.908477e-05	
473	3.700000e+00	9.920078e-05	
474	3.750000e+00	9.931457e-05	
475	3.800000e+00	9.942624e-05	
476	3.850000e+00	9.953589e-05	
477	3.900000e+00	9.964363e-05	
478	3.950000e+00	9.974952e-05	
479	4.000000e+00	9.985366e-05	
480	4.050000e+00	9.995614e-05	
481	4.100000e+00	1.000570e-04	
482	4.150000e+00	1.001564e-04	
483	4.200000e+00	1.002544e-04	
484	4.250000e+00	1.003511e-04	
485	4.300000e+00	1.004465e-04	
486	4.350000e+00	1.005408e-04	
487	4.400000e+00	1.006341e-04	
488	4.450000e+00	1.007264e-04	
489	4.500000e+00	1.008179e-04	
490	4.550000e+00	1.009088e-04	
491	4.600000e+00	1.009991e-04	
492	4.650000e+00	1.010891e-04	
493	4.700000e+00	1.011788e-04	
494	4.750000e+00	1.012685e-04	
495	4.800000e+00	1.013584e-04	
496	4.850000e+00	1.014487e-04	
497	4.900000e+00	1.015397e-04	
498	4.950000e+00	1.016315e-04	
499	5.000000e+00	1.017246e-04	
500	5.050000e+00	1.018192e-04	
501	5.100000e+00	1.019157e-04	
502	5.150000e+00	1.020145e-04	
503	5.200000e+00	1.021159e-04	
504	5.250000e+00	1.022204e-04	
505	5.300000e+00	1.023284e-04	
506	5.350000e+00	1.024405e-04	
507	5.400000e+00	1.025572e-04	
508	5.450000e+00	1.026790e-04	
509	5.500000e+00	1.028067e-04	
510	5.550000e+00	1.029407e-04	
511	5.600000e+00	1.030818e-04	
512	5.650000e+00	1.032307e-04	
513	5.700000e+00	1.033882e-04	
514	5.750000e+00	1.035551e-04	
515	5.800000e+00	1.037321e-04	
516	5.850000e+00	1.039202e-04	
517	5.900000e+00	1.041203e-04	
518	5.950000e+00	1.043333e-04	

Index   v-sweep         -i(vds)         
--------------------------------------------------------------------------------
519	6.000000e+00	1.045602e-04	
520	6.050000e+00	1.048020e-04	
521	6.100000e+00	1.050599e-04	
522	6.150000e+00	1.053348e-04	
523	6.200000e+00	1.056280e-04	
524	6.250000e+00	1.059407e-04	
525	6.300000e+00	1.062740e-04	
526	6.350000e+00	1.066292e-04	
527	6.400000e+00	1.070076e-04	
528	6.450000e+00	1.074105e-04	
529	6.500000e+00	1.078393e-04	
530	6.550000e+00	1.082953e-04	
531	6.600000e+00	1.087800e-04	
532	0.000000e+00	-0.000000e+00	
533	5.000000e-02	5.359955e-06	
534	1.000000e-01	1.057054e-05	
535	1.500000e-01	1.563769e-05	
536	2.000000e-01	2.056479e-05	
537	2.500000e-01	2.535454e-05	
538	3.000000e-01	3.000940e-05	
539	3.500000e-01	3.453175e-05	
540	4.000000e-01	3.892391e-05	
541	4.500000e-01	4.318811e-05	
542	5.000000e-01	4.732657e-05	
543	5.500000e-01	5.134140e-05	
544	6.000000e-01	5.523471e-05	
545	6.500000e-01	5.900852e-05	
546	7.000000e-01	6.266483e-05	
547	7.500000e-01	6.620555e-05	
548	8.000000e-01	6.963260e-05	
549	8.500000e-01	7.294779e-05	
550	9.000000e-01	7.615296e-05	
551	9.500000e-01	7.924984e-05	
552	1.000000e+00	8.224017e-05	
553	1.050000e+00	8.512563e-05	
554	1.100000e+00	8.790789e-05	
555	1.150000e+00	9.058855e-05	
556	1.200000e+00	9.316922e-05	
557	1.250000e+00	9.565145e-05	
558	1.300000e+00	9.803677e-05	
559	1.350000e+00	1.003267e-04	
560	1.400000e+00	1.025227e-04	
561	1.450000e+00	1.046263e-04	
562	1.500000e+00	1.066389e-04	
563	1.550000e+00	1.085618e-04	
564	1.600000e+00	1.103965e-04	
565	1.650000e+00	1.121443e-04	
566	1.700000e+00	1.138064e-04	
567	1.750000e+00	1.153842e-04	
568	1.800000e+00	1.168788e-04	
569	1.850000e+00	1.182913e-04	
570	1.900000e+00	1.196225e-04	
571	1.950000e+00	1.208733e-04	
572	2.000000e+00	1.220441e-04	
573	2.050000e+00	1.231354e-04	
574	2.100000e+00	1.241473e-04	
575	2.150000e+00	1.250804e-04	
576	2.200000e+00	1.259364e-04	

Index   v-sweep         -i(vds)         
--------------------------------------------------------------------------------
577	2.250000e+00	1.267184e-04	
578	2.300000e+00	1.274313e-04	
579	2.350000e+00	1.280814e-04	
580	2.400000e+00	1.286756e-04	
581	2.450000e+00	1.292209e-04	
582	2.500000e+00	1.297233e-04	
583	2.550000e+00	1.301885e-04	
584	2.600000e+00	1.306212e-04	
585	2.650000e+00	1.310254e-04	
586	2.700000e+00	1.314045e-04	
587	2.750000e+00	1.317615e-04	
588	2.800000e+00	1.320988e-04	
589	2.850000e+00	1.324185e-04	
590	2.900000e+00	1.327224e-04	
591	2.950000e+00	1.330120e-04	
592	3.000000e+00	1.332886e-04	
593	3.050000e+00	1.335534e-04	
594	3.100000e+00	1.338074e-04	
595	3.150000e+00	1.340516e-04	
596	3.200000e+00	1.342866e-04	
597	3.250000e+00	1.345133e-04	
598	3.300000e+00	1.347322e-04	
599	3.350000e+00	1.349438e-04	
600	3.400000e+00	1.351487e-04	
601	3.450000e+00	1.353473e-04	
602	3.500000e+00	1.355401e-04	
603	3.550000e+00	1.357274e-04	
604	3.600000e+00	1.359095e-04	
605	3.650000e+00	1.360867e-04	
606	3.700000e+00	1.362594e-04	
607	3.750000e+00	1.364277e-04	
608	3.800000e+00	1.365920e-04	
609	3.850000e+00	1.367523e-04	
610	3.900000e+00	1.369090e-04	
611	3.950000e+00	1.370623e-04	
612	4.000000e+00	1.372122e-04	
613	4.050000e+00	1.373589e-04	
614	4.100000e+00	1.375027e-04	
615	4.150000e+00	1.376436e-04	
616	4.200000e+00	1.377817e-04	
617	4.250000e+00	1.379173e-04	
618	4.300000e+00	1.380504e-04	
619	4.350000e+00	1.381811e-04	
620	4.400000e+00	1.383095e-04	
621	4.450000e+00	1.384358e-04	
622	4.500000e+00	1.385600e-04	
623	4.550000e+00	1.386824e-04	
624	4.600000e+00	1.388028e-04	
625	4.650000e+00	1.389216e-04	
626	4.700000e+00	1.390388e-04	
627	4.750000e+00	1.391545e-04	
628	4.800000e+00	1.392689e-04	
629	4.850000e+00	1.393821e-04	
630	4.900000e+00	1.394942e-04	
631	4.950000e+00	1.396055e-04	
632	5.000000e+00	1.397161e-04	
633	5.050000e+00	1.398262e-04	
634	5.100000e+00	1.399360e-04	

Index   v-sweep         -i(vds)         
--------------------------------------------------------------------------------
635	5.150000e+00	1.400458e-04	
636	5.200000e+00	1.401559e-04	
637	5.250000e+00	1.402665e-04	
638	5.300000e+00	1.403781e-04	
639	5.350000e+00	1.404908e-04	
640	5.400000e+00	1.406051e-04	
641	5.450000e+00	1.407215e-04	
642	5.500000e+00	1.408405e-04	
643	5.550000e+00	1.409624e-04	
644	5.600000e+00	1.410878e-04	
645	5.650000e+00	1.412174e-04	
646	5.700000e+00	1.413517e-04	
647	5.750000e+00	1.414914e-04	
648	5.800000e+00	1.416373e-04	
649	5.850000e+00	1.417901e-04	
650	5.900000e+00	1.419506e-04	
651	5.950000e+00	1.421197e-04	
652	6.000000e+00	1.422983e-04	
653	6.050000e+00	1.424874e-04	
654	6.100000e+00	1.426879e-04	
655	6.150000e+00	1.429010e-04	
656	6.200000e+00	1.431278e-04	
657	6.250000e+00	1.433695e-04	
658	6.300000e+00	1.436273e-04	
659	6.350000e+00	1.439024e-04	
660	6.400000e+00	1.441963e-04	
661	6.450000e+00	1.445103e-04	
662	6.500000e+00	1.448459e-04	
663	6.550000e+00	1.452046e-04	
664	6.600000e+00	1.455879e-04	
665	0.000000e+00	-0.000000e+00	
666	5.000000e-02	5.833433e-06	
667	1.000000e-01	1.152761e-05	
668	1.500000e-01	1.708807e-05	
669	2.000000e-01	2.251781e-05	
670	2.500000e-01	2.781916e-05	
671	3.000000e-01	3.299423e-05	
672	3.500000e-01	3.804506e-05	
673	4.000000e-01	4.297362e-05	
674	4.500000e-01	4.778185e-05	
675	5.000000e-01	5.247163e-05	
676	5.500000e-01	5.704482e-05	
677	6.000000e-01	6.150321e-05	
678	6.500000e-01	6.584857e-05	
679	7.000000e-01	7.008262e-05	
680	7.500000e-01	7.420704e-05	
681	8.000000e-01	7.822348e-05	
682	8.500000e-01	8.213354e-05	
683	9.000000e-01	8.593879e-05	
684	9.500000e-01	8.964078e-05	
685	1.000000e+00	9.324101e-05	
686	1.050000e+00	9.674094e-05	
687	1.100000e+00	1.001420e-04	
688	1.150000e+00	1.034457e-04	
689	1.200000e+00	1.066533e-04	
690	1.250000e+00	1.097662e-04	
691	1.300000e+00	1.127857e-04	
692	1.350000e+00	1.157132e-04	

Index   v-sweep         -i(vds)         
--------------------------------------------------------------------------------
693	1.400000e+00	1.185500e-04	
694	1.450000e+00	1.212972e-04	
695	1.500000e+00	1.239563e-04	
696	1.550000e+00	1.265283e-04	
697	1.600000e+00	1.290145e-04	
698	1.650000e+00	1.314162e-04	
699	1.700000e+00	1.337344e-04	
700	1.750000e+00	1.359703e-04	
701	1.800000e+00	1.381252e-04	
702	1.850000e+00	1.402000e-04	
703	1.900000e+00	1.421960e-04	
704	1.950000e+00	1.441141e-04	
705	2.000000e+00	1.459554e-04	
706	2.050000e+00	1.477209e-04	
707	2.100000e+00	1.494117e-04	
708	2.150000e+00	1.510285e-04	
709	2.200000e+00	1.525723e-04	
710	2.250000e+00	1.540436e-04	
711	2.300000e+00	1.554432e-04	
712	2.350000e+00	1.567712e-04	
713	2.400000e+00	1.580278e-04	
714	2.450000e+00	1.592127e-04	
715	2.500000e+00	1.603256e-04	
716	2.550000e+00	1.613658e-04	
717	2.600000e+00	1.623333e-04	
718	2.650000e+00	1.632293e-04	
719	2.700000e+00	1.640562e-04	
720	2.750000e+00	1.648182e-04	
721	2.800000e+00	1.655204e-04	
722	2.850000e+00	1.661687e-04	
723	2.900000e+00	1.667688e-04	
724	2.950000e+00	1.673263e-04	
725	3.000000e+00	1.678461e-04	
726	3.050000e+00	1.683325e-04	
727	3.100000e+00	1.687892e-04	
728	3.150000e+00	1.692196e-04	
729	3.200000e+00	1.696265e-04	
730	3.250000e+00	1.700122e-04	
731	3.300000e+00	1.703788e-04	
732	3.350000e+00	1.707282e-04	
733	3.400000e+00	1.710620e-04	
734	3.450000e+00	1.713814e-04	
735	3.500000e+00	1.716878e-04	
736	3.550000e+00	1.719822e-04	
737	3.600000e+00	1.722655e-04	
738	3.650000e+00	1.725386e-04	
739	3.700000e+00	1.728022e-04	
740	3.750000e+00	1.730570e-04	
741	3.800000e+00	1.733036e-04	
742	3.850000e+00	1.735425e-04	
743	3.900000e+00	1.737743e-04	
744	3.950000e+00	1.739993e-04	
745	4.000000e+00	1.742181e-04	
746	4.050000e+00	1.744309e-04	
747	4.100000e+00	1.746381e-04	
748	4.150000e+00	1.748400e-04	
749	4.200000e+00	1.750370e-04	
750	4.250000e+00	1.752292e-04	

Index   v-sweep         -i(vds)         
--------------------------------------------------------------------------------
751	4.300000e+00	1.754169e-04	
752	4.350000e+00	1.756003e-04	
753	4.400000e+00	1.757797e-04	
754	4.450000e+00	1.759552e-04	
755	4.500000e+00	1.761270e-04	
756	4.550000e+00	1.762954e-04	
757	4.600000e+00	1.764604e-04	
758	4.650000e+00	1.766222e-04	
759	4.700000e+00	1.767809e-04	
760	4.750000e+00	1.769368e-04	
761	4.800000e+00	1.770898e-04	
762	4.850000e+00	1.772403e-04	
763	4.900000e+00	1.773882e-04	
764	4.950000e+00	1.775337e-04	
765	5.000000e+00	1.776770e-04	
766	5.050000e+00	1.778182e-04	
767	5.100000e+00	1.779574e-04	
768	5.150000e+00	1.780947e-04	
769	5.200000e+00	1.782304e-04	
770	5.250000e+00	1.783646e-04	
771	5.300000e+00	1.784975e-04	
772	5.350000e+00	1.786293e-04	
773	5.400000e+00	1.787602e-04	
774	5.450000e+00	1.788904e-04	
775	5.500000e+00	1.790203e-04	
776	5.550000e+00	1.791501e-04	
777	5.600000e+00	1.792801e-04	
778	5.650000e+00	1.794107e-04	
779	5.700000e+00	1.795423e-04	
780	5.750000e+00	1.796754e-04	
781	5.800000e+00	1.798103e-04	
782	5.850000e+00	1.799477e-04	
783	5.900000e+00	1.800880e-04	
784	5.950000e+00	1.802319e-04	
785	6.000000e+00	1.803801e-04	
786	6.050000e+00	1.805332e-04	
787	6.100000e+00	1.806920e-04	
788	6.150000e+00	1.808574e-04	
789	6.200000e+00	1.810303e-04	
790	6.250000e+00	1.812115e-04	
791	6.300000e+00	1.814021e-04	
792	6.350000e+00	1.816032e-04	
793	6.400000e+00	1.818159e-04	
794	6.450000e+00	1.820413e-04	
795	6.500000e+00	1.822809e-04	
796	6.550000e+00	1.825358e-04	
797	6.600000e+00	1.828075e-04	
Note: No ".plot", ".print", or ".fourier" lines; no simulations run
