
Note: Compatibility modes selected: hs

Warning: m=xx on .subckt line will override multiplier m hierarchy!


Circuit: ***************************

Doing analysis at TEMP = 125.000000 and TNOM = 125.000000


No. of Data Rows : 798
                          ***************************
                          DC transfer characteristic  Mon Jan  9 13:57:41  2023
--------------------------------------------------------------------------------
Index   v-sweep         -i(vds)         
--------------------------------------------------------------------------------
0	0.000000e+00	-0.000000e+00	
1	5.000000e-02	3.066289e-06	
2	1.000000e-01	5.550885e-06	
3	1.500000e-01	7.486724e-06	
4	2.000000e-01	8.905999e-06	
5	2.500000e-01	9.862942e-06	
6	3.000000e-01	1.046637e-05	
7	3.500000e-01	1.086787e-05	
8	4.000000e-01	1.117693e-05	
9	4.500000e-01	1.144046e-05	
10	5.000000e-01	1.167642e-05	
11	5.500000e-01	1.189304e-05	
12	6.000000e-01	1.209491e-05	
13	6.500000e-01	1.228503e-05	
14	7.000000e-01	1.246548e-05	
15	7.500000e-01	1.263784e-05	
16	8.000000e-01	1.280329e-05	
17	8.500000e-01	1.296280e-05	
18	9.000000e-01	1.311713e-05	
19	9.500000e-01	1.326692e-05	
20	1.000000e+00	1.341267e-05	
21	1.050000e+00	1.355484e-05	
22	1.100000e+00	1.369380e-05	
23	1.150000e+00	1.382986e-05	
24	1.200000e+00	1.396330e-05	
25	1.250000e+00	1.409436e-05	
26	1.300000e+00	1.422324e-05	
27	1.350000e+00	1.435014e-05	
28	1.400000e+00	1.447521e-05	
29	1.450000e+00	1.459859e-05	
30	1.500000e+00	1.472042e-05	
31	1.550000e+00	1.484081e-05	
32	1.600000e+00	1.495986e-05	
33	1.650000e+00	1.507766e-05	
34	1.700000e+00	1.519430e-05	
35	1.750000e+00	1.530986e-05	
36	1.800000e+00	1.542441e-05	
37	1.850000e+00	1.553800e-05	
38	1.900000e+00	1.565070e-05	
39	1.950000e+00	1.576256e-05	
40	2.000000e+00	1.587362e-05	
41	2.050000e+00	1.598394e-05	
42	2.100000e+00	1.609356e-05	
43	2.150000e+00	1.620251e-05	
44	2.200000e+00	1.631082e-05	
45	2.250000e+00	1.641854e-05	
46	2.300000e+00	1.652570e-05	
47	2.350000e+00	1.663231e-05	
48	2.400000e+00	1.673842e-05	
49	2.450000e+00	1.684404e-05	
50	2.500000e+00	1.694920e-05	
51	2.550000e+00	1.705393e-05	
52	2.600000e+00	1.715824e-05	
53	2.650000e+00	1.726216e-05	
54	2.700000e+00	1.736572e-05	

Index   v-sweep         -i(vds)         
--------------------------------------------------------------------------------
55	2.750000e+00	1.746892e-05	
56	2.800000e+00	1.757181e-05	
57	2.850000e+00	1.767438e-05	
58	2.900000e+00	1.777668e-05	
59	2.950000e+00	1.787873e-05	
60	3.000000e+00	1.798054e-05	
61	3.050000e+00	1.808215e-05	
62	3.100000e+00	1.818358e-05	
63	3.150000e+00	1.828488e-05	
64	3.200000e+00	1.838606e-05	
65	3.250000e+00	1.848717e-05	
66	3.300000e+00	1.858825e-05	
67	3.350000e+00	1.868934e-05	
68	3.400000e+00	1.879049e-05	
69	3.450000e+00	1.889176e-05	
70	3.500000e+00	1.899320e-05	
71	3.550000e+00	1.909487e-05	
72	3.600000e+00	1.919684e-05	
73	3.650000e+00	1.929919e-05	
74	3.700000e+00	1.940200e-05	
75	3.750000e+00	1.950536e-05	
76	3.800000e+00	1.960936e-05	
77	3.850000e+00	1.971410e-05	
78	3.900000e+00	1.981970e-05	
79	3.950000e+00	1.992627e-05	
80	4.000000e+00	2.003394e-05	
81	4.050000e+00	2.014285e-05	
82	4.100000e+00	2.025314e-05	
83	4.150000e+00	2.036496e-05	
84	4.200000e+00	2.047849e-05	
85	4.250000e+00	2.059389e-05	
86	4.300000e+00	2.071134e-05	
87	4.350000e+00	2.083105e-05	
88	4.400000e+00	2.095321e-05	
89	4.450000e+00	2.107804e-05	
90	4.500000e+00	2.120577e-05	
91	4.550000e+00	2.133663e-05	
92	4.600000e+00	2.147087e-05	
93	4.650000e+00	2.160875e-05	
94	4.700000e+00	2.175053e-05	
95	4.750000e+00	2.189651e-05	
96	4.800000e+00	2.204696e-05	
97	4.850000e+00	2.220221e-05	
98	4.900000e+00	2.236254e-05	
99	4.950000e+00	2.252831e-05	
100	5.000000e+00	2.269983e-05	
101	5.050000e+00	2.287746e-05	
102	5.100000e+00	2.306156e-05	
103	5.150000e+00	2.325250e-05	
104	5.200000e+00	2.345065e-05	
105	5.250000e+00	2.365642e-05	
106	5.300000e+00	2.387020e-05	
107	5.350000e+00	2.409241e-05	
108	5.400000e+00	2.432346e-05	
109	5.450000e+00	2.456380e-05	
110	5.500000e+00	2.481387e-05	
111	5.550000e+00	2.507413e-05	
112	5.600000e+00	2.534502e-05	

Index   v-sweep         -i(vds)         
--------------------------------------------------------------------------------
113	5.650000e+00	2.562704e-05	
114	5.700000e+00	2.592066e-05	
115	5.750000e+00	2.622638e-05	
116	5.800000e+00	2.654470e-05	
117	5.850000e+00	2.687613e-05	
118	5.900000e+00	2.722119e-05	
119	5.950000e+00	2.758040e-05	
120	6.000000e+00	2.795431e-05	
121	6.050000e+00	2.834346e-05	
122	6.100000e+00	2.874840e-05	
123	6.150000e+00	2.916969e-05	
124	6.200000e+00	2.960790e-05	
125	6.250000e+00	3.006361e-05	
126	6.300000e+00	3.053739e-05	
127	6.350000e+00	3.102984e-05	
128	6.400000e+00	3.154155e-05	
129	6.450000e+00	3.207313e-05	
130	6.500000e+00	3.262518e-05	
131	6.550000e+00	3.319831e-05	
132	6.600000e+00	3.379316e-05	
133	0.000000e+00	-0.000000e+00	
134	5.000000e-02	9.222625e-06	
135	1.000000e-01	1.776985e-05	
136	1.500000e-01	2.567350e-05	
137	2.000000e-01	3.295626e-05	
138	2.500000e-01	3.963796e-05	
139	3.000000e-01	4.573725e-05	
140	3.500000e-01	5.127208e-05	
141	4.000000e-01	5.625992e-05	
142	4.500000e-01	6.071802e-05	
143	5.000000e-01	6.466380e-05	
144	5.500000e-01	6.811557e-05	
145	6.000000e-01	7.109397e-05	
146	6.500000e-01	7.362481e-05	
147	7.000000e-01	7.574396e-05	
148	7.500000e-01	7.750267e-05	
149	8.000000e-01	7.896640e-05	
150	8.500000e-01	8.020270e-05	
151	9.000000e-01	8.126808e-05	
152	9.500000e-01	8.220416e-05	
153	1.000000e+00	8.304033e-05	
154	1.050000e+00	8.379743e-05	
155	1.100000e+00	8.449058e-05	
156	1.150000e+00	8.513103e-05	
157	1.200000e+00	8.572732e-05	
158	1.250000e+00	8.628612e-05	
159	1.300000e+00	8.681270e-05	
160	1.350000e+00	8.731129e-05	
161	1.400000e+00	8.778537e-05	
162	1.450000e+00	8.823778e-05	
163	1.500000e+00	8.867094e-05	
164	1.550000e+00	8.908685e-05	
165	1.600000e+00	8.948723e-05	
166	1.650000e+00	8.987358e-05	
167	1.700000e+00	9.024715e-05	
168	1.750000e+00	9.060907e-05	
169	1.800000e+00	9.096031e-05	
170	1.850000e+00	9.130173e-05	

Index   v-sweep         -i(vds)         
--------------------------------------------------------------------------------
171	1.900000e+00	9.163408e-05	
172	1.950000e+00	9.195805e-05	
173	2.000000e+00	9.227423e-05	
174	2.050000e+00	9.258317e-05	
175	2.100000e+00	9.288535e-05	
176	2.150000e+00	9.318121e-05	
177	2.200000e+00	9.347116e-05	
178	2.250000e+00	9.375556e-05	
179	2.300000e+00	9.403473e-05	
180	2.350000e+00	9.430898e-05	
181	2.400000e+00	9.457858e-05	
182	2.450000e+00	9.484380e-05	
183	2.500000e+00	9.510486e-05	
184	2.550000e+00	9.536198e-05	
185	2.600000e+00	9.561537e-05	
186	2.650000e+00	9.586520e-05	
187	2.700000e+00	9.611166e-05	
188	2.750000e+00	9.635490e-05	
189	2.800000e+00	9.659508e-05	
190	2.850000e+00	9.683234e-05	
191	2.900000e+00	9.706682e-05	
192	2.950000e+00	9.729864e-05	
193	3.000000e+00	9.752792e-05	
194	3.050000e+00	9.775480e-05	
195	3.100000e+00	9.797938e-05	
196	3.150000e+00	9.820178e-05	
197	3.200000e+00	9.842211e-05	
198	3.250000e+00	9.864049e-05	
199	3.300000e+00	9.885703e-05	
200	3.350000e+00	9.907187e-05	
201	3.400000e+00	9.928511e-05	
202	3.450000e+00	9.949690e-05	
203	3.500000e+00	9.970737e-05	
204	3.550000e+00	9.991668e-05	
205	3.600000e+00	1.001250e-04	
206	3.650000e+00	1.003325e-04	
207	3.700000e+00	1.005393e-04	
208	3.750000e+00	1.007457e-04	
209	3.800000e+00	1.009519e-04	
210	3.850000e+00	1.011581e-04	
211	3.900000e+00	1.013646e-04	
212	3.950000e+00	1.015717e-04	
213	4.000000e+00	1.017797e-04	
214	4.050000e+00	1.019889e-04	
215	4.100000e+00	1.021997e-04	
216	4.150000e+00	1.024125e-04	
217	4.200000e+00	1.026278e-04	
218	4.250000e+00	1.028459e-04	
219	4.300000e+00	1.030674e-04	
220	4.350000e+00	1.032928e-04	
221	4.400000e+00	1.035227e-04	
222	4.450000e+00	1.037577e-04	
223	4.500000e+00	1.039984e-04	
224	4.550000e+00	1.042454e-04	
225	4.600000e+00	1.044996e-04	
226	4.650000e+00	1.047617e-04	
227	4.700000e+00	1.050324e-04	
228	4.750000e+00	1.053126e-04	

Index   v-sweep         -i(vds)         
--------------------------------------------------------------------------------
229	4.800000e+00	1.056033e-04	
230	4.850000e+00	1.059052e-04	
231	4.900000e+00	1.062195e-04	
232	4.950000e+00	1.065471e-04	
233	5.000000e+00	1.068891e-04	
234	5.050000e+00	1.072465e-04	
235	5.100000e+00	1.076206e-04	
236	5.150000e+00	1.080125e-04	
237	5.200000e+00	1.084234e-04	
238	5.250000e+00	1.088546e-04	
239	5.300000e+00	1.093075e-04	
240	5.350000e+00	1.097833e-04	
241	5.400000e+00	1.102835e-04	
242	5.450000e+00	1.108095e-04	
243	5.500000e+00	1.113628e-04	
244	5.550000e+00	1.119449e-04	
245	5.600000e+00	1.125573e-04	
246	5.650000e+00	1.132017e-04	
247	5.700000e+00	1.138797e-04	
248	5.750000e+00	1.145928e-04	
249	5.800000e+00	1.153429e-04	
250	5.850000e+00	1.161317e-04	
251	5.900000e+00	1.169609e-04	
252	5.950000e+00	1.178323e-04	
253	6.000000e+00	1.187477e-04	
254	6.050000e+00	1.197090e-04	
255	6.100000e+00	1.207181e-04	
256	6.150000e+00	1.217768e-04	
257	6.200000e+00	1.228872e-04	
258	6.250000e+00	1.240511e-04	
259	6.300000e+00	1.252706e-04	
260	6.350000e+00	1.265477e-04	
261	6.400000e+00	1.278843e-04	
262	6.450000e+00	1.292826e-04	
263	6.500000e+00	1.307446e-04	
264	6.550000e+00	1.322724e-04	
265	6.600000e+00	1.338681e-04	
266	0.000000e+00	-0.000000e+00	
267	5.000000e-02	1.381520e-05	
268	1.000000e-01	2.692360e-05	
269	1.500000e-01	3.935713e-05	
270	2.000000e-01	5.113854e-05	
271	2.500000e-01	6.228774e-05	
272	3.000000e-01	7.282333e-05	
273	3.500000e-01	8.276308e-05	
274	4.000000e-01	9.212404e-05	
275	4.500000e-01	1.009226e-04	
276	5.000000e-01	1.091746e-04	
277	5.500000e-01	1.168952e-04	
278	6.000000e-01	1.240992e-04	
279	6.500000e-01	1.308008e-04	
280	7.000000e-01	1.370139e-04	
281	7.500000e-01	1.427518e-04	
282	8.000000e-01	1.480277e-04	
283	8.500000e-01	1.528545e-04	
284	9.000000e-01	1.572450e-04	
285	9.500000e-01	1.612119e-04	
286	1.000000e+00	1.647687e-04	

Index   v-sweep         -i(vds)         
--------------------------------------------------------------------------------
287	1.050000e+00	1.679304e-04	
288	1.100000e+00	1.707161e-04	
289	1.150000e+00	1.731522e-04	
290	1.200000e+00	1.752756e-04	
291	1.250000e+00	1.771308e-04	
292	1.300000e+00	1.787632e-04	
293	1.350000e+00	1.802138e-04	
294	1.400000e+00	1.815163e-04	
295	1.450000e+00	1.826972e-04	
296	1.500000e+00	1.837776e-04	
297	1.550000e+00	1.847736e-04	
298	1.600000e+00	1.856983e-04	
299	1.650000e+00	1.865618e-04	
300	1.700000e+00	1.873723e-04	
301	1.750000e+00	1.881368e-04	
302	1.800000e+00	1.888606e-04	
303	1.850000e+00	1.895484e-04	
304	1.900000e+00	1.902041e-04	
305	1.950000e+00	1.908311e-04	
306	2.000000e+00	1.914320e-04	
307	2.050000e+00	1.920095e-04	
308	2.100000e+00	1.925655e-04	
309	2.150000e+00	1.931019e-04	
310	2.200000e+00	1.936204e-04	
311	2.250000e+00	1.941223e-04	
312	2.300000e+00	1.946089e-04	
313	2.350000e+00	1.950813e-04	
314	2.400000e+00	1.955406e-04	
315	2.450000e+00	1.959877e-04	
316	2.500000e+00	1.964233e-04	
317	2.550000e+00	1.968482e-04	
318	2.600000e+00	1.972631e-04	
319	2.650000e+00	1.976685e-04	
320	2.700000e+00	1.980651e-04	
321	2.750000e+00	1.984533e-04	
322	2.800000e+00	1.988336e-04	
323	2.850000e+00	1.992065e-04	
324	2.900000e+00	1.995723e-04	
325	2.950000e+00	1.999313e-04	
326	3.000000e+00	2.002840e-04	
327	3.050000e+00	2.006306e-04	
328	3.100000e+00	2.009715e-04	
329	3.150000e+00	2.013069e-04	
330	3.200000e+00	2.016370e-04	
331	3.250000e+00	2.019622e-04	
332	3.300000e+00	2.022826e-04	
333	3.350000e+00	2.025984e-04	
334	3.400000e+00	2.029100e-04	
335	3.450000e+00	2.032174e-04	
336	3.500000e+00	2.035210e-04	
337	3.550000e+00	2.038208e-04	
338	3.600000e+00	2.041171e-04	
339	3.650000e+00	2.044102e-04	
340	3.700000e+00	2.047003e-04	
341	3.750000e+00	2.049874e-04	
342	3.800000e+00	2.052721e-04	
343	3.850000e+00	2.055543e-04	
344	3.900000e+00	2.058346e-04	

Index   v-sweep         -i(vds)         
--------------------------------------------------------------------------------
345	3.950000e+00	2.061130e-04	
346	4.000000e+00	2.063901e-04	
347	4.050000e+00	2.066661e-04	
348	4.100000e+00	2.069413e-04	
349	4.150000e+00	2.072163e-04	
350	4.200000e+00	2.074915e-04	
351	4.250000e+00	2.077674e-04	
352	4.300000e+00	2.080445e-04	
353	4.350000e+00	2.083234e-04	
354	4.400000e+00	2.086048e-04	
355	4.450000e+00	2.088893e-04	
356	4.500000e+00	2.091778e-04	
357	4.550000e+00	2.094710e-04	
358	4.600000e+00	2.097698e-04	
359	4.650000e+00	2.100751e-04	
360	4.700000e+00	2.103881e-04	
361	4.750000e+00	2.107097e-04	
362	4.800000e+00	2.110411e-04	
363	4.850000e+00	2.113835e-04	
364	4.900000e+00	2.117383e-04	
365	4.950000e+00	2.121068e-04	
366	5.000000e+00	2.124906e-04	
367	5.050000e+00	2.128910e-04	
368	5.100000e+00	2.133099e-04	
369	5.150000e+00	2.137488e-04	
370	5.200000e+00	2.142095e-04	
371	5.250000e+00	2.146940e-04	
372	5.300000e+00	2.152042e-04	
373	5.350000e+00	2.157421e-04	
374	5.400000e+00	2.163098e-04	
375	5.450000e+00	2.169096e-04	
376	5.500000e+00	2.175437e-04	
377	5.550000e+00	2.182144e-04	
378	5.600000e+00	2.189244e-04	
379	5.650000e+00	2.196759e-04	
380	5.700000e+00	2.204718e-04	
381	5.750000e+00	2.213145e-04	
382	5.800000e+00	2.222070e-04	
383	5.850000e+00	2.231520e-04	
384	5.900000e+00	2.241524e-04	
385	5.950000e+00	2.252112e-04	
386	6.000000e+00	2.263315e-04	
387	6.050000e+00	2.275163e-04	
388	6.100000e+00	2.287689e-04	
389	6.150000e+00	2.300924e-04	
390	6.200000e+00	2.314901e-04	
391	6.250000e+00	2.329655e-04	
392	6.300000e+00	2.345219e-04	
393	6.350000e+00	2.361628e-04	
394	6.400000e+00	2.378918e-04	
395	6.450000e+00	2.397123e-04	
396	6.500000e+00	2.416280e-04	
397	6.550000e+00	2.436426e-04	
398	6.600000e+00	2.457598e-04	
399	0.000000e+00	-0.000000e+00	
400	5.000000e-02	1.717937e-05	
401	1.000000e-01	3.365974e-05	
402	1.500000e-01	4.947125e-05	

Index   v-sweep         -i(vds)         
--------------------------------------------------------------------------------
403	2.000000e-01	6.463499e-05	
404	2.500000e-01	7.916931e-05	
405	3.000000e-01	9.309137e-05	
406	3.500000e-01	1.064176e-04	
407	4.000000e-01	1.191637e-04	
408	4.500000e-01	1.313450e-04	
409	5.000000e-01	1.429761e-04	
410	5.500000e-01	1.540712e-04	
411	6.000000e-01	1.646438e-04	
412	6.500000e-01	1.747072e-04	
413	7.000000e-01	1.842740e-04	
414	7.500000e-01	1.933567e-04	
415	8.000000e-01	2.019670e-04	
416	8.500000e-01	2.101166e-04	
417	9.000000e-01	2.178167e-04	
418	9.500000e-01	2.250779e-04	
419	1.000000e+00	2.319109e-04	
420	1.050000e+00	2.383258e-04	
421	1.100000e+00	2.443321e-04	
422	1.150000e+00	2.499393e-04	
423	1.200000e+00	2.551559e-04	
424	1.250000e+00	2.599898e-04	
425	1.300000e+00	2.644476e-04	
426	1.350000e+00	2.685350e-04	
427	1.400000e+00	2.722562e-04	
428	1.450000e+00	2.756171e-04	
429	1.500000e+00	2.786282e-04	
430	1.550000e+00	2.813103e-04	
431	1.600000e+00	2.836947e-04	
432	1.650000e+00	2.858195e-04	
433	1.700000e+00	2.877233e-04	
434	1.750000e+00	2.894415e-04	
435	1.800000e+00	2.910037e-04	
436	1.850000e+00	2.924346e-04	
437	1.900000e+00	2.937542e-04	
438	1.950000e+00	2.949787e-04	
439	2.000000e+00	2.961210e-04	
440	2.050000e+00	2.971919e-04	
441	2.100000e+00	2.982004e-04	
442	2.150000e+00	2.991536e-04	
443	2.200000e+00	3.000579e-04	
444	2.250000e+00	3.009184e-04	
445	2.300000e+00	3.017395e-04	
446	2.350000e+00	3.025251e-04	
447	2.400000e+00	3.032784e-04	
448	2.450000e+00	3.040023e-04	
449	2.500000e+00	3.046993e-04	
450	2.550000e+00	3.053716e-04	
451	2.600000e+00	3.060211e-04	
452	2.650000e+00	3.066496e-04	
453	2.700000e+00	3.072587e-04	
454	2.750000e+00	3.078495e-04	
455	2.800000e+00	3.084236e-04	
456	2.850000e+00	3.089818e-04	
457	2.900000e+00	3.095253e-04	
458	2.950000e+00	3.100549e-04	
459	3.000000e+00	3.105715e-04	
460	3.050000e+00	3.110759e-04	

Index   v-sweep         -i(vds)         
--------------------------------------------------------------------------------
461	3.100000e+00	3.115687e-04	
462	3.150000e+00	3.120506e-04	
463	3.200000e+00	3.125221e-04	
464	3.250000e+00	3.129839e-04	
465	3.300000e+00	3.134364e-04	
466	3.350000e+00	3.138801e-04	
467	3.400000e+00	3.143154e-04	
468	3.450000e+00	3.147427e-04	
469	3.500000e+00	3.151625e-04	
470	3.550000e+00	3.155749e-04	
471	3.600000e+00	3.159805e-04	
472	3.650000e+00	3.163795e-04	
473	3.700000e+00	3.167723e-04	
474	3.750000e+00	3.171590e-04	
475	3.800000e+00	3.175401e-04	
476	3.850000e+00	3.179158e-04	
477	3.900000e+00	3.182865e-04	
478	3.950000e+00	3.186523e-04	
479	4.000000e+00	3.190136e-04	
480	4.050000e+00	3.193708e-04	
481	4.100000e+00	3.197241e-04	
482	4.150000e+00	3.200740e-04	
483	4.200000e+00	3.204208e-04	
484	4.250000e+00	3.207649e-04	
485	4.300000e+00	3.211067e-04	
486	4.350000e+00	3.214468e-04	
487	4.400000e+00	3.217857e-04	
488	4.450000e+00	3.221239e-04	
489	4.500000e+00	3.224622e-04	
490	4.550000e+00	3.228011e-04	
491	4.600000e+00	3.231415e-04	
492	4.650000e+00	3.234842e-04	
493	4.700000e+00	3.238301e-04	
494	4.750000e+00	3.241801e-04	
495	4.800000e+00	3.245355e-04	
496	4.850000e+00	3.248972e-04	
497	4.900000e+00	3.252666e-04	
498	4.950000e+00	3.256450e-04	
499	5.000000e+00	3.260339e-04	
500	5.050000e+00	3.264349e-04	
501	5.100000e+00	3.268495e-04	
502	5.150000e+00	3.272796e-04	
503	5.200000e+00	3.277271e-04	
504	5.250000e+00	3.281939e-04	
505	5.300000e+00	3.286822e-04	
506	5.350000e+00	3.291943e-04	
507	5.400000e+00	3.297325e-04	
508	5.450000e+00	3.302993e-04	
509	5.500000e+00	3.308973e-04	
510	5.550000e+00	3.315292e-04	
511	5.600000e+00	3.321980e-04	
512	5.650000e+00	3.329066e-04	
513	5.700000e+00	3.336581e-04	
514	5.750000e+00	3.344558e-04	
515	5.800000e+00	3.353031e-04	
516	5.850000e+00	3.362034e-04	
517	5.900000e+00	3.371604e-04	
518	5.950000e+00	3.381778e-04	

Index   v-sweep         -i(vds)         
--------------------------------------------------------------------------------
519	6.000000e+00	3.392594e-04	
520	6.050000e+00	3.404093e-04	
521	6.100000e+00	3.416315e-04	
522	6.150000e+00	3.429302e-04	
523	6.200000e+00	3.443097e-04	
524	6.250000e+00	3.457745e-04	
525	6.300000e+00	3.473290e-04	
526	6.350000e+00	3.489780e-04	
527	6.400000e+00	3.507261e-04	
528	6.450000e+00	3.525782e-04	
529	6.500000e+00	3.545392e-04	
530	6.550000e+00	3.566140e-04	
531	6.600000e+00	3.588079e-04	
532	0.000000e+00	-0.000000e+00	
533	5.000000e-02	1.952004e-05	
534	1.000000e-01	3.837593e-05	
535	1.500000e-01	5.659516e-05	
536	2.000000e-01	7.419634e-05	
537	2.500000e-01	9.119545e-05	
538	3.000000e-01	1.076074e-04	
539	3.500000e-01	1.234467e-04	
540	4.000000e-01	1.387269e-04	
541	4.500000e-01	1.534615e-04	
542	5.000000e-01	1.676635e-04	
543	5.500000e-01	1.813452e-04	
544	6.000000e-01	1.945188e-04	
545	6.500000e-01	2.071960e-04	
546	7.000000e-01	2.193881e-04	
547	7.500000e-01	2.311061e-04	
548	8.000000e-01	2.423605e-04	
549	8.500000e-01	2.531616e-04	
550	9.000000e-01	2.635196e-04	
551	9.500000e-01	2.734440e-04	
552	1.000000e+00	2.829443e-04	
553	1.050000e+00	2.920296e-04	
554	1.100000e+00	3.007089e-04	
555	1.150000e+00	3.089908e-04	
556	1.200000e+00	3.168837e-04	
557	1.250000e+00	3.243957e-04	
558	1.300000e+00	3.315347e-04	
559	1.350000e+00	3.383082e-04	
560	1.400000e+00	3.447234e-04	
561	1.450000e+00	3.507870e-04	
562	1.500000e+00	3.565051e-04	
563	1.550000e+00	3.618826e-04	
564	1.600000e+00	3.669236e-04	
565	1.650000e+00	3.716301e-04	
566	1.700000e+00	3.760021e-04	
567	1.750000e+00	3.800379e-04	
568	1.800000e+00	3.837365e-04	
569	1.850000e+00	3.871012e-04	
570	1.900000e+00	3.901444e-04	
571	1.950000e+00	3.928890e-04	
572	2.000000e+00	3.953653e-04	
573	2.050000e+00	3.976068e-04	
574	2.100000e+00	3.996460e-04	
575	2.150000e+00	4.015116e-04	
576	2.200000e+00	4.032285e-04	

Index   v-sweep         -i(vds)         
--------------------------------------------------------------------------------
577	2.250000e+00	4.048174e-04	
578	2.300000e+00	4.062956e-04	
579	2.350000e+00	4.076775e-04	
580	2.400000e+00	4.089750e-04	
581	2.450000e+00	4.101980e-04	
582	2.500000e+00	4.113550e-04	
583	2.550000e+00	4.124529e-04	
584	2.600000e+00	4.134980e-04	
585	2.650000e+00	4.144953e-04	
586	2.700000e+00	4.154494e-04	
587	2.750000e+00	4.163642e-04	
588	2.800000e+00	4.172430e-04	
589	2.850000e+00	4.180888e-04	
590	2.900000e+00	4.189042e-04	
591	2.950000e+00	4.196917e-04	
592	3.000000e+00	4.204532e-04	
593	3.050000e+00	4.211907e-04	
594	3.100000e+00	4.219057e-04	
595	3.150000e+00	4.225998e-04	
596	3.200000e+00	4.232744e-04	
597	3.250000e+00	4.239307e-04	
598	3.300000e+00	4.245697e-04	
599	3.350000e+00	4.251926e-04	
600	3.400000e+00	4.258002e-04	
601	3.450000e+00	4.263935e-04	
602	3.500000e+00	4.269731e-04	
603	3.550000e+00	4.275398e-04	
604	3.600000e+00	4.280943e-04	
605	3.650000e+00	4.286372e-04	
606	3.700000e+00	4.291691e-04	
607	3.750000e+00	4.296905e-04	
608	3.800000e+00	4.302019e-04	
609	3.850000e+00	4.307037e-04	
610	3.900000e+00	4.311966e-04	
611	3.950000e+00	4.316807e-04	
612	4.000000e+00	4.321566e-04	
613	4.050000e+00	4.326247e-04	
614	4.100000e+00	4.330853e-04	
615	4.150000e+00	4.335387e-04	
616	4.200000e+00	4.339855e-04	
617	4.250000e+00	4.344259e-04	
618	4.300000e+00	4.348603e-04	
619	4.350000e+00	4.352891e-04	
620	4.400000e+00	4.357128e-04	
621	4.450000e+00	4.361318e-04	
622	4.500000e+00	4.365465e-04	
623	4.550000e+00	4.369575e-04	
624	4.600000e+00	4.373653e-04	
625	4.650000e+00	4.377705e-04	
626	4.700000e+00	4.381737e-04	
627	4.750000e+00	4.385758e-04	
628	4.800000e+00	4.389774e-04	
629	4.850000e+00	4.393794e-04	
630	4.900000e+00	4.397829e-04	
631	4.950000e+00	4.401887e-04	
632	5.000000e+00	4.405981e-04	
633	5.050000e+00	4.410123e-04	
634	5.100000e+00	4.414326e-04	

Index   v-sweep         -i(vds)         
--------------------------------------------------------------------------------
635	5.150000e+00	4.418605e-04	
636	5.200000e+00	4.422975e-04	
637	5.250000e+00	4.427455e-04	
638	5.300000e+00	4.432061e-04	
639	5.350000e+00	4.436815e-04	
640	5.400000e+00	4.441737e-04	
641	5.450000e+00	4.446850e-04	
642	5.500000e+00	4.452178e-04	
643	5.550000e+00	4.457746e-04	
644	5.600000e+00	4.463583e-04	
645	5.650000e+00	4.469717e-04	
646	5.700000e+00	4.476179e-04	
647	5.750000e+00	4.483001e-04	
648	5.800000e+00	4.490216e-04	
649	5.850000e+00	4.497861e-04	
650	5.900000e+00	4.505972e-04	
651	5.950000e+00	4.514589e-04	
652	6.000000e+00	4.523752e-04	
653	6.050000e+00	4.533504e-04	
654	6.100000e+00	4.543888e-04	
655	6.150000e+00	4.554951e-04	
656	6.200000e+00	4.566739e-04	
657	6.250000e+00	4.579302e-04	
658	6.300000e+00	4.592690e-04	
659	6.350000e+00	4.606956e-04	
660	6.400000e+00	4.622153e-04	
661	6.450000e+00	4.638337e-04	
662	6.500000e+00	4.655565e-04	
663	6.550000e+00	4.673894e-04	
664	6.600000e+00	4.693385e-04	
665	0.000000e+00	-0.000000e+00	
666	5.000000e-02	2.104506e-05	
667	1.000000e-01	4.147591e-05	
668	1.500000e-01	6.131726e-05	
669	2.000000e-01	8.058504e-05	
670	2.500000e-01	9.929272e-05	
671	3.000000e-01	1.174528e-04	
672	3.500000e-01	1.350775e-04	
673	4.000000e-01	1.521782e-04	
674	4.500000e-01	1.687665e-04	
675	5.000000e-01	1.848532e-04	
676	5.500000e-01	2.004490e-04	
677	6.000000e-01	2.155642e-04	
678	6.500000e-01	2.302088e-04	
679	7.000000e-01	2.443926e-04	
680	7.500000e-01	2.581250e-04	
681	8.000000e-01	2.714152e-04	
682	8.500000e-01	2.842720e-04	
683	9.000000e-01	2.967043e-04	
684	9.500000e-01	3.087203e-04	
685	1.000000e+00	3.203283e-04	
686	1.050000e+00	3.315363e-04	
687	1.100000e+00	3.423521e-04	
688	1.150000e+00	3.527832e-04	
689	1.200000e+00	3.628369e-04	
690	1.250000e+00	3.725206e-04	
691	1.300000e+00	3.818413e-04	
692	1.350000e+00	3.908057e-04	

Index   v-sweep         -i(vds)         
--------------------------------------------------------------------------------
693	1.400000e+00	3.994207e-04	
694	1.450000e+00	4.076926e-04	
695	1.500000e+00	4.156278e-04	
696	1.550000e+00	4.232325e-04	
697	1.600000e+00	4.305126e-04	
698	1.650000e+00	4.374738e-04	
699	1.700000e+00	4.441214e-04	
700	1.750000e+00	4.504604e-04	
701	1.800000e+00	4.564955e-04	
702	1.850000e+00	4.622301e-04	
703	1.900000e+00	4.676672e-04	
704	1.950000e+00	4.728080e-04	
705	2.000000e+00	4.776518e-04	
706	2.050000e+00	4.821960e-04	
707	2.100000e+00	4.864360e-04	
708	2.150000e+00	4.903675e-04	
709	2.200000e+00	4.939895e-04	
710	2.250000e+00	4.973083e-04	
711	2.300000e+00	5.003393e-04	
712	2.350000e+00	5.031052e-04	
713	2.400000e+00	5.056334e-04	
714	2.450000e+00	5.079517e-04	
715	2.500000e+00	5.100865e-04	
716	2.550000e+00	5.120614e-04	
717	2.600000e+00	5.138968e-04	
718	2.650000e+00	5.156101e-04	
719	2.700000e+00	5.172161e-04	
720	2.750000e+00	5.187273e-04	
721	2.800000e+00	5.201543e-04	
722	2.850000e+00	5.215062e-04	
723	2.900000e+00	5.227907e-04	
724	2.950000e+00	5.240143e-04	
725	3.000000e+00	5.251830e-04	
726	3.050000e+00	5.263017e-04	
727	3.100000e+00	5.273746e-04	
728	3.150000e+00	5.284058e-04	
729	3.200000e+00	5.293984e-04	
730	3.250000e+00	5.303556e-04	
731	3.300000e+00	5.312800e-04	
732	3.350000e+00	5.321739e-04	
733	3.400000e+00	5.330395e-04	
734	3.450000e+00	5.338787e-04	
735	3.500000e+00	5.346932e-04	
736	3.550000e+00	5.354846e-04	
737	3.600000e+00	5.362544e-04	
738	3.650000e+00	5.370038e-04	
739	3.700000e+00	5.377340e-04	
740	3.750000e+00	5.384461e-04	
741	3.800000e+00	5.391411e-04	
742	3.850000e+00	5.398199e-04	
743	3.900000e+00	5.404833e-04	
744	3.950000e+00	5.411322e-04	
745	4.000000e+00	5.417673e-04	
746	4.050000e+00	5.423892e-04	
747	4.100000e+00	5.429986e-04	
748	4.150000e+00	5.435960e-04	
749	4.200000e+00	5.441821e-04	
750	4.250000e+00	5.447573e-04	

Index   v-sweep         -i(vds)         
--------------------------------------------------------------------------------
751	4.300000e+00	5.453221e-04	
752	4.350000e+00	5.458771e-04	
753	4.400000e+00	5.464227e-04	
754	4.450000e+00	5.469593e-04	
755	4.500000e+00	5.474874e-04	
756	4.550000e+00	5.480075e-04	
757	4.600000e+00	5.485199e-04	
758	4.650000e+00	5.490252e-04	
759	4.700000e+00	5.495238e-04	
760	4.750000e+00	5.500163e-04	
761	4.800000e+00	5.505031e-04	
762	4.850000e+00	5.509849e-04	
763	4.900000e+00	5.514623e-04	
764	4.950000e+00	5.519360e-04	
765	5.000000e+00	5.524066e-04	
766	5.050000e+00	5.528751e-04	
767	5.100000e+00	5.533423e-04	
768	5.150000e+00	5.538091e-04	
769	5.200000e+00	5.542768e-04	
770	5.250000e+00	5.547463e-04	
771	5.300000e+00	5.552191e-04	
772	5.350000e+00	5.556966e-04	
773	5.400000e+00	5.561802e-04	
774	5.450000e+00	5.566718e-04	
775	5.500000e+00	5.571730e-04	
776	5.550000e+00	5.576859e-04	
777	5.600000e+00	5.582127e-04	
778	5.650000e+00	5.587555e-04	
779	5.700000e+00	5.593170e-04	
780	5.750000e+00	5.598998e-04	
781	5.800000e+00	5.605067e-04	
782	5.850000e+00	5.611407e-04	
783	5.900000e+00	5.618051e-04	
784	5.950000e+00	5.625033e-04	
785	6.000000e+00	5.632389e-04	
786	6.050000e+00	5.640158e-04	
787	6.100000e+00	5.648380e-04	
788	6.150000e+00	5.657098e-04	
789	6.200000e+00	5.666356e-04	
790	6.250000e+00	5.676201e-04	
791	6.300000e+00	5.686681e-04	
792	6.350000e+00	5.697849e-04	
793	6.400000e+00	5.709756e-04	
794	6.450000e+00	5.722458e-04	
795	6.500000e+00	5.736013e-04	
796	6.550000e+00	5.750480e-04	
797	6.600000e+00	5.765920e-04	
Note: No ".plot", ".print", or ".fourier" lines; no simulations run
