
Note: Compatibility modes selected: hs

Warning: m=xx on .subckt line will override multiplier m hierarchy!


Circuit: ***************************

Doing analysis at TEMP = -40.000000 and TNOM = -40.000000


No. of Data Rows : 798
                          ***************************
                          DC transfer characteristic  Mon Jan  9 13:57:41  2023
--------------------------------------------------------------------------------
Index   v-sweep         -i(vds)         
--------------------------------------------------------------------------------
0	0.000000e+00	-0.000000e+00	
1	5.000000e-02	1.993610e-06	
2	1.000000e-01	3.145428e-06	
3	1.500000e-01	3.669038e-06	
4	2.000000e-01	3.909661e-06	
5	2.500000e-01	4.062674e-06	
6	3.000000e-01	4.181601e-06	
7	3.500000e-01	4.282285e-06	
8	4.000000e-01	4.371326e-06	
9	4.500000e-01	4.452190e-06	
10	5.000000e-01	4.526964e-06	
11	5.500000e-01	4.597019e-06	
12	6.000000e-01	4.663306e-06	
13	6.500000e-01	4.726516e-06	
14	7.000000e-01	4.787167e-06	
15	7.500000e-01	4.845659e-06	
16	8.000000e-01	4.902303e-06	
17	8.500000e-01	4.957353e-06	
18	9.000000e-01	5.011011e-06	
19	9.500000e-01	5.063447e-06	
20	1.000000e+00	5.114800e-06	
21	1.050000e+00	5.165189e-06	
22	1.100000e+00	5.214714e-06	
23	1.150000e+00	5.263462e-06	
24	1.200000e+00	5.311506e-06	
25	1.250000e+00	5.358911e-06	
26	1.300000e+00	5.405734e-06	
27	1.350000e+00	5.452024e-06	
28	1.400000e+00	5.497825e-06	
29	1.450000e+00	5.543176e-06	
30	1.500000e+00	5.588111e-06	
31	1.550000e+00	5.632662e-06	
32	1.600000e+00	5.676856e-06	
33	1.650000e+00	5.720719e-06	
34	1.700000e+00	5.764274e-06	
35	1.750000e+00	5.807540e-06	
36	1.800000e+00	5.850537e-06	
37	1.850000e+00	5.893282e-06	
38	1.900000e+00	5.935791e-06	
39	1.950000e+00	5.978078e-06	
40	2.000000e+00	6.020155e-06	
41	2.050000e+00	6.062037e-06	
42	2.100000e+00	6.103733e-06	
43	2.150000e+00	6.145254e-06	
44	2.200000e+00	6.186611e-06	
45	2.250000e+00	6.227811e-06	
46	2.300000e+00	6.268865e-06	
47	2.350000e+00	6.309779e-06	
48	2.400000e+00	6.350563e-06	
49	2.450000e+00	6.391223e-06	
50	2.500000e+00	6.431767e-06	
51	2.550000e+00	6.472203e-06	
52	2.600000e+00	6.512537e-06	
53	2.650000e+00	6.552778e-06	
54	2.700000e+00	6.592932e-06	

Index   v-sweep         -i(vds)         
--------------------------------------------------------------------------------
55	2.750000e+00	6.633008e-06	
56	2.800000e+00	6.673013e-06	
57	2.850000e+00	6.712958e-06	
58	2.900000e+00	6.752851e-06	
59	2.950000e+00	6.792703e-06	
60	3.000000e+00	6.832525e-06	
61	3.050000e+00	6.872329e-06	
62	3.100000e+00	6.912129e-06	
63	3.150000e+00	6.951939e-06	
64	3.200000e+00	6.991776e-06	
65	3.250000e+00	7.031658e-06	
66	3.300000e+00	7.071603e-06	
67	3.350000e+00	7.111633e-06	
68	3.400000e+00	7.151773e-06	
69	3.450000e+00	7.192047e-06	
70	3.500000e+00	7.232484e-06	
71	3.550000e+00	7.273114e-06	
72	3.600000e+00	7.313971e-06	
73	3.650000e+00	7.355089e-06	
74	3.700000e+00	7.396509e-06	
75	3.750000e+00	7.438271e-06	
76	3.800000e+00	7.480420e-06	
77	3.850000e+00	7.523006e-06	
78	3.900000e+00	7.566078e-06	
79	3.950000e+00	7.609694e-06	
80	4.000000e+00	7.653910e-06	
81	4.050000e+00	7.698789e-06	
82	4.100000e+00	7.744398e-06	
83	4.150000e+00	7.790807e-06	
84	4.200000e+00	7.838089e-06	
85	4.250000e+00	7.886322e-06	
86	4.300000e+00	7.935589e-06	
87	4.350000e+00	7.985975e-06	
88	4.400000e+00	8.037572e-06	
89	4.450000e+00	8.090473e-06	
90	4.500000e+00	8.144778e-06	
91	4.550000e+00	8.200589e-06	
92	4.600000e+00	8.258015e-06	
93	4.650000e+00	8.317167e-06	
94	4.700000e+00	8.378161e-06	
95	4.750000e+00	8.441119e-06	
96	4.800000e+00	8.506164e-06	
97	4.850000e+00	8.573426e-06	
98	4.900000e+00	8.643039e-06	
99	4.950000e+00	8.715142e-06	
100	5.000000e+00	8.789875e-06	
101	5.050000e+00	8.867386e-06	
102	5.100000e+00	8.947825e-06	
103	5.150000e+00	9.031348e-06	
104	5.200000e+00	9.118113e-06	
105	5.250000e+00	9.208284e-06	
106	5.300000e+00	9.302028e-06	
107	5.350000e+00	9.399517e-06	
108	5.400000e+00	9.500925e-06	
109	5.450000e+00	9.606433e-06	
110	5.500000e+00	9.716222e-06	
111	5.550000e+00	9.830480e-06	
112	5.600000e+00	9.949397e-06	

Index   v-sweep         -i(vds)         
--------------------------------------------------------------------------------
113	5.650000e+00	1.007317e-05	
114	5.700000e+00	1.020199e-05	
115	5.750000e+00	1.033606e-05	
116	5.800000e+00	1.047559e-05	
117	5.850000e+00	1.062079e-05	
118	5.900000e+00	1.077186e-05	
119	5.950000e+00	1.092902e-05	
120	6.000000e+00	1.109249e-05	
121	6.050000e+00	1.126248e-05	
122	6.100000e+00	1.143923e-05	
123	6.150000e+00	1.162295e-05	
124	6.200000e+00	1.181388e-05	
125	6.250000e+00	1.201225e-05	
126	6.300000e+00	1.221829e-05	
127	6.350000e+00	1.243224e-05	
128	6.400000e+00	1.265433e-05	
129	6.450000e+00	1.288482e-05	
130	6.500000e+00	1.312393e-05	
131	6.550000e+00	1.337193e-05	
132	6.600000e+00	1.362905e-05	
133	0.000000e+00	-0.000000e+00	
134	5.000000e-02	1.204102e-05	
135	1.000000e-01	2.296191e-05	
136	1.500000e-01	3.281500e-05	
137	2.000000e-01	4.164930e-05	
138	2.500000e-01	4.951075e-05	
139	3.000000e-01	5.644230e-05	
140	3.500000e-01	6.248400e-05	
141	4.000000e-01	6.767281e-05	
142	4.500000e-01	7.204234e-05	
143	5.000000e-01	7.562415e-05	
144	5.500000e-01	7.845798e-05	
145	6.000000e-01	8.062008e-05	
146	6.500000e-01	8.224237e-05	
147	7.000000e-01	8.347704e-05	
148	7.500000e-01	8.444812e-05	
149	8.000000e-01	8.523948e-05	
150	8.500000e-01	8.590460e-05	
151	9.000000e-01	8.647782e-05	
152	9.500000e-01	8.698179e-05	
153	1.000000e+00	8.743205e-05	
154	1.050000e+00	8.783957e-05	
155	1.100000e+00	8.821236e-05	
156	1.150000e+00	8.855642e-05	
157	1.200000e+00	8.887633e-05	
158	1.250000e+00	8.917569e-05	
159	1.300000e+00	8.945736e-05	
160	1.350000e+00	8.972364e-05	
161	1.400000e+00	8.997642e-05	
162	1.450000e+00	9.021727e-05	
163	1.500000e+00	9.044749e-05	
164	1.550000e+00	9.066819e-05	
165	1.600000e+00	9.088032e-05	
166	1.650000e+00	9.108469e-05	
167	1.700000e+00	9.128200e-05	
168	1.750000e+00	9.147286e-05	
169	1.800000e+00	9.165781e-05	
170	1.850000e+00	9.183733e-05	

Index   v-sweep         -i(vds)         
--------------------------------------------------------------------------------
171	1.900000e+00	9.201182e-05	
172	1.950000e+00	9.218167e-05	
173	2.000000e+00	9.234720e-05	
174	2.050000e+00	9.250871e-05	
175	2.100000e+00	9.266648e-05	
176	2.150000e+00	9.282075e-05	
177	2.200000e+00	9.297173e-05	
178	2.250000e+00	9.311962e-05	
179	2.300000e+00	9.326462e-05	
180	2.350000e+00	9.340688e-05	
181	2.400000e+00	9.354656e-05	
182	2.450000e+00	9.368379e-05	
183	2.500000e+00	9.381873e-05	
184	2.550000e+00	9.395147e-05	
185	2.600000e+00	9.408214e-05	
186	2.650000e+00	9.421084e-05	
187	2.700000e+00	9.433767e-05	
188	2.750000e+00	9.446273e-05	
189	2.800000e+00	9.458610e-05	
190	2.850000e+00	9.470788e-05	
191	2.900000e+00	9.482815e-05	
192	2.950000e+00	9.494700e-05	
193	3.000000e+00	9.506450e-05	
194	3.050000e+00	9.518075e-05	
195	3.100000e+00	9.529584e-05	
196	3.150000e+00	9.540986e-05	
197	3.200000e+00	9.552290e-05	
198	3.250000e+00	9.563507e-05	
199	3.300000e+00	9.574649e-05	
200	3.350000e+00	9.585728e-05	
201	3.400000e+00	9.596756e-05	
202	3.450000e+00	9.607748e-05	
203	3.500000e+00	9.618721e-05	
204	3.550000e+00	9.629691e-05	
205	3.600000e+00	9.640677e-05	
206	3.650000e+00	9.651701e-05	
207	3.700000e+00	9.662784e-05	
208	3.750000e+00	9.673953e-05	
209	3.800000e+00	9.685235e-05	
210	3.850000e+00	9.696658e-05	
211	3.900000e+00	9.708256e-05	
212	3.950000e+00	9.720063e-05	
213	4.000000e+00	9.732118e-05	
214	4.050000e+00	9.744460e-05	
215	4.100000e+00	9.757134e-05	
216	4.150000e+00	9.770187e-05	
217	4.200000e+00	9.783669e-05	
218	4.250000e+00	9.797633e-05	
219	4.300000e+00	9.812137e-05	
220	4.350000e+00	9.827242e-05	
221	4.400000e+00	9.843012e-05	
222	4.450000e+00	9.859514e-05	
223	4.500000e+00	9.876820e-05	
224	4.550000e+00	9.895006e-05	
225	4.600000e+00	9.914151e-05	
226	4.650000e+00	9.934338e-05	
227	4.700000e+00	9.955654e-05	
228	4.750000e+00	9.978189e-05	

Index   v-sweep         -i(vds)         
--------------------------------------------------------------------------------
229	4.800000e+00	1.000204e-04	
230	4.850000e+00	1.002730e-04	
231	4.900000e+00	1.005407e-04	
232	4.950000e+00	1.008247e-04	
233	5.000000e+00	1.011259e-04	
234	5.050000e+00	1.014456e-04	
235	5.100000e+00	1.017849e-04	
236	5.150000e+00	1.021450e-04	
237	5.200000e+00	1.025271e-04	
238	5.250000e+00	1.029325e-04	
239	5.300000e+00	1.033626e-04	
240	5.350000e+00	1.038186e-04	
241	5.400000e+00	1.043020e-04	
242	5.450000e+00	1.048141e-04	
243	5.500000e+00	1.053565e-04	
244	5.550000e+00	1.059304e-04	
245	5.600000e+00	1.065375e-04	
246	5.650000e+00	1.071793e-04	
247	5.700000e+00	1.078573e-04	
248	5.750000e+00	1.085731e-04	
249	5.800000e+00	1.093283e-04	
250	5.850000e+00	1.101245e-04	
251	5.900000e+00	1.109634e-04	
252	5.950000e+00	1.118466e-04	
253	6.000000e+00	1.127759e-04	
254	6.050000e+00	1.137529e-04	
255	6.100000e+00	1.147793e-04	
256	6.150000e+00	1.158569e-04	
257	6.200000e+00	1.169875e-04	
258	6.250000e+00	1.181728e-04	
259	6.300000e+00	1.194147e-04	
260	6.350000e+00	1.207149e-04	
261	6.400000e+00	1.220752e-04	
262	6.450000e+00	1.234975e-04	
263	6.500000e+00	1.249835e-04	
264	6.550000e+00	1.265353e-04	
265	6.600000e+00	1.281545e-04	
266	0.000000e+00	-0.000000e+00	
267	5.000000e-02	1.947303e-05	
268	1.000000e-01	3.770143e-05	
269	1.500000e-01	5.474204e-05	
270	2.000000e-01	7.064814e-05	
271	2.500000e-01	8.546967e-05	
272	3.000000e-01	9.925336e-05	
273	3.500000e-01	1.120429e-04	
274	4.000000e-01	1.238791e-04	
275	4.500000e-01	1.347999e-04	
276	5.000000e-01	1.448405e-04	
277	5.500000e-01	1.540332e-04	
278	6.000000e-01	1.624064e-04	
279	6.500000e-01	1.699838e-04	
280	7.000000e-01	1.767816e-04	
281	7.500000e-01	1.828051e-04	
282	8.000000e-01	1.880455e-04	
283	8.500000e-01	1.924857e-04	
284	9.000000e-01	1.961276e-04	
285	9.500000e-01	1.990314e-04	
286	1.000000e+00	2.013204e-04	

Index   v-sweep         -i(vds)         
--------------------------------------------------------------------------------
287	1.050000e+00	2.031391e-04	
288	1.100000e+00	2.046129e-04	
289	1.150000e+00	2.058351e-04	
290	1.200000e+00	2.068715e-04	
291	1.250000e+00	2.077675e-04	
292	1.300000e+00	2.085550e-04	
293	1.350000e+00	2.092568e-04	
294	1.400000e+00	2.098897e-04	
295	1.450000e+00	2.104659e-04	
296	1.500000e+00	2.109950e-04	
297	1.550000e+00	2.114844e-04	
298	1.600000e+00	2.119398e-04	
299	1.650000e+00	2.123659e-04	
300	1.700000e+00	2.127664e-04	
301	1.750000e+00	2.131446e-04	
302	1.800000e+00	2.135029e-04	
303	1.850000e+00	2.138436e-04	
304	1.900000e+00	2.141684e-04	
305	1.950000e+00	2.144790e-04	
306	2.000000e+00	2.147766e-04	
307	2.050000e+00	2.150626e-04	
308	2.100000e+00	2.153378e-04	
309	2.150000e+00	2.156032e-04	
310	2.200000e+00	2.158595e-04	
311	2.250000e+00	2.161075e-04	
312	2.300000e+00	2.163478e-04	
313	2.350000e+00	2.165809e-04	
314	2.400000e+00	2.168074e-04	
315	2.450000e+00	2.170276e-04	
316	2.500000e+00	2.172420e-04	
317	2.550000e+00	2.174510e-04	
318	2.600000e+00	2.176548e-04	
319	2.650000e+00	2.178538e-04	
320	2.700000e+00	2.180483e-04	
321	2.750000e+00	2.182386e-04	
322	2.800000e+00	2.184247e-04	
323	2.850000e+00	2.186071e-04	
324	2.900000e+00	2.187858e-04	
325	2.950000e+00	2.189612e-04	
326	3.000000e+00	2.191332e-04	
327	3.050000e+00	2.193022e-04	
328	3.100000e+00	2.194683e-04	
329	3.150000e+00	2.196316e-04	
330	3.200000e+00	2.197924e-04	
331	3.250000e+00	2.199507e-04	
332	3.300000e+00	2.201067e-04	
333	3.350000e+00	2.202606e-04	
334	3.400000e+00	2.204125e-04	
335	3.450000e+00	2.205627e-04	
336	3.500000e+00	2.207113e-04	
337	3.550000e+00	2.208586e-04	
338	3.600000e+00	2.210047e-04	
339	3.650000e+00	2.211499e-04	
340	3.700000e+00	2.212945e-04	
341	3.750000e+00	2.214388e-04	
342	3.800000e+00	2.215831e-04	
343	3.850000e+00	2.217278e-04	
344	3.900000e+00	2.218733e-04	

Index   v-sweep         -i(vds)         
--------------------------------------------------------------------------------
345	3.950000e+00	2.220199e-04	
346	4.000000e+00	2.221683e-04	
347	4.050000e+00	2.223190e-04	
348	4.100000e+00	2.224725e-04	
349	4.150000e+00	2.226295e-04	
350	4.200000e+00	2.227906e-04	
351	4.250000e+00	2.229567e-04	
352	4.300000e+00	2.231286e-04	
353	4.350000e+00	2.233071e-04	
354	4.400000e+00	2.234933e-04	
355	4.450000e+00	2.236881e-04	
356	4.500000e+00	2.238927e-04	
357	4.550000e+00	2.241082e-04	
358	4.600000e+00	2.243359e-04	
359	4.650000e+00	2.245771e-04	
360	4.700000e+00	2.248333e-04	
361	4.750000e+00	2.251059e-04	
362	4.800000e+00	2.253966e-04	
363	4.850000e+00	2.257069e-04	
364	4.900000e+00	2.260386e-04	
365	4.950000e+00	2.263936e-04	
366	5.000000e+00	2.267738e-04	
367	5.050000e+00	2.271812e-04	
368	5.100000e+00	2.276178e-04	
369	5.150000e+00	2.280858e-04	
370	5.200000e+00	2.285875e-04	
371	5.250000e+00	2.291252e-04	
372	5.300000e+00	2.297014e-04	
373	5.350000e+00	2.303185e-04	
374	5.400000e+00	2.309791e-04	
375	5.450000e+00	2.316859e-04	
376	5.500000e+00	2.324415e-04	
377	5.550000e+00	2.332489e-04	
378	5.600000e+00	2.341108e-04	
379	5.650000e+00	2.350303e-04	
380	5.700000e+00	2.360103e-04	
381	5.750000e+00	2.370540e-04	
382	5.800000e+00	2.381645e-04	
383	5.850000e+00	2.393450e-04	
384	5.900000e+00	2.405988e-04	
385	5.950000e+00	2.419292e-04	
386	6.000000e+00	2.433397e-04	
387	6.050000e+00	2.448337e-04	
388	6.100000e+00	2.464147e-04	
389	6.150000e+00	2.480863e-04	
390	6.200000e+00	2.498520e-04	
391	6.250000e+00	2.517155e-04	
392	6.300000e+00	2.536805e-04	
393	6.350000e+00	2.557507e-04	
394	6.400000e+00	2.579298e-04	
395	6.450000e+00	2.602218e-04	
396	6.500000e+00	2.626303e-04	
397	6.550000e+00	2.651593e-04	
398	6.600000e+00	2.678126e-04	
399	0.000000e+00	-0.000000e+00	
400	5.000000e-02	2.514431e-05	
401	1.000000e-01	4.899534e-05	
402	1.500000e-01	7.160850e-05	

Index   v-sweep         -i(vds)         
--------------------------------------------------------------------------------
403	2.000000e-01	9.303599e-05	
404	2.500000e-01	1.133270e-04	
405	3.000000e-01	1.325277e-04	
406	3.500000e-01	1.506816e-04	
407	4.000000e-01	1.678296e-04	
408	4.500000e-01	1.840099e-04	
409	5.000000e-01	1.992585e-04	
410	5.500000e-01	2.136091e-04	
411	6.000000e-01	2.270936e-04	
412	6.500000e-01	2.397416e-04	
413	7.000000e-01	2.515804e-04	
414	7.500000e-01	2.626354e-04	
415	8.000000e-01	2.729287e-04	
416	8.500000e-01	2.824789e-04	
417	9.000000e-01	2.912985e-04	
418	9.500000e-01	2.993920e-04	
419	1.000000e+00	3.067513e-04	
420	1.050000e+00	3.133521e-04	
421	1.100000e+00	3.191553e-04	
422	1.150000e+00	3.241248e-04	
423	1.200000e+00	3.282622e-04	
424	1.250000e+00	3.316352e-04	
425	1.300000e+00	3.343660e-04	
426	1.350000e+00	3.365909e-04	
427	1.400000e+00	3.384305e-04	
428	1.450000e+00	3.399785e-04	
429	1.500000e+00	3.413041e-04	
430	1.550000e+00	3.424575e-04	
431	1.600000e+00	3.434753e-04	
432	1.650000e+00	3.443842e-04	
433	1.700000e+00	3.452046e-04	
434	1.750000e+00	3.459517e-04	
435	1.800000e+00	3.466372e-04	
436	1.850000e+00	3.472707e-04	
437	1.900000e+00	3.478594e-04	
438	1.950000e+00	3.484093e-04	
439	2.000000e+00	3.489255e-04	
440	2.050000e+00	3.494118e-04	
441	2.100000e+00	3.498718e-04	
442	2.150000e+00	3.503082e-04	
443	2.200000e+00	3.507235e-04	
444	2.250000e+00	3.511198e-04	
445	2.300000e+00	3.514987e-04	
446	2.350000e+00	3.518620e-04	
447	2.400000e+00	3.522110e-04	
448	2.450000e+00	3.525468e-04	
449	2.500000e+00	3.528704e-04	
450	2.550000e+00	3.531829e-04	
451	2.600000e+00	3.534851e-04	
452	2.650000e+00	3.537776e-04	
453	2.700000e+00	3.540612e-04	
454	2.750000e+00	3.543365e-04	
455	2.800000e+00	3.546039e-04	
456	2.850000e+00	3.548641e-04	
457	2.900000e+00	3.551174e-04	
458	2.950000e+00	3.553642e-04	
459	3.000000e+00	3.556050e-04	
460	3.050000e+00	3.558400e-04	

Index   v-sweep         -i(vds)         
--------------------------------------------------------------------------------
461	3.100000e+00	3.560696e-04	
462	3.150000e+00	3.562941e-04	
463	3.200000e+00	3.565138e-04	
464	3.250000e+00	3.567288e-04	
465	3.300000e+00	3.569396e-04	
466	3.350000e+00	3.571462e-04	
467	3.400000e+00	3.573490e-04	
468	3.450000e+00	3.575481e-04	
469	3.500000e+00	3.577438e-04	
470	3.550000e+00	3.579363e-04	
471	3.600000e+00	3.581258e-04	
472	3.650000e+00	3.583127e-04	
473	3.700000e+00	3.584971e-04	
474	3.750000e+00	3.586793e-04	
475	3.800000e+00	3.588596e-04	
476	3.850000e+00	3.590385e-04	
477	3.900000e+00	3.592161e-04	
478	3.950000e+00	3.593930e-04	
479	4.000000e+00	3.595696e-04	
480	4.050000e+00	3.597463e-04	
481	4.100000e+00	3.599238e-04	
482	4.150000e+00	3.601025e-04	
483	4.200000e+00	3.602833e-04	
484	4.250000e+00	3.604668e-04	
485	4.300000e+00	3.606539e-04	
486	4.350000e+00	3.608455e-04	
487	4.400000e+00	3.610424e-04	
488	4.450000e+00	3.612459e-04	
489	4.500000e+00	3.614571e-04	
490	4.550000e+00	3.616773e-04	
491	4.600000e+00	3.619077e-04	
492	4.650000e+00	3.621500e-04	
493	4.700000e+00	3.624057e-04	
494	4.750000e+00	3.626765e-04	
495	4.800000e+00	3.629643e-04	
496	4.850000e+00	3.632710e-04	
497	4.900000e+00	3.635987e-04	
498	4.950000e+00	3.639496e-04	
499	5.000000e+00	3.643261e-04	
500	5.050000e+00	3.647306e-04	
501	5.100000e+00	3.651658e-04	
502	5.150000e+00	3.656343e-04	
503	5.200000e+00	3.661390e-04	
504	5.250000e+00	3.666831e-04	
505	5.300000e+00	3.672695e-04	
506	5.350000e+00	3.679017e-04	
507	5.400000e+00	3.685829e-04	
508	5.450000e+00	3.693169e-04	
509	5.500000e+00	3.701072e-04	
510	5.550000e+00	3.709577e-04	
511	5.600000e+00	3.718723e-04	
512	5.650000e+00	3.728551e-04	
513	5.700000e+00	3.739103e-04	
514	5.750000e+00	3.750423e-04	
515	5.800000e+00	3.762554e-04	
516	5.850000e+00	3.775543e-04	
517	5.900000e+00	3.789436e-04	
518	5.950000e+00	3.804282e-04	

Index   v-sweep         -i(vds)         
--------------------------------------------------------------------------------
519	6.000000e+00	3.820129e-04	
520	6.050000e+00	3.837028e-04	
521	6.100000e+00	3.855029e-04	
522	6.150000e+00	3.874185e-04	
523	6.200000e+00	3.894549e-04	
524	6.250000e+00	3.916175e-04	
525	6.300000e+00	3.939118e-04	
526	6.350000e+00	3.963433e-04	
527	6.400000e+00	3.989178e-04	
528	6.450000e+00	4.016408e-04	
529	6.500000e+00	4.045183e-04	
530	6.550000e+00	4.075561e-04	
531	6.600000e+00	4.107601e-04	
532	0.000000e+00	-0.000000e+00	
533	5.000000e-02	2.930237e-05	
534	1.000000e-01	5.732869e-05	
535	1.500000e-01	8.412918e-05	
536	2.000000e-01	1.097514e-04	
537	2.500000e-01	1.342405e-04	
538	3.000000e-01	1.576390e-04	
539	3.500000e-01	1.799872e-04	
540	4.000000e-01	2.013232e-04	
541	4.500000e-01	2.216829e-04	
542	5.000000e-01	2.411004e-04	
543	5.500000e-01	2.596075e-04	
544	6.000000e-01	2.772346e-04	
545	6.500000e-01	2.940103e-04	
546	7.000000e-01	3.099616e-04	
547	7.500000e-01	3.251142e-04	
548	8.000000e-01	3.394923e-04	
549	8.500000e-01	3.531187e-04	
550	9.000000e-01	3.660146e-04	
551	9.500000e-01	3.781997e-04	
552	1.000000e+00	3.896912e-04	
553	1.050000e+00	4.005038e-04	
554	1.100000e+00	4.106481e-04	
555	1.150000e+00	4.201288e-04	
556	1.200000e+00	4.289421e-04	
557	1.250000e+00	4.370719e-04	
558	1.300000e+00	4.444864e-04	
559	1.350000e+00	4.511392e-04	
560	1.400000e+00	4.569808e-04	
561	1.450000e+00	4.619864e-04	
562	1.500000e+00	4.661848e-04	
563	1.550000e+00	4.696630e-04	
564	1.600000e+00	4.725412e-04	
565	1.650000e+00	4.749413e-04	
566	1.700000e+00	4.769680e-04	
567	1.750000e+00	4.787040e-04	
568	1.800000e+00	4.802121e-04	
569	1.850000e+00	4.815392e-04	
570	1.900000e+00	4.827208e-04	
571	1.950000e+00	4.837835e-04	
572	2.000000e+00	4.847480e-04	
573	2.050000e+00	4.856300e-04	
574	2.100000e+00	4.864423e-04	
575	2.150000e+00	4.871947e-04	
576	2.200000e+00	4.878955e-04	

Index   v-sweep         -i(vds)         
--------------------------------------------------------------------------------
577	2.250000e+00	4.885513e-04	
578	2.300000e+00	4.891674e-04	
579	2.350000e+00	4.897486e-04	
580	2.400000e+00	4.902985e-04	
581	2.450000e+00	4.908206e-04	
582	2.500000e+00	4.913175e-04	
583	2.550000e+00	4.917916e-04	
584	2.600000e+00	4.922451e-04	
585	2.650000e+00	4.926798e-04	
586	2.700000e+00	4.930972e-04	
587	2.750000e+00	4.934987e-04	
588	2.800000e+00	4.938856e-04	
589	2.850000e+00	4.942590e-04	
590	2.900000e+00	4.946199e-04	
591	2.950000e+00	4.949691e-04	
592	3.000000e+00	4.953074e-04	
593	3.050000e+00	4.956356e-04	
594	3.100000e+00	4.959543e-04	
595	3.150000e+00	4.962641e-04	
596	3.200000e+00	4.965655e-04	
597	3.250000e+00	4.968590e-04	
598	3.300000e+00	4.971451e-04	
599	3.350000e+00	4.974242e-04	
600	3.400000e+00	4.976967e-04	
601	3.450000e+00	4.979629e-04	
602	3.500000e+00	4.982232e-04	
603	3.550000e+00	4.984778e-04	
604	3.600000e+00	4.987272e-04	
605	3.650000e+00	4.989716e-04	
606	3.700000e+00	4.992114e-04	
607	3.750000e+00	4.994467e-04	
608	3.800000e+00	4.996778e-04	
609	3.850000e+00	4.999052e-04	
610	3.900000e+00	5.001292e-04	
611	3.950000e+00	5.003499e-04	
612	4.000000e+00	5.005679e-04	
613	4.050000e+00	5.007835e-04	
614	4.100000e+00	5.009972e-04	
615	4.150000e+00	5.012094e-04	
616	4.200000e+00	5.014207e-04	
617	4.250000e+00	5.016317e-04	
618	4.300000e+00	5.018429e-04	
619	4.350000e+00	5.020552e-04	
620	4.400000e+00	5.022694e-04	
621	4.450000e+00	5.024863e-04	
622	4.500000e+00	5.027070e-04	
623	4.550000e+00	5.029325e-04	
624	4.600000e+00	5.031641e-04	
625	4.650000e+00	5.034030e-04	
626	4.700000e+00	5.036508e-04	
627	4.750000e+00	5.039089e-04	
628	4.800000e+00	5.041792e-04	
629	4.850000e+00	5.044635e-04	
630	4.900000e+00	5.047638e-04	
631	4.950000e+00	5.050823e-04	
632	5.000000e+00	5.054212e-04	
633	5.050000e+00	5.057832e-04	
634	5.100000e+00	5.061708e-04	

Index   v-sweep         -i(vds)         
--------------------------------------------------------------------------------
635	5.150000e+00	5.065869e-04	
636	5.200000e+00	5.070346e-04	
637	5.250000e+00	5.075170e-04	
638	5.300000e+00	5.080374e-04	
639	5.350000e+00	5.085996e-04	
640	5.400000e+00	5.092071e-04	
641	5.450000e+00	5.098640e-04	
642	5.500000e+00	5.105744e-04	
643	5.550000e+00	5.113427e-04	
644	5.600000e+00	5.121732e-04	
645	5.650000e+00	5.130707e-04	
646	5.700000e+00	5.140402e-04	
647	5.750000e+00	5.150866e-04	
648	5.800000e+00	5.162152e-04	
649	5.850000e+00	5.174315e-04	
650	5.900000e+00	5.187410e-04	
651	5.950000e+00	5.201496e-04	
652	6.000000e+00	5.216632e-04	
653	6.050000e+00	5.232879e-04	
654	6.100000e+00	5.250301e-04	
655	6.150000e+00	5.268961e-04	
656	6.200000e+00	5.288927e-04	
657	6.250000e+00	5.310266e-04	
658	6.300000e+00	5.333046e-04	
659	6.350000e+00	5.357339e-04	
660	6.400000e+00	5.383217e-04	
661	6.450000e+00	5.410753e-04	
662	6.500000e+00	5.440021e-04	
663	6.550000e+00	5.471097e-04	
664	6.600000e+00	5.504059e-04	
665	0.000000e+00	-0.000000e+00	
666	5.000000e-02	3.218990e-05	
667	1.000000e-01	6.316628e-05	
668	1.500000e-01	9.297252e-05	
669	2.000000e-01	1.216499e-04	
670	2.500000e-01	1.492378e-04	
671	3.000000e-01	1.757736e-04	
672	3.500000e-01	2.012930e-04	
673	4.000000e-01	2.258296e-04	
674	4.500000e-01	2.494158e-04	
675	5.000000e-01	2.720819e-04	
676	5.500000e-01	2.938570e-04	
677	6.000000e-01	3.147684e-04	
678	6.500000e-01	3.348424e-04	
679	7.000000e-01	3.541037e-04	
680	7.500000e-01	3.725759e-04	
681	8.000000e-01	3.902815e-04	
682	8.500000e-01	4.072420e-04	
683	9.000000e-01	4.234778e-04	
684	9.500000e-01	4.390085e-04	
685	1.000000e+00	4.538525e-04	
686	1.050000e+00	4.680276e-04	
687	1.100000e+00	4.815503e-04	
688	1.150000e+00	4.944359e-04	
689	1.200000e+00	5.066984e-04	
690	1.250000e+00	5.183498e-04	
691	1.300000e+00	5.293994e-04	
692	1.350000e+00	5.398528e-04	

Index   v-sweep         -i(vds)         
--------------------------------------------------------------------------------
693	1.400000e+00	5.497103e-04	
694	1.450000e+00	5.589644e-04	
695	1.500000e+00	5.675967e-04	
696	1.550000e+00	5.755752e-04	
697	1.600000e+00	5.828539e-04	
698	1.650000e+00	5.893797e-04	
699	1.700000e+00	5.951116e-04	
700	1.750000e+00	6.000458e-04	
701	1.800000e+00	6.042302e-04	
702	1.850000e+00	6.077553e-04	
703	1.900000e+00	6.107299e-04	
704	1.950000e+00	6.132591e-04	
705	2.000000e+00	6.154326e-04	
706	2.050000e+00	6.173227e-04	
707	2.100000e+00	6.189852e-04	
708	2.150000e+00	6.204636e-04	
709	2.200000e+00	6.217909e-04	
710	2.250000e+00	6.229931e-04	
711	2.300000e+00	6.240903e-04	
712	2.350000e+00	6.250986e-04	
713	2.400000e+00	6.260308e-04	
714	2.450000e+00	6.268971e-04	
715	2.500000e+00	6.277062e-04	
716	2.550000e+00	6.284650e-04	
717	2.600000e+00	6.291794e-04	
718	2.650000e+00	6.298543e-04	
719	2.700000e+00	6.304938e-04	
720	2.750000e+00	6.311015e-04	
721	2.800000e+00	6.316805e-04	
722	2.850000e+00	6.322334e-04	
723	2.900000e+00	6.327626e-04	
724	2.950000e+00	6.332701e-04	
725	3.000000e+00	6.337576e-04	
726	3.050000e+00	6.342267e-04	
727	3.100000e+00	6.346789e-04	
728	3.150000e+00	6.351153e-04	
729	3.200000e+00	6.355371e-04	
730	3.250000e+00	6.359453e-04	
731	3.300000e+00	6.363408e-04	
732	3.350000e+00	6.367244e-04	
733	3.400000e+00	6.370969e-04	
734	3.450000e+00	6.374589e-04	
735	3.500000e+00	6.378111e-04	
736	3.550000e+00	6.381540e-04	
737	3.600000e+00	6.384882e-04	
738	3.650000e+00	6.388141e-04	
739	3.700000e+00	6.391322e-04	
740	3.750000e+00	6.394429e-04	
741	3.800000e+00	6.397467e-04	
742	3.850000e+00	6.400438e-04	
743	3.900000e+00	6.403348e-04	
744	3.950000e+00	6.406198e-04	
745	4.000000e+00	6.408994e-04	
746	4.050000e+00	6.411738e-04	
747	4.100000e+00	6.414435e-04	
748	4.150000e+00	6.417089e-04	
749	4.200000e+00	6.419702e-04	
750	4.250000e+00	6.422281e-04	

Index   v-sweep         -i(vds)         
--------------------------------------------------------------------------------
751	4.300000e+00	6.424829e-04	
752	4.350000e+00	6.427352e-04	
753	4.400000e+00	6.429857e-04	
754	4.450000e+00	6.432348e-04	
755	4.500000e+00	6.434834e-04	
756	4.550000e+00	6.437323e-04	
757	4.600000e+00	6.439823e-04	
758	4.650000e+00	6.442345e-04	
759	4.700000e+00	6.444898e-04	
760	4.750000e+00	6.447497e-04	
761	4.800000e+00	6.450153e-04	
762	4.850000e+00	6.452882e-04	
763	4.900000e+00	6.455700e-04	
764	4.950000e+00	6.458625e-04	
765	5.000000e+00	6.461677e-04	
766	5.050000e+00	6.464877e-04	
767	5.100000e+00	6.468248e-04	
768	5.150000e+00	6.471815e-04	
769	5.200000e+00	6.475605e-04	
770	5.250000e+00	6.479647e-04	
771	5.300000e+00	6.483972e-04	
772	5.350000e+00	6.488613e-04	
773	5.400000e+00	6.493606e-04	
774	5.450000e+00	6.498989e-04	
775	5.500000e+00	6.504802e-04	
776	5.550000e+00	6.511087e-04	
777	5.600000e+00	6.517888e-04	
778	5.650000e+00	6.525253e-04	
779	5.700000e+00	6.533232e-04	
780	5.750000e+00	6.541877e-04	
781	5.800000e+00	6.551241e-04	
782	5.850000e+00	6.561381e-04	
783	5.900000e+00	6.572358e-04	
784	5.950000e+00	6.584231e-04	
785	6.000000e+00	6.597067e-04	
786	6.050000e+00	6.610929e-04	
787	6.100000e+00	6.625889e-04	
788	6.150000e+00	6.642015e-04	
789	6.200000e+00	6.659383e-04	
790	6.250000e+00	6.678066e-04	
791	6.300000e+00	6.698143e-04	
792	6.350000e+00	6.719694e-04	
793	6.400000e+00	6.742801e-04	
794	6.450000e+00	6.767547e-04	
795	6.500000e+00	6.794018e-04	
796	6.550000e+00	6.822303e-04	
797	6.600000e+00	6.852490e-04	
Note: No ".plot", ".print", or ".fourier" lines; no simulations run
