
Note: Compatibility modes selected: hs

Warning: m=xx on .subckt line will override multiplier m hierarchy!


Circuit: ***************************

Doing analysis at TEMP = -40.000000 and TNOM = -40.000000


No. of Data Rows : 798
                          ***************************
                          DC transfer characteristic  Mon Jan  9 13:57:41  2023
--------------------------------------------------------------------------------
Index   v-sweep         -i(vds)         
--------------------------------------------------------------------------------
0	0.000000e+00	-0.000000e+00	
1	5.000000e-02	5.450939e-08	
2	1.000000e-01	9.617987e-08	
3	1.500000e-01	1.252735e-07	
4	2.000000e-01	1.426179e-07	
5	2.500000e-01	1.506606e-07	
6	3.000000e-01	1.536269e-07	
7	3.500000e-01	1.547501e-07	
8	4.000000e-01	1.552836e-07	
9	4.500000e-01	1.556045e-07	
10	5.000000e-01	1.558348e-07	
11	5.500000e-01	1.560203e-07	
12	6.000000e-01	1.561812e-07	
13	6.500000e-01	1.563274e-07	
14	7.000000e-01	1.564641e-07	
15	7.500000e-01	1.565943e-07	
16	8.000000e-01	1.567200e-07	
17	8.500000e-01	1.568423e-07	
18	9.000000e-01	1.569620e-07	
19	9.500000e-01	1.570798e-07	
20	1.000000e+00	1.571960e-07	
21	1.050000e+00	1.573109e-07	
22	1.100000e+00	1.574248e-07	
23	1.150000e+00	1.575378e-07	
24	1.200000e+00	1.576500e-07	
25	1.250000e+00	1.577616e-07	
26	1.300000e+00	1.578726e-07	
27	1.350000e+00	1.579832e-07	
28	1.400000e+00	1.580933e-07	
29	1.450000e+00	1.582031e-07	
30	1.500000e+00	1.583125e-07	
31	1.550000e+00	1.584216e-07	
32	1.600000e+00	1.585304e-07	
33	1.650000e+00	1.586390e-07	
34	1.700000e+00	1.587474e-07	
35	1.750000e+00	1.588555e-07	
36	1.800000e+00	1.589635e-07	
37	1.850000e+00	1.590713e-07	
38	1.900000e+00	1.591789e-07	
39	1.950000e+00	1.592864e-07	
40	2.000000e+00	1.593937e-07	
41	2.050000e+00	1.595009e-07	
42	2.100000e+00	1.596080e-07	
43	2.150000e+00	1.597150e-07	
44	2.200000e+00	1.598219e-07	
45	2.250000e+00	1.599287e-07	
46	2.300000e+00	1.600354e-07	
47	2.350000e+00	1.601421e-07	
48	2.400000e+00	1.602487e-07	
49	2.450000e+00	1.603553e-07	
50	2.500000e+00	1.604618e-07	
51	2.550000e+00	1.605684e-07	
52	2.600000e+00	1.606750e-07	
53	2.650000e+00	1.607817e-07	
54	2.700000e+00	1.608885e-07	

Index   v-sweep         -i(vds)         
--------------------------------------------------------------------------------
55	2.750000e+00	1.609955e-07	
56	2.800000e+00	1.611027e-07	
57	2.850000e+00	1.612102e-07	
58	2.900000e+00	1.613182e-07	
59	2.950000e+00	1.614267e-07	
60	3.000000e+00	1.615358e-07	
61	3.050000e+00	1.616458e-07	
62	3.100000e+00	1.617567e-07	
63	3.150000e+00	1.618688e-07	
64	3.200000e+00	1.619823e-07	
65	3.250000e+00	1.620974e-07	
66	3.300000e+00	1.622145e-07	
67	3.350000e+00	1.623339e-07	
68	3.400000e+00	1.624558e-07	
69	3.450000e+00	1.625808e-07	
70	3.500000e+00	1.627093e-07	
71	3.550000e+00	1.628417e-07	
72	3.600000e+00	1.629785e-07	
73	3.650000e+00	1.631205e-07	
74	3.700000e+00	1.632681e-07	
75	3.750000e+00	1.634221e-07	
76	3.800000e+00	1.635831e-07	
77	3.850000e+00	1.637521e-07	
78	3.900000e+00	1.639298e-07	
79	3.950000e+00	1.641171e-07	
80	4.000000e+00	1.643151e-07	
81	4.050000e+00	1.645246e-07	
82	4.100000e+00	1.647469e-07	
83	4.150000e+00	1.649831e-07	
84	4.200000e+00	1.652344e-07	
85	4.250000e+00	1.655020e-07	
86	4.300000e+00	1.657873e-07	
87	4.350000e+00	1.660918e-07	
88	4.400000e+00	1.664168e-07	
89	4.450000e+00	1.667639e-07	
90	4.500000e+00	1.671347e-07	
91	4.550000e+00	1.675310e-07	
92	4.600000e+00	1.679543e-07	
93	4.650000e+00	1.684065e-07	
94	4.700000e+00	1.688894e-07	
95	4.750000e+00	1.694050e-07	
96	4.800000e+00	1.699552e-07	
97	4.850000e+00	1.705421e-07	
98	4.900000e+00	1.711677e-07	
99	4.950000e+00	1.718342e-07	
100	5.000000e+00	1.725438e-07	
101	5.050000e+00	1.732988e-07	
102	5.100000e+00	1.741014e-07	
103	5.150000e+00	1.749540e-07	
104	5.200000e+00	1.758591e-07	
105	5.250000e+00	1.768191e-07	
106	5.300000e+00	1.778364e-07	
107	5.350000e+00	1.789137e-07	
108	5.400000e+00	1.800536e-07	
109	5.450000e+00	1.812586e-07	
110	5.500000e+00	1.825315e-07	
111	5.550000e+00	1.838750e-07	
112	5.600000e+00	1.852918e-07	

Index   v-sweep         -i(vds)         
--------------------------------------------------------------------------------
113	5.650000e+00	1.867847e-07	
114	5.700000e+00	1.883566e-07	
115	5.750000e+00	1.900102e-07	
116	5.800000e+00	1.917485e-07	
117	5.850000e+00	1.935744e-07	
118	5.900000e+00	1.954907e-07	
119	5.950000e+00	1.975005e-07	
120	6.000000e+00	1.996068e-07	
121	6.050000e+00	2.018125e-07	
122	6.100000e+00	2.041206e-07	
123	6.150000e+00	2.065342e-07	
124	6.200000e+00	2.090563e-07	
125	6.250000e+00	2.116900e-07	
126	6.300000e+00	2.144383e-07	
127	6.350000e+00	2.173044e-07	
128	6.400000e+00	2.202913e-07	
129	6.450000e+00	2.234022e-07	
130	6.500000e+00	2.266400e-07	
131	6.550000e+00	2.300081e-07	
132	6.600000e+00	2.335093e-07	
133	0.000000e+00	-0.000000e+00	
134	5.000000e-02	2.609429e-07	
135	1.000000e-01	5.082994e-07	
136	1.500000e-01	7.421058e-07	
137	2.000000e-01	9.623986e-07	
138	2.500000e-01	1.169214e-06	
139	3.000000e-01	1.362590e-06	
140	3.500000e-01	1.542563e-06	
141	4.000000e-01	1.709172e-06	
142	4.500000e-01	1.862456e-06	
143	5.000000e-01	2.002457e-06	
144	5.500000e-01	2.129220e-06	
145	6.000000e-01	2.242798e-06	
146	6.500000e-01	2.343254e-06	
147	7.000000e-01	2.430671e-06	
148	7.500000e-01	2.505172e-06	
149	8.000000e-01	2.566955e-06	
150	8.500000e-01	2.616370e-06	
151	9.000000e-01	2.654056e-06	
152	9.500000e-01	2.681148e-06	
153	1.000000e+00	2.699433e-06	
154	1.050000e+00	2.711190e-06	
155	1.100000e+00	2.718647e-06	
156	1.150000e+00	2.723499e-06	
157	1.200000e+00	2.726819e-06	
158	1.250000e+00	2.729232e-06	
159	1.300000e+00	2.731086e-06	
160	1.350000e+00	2.732583e-06	
161	1.400000e+00	2.733842e-06	
162	1.450000e+00	2.734936e-06	
163	1.500000e+00	2.735912e-06	
164	1.550000e+00	2.736799e-06	
165	1.600000e+00	2.737619e-06	
166	1.650000e+00	2.738388e-06	
167	1.700000e+00	2.739115e-06	
168	1.750000e+00	2.739809e-06	
169	1.800000e+00	2.740476e-06	
170	1.850000e+00	2.741120e-06	

Index   v-sweep         -i(vds)         
--------------------------------------------------------------------------------
171	1.900000e+00	2.741745e-06	
172	1.950000e+00	2.742353e-06	
173	2.000000e+00	2.742947e-06	
174	2.050000e+00	2.743529e-06	
175	2.100000e+00	2.744101e-06	
176	2.150000e+00	2.744663e-06	
177	2.200000e+00	2.745217e-06	
178	2.250000e+00	2.745764e-06	
179	2.300000e+00	2.746303e-06	
180	2.350000e+00	2.746837e-06	
181	2.400000e+00	2.747366e-06	
182	2.450000e+00	2.747889e-06	
183	2.500000e+00	2.748408e-06	
184	2.550000e+00	2.748923e-06	
185	2.600000e+00	2.749434e-06	
186	2.650000e+00	2.749942e-06	
187	2.700000e+00	2.750446e-06	
188	2.750000e+00	2.750948e-06	
189	2.800000e+00	2.751447e-06	
190	2.850000e+00	2.751943e-06	
191	2.900000e+00	2.752437e-06	
192	2.950000e+00	2.752928e-06	
193	3.000000e+00	2.753418e-06	
194	3.050000e+00	2.753906e-06	
195	3.100000e+00	2.754393e-06	
196	3.150000e+00	2.754878e-06	
197	3.200000e+00	2.755363e-06	
198	3.250000e+00	2.755846e-06	
199	3.300000e+00	2.756330e-06	
200	3.350000e+00	2.756814e-06	
201	3.400000e+00	2.757299e-06	
202	3.450000e+00	2.757787e-06	
203	3.500000e+00	2.758276e-06	
204	3.550000e+00	2.758770e-06	
205	3.600000e+00	2.759269e-06	
206	3.650000e+00	2.759775e-06	
207	3.700000e+00	2.760289e-06	
208	3.750000e+00	2.760814e-06	
209	3.800000e+00	2.761353e-06	
210	3.850000e+00	2.761907e-06	
211	3.900000e+00	2.762482e-06	
212	3.950000e+00	2.763079e-06	
213	4.000000e+00	2.763705e-06	
214	4.050000e+00	2.764362e-06	
215	4.100000e+00	2.765058e-06	
216	4.150000e+00	2.765797e-06	
217	4.200000e+00	2.766587e-06	
218	4.250000e+00	2.767435e-06	
219	4.300000e+00	2.768349e-06	
220	4.350000e+00	2.769338e-06	
221	4.400000e+00	2.770411e-06	
222	4.450000e+00	2.771579e-06	
223	4.500000e+00	2.772853e-06	
224	4.550000e+00	2.774246e-06	
225	4.600000e+00	2.775771e-06	
226	4.650000e+00	2.777441e-06	
227	4.700000e+00	2.779273e-06	
228	4.750000e+00	2.781281e-06	

Index   v-sweep         -i(vds)         
--------------------------------------------------------------------------------
229	4.800000e+00	2.783483e-06	
230	4.850000e+00	2.785897e-06	
231	4.900000e+00	2.788542e-06	
232	4.950000e+00	2.791438e-06	
233	5.000000e+00	2.794606e-06	
234	5.050000e+00	2.798068e-06	
235	5.100000e+00	2.801848e-06	
236	5.150000e+00	2.805970e-06	
237	5.200000e+00	2.810459e-06	
238	5.250000e+00	2.815341e-06	
239	5.300000e+00	2.820643e-06	
240	5.350000e+00	2.826395e-06	
241	5.400000e+00	2.832625e-06	
242	5.450000e+00	2.839364e-06	
243	5.500000e+00	2.846643e-06	
244	5.550000e+00	2.854494e-06	
245	5.600000e+00	2.862951e-06	
246	5.650000e+00	2.872047e-06	
247	5.700000e+00	2.881818e-06	
248	5.750000e+00	2.892299e-06	
249	5.800000e+00	2.903528e-06	
250	5.850000e+00	2.915541e-06	
251	5.900000e+00	2.928378e-06	
252	5.950000e+00	2.942077e-06	
253	6.000000e+00	2.956678e-06	
254	6.050000e+00	2.972221e-06	
255	6.100000e+00	2.988749e-06	
256	6.150000e+00	3.006303e-06	
257	6.200000e+00	3.024925e-06	
258	6.250000e+00	3.044658e-06	
259	6.300000e+00	3.065547e-06	
260	6.350000e+00	3.087635e-06	
261	6.400000e+00	3.110967e-06	
262	6.450000e+00	3.135589e-06	
263	6.500000e+00	3.161545e-06	
264	6.550000e+00	3.188882e-06	
265	6.600000e+00	3.217646e-06	
266	0.000000e+00	-0.000000e+00	
267	5.000000e-02	4.400154e-07	
268	1.000000e-01	8.671724e-07	
269	1.500000e-01	1.281507e-06	
270	2.000000e-01	1.683055e-06	
271	2.500000e-01	2.071853e-06	
272	3.000000e-01	2.447936e-06	
273	3.500000e-01	2.811339e-06	
274	4.000000e-01	3.162097e-06	
275	4.500000e-01	3.500247e-06	
276	5.000000e-01	3.825824e-06	
277	5.500000e-01	4.138861e-06	
278	6.000000e-01	4.439394e-06	
279	6.500000e-01	4.727459e-06	
280	7.000000e-01	5.003088e-06	
281	7.500000e-01	5.266318e-06	
282	8.000000e-01	5.517183e-06	
283	8.500000e-01	5.755717e-06	
284	9.000000e-01	5.981954e-06	
285	9.500000e-01	6.195929e-06	
286	1.000000e+00	6.397677e-06	

Index   v-sweep         -i(vds)         
--------------------------------------------------------------------------------
287	1.050000e+00	6.587234e-06	
288	1.100000e+00	6.764633e-06	
289	1.150000e+00	6.929912e-06	
290	1.200000e+00	7.083109e-06	
291	1.250000e+00	7.224264e-06	
292	1.300000e+00	7.353422e-06	
293	1.350000e+00	7.470634e-06	
294	1.400000e+00	7.575962e-06	
295	1.450000e+00	7.669491e-06	
296	1.500000e+00	7.751340e-06	
297	1.550000e+00	7.821690e-06	
298	1.600000e+00	7.880832e-06	
299	1.650000e+00	7.929236e-06	
300	1.700000e+00	7.967647e-06	
301	1.750000e+00	7.997157e-06	
302	1.800000e+00	8.019195e-06	
303	1.850000e+00	8.035369e-06	
304	1.900000e+00	8.047213e-06	
305	1.950000e+00	8.055998e-06	
306	2.000000e+00	8.062671e-06	
307	2.050000e+00	8.067888e-06	
308	2.100000e+00	8.072089e-06	
309	2.150000e+00	8.075570e-06	
310	2.200000e+00	8.078528e-06	
311	2.250000e+00	8.081097e-06	
312	2.300000e+00	8.083373e-06	
313	2.350000e+00	8.085422e-06	
314	2.400000e+00	8.087291e-06	
315	2.450000e+00	8.089016e-06	
316	2.500000e+00	8.090625e-06	
317	2.550000e+00	8.092138e-06	
318	2.600000e+00	8.093570e-06	
319	2.650000e+00	8.094934e-06	
320	2.700000e+00	8.096241e-06	
321	2.750000e+00	8.097498e-06	
322	2.800000e+00	8.098712e-06	
323	2.850000e+00	8.099889e-06	
324	2.900000e+00	8.101032e-06	
325	2.950000e+00	8.102147e-06	
326	3.000000e+00	8.103235e-06	
327	3.050000e+00	8.104300e-06	
328	3.100000e+00	8.105344e-06	
329	3.150000e+00	8.106369e-06	
330	3.200000e+00	8.107377e-06	
331	3.250000e+00	8.108369e-06	
332	3.300000e+00	8.109347e-06	
333	3.350000e+00	8.110312e-06	
334	3.400000e+00	8.111265e-06	
335	3.450000e+00	8.112207e-06	
336	3.500000e+00	8.113139e-06	
337	3.550000e+00	8.114061e-06	
338	3.600000e+00	8.114975e-06	
339	3.650000e+00	8.115880e-06	
340	3.700000e+00	8.116778e-06	
341	3.750000e+00	8.117670e-06	
342	3.800000e+00	8.118555e-06	
343	3.850000e+00	8.119435e-06	
344	3.900000e+00	8.120310e-06	

Index   v-sweep         -i(vds)         
--------------------------------------------------------------------------------
345	3.950000e+00	8.121182e-06	
346	4.000000e+00	8.122051e-06	
347	4.050000e+00	8.122918e-06	
348	4.100000e+00	8.123786e-06	
349	4.150000e+00	8.124655e-06	
350	4.200000e+00	8.125527e-06	
351	4.250000e+00	8.126407e-06	
352	4.300000e+00	8.127295e-06	
353	4.350000e+00	8.128197e-06	
354	4.400000e+00	8.129116e-06	
355	4.450000e+00	8.130057e-06	
356	4.500000e+00	8.131027e-06	
357	4.550000e+00	8.132032e-06	
358	4.600000e+00	8.133080e-06	
359	4.650000e+00	8.134180e-06	
360	4.700000e+00	8.135343e-06	
361	4.750000e+00	8.136581e-06	
362	4.800000e+00	8.137906e-06	
363	4.850000e+00	8.139335e-06	
364	4.900000e+00	8.140883e-06	
365	4.950000e+00	8.142569e-06	
366	5.000000e+00	8.144414e-06	
367	5.050000e+00	8.146441e-06	
368	5.100000e+00	8.148674e-06	
369	5.150000e+00	8.151141e-06	
370	5.200000e+00	8.153871e-06	
371	5.250000e+00	8.156896e-06	
372	5.300000e+00	8.160250e-06	
373	5.350000e+00	8.163972e-06	
374	5.400000e+00	8.168100e-06	
375	5.450000e+00	8.172678e-06	
376	5.500000e+00	8.177751e-06	
377	5.550000e+00	8.183367e-06	
378	5.600000e+00	8.189578e-06	
379	5.650000e+00	8.196439e-06	
380	5.700000e+00	8.204006e-06	
381	5.750000e+00	8.212339e-06	
382	5.800000e+00	8.221503e-06	
383	5.850000e+00	8.231563e-06	
384	5.900000e+00	8.242590e-06	
385	5.950000e+00	8.254655e-06	
386	6.000000e+00	8.267834e-06	
387	6.050000e+00	8.282206e-06	
388	6.100000e+00	8.297851e-06	
389	6.150000e+00	8.314855e-06	
390	6.200000e+00	8.333305e-06	
391	6.250000e+00	8.353291e-06	
392	6.300000e+00	8.374906e-06	
393	6.350000e+00	8.398246e-06	
394	6.400000e+00	8.423409e-06	
395	6.450000e+00	8.450496e-06	
396	6.500000e+00	8.479611e-06	
397	6.550000e+00	8.510861e-06	
398	6.600000e+00	8.544352e-06	
399	0.000000e+00	-0.000000e+00	
400	5.000000e-02	5.854726e-07	
401	1.000000e-01	1.159108e-06	
402	1.500000e-01	1.720937e-06	

Index   v-sweep         -i(vds)         
--------------------------------------------------------------------------------
403	2.000000e-01	2.270994e-06	
404	2.500000e-01	2.809311e-06	
405	3.000000e-01	3.335919e-06	
406	3.500000e-01	3.850851e-06	
407	4.000000e-01	4.354138e-06	
408	4.500000e-01	4.845813e-06	
409	5.000000e-01	5.325907e-06	
410	5.500000e-01	5.794451e-06	
411	6.000000e-01	6.251476e-06	
412	6.500000e-01	6.697015e-06	
413	7.000000e-01	7.131099e-06	
414	7.500000e-01	7.553757e-06	
415	8.000000e-01	7.965022e-06	
416	8.500000e-01	8.364924e-06	
417	9.000000e-01	8.753493e-06	
418	9.500000e-01	9.130761e-06	
419	1.000000e+00	9.496757e-06	
420	1.050000e+00	9.851512e-06	
421	1.100000e+00	1.019506e-05	
422	1.150000e+00	1.052742e-05	
423	1.200000e+00	1.084863e-05	
424	1.250000e+00	1.115872e-05	
425	1.300000e+00	1.145772e-05	
426	1.350000e+00	1.174565e-05	
427	1.400000e+00	1.202255e-05	
428	1.450000e+00	1.228845e-05	
429	1.500000e+00	1.254337e-05	
430	1.550000e+00	1.278734e-05	
431	1.600000e+00	1.302040e-05	
432	1.650000e+00	1.324256e-05	
433	1.700000e+00	1.345386e-05	
434	1.750000e+00	1.365433e-05	
435	1.800000e+00	1.384399e-05	
436	1.850000e+00	1.402287e-05	
437	1.900000e+00	1.419100e-05	
438	1.950000e+00	1.434841e-05	
439	2.000000e+00	1.449513e-05	
440	2.050000e+00	1.463118e-05	
441	2.100000e+00	1.475660e-05	
442	2.150000e+00	1.487143e-05	
443	2.200000e+00	1.497573e-05	
444	2.250000e+00	1.506956e-05	
445	2.300000e+00	1.515301e-05	
446	2.350000e+00	1.522625e-05	
447	2.400000e+00	1.528950e-05	
448	2.450000e+00	1.534313e-05	
449	2.500000e+00	1.538770e-05	
450	2.550000e+00	1.542398e-05	
451	2.600000e+00	1.545298e-05	
452	2.650000e+00	1.547587e-05	
453	2.700000e+00	1.549384e-05	
454	2.750000e+00	1.550799e-05	
455	2.800000e+00	1.551925e-05	
456	2.850000e+00	1.552836e-05	
457	2.900000e+00	1.553585e-05	
458	2.950000e+00	1.554213e-05	
459	3.000000e+00	1.554749e-05	
460	3.050000e+00	1.555214e-05	

Index   v-sweep         -i(vds)         
--------------------------------------------------------------------------------
461	3.100000e+00	1.555624e-05	
462	3.150000e+00	1.555990e-05	
463	3.200000e+00	1.556321e-05	
464	3.250000e+00	1.556623e-05	
465	3.300000e+00	1.556903e-05	
466	3.350000e+00	1.557162e-05	
467	3.400000e+00	1.557405e-05	
468	3.450000e+00	1.557635e-05	
469	3.500000e+00	1.557852e-05	
470	3.550000e+00	1.558059e-05	
471	3.600000e+00	1.558257e-05	
472	3.650000e+00	1.558448e-05	
473	3.700000e+00	1.558631e-05	
474	3.750000e+00	1.558808e-05	
475	3.800000e+00	1.558980e-05	
476	3.850000e+00	1.559147e-05	
477	3.900000e+00	1.559310e-05	
478	3.950000e+00	1.559468e-05	
479	4.000000e+00	1.559623e-05	
480	4.050000e+00	1.559775e-05	
481	4.100000e+00	1.559924e-05	
482	4.150000e+00	1.560070e-05	
483	4.200000e+00	1.560213e-05	
484	4.250000e+00	1.560354e-05	
485	4.300000e+00	1.560493e-05	
486	4.350000e+00	1.560630e-05	
487	4.400000e+00	1.560765e-05	
488	4.450000e+00	1.560899e-05	
489	4.500000e+00	1.561031e-05	
490	4.550000e+00	1.561161e-05	
491	4.600000e+00	1.561291e-05	
492	4.650000e+00	1.561419e-05	
493	4.700000e+00	1.561546e-05	
494	4.750000e+00	1.561672e-05	
495	4.800000e+00	1.561798e-05	
496	4.850000e+00	1.561923e-05	
497	4.900000e+00	1.562049e-05	
498	4.950000e+00	1.562174e-05	
499	5.000000e+00	1.562300e-05	
500	5.050000e+00	1.562427e-05	
501	5.100000e+00	1.562556e-05	
502	5.150000e+00	1.562687e-05	
503	5.200000e+00	1.562822e-05	
504	5.250000e+00	1.562960e-05	
505	5.300000e+00	1.563104e-05	
506	5.350000e+00	1.563255e-05	
507	5.400000e+00	1.563413e-05	
508	5.450000e+00	1.563581e-05	
509	5.500000e+00	1.563761e-05	
510	5.550000e+00	1.563955e-05	
511	5.600000e+00	1.564166e-05	
512	5.650000e+00	1.564395e-05	
513	5.700000e+00	1.564648e-05	
514	5.750000e+00	1.564926e-05	
515	5.800000e+00	1.565234e-05	
516	5.850000e+00	1.565577e-05	
517	5.900000e+00	1.565959e-05	
518	5.950000e+00	1.566384e-05	

Index   v-sweep         -i(vds)         
--------------------------------------------------------------------------------
519	6.000000e+00	1.566860e-05	
520	6.050000e+00	1.567391e-05	
521	6.100000e+00	1.567984e-05	
522	6.150000e+00	1.568647e-05	
523	6.200000e+00	1.569387e-05	
524	6.250000e+00	1.570213e-05	
525	6.300000e+00	1.571132e-05	
526	6.350000e+00	1.572154e-05	
527	6.400000e+00	1.573289e-05	
528	6.450000e+00	1.574546e-05	
529	6.500000e+00	1.575938e-05	
530	6.550000e+00	1.577476e-05	
531	6.600000e+00	1.579171e-05	
532	0.000000e+00	-0.000000e+00	
533	5.000000e-02	6.966684e-07	
534	1.000000e-01	1.382652e-06	
535	1.500000e-01	2.057980e-06	
536	2.000000e-01	2.722678e-06	
537	2.500000e-01	3.376774e-06	
538	3.000000e-01	4.020296e-06	
539	3.500000e-01	4.653271e-06	
540	4.000000e-01	5.275726e-06	
541	4.500000e-01	5.887688e-06	
542	5.000000e-01	6.489185e-06	
543	5.500000e-01	7.080242e-06	
544	6.000000e-01	7.660888e-06	
545	6.500000e-01	8.231148e-06	
546	7.000000e-01	8.791049e-06	
547	7.500000e-01	9.340618e-06	
548	8.000000e-01	9.879881e-06	
549	8.500000e-01	1.040886e-05	
550	9.000000e-01	1.092759e-05	
551	9.500000e-01	1.143610e-05	
552	1.000000e+00	1.193440e-05	
553	1.050000e+00	1.242253e-05	
554	1.100000e+00	1.290050e-05	
555	1.150000e+00	1.336836e-05	
556	1.200000e+00	1.382611e-05	
557	1.250000e+00	1.427380e-05	
558	1.300000e+00	1.471143e-05	
559	1.350000e+00	1.513905e-05	
560	1.400000e+00	1.555666e-05	
561	1.450000e+00	1.596431e-05	
562	1.500000e+00	1.636201e-05	
563	1.550000e+00	1.674979e-05	
564	1.600000e+00	1.712767e-05	
565	1.650000e+00	1.749568e-05	
566	1.700000e+00	1.785384e-05	
567	1.750000e+00	1.820218e-05	
568	1.800000e+00	1.854072e-05	
569	1.850000e+00	1.886948e-05	
570	1.900000e+00	1.918850e-05	
571	1.950000e+00	1.949778e-05	
572	2.000000e+00	1.979737e-05	
573	2.050000e+00	2.008727e-05	
574	2.100000e+00	2.036752e-05	
575	2.150000e+00	2.063813e-05	
576	2.200000e+00	2.089913e-05	

Index   v-sweep         -i(vds)         
--------------------------------------------------------------------------------
577	2.250000e+00	2.115054e-05	
578	2.300000e+00	2.139239e-05	
579	2.350000e+00	2.162469e-05	
580	2.400000e+00	2.184747e-05	
581	2.450000e+00	2.206075e-05	
582	2.500000e+00	2.226455e-05	
583	2.550000e+00	2.245889e-05	
584	2.600000e+00	2.264378e-05	
585	2.650000e+00	2.281925e-05	
586	2.700000e+00	2.298532e-05	
587	2.750000e+00	2.314200e-05	
588	2.800000e+00	2.328932e-05	
589	2.850000e+00	2.342728e-05	
590	2.900000e+00	2.355591e-05	
591	2.950000e+00	2.367523e-05	
592	3.000000e+00	2.378526e-05	
593	3.050000e+00	2.388603e-05	
594	3.100000e+00	2.397759e-05	
595	3.150000e+00	2.406002e-05	
596	3.200000e+00	2.413344e-05	
597	3.250000e+00	2.419802e-05	
598	3.300000e+00	2.425406e-05	
599	3.350000e+00	2.430197e-05	
600	3.400000e+00	2.434235e-05	
601	3.450000e+00	2.437594e-05	
602	3.500000e+00	2.440362e-05	
603	3.550000e+00	2.442631e-05	
604	3.600000e+00	2.444493e-05	
605	3.650000e+00	2.446027e-05	
606	3.700000e+00	2.447302e-05	
607	3.750000e+00	2.448375e-05	
608	3.800000e+00	2.449289e-05	
609	3.850000e+00	2.450077e-05	
610	3.900000e+00	2.450766e-05	
611	3.950000e+00	2.451374e-05	
612	4.000000e+00	2.451918e-05	
613	4.050000e+00	2.452410e-05	
614	4.100000e+00	2.452858e-05	
615	4.150000e+00	2.453269e-05	
616	4.200000e+00	2.453650e-05	
617	4.250000e+00	2.454006e-05	
618	4.300000e+00	2.454339e-05	
619	4.350000e+00	2.454653e-05	
620	4.400000e+00	2.454950e-05	
621	4.450000e+00	2.455233e-05	
622	4.500000e+00	2.455504e-05	
623	4.550000e+00	2.455763e-05	
624	4.600000e+00	2.456012e-05	
625	4.650000e+00	2.456252e-05	
626	4.700000e+00	2.456484e-05	
627	4.750000e+00	2.456709e-05	
628	4.800000e+00	2.456928e-05	
629	4.850000e+00	2.457140e-05	
630	4.900000e+00	2.457348e-05	
631	4.950000e+00	2.457550e-05	
632	5.000000e+00	2.457748e-05	
633	5.050000e+00	2.457941e-05	
634	5.100000e+00	2.458131e-05	

Index   v-sweep         -i(vds)         
--------------------------------------------------------------------------------
635	5.150000e+00	2.458317e-05	
636	5.200000e+00	2.458501e-05	
637	5.250000e+00	2.458681e-05	
638	5.300000e+00	2.458858e-05	
639	5.350000e+00	2.459033e-05	
640	5.400000e+00	2.459205e-05	
641	5.450000e+00	2.459375e-05	
642	5.500000e+00	2.459543e-05	
643	5.550000e+00	2.459710e-05	
644	5.600000e+00	2.459876e-05	
645	5.650000e+00	2.460040e-05	
646	5.700000e+00	2.460203e-05	
647	5.750000e+00	2.460367e-05	
648	5.800000e+00	2.460531e-05	
649	5.850000e+00	2.460695e-05	
650	5.900000e+00	2.460862e-05	
651	5.950000e+00	2.461031e-05	
652	6.000000e+00	2.461204e-05	
653	6.050000e+00	2.461382e-05	
654	6.100000e+00	2.461566e-05	
655	6.150000e+00	2.461759e-05	
656	6.200000e+00	2.461961e-05	
657	6.250000e+00	2.462177e-05	
658	6.300000e+00	2.462408e-05	
659	6.350000e+00	2.462658e-05	
660	6.400000e+00	2.462930e-05	
661	6.450000e+00	2.463228e-05	
662	6.500000e+00	2.463557e-05	
663	6.550000e+00	2.463921e-05	
664	6.600000e+00	2.464326e-05	
665	0.000000e+00	-0.000000e+00	
666	5.000000e-02	7.766551e-07	
667	1.000000e-01	1.543808e-06	
668	1.500000e-01	2.301481e-06	
669	2.000000e-01	3.049698e-06	
670	2.500000e-01	3.788480e-06	
671	3.000000e-01	4.517850e-06	
672	3.500000e-01	5.237832e-06	
673	4.000000e-01	5.948446e-06	
674	4.500000e-01	6.649715e-06	
675	5.000000e-01	7.341662e-06	
676	5.500000e-01	8.024309e-06	
677	6.000000e-01	8.697677e-06	
678	6.500000e-01	9.361789e-06	
679	7.000000e-01	1.001667e-05	
680	7.500000e-01	1.066233e-05	
681	8.000000e-01	1.129881e-05	
682	8.500000e-01	1.192611e-05	
683	9.000000e-01	1.254427e-05	
684	9.500000e-01	1.315330e-05	
685	1.000000e+00	1.375323e-05	
686	1.050000e+00	1.434407e-05	
687	1.100000e+00	1.492586e-05	
688	1.150000e+00	1.549860e-05	
689	1.200000e+00	1.606232e-05	
690	1.250000e+00	1.661705e-05	
691	1.300000e+00	1.716280e-05	
692	1.350000e+00	1.769959e-05	

Index   v-sweep         -i(vds)         
--------------------------------------------------------------------------------
693	1.400000e+00	1.822745e-05	
694	1.450000e+00	1.874639e-05	
695	1.500000e+00	1.925645e-05	
696	1.550000e+00	1.975762e-05	
697	1.600000e+00	2.024995e-05	
698	1.650000e+00	2.073345e-05	
699	1.700000e+00	2.120813e-05	
700	1.750000e+00	2.167402e-05	
701	1.800000e+00	2.213115e-05	
702	1.850000e+00	2.257952e-05	
703	1.900000e+00	2.301917e-05	
704	1.950000e+00	2.345010e-05	
705	2.000000e+00	2.387235e-05	
706	2.050000e+00	2.428592e-05	
707	2.100000e+00	2.469085e-05	
708	2.150000e+00	2.508714e-05	
709	2.200000e+00	2.547483e-05	
710	2.250000e+00	2.585392e-05	
711	2.300000e+00	2.622445e-05	
712	2.350000e+00	2.658642e-05	
713	2.400000e+00	2.693986e-05	
714	2.450000e+00	2.728478e-05	
715	2.500000e+00	2.762122e-05	
716	2.550000e+00	2.794917e-05	
717	2.600000e+00	2.826867e-05	
718	2.650000e+00	2.857973e-05	
719	2.700000e+00	2.888238e-05	
720	2.750000e+00	2.917662e-05	
721	2.800000e+00	2.946248e-05	
722	2.850000e+00	2.973997e-05	
723	2.900000e+00	3.000911e-05	
724	2.950000e+00	3.026993e-05	
725	3.000000e+00	3.052243e-05	
726	3.050000e+00	3.076664e-05	
727	3.100000e+00	3.100257e-05	
728	3.150000e+00	3.123024e-05	
729	3.200000e+00	3.144966e-05	
730	3.250000e+00	3.166084e-05	
731	3.300000e+00	3.186381e-05	
732	3.350000e+00	3.205857e-05	
733	3.400000e+00	3.224515e-05	
734	3.450000e+00	3.242355e-05	
735	3.500000e+00	3.259378e-05	
736	3.550000e+00	3.275585e-05	
737	3.600000e+00	3.290977e-05	
738	3.650000e+00	3.305556e-05	
739	3.700000e+00	3.319321e-05	
740	3.750000e+00	3.332273e-05	
741	3.800000e+00	3.344414e-05	
742	3.850000e+00	3.355742e-05	
743	3.900000e+00	3.366259e-05	
744	3.950000e+00	3.375967e-05	
745	4.000000e+00	3.384869e-05	
746	4.050000e+00	3.392967e-05	
747	4.100000e+00	3.400272e-05	
748	4.150000e+00	3.406796e-05	
749	4.200000e+00	3.412561e-05	
750	4.250000e+00	3.417598e-05	

Index   v-sweep         -i(vds)         
--------------------------------------------------------------------------------
751	4.300000e+00	3.421950e-05	
752	4.350000e+00	3.425674e-05	
753	4.400000e+00	3.428835e-05	
754	4.450000e+00	3.431505e-05	
755	4.500000e+00	3.433759e-05	
756	4.550000e+00	3.435664e-05	
757	4.600000e+00	3.437284e-05	
758	4.650000e+00	3.438670e-05	
759	4.700000e+00	3.439867e-05	
760	4.750000e+00	3.440910e-05	
761	4.800000e+00	3.441828e-05	
762	4.850000e+00	3.442643e-05	
763	4.900000e+00	3.443374e-05	
764	4.950000e+00	3.444035e-05	
765	5.000000e+00	3.444637e-05	
766	5.050000e+00	3.445190e-05	
767	5.100000e+00	3.445701e-05	
768	5.150000e+00	3.446175e-05	
769	5.200000e+00	3.446619e-05	
770	5.250000e+00	3.447037e-05	
771	5.300000e+00	3.447430e-05	
772	5.350000e+00	3.447804e-05	
773	5.400000e+00	3.448159e-05	
774	5.450000e+00	3.448498e-05	
775	5.500000e+00	3.448823e-05	
776	5.550000e+00	3.449136e-05	
777	5.600000e+00	3.449436e-05	
778	5.650000e+00	3.449727e-05	
779	5.700000e+00	3.450008e-05	
780	5.750000e+00	3.450280e-05	
781	5.800000e+00	3.450545e-05	
782	5.850000e+00	3.450802e-05	
783	5.900000e+00	3.451053e-05	
784	5.950000e+00	3.451298e-05	
785	6.000000e+00	3.451538e-05	
786	6.050000e+00	3.451772e-05	
787	6.100000e+00	3.452002e-05	
788	6.150000e+00	3.452227e-05	
789	6.200000e+00	3.452449e-05	
790	6.250000e+00	3.452666e-05	
791	6.300000e+00	3.452880e-05	
792	6.350000e+00	3.453091e-05	
793	6.400000e+00	3.453300e-05	
794	6.450000e+00	3.453506e-05	
795	6.500000e+00	3.453710e-05	
796	6.550000e+00	3.453912e-05	
797	6.600000e+00	3.454113e-05	
Note: No ".plot", ".print", or ".fourier" lines; no simulations run
