
Note: Compatibility modes selected: hs

Warning: m=xx on .subckt line will override multiplier m hierarchy!


Circuit: ***************************

Doing analysis at TEMP = -40.000000 and TNOM = -40.000000


No. of Data Rows : 798
                          ***************************
                          DC transfer characteristic  Mon Jan  9 13:57:41  2023
--------------------------------------------------------------------------------
Index   v-sweep         -i(vds)         
--------------------------------------------------------------------------------
0	0.000000e+00	-0.000000e+00	
1	5.000000e-02	1.387745e-05	
2	1.000000e-01	2.222212e-05	
3	1.500000e-01	2.608069e-05	
4	2.000000e-01	2.758794e-05	
5	2.500000e-01	2.834181e-05	
6	3.000000e-01	2.884518e-05	
7	3.500000e-01	2.923371e-05	
8	4.000000e-01	2.955598e-05	
9	4.500000e-01	2.983457e-05	
10	5.000000e-01	3.008195e-05	
11	5.500000e-01	3.030581e-05	
12	6.000000e-01	3.051127e-05	
13	6.500000e-01	3.070189e-05	
14	7.000000e-01	3.088032e-05	
15	7.500000e-01	3.104851e-05	
16	8.000000e-01	3.120800e-05	
17	8.500000e-01	3.136000e-05	
18	9.000000e-01	3.150548e-05	
19	9.500000e-01	3.164524e-05	
20	1.000000e+00	3.177993e-05	
21	1.050000e+00	3.191011e-05	
22	1.100000e+00	3.203624e-05	
23	1.150000e+00	3.215872e-05	
24	1.200000e+00	3.227790e-05	
25	1.250000e+00	3.239406e-05	
26	1.300000e+00	3.250747e-05	
27	1.350000e+00	3.261835e-05	
28	1.400000e+00	3.272691e-05	
29	1.450000e+00	3.283332e-05	
30	1.500000e+00	3.293773e-05	
31	1.550000e+00	3.304030e-05	
32	1.600000e+00	3.314115e-05	
33	1.650000e+00	3.324039e-05	
34	1.700000e+00	3.333813e-05	
35	1.750000e+00	3.343446e-05	
36	1.800000e+00	3.352946e-05	
37	1.850000e+00	3.362322e-05	
38	1.900000e+00	3.371581e-05	
39	1.950000e+00	3.380728e-05	
40	2.000000e+00	3.389771e-05	
41	2.050000e+00	3.398715e-05	
42	2.100000e+00	3.407565e-05	
43	2.150000e+00	3.416325e-05	
44	2.200000e+00	3.425001e-05	
45	2.250000e+00	3.433597e-05	
46	2.300000e+00	3.442116e-05	
47	2.350000e+00	3.450563e-05	
48	2.400000e+00	3.458941e-05	
49	2.450000e+00	3.467254e-05	
50	2.500000e+00	3.475504e-05	
51	2.550000e+00	3.483697e-05	
52	2.600000e+00	3.491834e-05	
53	2.650000e+00	3.499920e-05	
54	2.700000e+00	3.507959e-05	

Index   v-sweep         -i(vds)         
--------------------------------------------------------------------------------
55	2.750000e+00	3.515953e-05	
56	2.800000e+00	3.523908e-05	
57	2.850000e+00	3.531826e-05	
58	2.900000e+00	3.539714e-05	
59	2.950000e+00	3.547575e-05	
60	3.000000e+00	3.555416e-05	
61	3.050000e+00	3.563242e-05	
62	3.100000e+00	3.571059e-05	
63	3.150000e+00	3.578874e-05	
64	3.200000e+00	3.586696e-05	
65	3.250000e+00	3.594532e-05	
66	3.300000e+00	3.602392e-05	
67	3.350000e+00	3.610286e-05	
68	3.400000e+00	3.618224e-05	
69	3.450000e+00	3.626219e-05	
70	3.500000e+00	3.634284e-05	
71	3.550000e+00	3.642433e-05	
72	3.600000e+00	3.650680e-05	
73	3.650000e+00	3.659043e-05	
74	3.700000e+00	3.667538e-05	
75	3.750000e+00	3.676185e-05	
76	3.800000e+00	3.685004e-05	
77	3.850000e+00	3.694016e-05	
78	3.900000e+00	3.703245e-05	
79	3.950000e+00	3.712715e-05	
80	4.000000e+00	3.722451e-05	
81	4.050000e+00	3.732481e-05	
82	4.100000e+00	3.742834e-05	
83	4.150000e+00	3.753540e-05	
84	4.200000e+00	3.764631e-05	
85	4.250000e+00	3.776141e-05	
86	4.300000e+00	3.788105e-05	
87	4.350000e+00	3.800559e-05	
88	4.400000e+00	3.813541e-05	
89	4.450000e+00	3.827092e-05	
90	4.500000e+00	3.841253e-05	
91	4.550000e+00	3.856067e-05	
92	4.600000e+00	3.871578e-05	
93	4.650000e+00	3.887833e-05	
94	4.700000e+00	3.904879e-05	
95	4.750000e+00	3.922766e-05	
96	4.800000e+00	3.941544e-05	
97	4.850000e+00	3.961265e-05	
98	4.900000e+00	3.981983e-05	
99	4.950000e+00	4.003754e-05	
100	5.000000e+00	4.026633e-05	
101	5.050000e+00	4.050680e-05	
102	5.100000e+00	4.075952e-05	
103	5.150000e+00	4.102510e-05	
104	5.200000e+00	4.130418e-05	
105	5.250000e+00	4.159736e-05	
106	5.300000e+00	4.190532e-05	
107	5.350000e+00	4.222868e-05	
108	5.400000e+00	4.256813e-05	
109	5.450000e+00	4.292435e-05	
110	5.500000e+00	4.329802e-05	
111	5.550000e+00	4.368984e-05	
112	5.600000e+00	4.410052e-05	

Index   v-sweep         -i(vds)         
--------------------------------------------------------------------------------
113	5.650000e+00	4.453078e-05	
114	5.700000e+00	4.498135e-05	
115	5.750000e+00	4.545297e-05	
116	5.800000e+00	4.594638e-05	
117	5.850000e+00	4.646233e-05	
118	5.900000e+00	4.700160e-05	
119	5.950000e+00	4.756494e-05	
120	6.000000e+00	4.815313e-05	
121	6.050000e+00	4.876695e-05	
122	6.100000e+00	4.940719e-05	
123	6.150000e+00	5.007464e-05	
124	6.200000e+00	5.077010e-05	
125	6.250000e+00	5.149438e-05	
126	6.300000e+00	5.224828e-05	
127	6.350000e+00	5.303261e-05	
128	6.400000e+00	5.384820e-05	
129	6.450000e+00	5.469584e-05	
130	6.500000e+00	5.557638e-05	
131	6.550000e+00	5.649063e-05	
132	6.600000e+00	5.743942e-05	
133	0.000000e+00	-0.000000e+00	
134	5.000000e-02	8.671791e-05	
135	1.000000e-01	1.663171e-04	
136	1.500000e-01	2.390312e-04	
137	2.000000e-01	3.050836e-04	
138	2.500000e-01	3.646879e-04	
139	3.000000e-01	4.180487e-04	
140	3.500000e-01	4.653612e-04	
141	4.000000e-01	5.068122e-04	
142	4.500000e-01	5.425797e-04	
143	5.000000e-01	5.728358e-04	
144	5.500000e-01	5.977588e-04	
145	6.000000e-01	6.175841e-04	
146	6.500000e-01	6.327371e-04	
147	7.000000e-01	6.439778e-04	
148	7.500000e-01	6.523007e-04	
149	8.000000e-01	6.586195e-04	
150	8.500000e-01	6.635923e-04	
151	9.000000e-01	6.676446e-04	
152	9.500000e-01	6.710451e-04	
153	1.000000e+00	6.739674e-04	
154	1.050000e+00	6.765268e-04	
155	1.100000e+00	6.788032e-04	
156	1.150000e+00	6.808532e-04	
157	1.200000e+00	6.827187e-04	
158	1.250000e+00	6.844310e-04	
159	1.300000e+00	6.860143e-04	
160	1.350000e+00	6.874874e-04	
161	1.400000e+00	6.888656e-04	
162	1.450000e+00	6.901610e-04	
163	1.500000e+00	6.913837e-04	
164	1.550000e+00	6.925421e-04	
165	1.600000e+00	6.936431e-04	
166	1.650000e+00	6.946926e-04	
167	1.700000e+00	6.956957e-04	
168	1.750000e+00	6.966569e-04	
169	1.800000e+00	6.975797e-04	
170	1.850000e+00	6.984676e-04	

Index   v-sweep         -i(vds)         
--------------------------------------------------------------------------------
171	1.900000e+00	6.993233e-04	
172	1.950000e+00	7.001496e-04	
173	2.000000e+00	7.009485e-04	
174	2.050000e+00	7.017221e-04	
175	2.100000e+00	7.024723e-04	
176	2.150000e+00	7.032006e-04	
177	2.200000e+00	7.039084e-04	
178	2.250000e+00	7.045971e-04	
179	2.300000e+00	7.052679e-04	
180	2.350000e+00	7.059219e-04	
181	2.400000e+00	7.065600e-04	
182	2.450000e+00	7.071832e-04	
183	2.500000e+00	7.077922e-04	
184	2.550000e+00	7.083880e-04	
185	2.600000e+00	7.089711e-04	
186	2.650000e+00	7.095422e-04	
187	2.700000e+00	7.101020e-04	
188	2.750000e+00	7.106510e-04	
189	2.800000e+00	7.111899e-04	
190	2.850000e+00	7.117190e-04	
191	2.900000e+00	7.122391e-04	
192	2.950000e+00	7.127505e-04	
193	3.000000e+00	7.132538e-04	
194	3.050000e+00	7.137494e-04	
195	3.100000e+00	7.142380e-04	
196	3.150000e+00	7.147200e-04	
197	3.200000e+00	7.151961e-04	
198	3.250000e+00	7.156668e-04	
199	3.300000e+00	7.161328e-04	
200	3.350000e+00	7.165949e-04	
201	3.400000e+00	7.170538e-04	
202	3.450000e+00	7.175104e-04	
203	3.500000e+00	7.179656e-04	
204	3.550000e+00	7.184205e-04	
205	3.600000e+00	7.188763e-04	
206	3.650000e+00	7.193342e-04	
207	3.700000e+00	7.197958e-04	
208	3.750000e+00	7.202624e-04	
209	3.800000e+00	7.207359e-04	
210	3.850000e+00	7.212181e-04	
211	3.900000e+00	7.217110e-04	
212	3.950000e+00	7.222170e-04	
213	4.000000e+00	7.227384e-04	
214	4.050000e+00	7.232779e-04	
215	4.100000e+00	7.238383e-04	
216	4.150000e+00	7.244227e-04	
217	4.200000e+00	7.250344e-04	
218	4.250000e+00	7.256769e-04	
219	4.300000e+00	7.263540e-04	
220	4.350000e+00	7.270698e-04	
221	4.400000e+00	7.278284e-04	
222	4.450000e+00	7.286345e-04	
223	4.500000e+00	7.294929e-04	
224	4.550000e+00	7.304086e-04	
225	4.600000e+00	7.313869e-04	
226	4.650000e+00	7.324336e-04	
227	4.700000e+00	7.335544e-04	
228	4.750000e+00	7.347555e-04	

Index   v-sweep         -i(vds)         
--------------------------------------------------------------------------------
229	4.800000e+00	7.360434e-04	
230	4.850000e+00	7.374248e-04	
231	4.900000e+00	7.389066e-04	
232	4.950000e+00	7.404960e-04	
233	5.000000e+00	7.422007e-04	
234	5.050000e+00	7.440284e-04	
235	5.100000e+00	7.459872e-04	
236	5.150000e+00	7.480853e-04	
237	5.200000e+00	7.503312e-04	
238	5.250000e+00	7.527339e-04	
239	5.300000e+00	7.553024e-04	
240	5.350000e+00	7.580459e-04	
241	5.400000e+00	7.609741e-04	
242	5.450000e+00	7.640965e-04	
243	5.500000e+00	7.674233e-04	
244	5.550000e+00	7.709646e-04	
245	5.600000e+00	7.747307e-04	
246	5.650000e+00	7.787324e-04	
247	5.700000e+00	7.829803e-04	
248	5.750000e+00	7.874854e-04	
249	5.800000e+00	7.922590e-04	
250	5.850000e+00	7.973122e-04	
251	5.900000e+00	8.026566e-04	
252	5.950000e+00	8.083038e-04	
253	6.000000e+00	8.142656e-04	
254	6.050000e+00	8.205539e-04	
255	6.100000e+00	8.271807e-04	
256	6.150000e+00	8.341582e-04	
257	6.200000e+00	8.414986e-04	
258	6.250000e+00	8.492144e-04	
259	6.300000e+00	8.573179e-04	
260	6.350000e+00	8.658218e-04	
261	6.400000e+00	8.747387e-04	
262	6.450000e+00	8.840813e-04	
263	6.500000e+00	8.938624e-04	
264	6.550000e+00	9.040948e-04	
265	6.600000e+00	9.147913e-04	
266	0.000000e+00	-0.000000e+00	
267	5.000000e-02	1.427935e-04	
268	1.000000e-01	2.778424e-04	
269	1.500000e-01	4.054012e-04	
270	2.000000e-01	5.257130e-04	
271	2.500000e-01	6.390101e-04	
272	3.000000e-01	7.455145e-04	
273	3.500000e-01	8.454379e-04	
274	4.000000e-01	9.389827e-04	
275	4.500000e-01	1.026342e-03	
276	5.000000e-01	1.107698e-03	
277	5.500000e-01	1.183226e-03	
278	6.000000e-01	1.253089e-03	
279	6.500000e-01	1.317440e-03	
280	7.000000e-01	1.376417e-03	
281	7.500000e-01	1.430138e-03	
282	8.000000e-01	1.478696e-03	
283	8.500000e-01	1.522144e-03	
284	9.000000e-01	1.560479e-03	
285	9.500000e-01	1.593650e-03	
286	1.000000e+00	1.621612e-03	

Index   v-sweep         -i(vds)         
--------------------------------------------------------------------------------
287	1.050000e+00	1.644488e-03	
288	1.100000e+00	1.662743e-03	
289	1.150000e+00	1.677163e-03	
290	1.200000e+00	1.688629e-03	
291	1.250000e+00	1.697905e-03	
292	1.300000e+00	1.705569e-03	
293	1.350000e+00	1.712036e-03	
294	1.400000e+00	1.717596e-03	
295	1.450000e+00	1.722455e-03	
296	1.500000e+00	1.726759e-03	
297	1.550000e+00	1.730618e-03	
298	1.600000e+00	1.734111e-03	
299	1.650000e+00	1.737301e-03	
300	1.700000e+00	1.740235e-03	
301	1.750000e+00	1.742952e-03	
302	1.800000e+00	1.745480e-03	
303	1.850000e+00	1.747845e-03	
304	1.900000e+00	1.750067e-03	
305	1.950000e+00	1.752162e-03	
306	2.000000e+00	1.754144e-03	
307	2.050000e+00	1.756026e-03	
308	2.100000e+00	1.757817e-03	
309	2.150000e+00	1.759527e-03	
310	2.200000e+00	1.761161e-03	
311	2.250000e+00	1.762728e-03	
312	2.300000e+00	1.764233e-03	
313	2.350000e+00	1.765680e-03	
314	2.400000e+00	1.767075e-03	
315	2.450000e+00	1.768421e-03	
316	2.500000e+00	1.769722e-03	
317	2.550000e+00	1.770980e-03	
318	2.600000e+00	1.772200e-03	
319	2.650000e+00	1.773383e-03	
320	2.700000e+00	1.774531e-03	
321	2.750000e+00	1.775647e-03	
322	2.800000e+00	1.776733e-03	
323	2.850000e+00	1.777791e-03	
324	2.900000e+00	1.778822e-03	
325	2.950000e+00	1.779827e-03	
326	3.000000e+00	1.780809e-03	
327	3.050000e+00	1.781767e-03	
328	3.100000e+00	1.782705e-03	
329	3.150000e+00	1.783622e-03	
330	3.200000e+00	1.784519e-03	
331	3.250000e+00	1.785399e-03	
332	3.300000e+00	1.786262e-03	
333	3.350000e+00	1.787108e-03	
334	3.400000e+00	1.787940e-03	
335	3.450000e+00	1.788757e-03	
336	3.500000e+00	1.789562e-03	
337	3.550000e+00	1.790356e-03	
338	3.600000e+00	1.791139e-03	
339	3.650000e+00	1.791914e-03	
340	3.700000e+00	1.792681e-03	
341	3.750000e+00	1.793442e-03	
342	3.800000e+00	1.794200e-03	
343	3.850000e+00	1.794956e-03	
344	3.900000e+00	1.795713e-03	

Index   v-sweep         -i(vds)         
--------------------------------------------------------------------------------
345	3.950000e+00	1.796473e-03	
346	4.000000e+00	1.797239e-03	
347	4.050000e+00	1.798015e-03	
348	4.100000e+00	1.798803e-03	
349	4.150000e+00	1.799608e-03	
350	4.200000e+00	1.800435e-03	
351	4.250000e+00	1.801286e-03	
352	4.300000e+00	1.802169e-03	
353	4.350000e+00	1.803088e-03	
354	4.400000e+00	1.804049e-03	
355	4.450000e+00	1.805059e-03	
356	4.500000e+00	1.806126e-03	
357	4.550000e+00	1.807256e-03	
358	4.600000e+00	1.808459e-03	
359	4.650000e+00	1.809743e-03	
360	4.700000e+00	1.811117e-03	
361	4.750000e+00	1.812591e-03	
362	4.800000e+00	1.814177e-03	
363	4.850000e+00	1.815886e-03	
364	4.900000e+00	1.817729e-03	
365	4.950000e+00	1.819719e-03	
366	5.000000e+00	1.821870e-03	
367	5.050000e+00	1.824196e-03	
368	5.100000e+00	1.826711e-03	
369	5.150000e+00	1.829431e-03	
370	5.200000e+00	1.832371e-03	
371	5.250000e+00	1.835548e-03	
372	5.300000e+00	1.838981e-03	
373	5.350000e+00	1.842686e-03	
374	5.400000e+00	1.846682e-03	
375	5.450000e+00	1.850990e-03	
376	5.500000e+00	1.855628e-03	
377	5.550000e+00	1.860617e-03	
378	5.600000e+00	1.865979e-03	
379	5.650000e+00	1.871736e-03	
380	5.700000e+00	1.877909e-03	
381	5.750000e+00	1.884522e-03	
382	5.800000e+00	1.891599e-03	
383	5.850000e+00	1.899163e-03	
384	5.900000e+00	1.907239e-03	
385	5.950000e+00	1.915853e-03	
386	6.000000e+00	1.925029e-03	
387	6.050000e+00	1.934795e-03	
388	6.100000e+00	1.945176e-03	
389	6.150000e+00	1.956200e-03	
390	6.200000e+00	1.967894e-03	
391	6.250000e+00	1.980285e-03	
392	6.300000e+00	1.993404e-03	
393	6.350000e+00	2.007276e-03	
394	6.400000e+00	2.021933e-03	
395	6.450000e+00	2.037403e-03	
396	6.500000e+00	2.053715e-03	
397	6.550000e+00	2.070899e-03	
398	6.600000e+00	2.088986e-03	
399	0.000000e+00	-0.000000e+00	
400	5.000000e-02	1.856098e-04	
401	1.000000e-01	3.632987e-04	
402	1.500000e-01	5.333132e-04	

Index   v-sweep         -i(vds)         
--------------------------------------------------------------------------------
403	2.000000e-01	6.958894e-04	
404	2.500000e-01	8.512535e-04	
405	3.000000e-01	9.996224e-04	
406	3.500000e-01	1.141204e-03	
407	4.000000e-01	1.276197e-03	
408	4.500000e-01	1.404791e-03	
409	5.000000e-01	1.527170e-03	
410	5.500000e-01	1.643507e-03	
411	6.000000e-01	1.753971e-03	
412	6.500000e-01	1.858720e-03	
413	7.000000e-01	1.957907e-03	
414	7.500000e-01	2.051679e-03	
415	8.000000e-01	2.140172e-03	
416	8.500000e-01	2.223516e-03	
417	9.000000e-01	2.301832e-03	
418	9.500000e-01	2.375229e-03	
419	1.000000e+00	2.443799e-03	
420	1.050000e+00	2.507615e-03	
421	1.100000e+00	2.566718e-03	
422	1.150000e+00	2.621105e-03	
423	1.200000e+00	2.670712e-03	
424	1.250000e+00	2.715398e-03	
425	1.300000e+00	2.754958e-03	
426	1.350000e+00	2.789198e-03	
427	1.400000e+00	2.818097e-03	
428	1.450000e+00	2.841965e-03	
429	1.500000e+00	2.861449e-03	
430	1.550000e+00	2.877357e-03	
431	1.600000e+00	2.890469e-03	
432	1.650000e+00	2.901434e-03	
433	1.700000e+00	2.910748e-03	
434	1.750000e+00	2.918783e-03	
435	1.800000e+00	2.925812e-03	
436	1.850000e+00	2.932037e-03	
437	1.900000e+00	2.937611e-03	
438	1.950000e+00	2.942649e-03	
439	2.000000e+00	2.947240e-03	
440	2.050000e+00	2.951454e-03	
441	2.100000e+00	2.955345e-03	
442	2.150000e+00	2.958958e-03	
443	2.200000e+00	2.962330e-03	
444	2.250000e+00	2.965491e-03	
445	2.300000e+00	2.968464e-03	
446	2.350000e+00	2.971272e-03	
447	2.400000e+00	2.973931e-03	
448	2.450000e+00	2.976456e-03	
449	2.500000e+00	2.978861e-03	
450	2.550000e+00	2.981157e-03	
451	2.600000e+00	2.983353e-03	
452	2.650000e+00	2.985458e-03	
453	2.700000e+00	2.987478e-03	
454	2.750000e+00	2.989422e-03	
455	2.800000e+00	2.991295e-03	
456	2.850000e+00	2.993101e-03	
457	2.900000e+00	2.994846e-03	
458	2.950000e+00	2.996534e-03	
459	3.000000e+00	2.998169e-03	
460	3.050000e+00	2.999754e-03	

Index   v-sweep         -i(vds)         
--------------------------------------------------------------------------------
461	3.100000e+00	3.001292e-03	
462	3.150000e+00	3.002786e-03	
463	3.200000e+00	3.004238e-03	
464	3.250000e+00	3.005652e-03	
465	3.300000e+00	3.007029e-03	
466	3.350000e+00	3.008371e-03	
467	3.400000e+00	3.009681e-03	
468	3.450000e+00	3.010959e-03	
469	3.500000e+00	3.012209e-03	
470	3.550000e+00	3.013431e-03	
471	3.600000e+00	3.014626e-03	
472	3.650000e+00	3.015798e-03	
473	3.700000e+00	3.016946e-03	
474	3.750000e+00	3.018073e-03	
475	3.800000e+00	3.019181e-03	
476	3.850000e+00	3.020271e-03	
477	3.900000e+00	3.021345e-03	
478	3.950000e+00	3.022406e-03	
479	4.000000e+00	3.023455e-03	
480	4.050000e+00	3.024495e-03	
481	4.100000e+00	3.025528e-03	
482	4.150000e+00	3.026559e-03	
483	4.200000e+00	3.027590e-03	
484	4.250000e+00	3.028625e-03	
485	4.300000e+00	3.029669e-03	
486	4.350000e+00	3.030725e-03	
487	4.400000e+00	3.031801e-03	
488	4.450000e+00	3.032900e-03	
489	4.500000e+00	3.034031e-03	
490	4.550000e+00	3.035200e-03	
491	4.600000e+00	3.036414e-03	
492	4.650000e+00	3.037684e-03	
493	4.700000e+00	3.039017e-03	
494	4.750000e+00	3.040424e-03	
495	4.800000e+00	3.041917e-03	
496	4.850000e+00	3.043508e-03	
497	4.900000e+00	3.045208e-03	
498	4.950000e+00	3.047033e-03	
499	5.000000e+00	3.048997e-03	
500	5.050000e+00	3.051117e-03	
501	5.100000e+00	3.053408e-03	
502	5.150000e+00	3.055890e-03	
503	5.200000e+00	3.058580e-03	
504	5.250000e+00	3.061501e-03	
505	5.300000e+00	3.064672e-03	
506	5.350000e+00	3.068117e-03	
507	5.400000e+00	3.071858e-03	
508	5.450000e+00	3.075921e-03	
509	5.500000e+00	3.080332e-03	
510	5.550000e+00	3.085116e-03	
511	5.600000e+00	3.090304e-03	
512	5.650000e+00	3.095923e-03	
513	5.700000e+00	3.102005e-03	
514	5.750000e+00	3.108579e-03	
515	5.800000e+00	3.115680e-03	
516	5.850000e+00	3.123341e-03	
517	5.900000e+00	3.131596e-03	
518	5.950000e+00	3.140480e-03	

Index   v-sweep         -i(vds)         
--------------------------------------------------------------------------------
519	6.000000e+00	3.150032e-03	
520	6.050000e+00	3.160288e-03	
521	6.100000e+00	3.171286e-03	
522	6.150000e+00	3.183068e-03	
523	6.200000e+00	3.195672e-03	
524	6.250000e+00	3.209141e-03	
525	6.300000e+00	3.223516e-03	
526	6.350000e+00	3.238841e-03	
527	6.400000e+00	3.255160e-03	
528	6.450000e+00	3.272516e-03	
529	6.500000e+00	3.290957e-03	
530	6.550000e+00	3.310526e-03	
531	6.600000e+00	3.331272e-03	
532	0.000000e+00	-0.000000e+00	
533	5.000000e-02	2.166082e-04	
534	1.000000e-01	4.255054e-04	
535	1.500000e-01	6.269126e-04	
536	2.000000e-01	8.210424e-04	
537	2.500000e-01	1.008099e-03	
538	3.000000e-01	1.188280e-03	
539	3.500000e-01	1.361773e-03	
540	4.000000e-01	1.528760e-03	
541	4.500000e-01	1.689417e-03	
542	5.000000e-01	1.843911e-03	
543	5.500000e-01	1.992403e-03	
544	6.000000e-01	2.135049e-03	
545	6.500000e-01	2.271997e-03	
546	7.000000e-01	2.403392e-03	
547	7.500000e-01	2.529370e-03	
548	8.000000e-01	2.650065e-03	
549	8.500000e-01	2.765604e-03	
550	9.000000e-01	2.876110e-03	
551	9.500000e-01	2.981699e-03	
552	1.000000e+00	3.082484e-03	
553	1.050000e+00	3.178572e-03	
554	1.100000e+00	3.270064e-03	
555	1.150000e+00	3.357053e-03	
556	1.200000e+00	3.439625e-03	
557	1.250000e+00	3.517853e-03	
558	1.300000e+00	3.591797e-03	
559	1.350000e+00	3.661495e-03	
560	1.400000e+00	3.726957e-03	
561	1.450000e+00	3.788151e-03	
562	1.500000e+00	3.844988e-03	
563	1.550000e+00	3.897308e-03	
564	1.600000e+00	3.944872e-03	
565	1.650000e+00	3.987397e-03	
566	1.700000e+00	4.024651e-03	
567	1.750000e+00	4.056603e-03	
568	1.800000e+00	4.083536e-03	
569	1.850000e+00	4.106023e-03	
570	1.900000e+00	4.124786e-03	
571	1.950000e+00	4.140543e-03	
572	2.000000e+00	4.153918e-03	
573	2.050000e+00	4.165411e-03	
574	2.100000e+00	4.175412e-03	
575	2.150000e+00	4.184215e-03	
576	2.200000e+00	4.192049e-03	

Index   v-sweep         -i(vds)         
--------------------------------------------------------------------------------
577	2.250000e+00	4.199087e-03	
578	2.300000e+00	4.205464e-03	
579	2.350000e+00	4.211284e-03	
580	2.400000e+00	4.216633e-03	
581	2.450000e+00	4.221576e-03	
582	2.500000e+00	4.226169e-03	
583	2.550000e+00	4.230457e-03	
584	2.600000e+00	4.234475e-03	
585	2.650000e+00	4.238256e-03	
586	2.700000e+00	4.241825e-03	
587	2.750000e+00	4.245204e-03	
588	2.800000e+00	4.248413e-03	
589	2.850000e+00	4.251467e-03	
590	2.900000e+00	4.254381e-03	
591	2.950000e+00	4.257167e-03	
592	3.000000e+00	4.259837e-03	
593	3.050000e+00	4.262398e-03	
594	3.100000e+00	4.264861e-03	
595	3.150000e+00	4.267232e-03	
596	3.200000e+00	4.269518e-03	
597	3.250000e+00	4.271725e-03	
598	3.300000e+00	4.273858e-03	
599	3.350000e+00	4.275923e-03	
600	3.400000e+00	4.277924e-03	
601	3.450000e+00	4.279864e-03	
602	3.500000e+00	4.281748e-03	
603	3.550000e+00	4.283579e-03	
604	3.600000e+00	4.285360e-03	
605	3.650000e+00	4.287093e-03	
606	3.700000e+00	4.288782e-03	
607	3.750000e+00	4.290429e-03	
608	3.800000e+00	4.292036e-03	
609	3.850000e+00	4.293605e-03	
610	3.900000e+00	4.295139e-03	
611	3.950000e+00	4.296640e-03	
612	4.000000e+00	4.298109e-03	
613	4.050000e+00	4.299550e-03	
614	4.100000e+00	4.300964e-03	
615	4.150000e+00	4.302353e-03	
616	4.200000e+00	4.303721e-03	
617	4.250000e+00	4.305069e-03	
618	4.300000e+00	4.306401e-03	
619	4.350000e+00	4.307719e-03	
620	4.400000e+00	4.309028e-03	
621	4.450000e+00	4.310332e-03	
622	4.500000e+00	4.311634e-03	
623	4.550000e+00	4.312941e-03	
624	4.600000e+00	4.314256e-03	
625	4.650000e+00	4.315587e-03	
626	4.700000e+00	4.316941e-03	
627	4.750000e+00	4.318325e-03	
628	4.800000e+00	4.319748e-03	
629	4.850000e+00	4.321220e-03	
630	4.900000e+00	4.322750e-03	
631	4.950000e+00	4.324350e-03	
632	5.000000e+00	4.326032e-03	
633	5.050000e+00	4.327812e-03	
634	5.100000e+00	4.329702e-03	

Index   v-sweep         -i(vds)         
--------------------------------------------------------------------------------
635	5.150000e+00	4.331720e-03	
636	5.200000e+00	4.333882e-03	
637	5.250000e+00	4.336208e-03	
638	5.300000e+00	4.338717e-03	
639	5.350000e+00	4.341432e-03	
640	5.400000e+00	4.344375e-03	
641	5.450000e+00	4.347571e-03	
642	5.500000e+00	4.351046e-03	
643	5.550000e+00	4.354827e-03	
644	5.600000e+00	4.358943e-03	
645	5.650000e+00	4.363426e-03	
646	5.700000e+00	4.368308e-03	
647	5.750000e+00	4.373623e-03	
648	5.800000e+00	4.379405e-03	
649	5.850000e+00	4.385693e-03	
650	5.900000e+00	4.392525e-03	
651	5.950000e+00	4.399942e-03	
652	6.000000e+00	4.407985e-03	
653	6.050000e+00	4.416698e-03	
654	6.100000e+00	4.426126e-03	
655	6.150000e+00	4.436316e-03	
656	6.200000e+00	4.447316e-03	
657	6.250000e+00	4.459175e-03	
658	6.300000e+00	4.471944e-03	
659	6.350000e+00	4.485677e-03	
660	6.400000e+00	4.500427e-03	
661	6.450000e+00	4.516249e-03	
662	6.500000e+00	4.533200e-03	
663	6.550000e+00	4.551337e-03	
664	6.600000e+00	4.570721e-03	
665	0.000000e+00	-0.000000e+00	
666	5.000000e-02	2.376138e-04	
667	1.000000e-01	4.679847e-04	
668	1.500000e-01	6.913013e-04	
669	2.000000e-01	9.077453e-04	
670	2.500000e-01	1.117493e-03	
671	3.000000e-01	1.320713e-03	
672	3.500000e-01	1.517569e-03	
673	4.000000e-01	1.708220e-03	
674	4.500000e-01	1.892818e-03	
675	5.000000e-01	2.071510e-03	
676	5.500000e-01	2.244438e-03	
677	6.000000e-01	2.411739e-03	
678	6.500000e-01	2.573545e-03	
679	7.000000e-01	2.729984e-03	
680	7.500000e-01	2.881178e-03	
681	8.000000e-01	3.027246e-03	
682	8.500000e-01	3.168304e-03	
683	9.000000e-01	3.304461e-03	
684	9.500000e-01	3.435826e-03	
685	1.000000e+00	3.562501e-03	
686	1.050000e+00	3.684587e-03	
687	1.100000e+00	3.802181e-03	
688	1.150000e+00	3.915375e-03	
689	1.200000e+00	4.024260e-03	
690	1.250000e+00	4.128922e-03	
691	1.300000e+00	4.229444e-03	
692	1.350000e+00	4.325904e-03	

Index   v-sweep         -i(vds)         
--------------------------------------------------------------------------------
693	1.400000e+00	4.418375e-03	
694	1.450000e+00	4.506927e-03	
695	1.500000e+00	4.591618e-03	
696	1.550000e+00	4.672500e-03	
697	1.600000e+00	4.749611e-03	
698	1.650000e+00	4.822973e-03	
699	1.700000e+00	4.892583e-03	
700	1.750000e+00	4.958405e-03	
701	1.800000e+00	5.020356e-03	
702	1.850000e+00	5.078297e-03	
703	1.900000e+00	5.132015e-03	
704	1.950000e+00	5.181232e-03	
705	2.000000e+00	5.225648e-03	
706	2.050000e+00	5.265025e-03	
707	2.100000e+00	5.299317e-03	
708	2.150000e+00	5.328746e-03	
709	2.200000e+00	5.353786e-03	
710	2.250000e+00	5.375057e-03	
711	2.300000e+00	5.393200e-03	
712	2.350000e+00	5.408795e-03	
713	2.400000e+00	5.422331e-03	
714	2.450000e+00	5.434200e-03	
715	2.500000e+00	5.444711e-03	
716	2.550000e+00	5.454108e-03	
717	2.600000e+00	5.462579e-03	
718	2.650000e+00	5.470275e-03	
719	2.700000e+00	5.477314e-03	
720	2.750000e+00	5.483793e-03	
721	2.800000e+00	5.489789e-03	
722	2.850000e+00	5.495365e-03	
723	2.900000e+00	5.500574e-03	
724	2.950000e+00	5.505459e-03	
725	3.000000e+00	5.510056e-03	
726	3.050000e+00	5.514397e-03	
727	3.100000e+00	5.518508e-03	
728	3.150000e+00	5.522411e-03	
729	3.200000e+00	5.526127e-03	
730	3.250000e+00	5.529673e-03	
731	3.300000e+00	5.533062e-03	
732	3.350000e+00	5.536309e-03	
733	3.400000e+00	5.539424e-03	
734	3.450000e+00	5.542418e-03	
735	3.500000e+00	5.545301e-03	
736	3.550000e+00	5.548079e-03	
737	3.600000e+00	5.550761e-03	
738	3.650000e+00	5.553353e-03	
739	3.700000e+00	5.555861e-03	
740	3.750000e+00	5.558290e-03	
741	3.800000e+00	5.560646e-03	
742	3.850000e+00	5.562932e-03	
743	3.900000e+00	5.565154e-03	
744	3.950000e+00	5.567313e-03	
745	4.000000e+00	5.569415e-03	
746	4.050000e+00	5.571462e-03	
747	4.100000e+00	5.573458e-03	
748	4.150000e+00	5.575404e-03	
749	4.200000e+00	5.577305e-03	
750	4.250000e+00	5.579163e-03	

Index   v-sweep         -i(vds)         
--------------------------------------------------------------------------------
751	4.300000e+00	5.580980e-03	
752	4.350000e+00	5.582758e-03	
753	4.400000e+00	5.584502e-03	
754	4.450000e+00	5.586213e-03	
755	4.500000e+00	5.587895e-03	
756	4.550000e+00	5.589550e-03	
757	4.600000e+00	5.591183e-03	
758	4.650000e+00	5.592796e-03	
759	4.700000e+00	5.594395e-03	
760	4.750000e+00	5.595983e-03	
761	4.800000e+00	5.597566e-03	
762	4.850000e+00	5.599149e-03	
763	4.900000e+00	5.600740e-03	
764	4.950000e+00	5.602346e-03	
765	5.000000e+00	5.603974e-03	
766	5.050000e+00	5.605634e-03	
767	5.100000e+00	5.607335e-03	
768	5.150000e+00	5.609090e-03	
769	5.200000e+00	5.610910e-03	
770	5.250000e+00	5.612809e-03	
771	5.300000e+00	5.614802e-03	
772	5.350000e+00	5.616906e-03	
773	5.400000e+00	5.619138e-03	
774	5.450000e+00	5.621518e-03	
775	5.500000e+00	5.624067e-03	
776	5.550000e+00	5.626808e-03	
777	5.600000e+00	5.629765e-03	
778	5.650000e+00	5.632964e-03	
779	5.700000e+00	5.636435e-03	
780	5.750000e+00	5.640206e-03	
781	5.800000e+00	5.644311e-03	
782	5.850000e+00	5.648782e-03	
783	5.900000e+00	5.653657e-03	
784	5.950000e+00	5.658973e-03	
785	6.000000e+00	5.664770e-03	
786	6.050000e+00	5.671091e-03	
787	6.100000e+00	5.677980e-03	
788	6.150000e+00	5.685483e-03	
789	6.200000e+00	5.693648e-03	
790	6.250000e+00	5.702527e-03	
791	6.300000e+00	5.712172e-03	
792	6.350000e+00	5.722638e-03	
793	6.400000e+00	5.733980e-03	
794	6.450000e+00	5.746259e-03	
795	6.500000e+00	5.759535e-03	
796	6.550000e+00	5.773870e-03	
797	6.600000e+00	5.789329e-03	
Note: No ".plot", ".print", or ".fourier" lines; no simulations run
