
Note: Compatibility modes selected: hs

Warning: m=xx on .subckt line will override multiplier m hierarchy!


Circuit: ***************************

Doing analysis at TEMP = 25.000000 and TNOM = 25.000000


No. of Data Rows : 798
                          ***************************
                          DC transfer characteristic  Mon Jan  9 13:57:40  2023
--------------------------------------------------------------------------------
Index   v-sweep         -i(vds)         
--------------------------------------------------------------------------------
0	0.000000e+00	-0.000000e+00	
1	5.000000e-02	1.448742e-05	
2	1.000000e-01	2.488106e-05	
3	1.500000e-01	3.154237e-05	
4	2.000000e-01	3.527717e-05	
5	2.500000e-01	3.741674e-05	
6	3.000000e-01	3.892844e-05	
7	3.500000e-01	4.016703e-05	
8	4.000000e-01	4.125106e-05	
9	4.500000e-01	4.223194e-05	
10	5.000000e-01	4.313767e-05	
11	5.500000e-01	4.398580e-05	
12	6.000000e-01	4.478822e-05	
13	6.500000e-01	4.555347e-05	
14	7.000000e-01	4.628791e-05	
15	7.500000e-01	4.699641e-05	
16	8.000000e-01	4.768278e-05	
17	8.500000e-01	4.835007e-05	
18	9.000000e-01	4.900076e-05	
19	9.500000e-01	4.963690e-05	
20	1.000000e+00	5.026018e-05	
21	1.050000e+00	5.087201e-05	
22	1.100000e+00	5.147363e-05	
23	1.150000e+00	5.206606e-05	
24	1.200000e+00	5.265021e-05	
25	1.250000e+00	5.322683e-05	
26	1.300000e+00	5.379662e-05	
27	1.350000e+00	5.436018e-05	
28	1.400000e+00	5.491801e-05	
29	1.450000e+00	5.547060e-05	
30	1.500000e+00	5.601835e-05	
31	1.550000e+00	5.656164e-05	
32	1.600000e+00	5.710081e-05	
33	1.650000e+00	5.763614e-05	
34	1.700000e+00	5.816791e-05	
35	1.750000e+00	5.869637e-05	
36	1.800000e+00	5.922175e-05	
37	1.850000e+00	5.974423e-05	
38	1.900000e+00	6.026402e-05	
39	1.950000e+00	6.078128e-05	
40	2.000000e+00	6.129617e-05	
41	2.050000e+00	6.180882e-05	
42	2.100000e+00	6.231939e-05	
43	2.150000e+00	6.282798e-05	
44	2.200000e+00	6.333471e-05	
45	2.250000e+00	6.383969e-05	
46	2.300000e+00	6.434303e-05	
47	2.350000e+00	6.484480e-05	
48	2.400000e+00	6.534512e-05	
49	2.450000e+00	6.584405e-05	
50	2.500000e+00	6.634168e-05	
51	2.550000e+00	6.683809e-05	
52	2.600000e+00	6.733337e-05	
53	2.650000e+00	6.782758e-05	
54	2.700000e+00	6.832081e-05	

Index   v-sweep         -i(vds)         
--------------------------------------------------------------------------------
55	2.750000e+00	6.881314e-05	
56	2.800000e+00	6.930466e-05	
57	2.850000e+00	6.979545e-05	
58	2.900000e+00	7.028561e-05	
59	2.950000e+00	7.077523e-05	
60	3.000000e+00	7.126443e-05	
61	3.050000e+00	7.175333e-05	
62	3.100000e+00	7.224204e-05	
63	3.150000e+00	7.273072e-05	
64	3.200000e+00	7.321952e-05	
65	3.250000e+00	7.370861e-05	
66	3.300000e+00	7.419817e-05	
67	3.350000e+00	7.468842e-05	
68	3.400000e+00	7.517958e-05	
69	3.450000e+00	7.567189e-05	
70	3.500000e+00	7.616563e-05	
71	3.550000e+00	7.666110e-05	
72	3.600000e+00	7.715862e-05	
73	3.650000e+00	7.765854e-05	
74	3.700000e+00	7.816124e-05	
75	3.750000e+00	7.866714e-05	
76	3.800000e+00	7.917668e-05	
77	3.850000e+00	7.969035e-05	
78	3.900000e+00	8.020865e-05	
79	3.950000e+00	8.073215e-05	
80	4.000000e+00	8.126144e-05	
81	4.050000e+00	8.179714e-05	
82	4.100000e+00	8.233994e-05	
83	4.150000e+00	8.289054e-05	
84	4.200000e+00	8.344970e-05	
85	4.250000e+00	8.401822e-05	
86	4.300000e+00	8.459696e-05	
87	4.350000e+00	8.518680e-05	
88	4.400000e+00	8.578869e-05	
89	4.450000e+00	8.640360e-05	
90	4.500000e+00	8.703257e-05	
91	4.550000e+00	8.767668e-05	
92	4.600000e+00	8.833708e-05	
93	4.650000e+00	8.901492e-05	
94	4.700000e+00	8.971145e-05	
95	4.750000e+00	9.042794e-05	
96	4.800000e+00	9.116572e-05	
97	4.850000e+00	9.192617e-05	
98	4.900000e+00	9.271072e-05	
99	4.950000e+00	9.352085e-05	
100	5.000000e+00	9.435808e-05	
101	5.050000e+00	9.522399e-05	
102	5.100000e+00	9.612022e-05	
103	5.150000e+00	9.704844e-05	
104	5.200000e+00	9.801037e-05	
105	5.250000e+00	9.900779e-05	
106	5.300000e+00	1.000425e-04	
107	5.350000e+00	1.011164e-04	
108	5.400000e+00	1.022314e-04	
109	5.450000e+00	1.033895e-04	
110	5.500000e+00	1.045927e-04	
111	5.550000e+00	1.058430e-04	
112	5.600000e+00	1.071425e-04	

Index   v-sweep         -i(vds)         
--------------------------------------------------------------------------------
113	5.650000e+00	1.084934e-04	
114	5.700000e+00	1.098978e-04	
115	5.750000e+00	1.113581e-04	
116	5.800000e+00	1.128764e-04	
117	5.850000e+00	1.144551e-04	
118	5.900000e+00	1.160965e-04	
119	5.950000e+00	1.178031e-04	
120	6.000000e+00	1.195772e-04	
121	6.050000e+00	1.214213e-04	
122	6.100000e+00	1.233380e-04	
123	6.150000e+00	1.253298e-04	
124	6.200000e+00	1.273993e-04	
125	6.250000e+00	1.295490e-04	
126	6.300000e+00	1.317816e-04	
127	6.350000e+00	1.340998e-04	
128	6.400000e+00	1.365064e-04	
129	6.450000e+00	1.390040e-04	
130	6.500000e+00	1.415954e-04	
131	6.550000e+00	1.442834e-04	
132	6.600000e+00	1.470709e-04	
133	0.000000e+00	-0.000000e+00	
134	5.000000e-02	5.880131e-05	
135	1.000000e-01	1.125732e-04	
136	1.500000e-01	1.615256e-04	
137	2.000000e-01	2.058571e-04	
138	2.500000e-01	2.457561e-04	
139	3.000000e-01	2.814020e-04	
140	3.500000e-01	3.129665e-04	
141	4.000000e-01	3.406156e-04	
142	4.500000e-01	3.645128e-04	
143	5.000000e-01	3.848262e-04	
144	5.500000e-01	4.017447e-04	
145	6.000000e-01	4.155198e-04	
146	6.500000e-01	4.265329e-04	
147	7.000000e-01	4.353120e-04	
148	7.500000e-01	4.424191e-04	
149	8.000000e-01	4.483192e-04	
150	8.500000e-01	4.533449e-04	
151	9.000000e-01	4.577229e-04	
152	9.500000e-01	4.616074e-04	
153	1.000000e+00	4.651060e-04	
154	1.050000e+00	4.682957e-04	
155	1.100000e+00	4.712330e-04	
156	1.150000e+00	4.739607e-04	
157	1.200000e+00	4.765116e-04	
158	1.250000e+00	4.789115e-04	
159	1.300000e+00	4.811811e-04	
160	1.350000e+00	4.833370e-04	
161	1.400000e+00	4.853930e-04	
162	1.450000e+00	4.873604e-04	
163	1.500000e+00	4.892490e-04	
164	1.550000e+00	4.910666e-04	
165	1.600000e+00	4.928204e-04	
166	1.650000e+00	4.945163e-04	
167	1.700000e+00	4.961595e-04	
168	1.750000e+00	4.977544e-04	
169	1.800000e+00	4.993051e-04	
170	1.850000e+00	5.008150e-04	

Index   v-sweep         -i(vds)         
--------------------------------------------------------------------------------
171	1.900000e+00	5.022873e-04	
172	1.950000e+00	5.037247e-04	
173	2.000000e+00	5.051297e-04	
174	2.050000e+00	5.065046e-04	
175	2.100000e+00	5.078513e-04	
176	2.150000e+00	5.091716e-04	
177	2.200000e+00	5.104672e-04	
178	2.250000e+00	5.117396e-04	
179	2.300000e+00	5.129902e-04	
180	2.350000e+00	5.142201e-04	
181	2.400000e+00	5.154306e-04	
182	2.450000e+00	5.166228e-04	
183	2.500000e+00	5.177975e-04	
184	2.550000e+00	5.189557e-04	
185	2.600000e+00	5.200982e-04	
186	2.650000e+00	5.212259e-04	
187	2.700000e+00	5.223394e-04	
188	2.750000e+00	5.234394e-04	
189	2.800000e+00	5.245267e-04	
190	2.850000e+00	5.256017e-04	
191	2.900000e+00	5.266652e-04	
192	2.950000e+00	5.277178e-04	
193	3.000000e+00	5.287598e-04	
194	3.050000e+00	5.297921e-04	
195	3.100000e+00	5.308151e-04	
196	3.150000e+00	5.318293e-04	
197	3.200000e+00	5.328355e-04	
198	3.250000e+00	5.338343e-04	
199	3.300000e+00	5.348262e-04	
200	3.350000e+00	5.358120e-04	
201	3.400000e+00	5.367924e-04	
202	3.450000e+00	5.377683e-04	
203	3.500000e+00	5.387404e-04	
204	3.550000e+00	5.397099e-04	
205	3.600000e+00	5.406776e-04	
206	3.650000e+00	5.416447e-04	
207	3.700000e+00	5.426124e-04	
208	3.750000e+00	5.435822e-04	
209	3.800000e+00	5.445553e-04	
210	3.850000e+00	5.455335e-04	
211	3.900000e+00	5.465184e-04	
212	3.950000e+00	5.475119e-04	
213	4.000000e+00	5.485161e-04	
214	4.050000e+00	5.495331e-04	
215	4.100000e+00	5.505653e-04	
216	4.150000e+00	5.516152e-04	
217	4.200000e+00	5.526855e-04	
218	4.250000e+00	5.537792e-04	
219	4.300000e+00	5.548993e-04	
220	4.350000e+00	5.560492e-04	
221	4.400000e+00	5.572323e-04	
222	4.450000e+00	5.584524e-04	
223	4.500000e+00	5.597134e-04	
224	4.550000e+00	5.610195e-04	
225	4.600000e+00	5.623750e-04	
226	4.650000e+00	5.637846e-04	
227	4.700000e+00	5.652530e-04	
228	4.750000e+00	5.667853e-04	

Index   v-sweep         -i(vds)         
--------------------------------------------------------------------------------
229	4.800000e+00	5.683868e-04	
230	4.850000e+00	5.700630e-04	
231	4.900000e+00	5.718195e-04	
232	4.950000e+00	5.736624e-04	
233	5.000000e+00	5.755979e-04	
234	5.050000e+00	5.776323e-04	
235	5.100000e+00	5.797723e-04	
236	5.150000e+00	5.820247e-04	
237	5.200000e+00	5.843967e-04	
238	5.250000e+00	5.868953e-04	
239	5.300000e+00	5.895283e-04	
240	5.350000e+00	5.923033e-04	
241	5.400000e+00	5.952281e-04	
242	5.450000e+00	5.983109e-04	
243	5.500000e+00	6.015600e-04	
244	5.550000e+00	6.049839e-04	
245	5.600000e+00	6.085912e-04	
246	5.650000e+00	6.123909e-04	
247	5.700000e+00	6.163920e-04	
248	5.750000e+00	6.206036e-04	
249	5.800000e+00	6.250351e-04	
250	5.850000e+00	6.296962e-04	
251	5.900000e+00	6.345964e-04	
252	5.950000e+00	6.397456e-04	
253	6.000000e+00	6.451537e-04	
254	6.050000e+00	6.508310e-04	
255	6.100000e+00	6.567875e-04	
256	6.150000e+00	6.630338e-04	
257	6.200000e+00	6.695802e-04	
258	6.250000e+00	6.764374e-04	
259	6.300000e+00	6.836160e-04	
260	6.350000e+00	6.911269e-04	
261	6.400000e+00	6.989809e-04	
262	6.450000e+00	7.071891e-04	
263	6.500000e+00	7.157625e-04	
264	6.550000e+00	7.247121e-04	
265	6.600000e+00	7.340493e-04	
266	0.000000e+00	-0.000000e+00	
267	5.000000e-02	9.156116e-05	
268	1.000000e-01	1.776621e-04	
269	1.500000e-01	2.585239e-04	
270	2.000000e-01	3.343555e-04	
271	2.500000e-01	4.053545e-04	
272	3.000000e-01	4.717080e-04	
273	3.500000e-01	5.335926e-04	
274	4.000000e-01	5.911754e-04	
275	4.500000e-01	6.446148e-04	
276	5.000000e-01	6.940602e-04	
277	5.500000e-01	7.396533e-04	
278	6.000000e-01	7.815271e-04	
279	6.500000e-01	8.198054e-04	
280	7.000000e-01	8.546003e-04	
281	7.500000e-01	8.860075e-04	
282	8.000000e-01	9.140988e-04	
283	8.500000e-01	9.389146e-04	
284	9.000000e-01	9.604726e-04	
285	9.500000e-01	9.788259e-04	
286	1.000000e+00	9.941700e-04	

Index   v-sweep         -i(vds)         
--------------------------------------------------------------------------------
287	1.050000e+00	1.006894e-03	
288	1.100000e+00	1.017493e-03	
289	1.150000e+00	1.026442e-03	
290	1.200000e+00	1.034126e-03	
291	1.250000e+00	1.040832e-03	
292	1.300000e+00	1.046774e-03	
293	1.350000e+00	1.052105e-03	
294	1.400000e+00	1.056943e-03	
295	1.450000e+00	1.061373e-03	
296	1.500000e+00	1.065463e-03	
297	1.550000e+00	1.069265e-03	
298	1.600000e+00	1.072819e-03	
299	1.650000e+00	1.076160e-03	
300	1.700000e+00	1.079314e-03	
301	1.750000e+00	1.082303e-03	
302	1.800000e+00	1.085147e-03	
303	1.850000e+00	1.087860e-03	
304	1.900000e+00	1.090457e-03	
305	1.950000e+00	1.092948e-03	
306	2.000000e+00	1.095343e-03	
307	2.050000e+00	1.097652e-03	
308	2.100000e+00	1.099881e-03	
309	2.150000e+00	1.102036e-03	
310	2.200000e+00	1.104124e-03	
311	2.250000e+00	1.106150e-03	
312	2.300000e+00	1.108119e-03	
313	2.350000e+00	1.110034e-03	
314	2.400000e+00	1.111898e-03	
315	2.450000e+00	1.113717e-03	
316	2.500000e+00	1.115491e-03	
317	2.550000e+00	1.117225e-03	
318	2.600000e+00	1.118920e-03	
319	2.650000e+00	1.120579e-03	
320	2.700000e+00	1.122204e-03	
321	2.750000e+00	1.123796e-03	
322	2.800000e+00	1.125358e-03	
323	2.850000e+00	1.126891e-03	
324	2.900000e+00	1.128397e-03	
325	2.950000e+00	1.129877e-03	
326	3.000000e+00	1.131332e-03	
327	3.050000e+00	1.132764e-03	
328	3.100000e+00	1.134174e-03	
329	3.150000e+00	1.135562e-03	
330	3.200000e+00	1.136930e-03	
331	3.250000e+00	1.138279e-03	
332	3.300000e+00	1.139610e-03	
333	3.350000e+00	1.140925e-03	
334	3.400000e+00	1.142223e-03	
335	3.450000e+00	1.143506e-03	
336	3.500000e+00	1.144775e-03	
337	3.550000e+00	1.146032e-03	
338	3.600000e+00	1.147277e-03	
339	3.650000e+00	1.148512e-03	
340	3.700000e+00	1.149738e-03	
341	3.750000e+00	1.150957e-03	
342	3.800000e+00	1.152171e-03	
343	3.850000e+00	1.153380e-03	
344	3.900000e+00	1.154588e-03	

Index   v-sweep         -i(vds)         
--------------------------------------------------------------------------------
345	3.950000e+00	1.155796e-03	
346	4.000000e+00	1.157007e-03	
347	4.050000e+00	1.158223e-03	
348	4.100000e+00	1.159448e-03	
349	4.150000e+00	1.160684e-03	
350	4.200000e+00	1.161934e-03	
351	4.250000e+00	1.163203e-03	
352	4.300000e+00	1.164495e-03	
353	4.350000e+00	1.165813e-03	
354	4.400000e+00	1.167162e-03	
355	4.450000e+00	1.168549e-03	
356	4.500000e+00	1.169977e-03	
357	4.550000e+00	1.171453e-03	
358	4.600000e+00	1.172982e-03	
359	4.650000e+00	1.174573e-03	
360	4.700000e+00	1.176231e-03	
361	4.750000e+00	1.177963e-03	
362	4.800000e+00	1.179779e-03	
363	4.850000e+00	1.181686e-03	
364	4.900000e+00	1.183693e-03	
365	4.950000e+00	1.185809e-03	
366	5.000000e+00	1.188043e-03	
367	5.050000e+00	1.190407e-03	
368	5.100000e+00	1.192910e-03	
369	5.150000e+00	1.195563e-03	
370	5.200000e+00	1.198379e-03	
371	5.250000e+00	1.201368e-03	
372	5.300000e+00	1.204543e-03	
373	5.350000e+00	1.207918e-03	
374	5.400000e+00	1.211505e-03	
375	5.450000e+00	1.215317e-03	
376	5.500000e+00	1.219370e-03	
377	5.550000e+00	1.223677e-03	
378	5.600000e+00	1.228254e-03	
379	5.650000e+00	1.233116e-03	
380	5.700000e+00	1.238278e-03	
381	5.750000e+00	1.243757e-03	
382	5.800000e+00	1.249569e-03	
383	5.850000e+00	1.255732e-03	
384	5.900000e+00	1.262261e-03	
385	5.950000e+00	1.269176e-03	
386	6.000000e+00	1.276493e-03	
387	6.050000e+00	1.284232e-03	
388	6.100000e+00	1.292410e-03	
389	6.150000e+00	1.301046e-03	
390	6.200000e+00	1.310160e-03	
391	6.250000e+00	1.319771e-03	
392	6.300000e+00	1.329898e-03	
393	6.350000e+00	1.340561e-03	
394	6.400000e+00	1.351781e-03	
395	6.450000e+00	1.363578e-03	
396	6.500000e+00	1.375972e-03	
397	6.550000e+00	1.388985e-03	
398	6.600000e+00	1.402636e-03	
399	0.000000e+00	-0.000000e+00	
400	5.000000e-02	1.158265e-04	
401	1.000000e-01	2.261076e-04	
402	1.500000e-01	3.310523e-04	

Index   v-sweep         -i(vds)         
--------------------------------------------------------------------------------
403	2.000000e-01	4.308590e-04	
404	2.500000e-01	5.257160e-04	
405	3.000000e-01	6.158023e-04	
406	3.500000e-01	7.012876e-04	
407	4.000000e-01	7.823328e-04	
408	4.500000e-01	8.590907e-04	
409	5.000000e-01	9.317062e-04	
410	5.500000e-01	1.000317e-03	
411	6.000000e-01	1.065055e-03	
412	6.500000e-01	1.126043e-03	
413	7.000000e-01	1.183400e-03	
414	7.500000e-01	1.237239e-03	
415	8.000000e-01	1.287665e-03	
416	8.500000e-01	1.334777e-03	
417	9.000000e-01	1.378663e-03	
418	9.500000e-01	1.419399e-03	
419	1.000000e+00	1.457044e-03	
420	1.050000e+00	1.491626e-03	
421	1.100000e+00	1.523133e-03	
422	1.150000e+00	1.551505e-03	
423	1.200000e+00	1.576654e-03	
424	1.250000e+00	1.598535e-03	
425	1.300000e+00	1.617257e-03	
426	1.350000e+00	1.633129e-03	
427	1.400000e+00	1.646594e-03	
428	1.450000e+00	1.658110e-03	
429	1.500000e+00	1.668076e-03	
430	1.550000e+00	1.676815e-03	
431	1.600000e+00	1.684574e-03	
432	1.650000e+00	1.691539e-03	
433	1.700000e+00	1.697854e-03	
434	1.750000e+00	1.703630e-03	
435	1.800000e+00	1.708952e-03	
436	1.850000e+00	1.713888e-03	
437	1.900000e+00	1.718493e-03	
438	1.950000e+00	1.722809e-03	
439	2.000000e+00	1.726874e-03	
440	2.050000e+00	1.730717e-03	
441	2.100000e+00	1.734363e-03	
442	2.150000e+00	1.737832e-03	
443	2.200000e+00	1.741143e-03	
444	2.250000e+00	1.744312e-03	
445	2.300000e+00	1.747351e-03	
446	2.350000e+00	1.750272e-03	
447	2.400000e+00	1.753084e-03	
448	2.450000e+00	1.755798e-03	
449	2.500000e+00	1.758420e-03	
450	2.550000e+00	1.760958e-03	
451	2.600000e+00	1.763417e-03	
452	2.650000e+00	1.765804e-03	
453	2.700000e+00	1.768123e-03	
454	2.750000e+00	1.770378e-03	
455	2.800000e+00	1.772575e-03	
456	2.850000e+00	1.774716e-03	
457	2.900000e+00	1.776804e-03	
458	2.950000e+00	1.778844e-03	
459	3.000000e+00	1.780837e-03	
460	3.050000e+00	1.782786e-03	

Index   v-sweep         -i(vds)         
--------------------------------------------------------------------------------
461	3.100000e+00	1.784694e-03	
462	3.150000e+00	1.786563e-03	
463	3.200000e+00	1.788394e-03	
464	3.250000e+00	1.790191e-03	
465	3.300000e+00	1.791954e-03	
466	3.350000e+00	1.793685e-03	
467	3.400000e+00	1.795386e-03	
468	3.450000e+00	1.797058e-03	
469	3.500000e+00	1.798703e-03	
470	3.550000e+00	1.800322e-03	
471	3.600000e+00	1.801918e-03	
472	3.650000e+00	1.803490e-03	
473	3.700000e+00	1.805041e-03	
474	3.750000e+00	1.806572e-03	
475	3.800000e+00	1.808085e-03	
476	3.850000e+00	1.809581e-03	
477	3.900000e+00	1.811063e-03	
478	3.950000e+00	1.812532e-03	
479	4.000000e+00	1.813991e-03	
480	4.050000e+00	1.815441e-03	
481	4.100000e+00	1.816885e-03	
482	4.150000e+00	1.818327e-03	
483	4.200000e+00	1.819769e-03	
484	4.250000e+00	1.821214e-03	
485	4.300000e+00	1.822667e-03	
486	4.350000e+00	1.824131e-03	
487	4.400000e+00	1.825610e-03	
488	4.450000e+00	1.827111e-03	
489	4.500000e+00	1.828638e-03	
490	4.550000e+00	1.830196e-03	
491	4.600000e+00	1.831793e-03	
492	4.650000e+00	1.833435e-03	
493	4.700000e+00	1.835130e-03	
494	4.750000e+00	1.836885e-03	
495	4.800000e+00	1.838708e-03	
496	4.850000e+00	1.840610e-03	
497	4.900000e+00	1.842600e-03	
498	4.950000e+00	1.844687e-03	
499	5.000000e+00	1.846884e-03	
500	5.050000e+00	1.849202e-03	
501	5.100000e+00	1.851653e-03	
502	5.150000e+00	1.854250e-03	
503	5.200000e+00	1.857008e-03	
504	5.250000e+00	1.859939e-03	
505	5.300000e+00	1.863061e-03	
506	5.350000e+00	1.866387e-03	
507	5.400000e+00	1.869936e-03	
508	5.450000e+00	1.873724e-03	
509	5.500000e+00	1.877769e-03	
510	5.550000e+00	1.882089e-03	
511	5.600000e+00	1.886705e-03	
512	5.650000e+00	1.891635e-03	
513	5.700000e+00	1.896901e-03	
514	5.750000e+00	1.902524e-03	
515	5.800000e+00	1.908526e-03	
516	5.850000e+00	1.914929e-03	
517	5.900000e+00	1.921757e-03	
518	5.950000e+00	1.929033e-03	

Index   v-sweep         -i(vds)         
--------------------------------------------------------------------------------
519	6.000000e+00	1.936783e-03	
520	6.050000e+00	1.945030e-03	
521	6.100000e+00	1.953802e-03	
522	6.150000e+00	1.963122e-03	
523	6.200000e+00	1.973020e-03	
524	6.250000e+00	1.983521e-03	
525	6.300000e+00	1.994653e-03	
526	6.350000e+00	2.006445e-03	
527	6.400000e+00	2.018924e-03	
528	6.450000e+00	2.032121e-03	
529	6.500000e+00	2.046065e-03	
530	6.550000e+00	2.060785e-03	
531	6.600000e+00	2.076312e-03	
532	0.000000e+00	-0.000000e+00	
533	5.000000e-02	1.328713e-04	
534	1.000000e-01	2.603840e-04	
535	1.500000e-01	3.827221e-04	
536	2.000000e-01	5.000610e-04	
537	2.500000e-01	6.125683e-04	
538	3.000000e-01	7.204038e-04	
539	3.500000e-01	8.237199e-04	
540	4.000000e-01	9.226619e-04	
541	4.500000e-01	1.017368e-03	
542	5.000000e-01	1.107971e-03	
543	5.500000e-01	1.194595e-03	
544	6.000000e-01	1.277362e-03	
545	6.500000e-01	1.356386e-03	
546	7.000000e-01	1.431776e-03	
547	7.500000e-01	1.503637e-03	
548	8.000000e-01	1.572069e-03	
549	8.500000e-01	1.637169e-03	
550	9.000000e-01	1.699028e-03	
551	9.500000e-01	1.757734e-03	
552	1.000000e+00	1.813370e-03	
553	1.050000e+00	1.866014e-03	
554	1.100000e+00	1.915738e-03	
555	1.150000e+00	1.962604e-03	
556	1.200000e+00	2.006666e-03	
557	1.250000e+00	2.047956e-03	
558	1.300000e+00	2.086484e-03	
559	1.350000e+00	2.122222e-03	
560	1.400000e+00	2.155095e-03	
561	1.450000e+00	2.184982e-03	
562	1.500000e+00	2.211753e-03	
563	1.550000e+00	2.235345e-03	
564	1.600000e+00	2.255853e-03	
565	1.650000e+00	2.273552e-03	
566	1.700000e+00	2.288826e-03	
567	1.750000e+00	2.302087e-03	
568	1.800000e+00	2.313703e-03	
569	1.850000e+00	2.323984e-03	
570	1.900000e+00	2.333176e-03	
571	1.950000e+00	2.341472e-03	
572	2.000000e+00	2.349023e-03	
573	2.050000e+00	2.355949e-03	
574	2.100000e+00	2.362344e-03	
575	2.150000e+00	2.368283e-03	
576	2.200000e+00	2.373829e-03	

Index   v-sweep         -i(vds)         
--------------------------------------------------------------------------------
577	2.250000e+00	2.379032e-03	
578	2.300000e+00	2.383932e-03	
579	2.350000e+00	2.388564e-03	
580	2.400000e+00	2.392959e-03	
581	2.450000e+00	2.397140e-03	
582	2.500000e+00	2.401128e-03	
583	2.550000e+00	2.404943e-03	
584	2.600000e+00	2.408599e-03	
585	2.650000e+00	2.412110e-03	
586	2.700000e+00	2.415490e-03	
587	2.750000e+00	2.418747e-03	
588	2.800000e+00	2.421892e-03	
589	2.850000e+00	2.424933e-03	
590	2.900000e+00	2.427877e-03	
591	2.950000e+00	2.430732e-03	
592	3.000000e+00	2.433503e-03	
593	3.050000e+00	2.436195e-03	
594	3.100000e+00	2.438815e-03	
595	3.150000e+00	2.441365e-03	
596	3.200000e+00	2.443851e-03	
597	3.250000e+00	2.446276e-03	
598	3.300000e+00	2.448643e-03	
599	3.350000e+00	2.450956e-03	
600	3.400000e+00	2.453218e-03	
601	3.450000e+00	2.455431e-03	
602	3.500000e+00	2.457597e-03	
603	3.550000e+00	2.459720e-03	
604	3.600000e+00	2.461801e-03	
605	3.650000e+00	2.463843e-03	
606	3.700000e+00	2.465847e-03	
607	3.750000e+00	2.467816e-03	
608	3.800000e+00	2.469750e-03	
609	3.850000e+00	2.471653e-03	
610	3.900000e+00	2.473526e-03	
611	3.950000e+00	2.475371e-03	
612	4.000000e+00	2.477190e-03	
613	4.050000e+00	2.478984e-03	
614	4.100000e+00	2.480757e-03	
615	4.150000e+00	2.482510e-03	
616	4.200000e+00	2.484245e-03	
617	4.250000e+00	2.485967e-03	
618	4.300000e+00	2.487676e-03	
619	4.350000e+00	2.489377e-03	
620	4.400000e+00	2.491073e-03	
621	4.450000e+00	2.492768e-03	
622	4.500000e+00	2.494467e-03	
623	4.550000e+00	2.496173e-03	
624	4.600000e+00	2.497893e-03	
625	4.650000e+00	2.499631e-03	
626	4.700000e+00	2.501395e-03	
627	4.750000e+00	2.503190e-03	
628	4.800000e+00	2.505026e-03	
629	4.850000e+00	2.506908e-03	
630	4.900000e+00	2.508848e-03	
631	4.950000e+00	2.510853e-03	
632	5.000000e+00	2.512934e-03	
633	5.050000e+00	2.515102e-03	
634	5.100000e+00	2.517370e-03	

Index   v-sweep         -i(vds)         
--------------------------------------------------------------------------------
635	5.150000e+00	2.519749e-03	
636	5.200000e+00	2.522254e-03	
637	5.250000e+00	2.524899e-03	
638	5.300000e+00	2.527698e-03	
639	5.350000e+00	2.530669e-03	
640	5.400000e+00	2.533828e-03	
641	5.450000e+00	2.537194e-03	
642	5.500000e+00	2.540785e-03	
643	5.550000e+00	2.544622e-03	
644	5.600000e+00	2.548725e-03	
645	5.650000e+00	2.553116e-03	
646	5.700000e+00	2.557818e-03	
647	5.750000e+00	2.562854e-03	
648	5.800000e+00	2.568250e-03	
649	5.850000e+00	2.574032e-03	
650	5.900000e+00	2.580224e-03	
651	5.950000e+00	2.586856e-03	
652	6.000000e+00	2.593955e-03	
653	6.050000e+00	2.601551e-03	
654	6.100000e+00	2.609673e-03	
655	6.150000e+00	2.618353e-03	
656	6.200000e+00	2.627624e-03	
657	6.250000e+00	2.637516e-03	
658	6.300000e+00	2.648064e-03	
659	6.350000e+00	2.659303e-03	
660	6.400000e+00	2.671266e-03	
661	6.450000e+00	2.683990e-03	
662	6.500000e+00	2.697512e-03	
663	6.550000e+00	2.711868e-03	
664	6.600000e+00	2.727096e-03	
665	0.000000e+00	-0.000000e+00	
666	5.000000e-02	1.440311e-04	
667	1.000000e-01	2.830598e-04	
668	1.500000e-01	4.172407e-04	
669	2.000000e-01	5.467223e-04	
670	2.500000e-01	6.716465e-04	
671	3.000000e-01	7.921499e-04	
672	3.500000e-01	9.083631e-04	
673	4.000000e-01	1.020411e-03	
674	4.500000e-01	1.128415e-03	
675	5.000000e-01	1.232488e-03	
676	5.500000e-01	1.332741e-03	
677	6.000000e-01	1.429279e-03	
678	6.500000e-01	1.522204e-03	
679	7.000000e-01	1.611612e-03	
680	7.500000e-01	1.697597e-03	
681	8.000000e-01	1.780247e-03	
682	8.500000e-01	1.859648e-03	
683	9.000000e-01	1.935883e-03	
684	9.500000e-01	2.009032e-03	
685	1.000000e+00	2.079171e-03	
686	1.050000e+00	2.146375e-03	
687	1.100000e+00	2.210713e-03	
688	1.150000e+00	2.272256e-03	
689	1.200000e+00	2.331067e-03	
690	1.250000e+00	2.387209e-03	
691	1.300000e+00	2.440741e-03	
692	1.350000e+00	2.491715e-03	

Index   v-sweep         -i(vds)         
--------------------------------------------------------------------------------
693	1.400000e+00	2.540177e-03	
694	1.450000e+00	2.586165e-03	
695	1.500000e+00	2.629704e-03	
696	1.550000e+00	2.670795e-03	
697	1.600000e+00	2.709417e-03	
698	1.650000e+00	2.745508e-03	
699	1.700000e+00	2.778961e-03	
700	1.750000e+00	2.809636e-03	
701	1.800000e+00	2.837394e-03	
702	1.850000e+00	2.862171e-03	
703	1.900000e+00	2.884036e-03	
704	1.950000e+00	2.903212e-03	
705	2.000000e+00	2.920019e-03	
706	2.050000e+00	2.934809e-03	
707	2.100000e+00	2.947912e-03	
708	2.150000e+00	2.959614e-03	
709	2.200000e+00	2.970152e-03	
710	2.250000e+00	2.979717e-03	
711	2.300000e+00	2.988462e-03	
712	2.350000e+00	2.996512e-03	
713	2.400000e+00	3.003966e-03	
714	2.450000e+00	3.010904e-03	
715	2.500000e+00	3.017394e-03	
716	2.550000e+00	3.023490e-03	
717	2.600000e+00	3.029239e-03	
718	2.650000e+00	3.034678e-03	
719	2.700000e+00	3.039840e-03	
720	2.750000e+00	3.044754e-03	
721	2.800000e+00	3.049443e-03	
722	2.850000e+00	3.053929e-03	
723	2.900000e+00	3.058228e-03	
724	2.950000e+00	3.062357e-03	
725	3.000000e+00	3.066331e-03	
726	3.050000e+00	3.070160e-03	
727	3.100000e+00	3.073856e-03	
728	3.150000e+00	3.077430e-03	
729	3.200000e+00	3.080888e-03	
730	3.250000e+00	3.084241e-03	
731	3.300000e+00	3.087493e-03	
732	3.350000e+00	3.090653e-03	
733	3.400000e+00	3.093725e-03	
734	3.450000e+00	3.096715e-03	
735	3.500000e+00	3.099627e-03	
736	3.550000e+00	3.102467e-03	
737	3.600000e+00	3.105238e-03	
738	3.650000e+00	3.107944e-03	
739	3.700000e+00	3.110589e-03	
740	3.750000e+00	3.113175e-03	
741	3.800000e+00	3.115706e-03	
742	3.850000e+00	3.118184e-03	
743	3.900000e+00	3.120612e-03	
744	3.950000e+00	3.122993e-03	
745	4.000000e+00	3.125329e-03	
746	4.050000e+00	3.127622e-03	
747	4.100000e+00	3.129875e-03	
748	4.150000e+00	3.132089e-03	
749	4.200000e+00	3.134268e-03	
750	4.250000e+00	3.136413e-03	

Index   v-sweep         -i(vds)         
--------------------------------------------------------------------------------
751	4.300000e+00	3.138527e-03	
752	4.350000e+00	3.140613e-03	
753	4.400000e+00	3.142672e-03	
754	4.450000e+00	3.144708e-03	
755	4.500000e+00	3.146725e-03	
756	4.550000e+00	3.148725e-03	
757	4.600000e+00	3.150712e-03	
758	4.650000e+00	3.152690e-03	
759	4.700000e+00	3.154664e-03	
760	4.750000e+00	3.156639e-03	
761	4.800000e+00	3.158620e-03	
762	4.850000e+00	3.160613e-03	
763	4.900000e+00	3.162625e-03	
764	4.950000e+00	3.164663e-03	
765	5.000000e+00	3.166736e-03	
766	5.050000e+00	3.168852e-03	
767	5.100000e+00	3.171020e-03	
768	5.150000e+00	3.173251e-03	
769	5.200000e+00	3.175556e-03	
770	5.250000e+00	3.177947e-03	
771	5.300000e+00	3.180439e-03	
772	5.350000e+00	3.183043e-03	
773	5.400000e+00	3.185777e-03	
774	5.450000e+00	3.188656e-03	
775	5.500000e+00	3.191697e-03	
776	5.550000e+00	3.194919e-03	
777	5.600000e+00	3.198341e-03	
778	5.650000e+00	3.201984e-03	
779	5.700000e+00	3.205870e-03	
780	5.750000e+00	3.210021e-03	
781	5.800000e+00	3.214463e-03	
782	5.850000e+00	3.219220e-03	
783	5.900000e+00	3.224319e-03	
784	5.950000e+00	3.229788e-03	
785	6.000000e+00	3.235655e-03	
786	6.050000e+00	3.241952e-03	
787	6.100000e+00	3.248709e-03	
788	6.150000e+00	3.255958e-03	
789	6.200000e+00	3.263735e-03	
790	6.250000e+00	3.272073e-03	
791	6.300000e+00	3.281008e-03	
792	6.350000e+00	3.290578e-03	
793	6.400000e+00	3.300821e-03	
794	6.450000e+00	3.311776e-03	
795	6.500000e+00	3.323483e-03	
796	6.550000e+00	3.335985e-03	
797	6.600000e+00	3.349323e-03	
Note: No ".plot", ".print", or ".fourier" lines; no simulations run
