
Note: Compatibility modes selected: hs

Warning: m=xx on .subckt line will override multiplier m hierarchy!


Circuit: ***************************

Doing analysis at TEMP = 25.000000 and TNOM = 25.000000


No. of Data Rows : 798
                          ***************************
                          DC transfer characteristic  Mon Jan  9 13:57:40  2023
--------------------------------------------------------------------------------
Index   v-sweep         -i(vds)         
--------------------------------------------------------------------------------
0	0.000000e+00	-0.000000e+00	
1	5.000000e-02	5.300291e-08	
2	1.000000e-01	9.672880e-08	
3	1.500000e-01	1.312507e-07	
4	2.000000e-01	1.567253e-07	
5	2.500000e-01	1.735670e-07	
6	3.000000e-01	1.829167e-07	
7	3.500000e-01	1.871294e-07	
8	4.000000e-01	1.888583e-07	
9	4.500000e-01	1.896460e-07	
10	5.000000e-01	1.900810e-07	
11	5.500000e-01	1.903680e-07	
12	6.000000e-01	1.905841e-07	
13	6.500000e-01	1.907623e-07	
14	7.000000e-01	1.909184e-07	
15	7.500000e-01	1.910605e-07	
16	8.000000e-01	1.911933e-07	
17	8.500000e-01	1.913197e-07	
18	9.000000e-01	1.914414e-07	
19	9.500000e-01	1.915595e-07	
20	1.000000e+00	1.916749e-07	
21	1.050000e+00	1.917882e-07	
22	1.100000e+00	1.918998e-07	
23	1.150000e+00	1.920099e-07	
24	1.200000e+00	1.921189e-07	
25	1.250000e+00	1.922268e-07	
26	1.300000e+00	1.923340e-07	
27	1.350000e+00	1.924404e-07	
28	1.400000e+00	1.925461e-07	
29	1.450000e+00	1.926513e-07	
30	1.500000e+00	1.927560e-07	
31	1.550000e+00	1.928603e-07	
32	1.600000e+00	1.929642e-07	
33	1.650000e+00	1.930677e-07	
34	1.700000e+00	1.931710e-07	
35	1.750000e+00	1.932739e-07	
36	1.800000e+00	1.933766e-07	
37	1.850000e+00	1.934790e-07	
38	1.900000e+00	1.935812e-07	
39	1.950000e+00	1.936832e-07	
40	2.000000e+00	1.937850e-07	
41	2.050000e+00	1.938866e-07	
42	2.100000e+00	1.939881e-07	
43	2.150000e+00	1.940894e-07	
44	2.200000e+00	1.941906e-07	
45	2.250000e+00	1.942916e-07	
46	2.300000e+00	1.943925e-07	
47	2.350000e+00	1.944934e-07	
48	2.400000e+00	1.945941e-07	
49	2.450000e+00	1.946948e-07	
50	2.500000e+00	1.947954e-07	
51	2.550000e+00	1.948959e-07	
52	2.600000e+00	1.949965e-07	
53	2.650000e+00	1.950971e-07	
54	2.700000e+00	1.951978e-07	

Index   v-sweep         -i(vds)         
--------------------------------------------------------------------------------
55	2.750000e+00	1.952986e-07	
56	2.800000e+00	1.953996e-07	
57	2.850000e+00	1.955008e-07	
58	2.900000e+00	1.956023e-07	
59	2.950000e+00	1.957044e-07	
60	3.000000e+00	1.958069e-07	
61	3.050000e+00	1.959102e-07	
62	3.100000e+00	1.960144e-07	
63	3.150000e+00	1.961196e-07	
64	3.200000e+00	1.962262e-07	
65	3.250000e+00	1.963343e-07	
66	3.300000e+00	1.964442e-07	
67	3.350000e+00	1.965564e-07	
68	3.400000e+00	1.966710e-07	
69	3.450000e+00	1.967886e-07	
70	3.500000e+00	1.969096e-07	
71	3.550000e+00	1.970346e-07	
72	3.600000e+00	1.971640e-07	
73	3.650000e+00	1.972985e-07	
74	3.700000e+00	1.974388e-07	
75	3.750000e+00	1.975855e-07	
76	3.800000e+00	1.977396e-07	
77	3.850000e+00	1.979017e-07	
78	3.900000e+00	1.980730e-07	
79	3.950000e+00	1.982542e-07	
80	4.000000e+00	1.984466e-07	
81	4.050000e+00	1.986511e-07	
82	4.100000e+00	1.988691e-07	
83	4.150000e+00	1.991018e-07	
84	4.200000e+00	1.993506e-07	
85	4.250000e+00	1.996168e-07	
86	4.300000e+00	1.999020e-07	
87	4.350000e+00	2.002077e-07	
88	4.400000e+00	2.005356e-07	
89	4.450000e+00	2.008874e-07	
90	4.500000e+00	2.012650e-07	
91	4.550000e+00	2.016701e-07	
92	4.600000e+00	2.021049e-07	
93	4.650000e+00	2.025712e-07	
94	4.700000e+00	2.030712e-07	
95	4.750000e+00	2.036072e-07	
96	4.800000e+00	2.041813e-07	
97	4.850000e+00	2.047958e-07	
98	4.900000e+00	2.054533e-07	
99	4.950000e+00	2.061561e-07	
100	5.000000e+00	2.069068e-07	
101	5.050000e+00	2.077079e-07	
102	5.100000e+00	2.085622e-07	
103	5.150000e+00	2.094724e-07	
104	5.200000e+00	2.104413e-07	
105	5.250000e+00	2.114718e-07	
106	5.300000e+00	2.125667e-07	
107	5.350000e+00	2.137290e-07	
108	5.400000e+00	2.149617e-07	
109	5.450000e+00	2.162679e-07	
110	5.500000e+00	2.176508e-07	
111	5.550000e+00	2.191135e-07	
112	5.600000e+00	2.206592e-07	

Index   v-sweep         -i(vds)         
--------------------------------------------------------------------------------
113	5.650000e+00	2.222911e-07	
114	5.700000e+00	2.240127e-07	
115	5.750000e+00	2.258271e-07	
116	5.800000e+00	2.277379e-07	
117	5.850000e+00	2.297483e-07	
118	5.900000e+00	2.318619e-07	
119	5.950000e+00	2.340821e-07	
120	6.000000e+00	2.364123e-07	
121	6.050000e+00	2.388562e-07	
122	6.100000e+00	2.414173e-07	
123	6.150000e+00	2.440992e-07	
124	6.200000e+00	2.469053e-07	
125	6.250000e+00	2.498394e-07	
126	6.300000e+00	2.529051e-07	
127	6.350000e+00	2.561059e-07	
128	6.400000e+00	2.594456e-07	
129	6.450000e+00	2.629278e-07	
130	6.500000e+00	2.665562e-07	
131	6.550000e+00	2.703343e-07	
132	6.600000e+00	2.742660e-07	
133	0.000000e+00	-0.000000e+00	
134	5.000000e-02	1.998472e-07	
135	1.000000e-01	3.900503e-07	
136	1.500000e-01	5.706348e-07	
137	2.000000e-01	7.416265e-07	
138	2.500000e-01	9.030509e-07	
139	3.000000e-01	1.054934e-06	
140	3.500000e-01	1.197302e-06	
141	4.000000e-01	1.330180e-06	
142	4.500000e-01	1.453597e-06	
143	5.000000e-01	1.567580e-06	
144	5.500000e-01	1.672158e-06	
145	6.000000e-01	1.767363e-06	
146	6.500000e-01	1.853231e-06	
147	7.000000e-01	1.929802e-06	
148	7.500000e-01	1.997131e-06	
149	8.000000e-01	2.055293e-06	
150	8.500000e-01	2.104401e-06	
151	9.000000e-01	2.144645e-06	
152	9.500000e-01	2.176359e-06	
153	1.000000e+00	2.200134e-06	
154	1.050000e+00	2.216953e-06	
155	1.100000e+00	2.228213e-06	
156	1.150000e+00	2.235503e-06	
157	1.200000e+00	2.240233e-06	
158	1.250000e+00	2.243407e-06	
159	1.300000e+00	2.245651e-06	
160	1.350000e+00	2.247329e-06	
161	1.400000e+00	2.248649e-06	
162	1.450000e+00	2.249735e-06	
163	1.500000e+00	2.250662e-06	
164	1.550000e+00	2.251476e-06	
165	1.600000e+00	2.252208e-06	
166	1.650000e+00	2.252879e-06	
167	1.700000e+00	2.253502e-06	
168	1.750000e+00	2.254087e-06	
169	1.800000e+00	2.254643e-06	
170	1.850000e+00	2.255175e-06	

Index   v-sweep         -i(vds)         
--------------------------------------------------------------------------------
171	1.900000e+00	2.255687e-06	
172	1.950000e+00	2.256181e-06	
173	2.000000e+00	2.256662e-06	
174	2.050000e+00	2.257131e-06	
175	2.100000e+00	2.257589e-06	
176	2.150000e+00	2.258038e-06	
177	2.200000e+00	2.258479e-06	
178	2.250000e+00	2.258912e-06	
179	2.300000e+00	2.259340e-06	
180	2.350000e+00	2.259762e-06	
181	2.400000e+00	2.260179e-06	
182	2.450000e+00	2.260591e-06	
183	2.500000e+00	2.260999e-06	
184	2.550000e+00	2.261403e-06	
185	2.600000e+00	2.261804e-06	
186	2.650000e+00	2.262202e-06	
187	2.700000e+00	2.262597e-06	
188	2.750000e+00	2.262989e-06	
189	2.800000e+00	2.263378e-06	
190	2.850000e+00	2.263766e-06	
191	2.900000e+00	2.264151e-06	
192	2.950000e+00	2.264534e-06	
193	3.000000e+00	2.264916e-06	
194	3.050000e+00	2.265296e-06	
195	3.100000e+00	2.265674e-06	
196	3.150000e+00	2.266051e-06	
197	3.200000e+00	2.266427e-06	
198	3.250000e+00	2.266802e-06	
199	3.300000e+00	2.267176e-06	
200	3.350000e+00	2.267550e-06	
201	3.400000e+00	2.267925e-06	
202	3.450000e+00	2.268299e-06	
203	3.500000e+00	2.268675e-06	
204	3.550000e+00	2.269053e-06	
205	3.600000e+00	2.269433e-06	
206	3.650000e+00	2.269817e-06	
207	3.700000e+00	2.270206e-06	
208	3.750000e+00	2.270601e-06	
209	3.800000e+00	2.271004e-06	
210	3.850000e+00	2.271417e-06	
211	3.900000e+00	2.271841e-06	
212	3.950000e+00	2.272280e-06	
213	4.000000e+00	2.272736e-06	
214	4.050000e+00	2.273213e-06	
215	4.100000e+00	2.273714e-06	
216	4.150000e+00	2.274244e-06	
217	4.200000e+00	2.274806e-06	
218	4.250000e+00	2.275407e-06	
219	4.300000e+00	2.276052e-06	
220	4.350000e+00	2.276747e-06	
221	4.400000e+00	2.277499e-06	
222	4.450000e+00	2.278316e-06	
223	4.500000e+00	2.279205e-06	
224	4.550000e+00	2.280177e-06	
225	4.600000e+00	2.281239e-06	
226	4.650000e+00	2.282404e-06	
227	4.700000e+00	2.283681e-06	
228	4.750000e+00	2.285084e-06	

Index   v-sweep         -i(vds)         
--------------------------------------------------------------------------------
229	4.800000e+00	2.286623e-06	
230	4.850000e+00	2.288314e-06	
231	4.900000e+00	2.290170e-06	
232	4.950000e+00	2.292206e-06	
233	5.000000e+00	2.294439e-06	
234	5.050000e+00	2.296886e-06	
235	5.100000e+00	2.299563e-06	
236	5.150000e+00	2.302490e-06	
237	5.200000e+00	2.305685e-06	
238	5.250000e+00	2.309170e-06	
239	5.300000e+00	2.312966e-06	
240	5.350000e+00	2.317093e-06	
241	5.400000e+00	2.321576e-06	
242	5.450000e+00	2.326438e-06	
243	5.500000e+00	2.331703e-06	
244	5.550000e+00	2.337396e-06	
245	5.600000e+00	2.343544e-06	
246	5.650000e+00	2.350173e-06	
247	5.700000e+00	2.357312e-06	
248	5.750000e+00	2.364987e-06	
249	5.800000e+00	2.373229e-06	
250	5.850000e+00	2.382067e-06	
251	5.900000e+00	2.391532e-06	
252	5.950000e+00	2.401654e-06	
253	6.000000e+00	2.412466e-06	
254	6.050000e+00	2.424000e-06	
255	6.100000e+00	2.436289e-06	
256	6.150000e+00	2.449366e-06	
257	6.200000e+00	2.463266e-06	
258	6.250000e+00	2.478023e-06	
259	6.300000e+00	2.493672e-06	
260	6.350000e+00	2.510249e-06	
261	6.400000e+00	2.527790e-06	
262	6.450000e+00	2.546332e-06	
263	6.500000e+00	2.565911e-06	
264	6.550000e+00	2.586565e-06	
265	6.600000e+00	2.608331e-06	
266	0.000000e+00	-0.000000e+00	
267	5.000000e-02	3.260678e-07	
268	1.000000e-01	6.430409e-07	
269	1.500000e-01	9.509436e-07	
270	2.000000e-01	1.249800e-06	
271	2.500000e-01	1.539634e-06	
272	3.000000e-01	1.820471e-06	
273	3.500000e-01	2.092332e-06	
274	4.000000e-01	2.355244e-06	
275	4.500000e-01	2.609228e-06	
276	5.000000e-01	2.854310e-06	
277	5.500000e-01	3.090511e-06	
278	6.000000e-01	3.317857e-06	
279	6.500000e-01	3.536371e-06	
280	7.000000e-01	3.746075e-06	
281	7.500000e-01	3.946994e-06	
282	8.000000e-01	4.139150e-06	
283	8.500000e-01	4.322567e-06	
284	9.000000e-01	4.497269e-06	
285	9.500000e-01	4.663278e-06	
286	1.000000e+00	4.820618e-06	

Index   v-sweep         -i(vds)         
--------------------------------------------------------------------------------
287	1.050000e+00	4.969312e-06	
288	1.100000e+00	5.109385e-06	
289	1.150000e+00	5.240860e-06	
290	1.200000e+00	5.363763e-06	
291	1.250000e+00	5.478120e-06	
292	1.300000e+00	5.583956e-06	
293	1.350000e+00	5.681304e-06	
294	1.400000e+00	5.770195e-06	
295	1.450000e+00	5.850671e-06	
296	1.500000e+00	5.922783e-06	
297	1.550000e+00	5.986600e-06	
298	1.600000e+00	6.042223e-06	
299	1.650000e+00	6.089807e-06	
300	1.700000e+00	6.129597e-06	
301	1.750000e+00	6.161979e-06	
302	1.800000e+00	6.187543e-06	
303	1.850000e+00	6.207119e-06	
304	1.900000e+00	6.221742e-06	
305	1.950000e+00	6.232520e-06	
306	2.000000e+00	6.240477e-06	
307	2.050000e+00	6.246442e-06	
308	2.100000e+00	6.251024e-06	
309	2.150000e+00	6.254645e-06	
310	2.200000e+00	6.257591e-06	
311	2.250000e+00	6.260054e-06	
312	2.300000e+00	6.262163e-06	
313	2.350000e+00	6.264008e-06	
314	2.400000e+00	6.265652e-06	
315	2.450000e+00	6.267138e-06	
316	2.500000e+00	6.268500e-06	
317	2.550000e+00	6.269763e-06	
318	2.600000e+00	6.270944e-06	
319	2.650000e+00	6.272057e-06	
320	2.700000e+00	6.273113e-06	
321	2.750000e+00	6.274122e-06	
322	2.800000e+00	6.275090e-06	
323	2.850000e+00	6.276023e-06	
324	2.900000e+00	6.276925e-06	
325	2.950000e+00	6.277800e-06	
326	3.000000e+00	6.278651e-06	
327	3.050000e+00	6.279481e-06	
328	3.100000e+00	6.280293e-06	
329	3.150000e+00	6.281088e-06	
330	3.200000e+00	6.281868e-06	
331	3.250000e+00	6.282634e-06	
332	3.300000e+00	6.283388e-06	
333	3.350000e+00	6.284130e-06	
334	3.400000e+00	6.284862e-06	
335	3.450000e+00	6.285585e-06	
336	3.500000e+00	6.286299e-06	
337	3.550000e+00	6.287005e-06	
338	3.600000e+00	6.287703e-06	
339	3.650000e+00	6.288395e-06	
340	3.700000e+00	6.289080e-06	
341	3.750000e+00	6.289759e-06	
342	3.800000e+00	6.290433e-06	
343	3.850000e+00	6.291102e-06	
344	3.900000e+00	6.291766e-06	

Index   v-sweep         -i(vds)         
--------------------------------------------------------------------------------
345	3.950000e+00	6.292427e-06	
346	4.000000e+00	6.293085e-06	
347	4.050000e+00	6.293739e-06	
348	4.100000e+00	6.294393e-06	
349	4.150000e+00	6.295045e-06	
350	4.200000e+00	6.295698e-06	
351	4.250000e+00	6.296352e-06	
352	4.300000e+00	6.297010e-06	
353	4.350000e+00	6.297674e-06	
354	4.400000e+00	6.298345e-06	
355	4.450000e+00	6.299028e-06	
356	4.500000e+00	6.299725e-06	
357	4.550000e+00	6.300440e-06	
358	4.600000e+00	6.301178e-06	
359	4.650000e+00	6.301945e-06	
360	4.700000e+00	6.302748e-06	
361	4.750000e+00	6.303592e-06	
362	4.800000e+00	6.304487e-06	
363	4.850000e+00	6.305443e-06	
364	4.900000e+00	6.306469e-06	
365	4.950000e+00	6.307578e-06	
366	5.000000e+00	6.308783e-06	
367	5.050000e+00	6.310098e-06	
368	5.100000e+00	6.311541e-06	
369	5.150000e+00	6.313129e-06	
370	5.200000e+00	6.314881e-06	
371	5.250000e+00	6.316820e-06	
372	5.300000e+00	6.318968e-06	
373	5.350000e+00	6.321350e-06	
374	5.400000e+00	6.323995e-06	
375	5.450000e+00	6.326931e-06	
376	5.500000e+00	6.330190e-06	
377	5.550000e+00	6.333805e-06	
378	5.600000e+00	6.337812e-06	
379	5.650000e+00	6.342250e-06	
380	5.700000e+00	6.347158e-06	
381	5.750000e+00	6.352578e-06	
382	5.800000e+00	6.358557e-06	
383	5.850000e+00	6.365142e-06	
384	5.900000e+00	6.372381e-06	
385	5.950000e+00	6.380327e-06	
386	6.000000e+00	6.389034e-06	
387	6.050000e+00	6.398560e-06	
388	6.100000e+00	6.408962e-06	
389	6.150000e+00	6.420303e-06	
390	6.200000e+00	6.432646e-06	
391	6.250000e+00	6.446057e-06	
392	6.300000e+00	6.460604e-06	
393	6.350000e+00	6.476358e-06	
394	6.400000e+00	6.493391e-06	
395	6.450000e+00	6.511777e-06	
396	6.500000e+00	6.531594e-06	
397	6.550000e+00	6.552920e-06	
398	6.600000e+00	6.575836e-06	
399	0.000000e+00	-0.000000e+00	
400	5.000000e-02	4.283933e-07	
401	1.000000e-01	8.484381e-07	
402	1.500000e-01	1.260156e-06	

Index   v-sweep         -i(vds)         
--------------------------------------------------------------------------------
403	2.000000e-01	1.663568e-06	
404	2.500000e-01	2.058695e-06	
405	3.000000e-01	2.445559e-06	
406	3.500000e-01	2.824181e-06	
407	4.000000e-01	3.194581e-06	
408	4.500000e-01	3.556781e-06	
409	5.000000e-01	3.910801e-06	
410	5.500000e-01	4.256662e-06	
411	6.000000e-01	4.594384e-06	
412	6.500000e-01	4.923990e-06	
413	7.000000e-01	5.245498e-06	
414	7.500000e-01	5.558929e-06	
415	8.000000e-01	5.864304e-06	
416	8.500000e-01	6.161644e-06	
417	9.000000e-01	6.450968e-06	
418	9.500000e-01	6.732296e-06	
419	1.000000e+00	7.005649e-06	
420	1.050000e+00	7.271046e-06	
421	1.100000e+00	7.528509e-06	
422	1.150000e+00	7.778055e-06	
423	1.200000e+00	8.019706e-06	
424	1.250000e+00	8.253481e-06	
425	1.300000e+00	8.479400e-06	
426	1.350000e+00	8.697482e-06	
427	1.400000e+00	8.907746e-06	
428	1.450000e+00	9.110213e-06	
429	1.500000e+00	9.304901e-06	
430	1.550000e+00	9.491830e-06	
431	1.600000e+00	9.671018e-06	
432	1.650000e+00	9.842486e-06	
433	1.700000e+00	1.000625e-05	
434	1.750000e+00	1.016233e-05	
435	1.800000e+00	1.031075e-05	
436	1.850000e+00	1.045152e-05	
437	1.900000e+00	1.058467e-05	
438	1.950000e+00	1.071021e-05	
439	2.000000e+00	1.082816e-05	
440	2.050000e+00	1.093855e-05	
441	2.100000e+00	1.104139e-05	
442	2.150000e+00	1.113671e-05	
443	2.200000e+00	1.122453e-05	
444	2.250000e+00	1.130489e-05	
445	2.300000e+00	1.137783e-05	
446	2.350000e+00	1.144340e-05	
447	2.400000e+00	1.150168e-05	
448	2.450000e+00	1.155280e-05	
449	2.500000e+00	1.159693e-05	
450	2.550000e+00	1.163434e-05	
451	2.600000e+00	1.166545e-05	
452	2.650000e+00	1.169081e-05	
453	2.700000e+00	1.171112e-05	
454	2.750000e+00	1.172719e-05	
455	2.800000e+00	1.173986e-05	
456	2.850000e+00	1.174987e-05	
457	2.900000e+00	1.175787e-05	
458	2.950000e+00	1.176436e-05	
459	3.000000e+00	1.176971e-05	
460	3.050000e+00	1.177421e-05	

Index   v-sweep         -i(vds)         
--------------------------------------------------------------------------------
461	3.100000e+00	1.177806e-05	
462	3.150000e+00	1.178141e-05	
463	3.200000e+00	1.178437e-05	
464	3.250000e+00	1.178702e-05	
465	3.300000e+00	1.178942e-05	
466	3.350000e+00	1.179162e-05	
467	3.400000e+00	1.179365e-05	
468	3.450000e+00	1.179555e-05	
469	3.500000e+00	1.179733e-05	
470	3.550000e+00	1.179900e-05	
471	3.600000e+00	1.180060e-05	
472	3.650000e+00	1.180212e-05	
473	3.700000e+00	1.180357e-05	
474	3.750000e+00	1.180497e-05	
475	3.800000e+00	1.180632e-05	
476	3.850000e+00	1.180763e-05	
477	3.900000e+00	1.180889e-05	
478	3.950000e+00	1.181012e-05	
479	4.000000e+00	1.181133e-05	
480	4.050000e+00	1.181250e-05	
481	4.100000e+00	1.181364e-05	
482	4.150000e+00	1.181477e-05	
483	4.200000e+00	1.181587e-05	
484	4.250000e+00	1.181695e-05	
485	4.300000e+00	1.181801e-05	
486	4.350000e+00	1.181906e-05	
487	4.400000e+00	1.182009e-05	
488	4.450000e+00	1.182111e-05	
489	4.500000e+00	1.182211e-05	
490	4.550000e+00	1.182310e-05	
491	4.600000e+00	1.182408e-05	
492	4.650000e+00	1.182505e-05	
493	4.700000e+00	1.182601e-05	
494	4.750000e+00	1.182697e-05	
495	4.800000e+00	1.182791e-05	
496	4.850000e+00	1.182885e-05	
497	4.900000e+00	1.182979e-05	
498	4.950000e+00	1.183072e-05	
499	5.000000e+00	1.183165e-05	
500	5.050000e+00	1.183259e-05	
501	5.100000e+00	1.183352e-05	
502	5.150000e+00	1.183447e-05	
503	5.200000e+00	1.183543e-05	
504	5.250000e+00	1.183641e-05	
505	5.300000e+00	1.183742e-05	
506	5.350000e+00	1.183845e-05	
507	5.400000e+00	1.183953e-05	
508	5.450000e+00	1.184065e-05	
509	5.500000e+00	1.184184e-05	
510	5.550000e+00	1.184309e-05	
511	5.600000e+00	1.184444e-05	
512	5.650000e+00	1.184590e-05	
513	5.700000e+00	1.184748e-05	
514	5.750000e+00	1.184921e-05	
515	5.800000e+00	1.185110e-05	
516	5.850000e+00	1.185320e-05	
517	5.900000e+00	1.185552e-05	
518	5.950000e+00	1.185810e-05	

Index   v-sweep         -i(vds)         
--------------------------------------------------------------------------------
519	6.000000e+00	1.186098e-05	
520	6.050000e+00	1.186419e-05	
521	6.100000e+00	1.186777e-05	
522	6.150000e+00	1.187178e-05	
523	6.200000e+00	1.187626e-05	
524	6.250000e+00	1.188127e-05	
525	6.300000e+00	1.188686e-05	
526	6.350000e+00	1.189310e-05	
527	6.400000e+00	1.190004e-05	
528	6.450000e+00	1.190777e-05	
529	6.500000e+00	1.191635e-05	
530	6.550000e+00	1.192586e-05	
531	6.600000e+00	1.193639e-05	
532	0.000000e+00	-0.000000e+00	
533	5.000000e-02	5.069774e-07	
534	1.000000e-01	1.006429e-06	
535	1.500000e-01	1.498373e-06	
536	2.000000e-01	1.982827e-06	
537	2.500000e-01	2.459809e-06	
538	3.000000e-01	2.929336e-06	
539	3.500000e-01	3.391427e-06	
540	4.000000e-01	3.846100e-06	
541	4.500000e-01	4.293371e-06	
542	5.000000e-01	4.733258e-06	
543	5.500000e-01	5.165780e-06	
544	6.000000e-01	5.590953e-06	
545	6.500000e-01	6.008794e-06	
546	7.000000e-01	6.419322e-06	
547	7.500000e-01	6.822553e-06	
548	8.000000e-01	7.218505e-06	
549	8.500000e-01	7.607194e-06	
550	9.000000e-01	7.988639e-06	
551	9.500000e-01	8.362855e-06	
552	1.000000e+00	8.729860e-06	
553	1.050000e+00	9.089672e-06	
554	1.100000e+00	9.442306e-06	
555	1.150000e+00	9.787779e-06	
556	1.200000e+00	1.012611e-05	
557	1.250000e+00	1.045731e-05	
558	1.300000e+00	1.078141e-05	
559	1.350000e+00	1.109841e-05	
560	1.400000e+00	1.140833e-05	
561	1.450000e+00	1.171119e-05	
562	1.500000e+00	1.200701e-05	
563	1.550000e+00	1.229580e-05	
564	1.600000e+00	1.257757e-05	
565	1.650000e+00	1.285236e-05	
566	1.700000e+00	1.312016e-05	
567	1.750000e+00	1.338100e-05	
568	1.800000e+00	1.363490e-05	
569	1.850000e+00	1.388186e-05	
570	1.900000e+00	1.412190e-05	
571	1.950000e+00	1.435505e-05	
572	2.000000e+00	1.458132e-05	
573	2.050000e+00	1.480071e-05	
574	2.100000e+00	1.501326e-05	
575	2.150000e+00	1.521896e-05	
576	2.200000e+00	1.541785e-05	

Index   v-sweep         -i(vds)         
--------------------------------------------------------------------------------
577	2.250000e+00	1.560992e-05	
578	2.300000e+00	1.579521e-05	
579	2.350000e+00	1.597372e-05	
580	2.400000e+00	1.614547e-05	
581	2.450000e+00	1.631047e-05	
582	2.500000e+00	1.646874e-05	
583	2.550000e+00	1.662029e-05	
584	2.600000e+00	1.676513e-05	
585	2.650000e+00	1.690329e-05	
586	2.700000e+00	1.703477e-05	
587	2.750000e+00	1.715958e-05	
588	2.800000e+00	1.727775e-05	
589	2.850000e+00	1.738928e-05	
590	2.900000e+00	1.749418e-05	
591	2.950000e+00	1.759248e-05	
592	3.000000e+00	1.768419e-05	
593	3.050000e+00	1.776932e-05	
594	3.100000e+00	1.784789e-05	
595	3.150000e+00	1.791994e-05	
596	3.200000e+00	1.798550e-05	
597	3.250000e+00	1.804463e-05	
598	3.300000e+00	1.809741e-05	
599	3.350000e+00	1.814397e-05	
600	3.400000e+00	1.818452e-05	
601	3.450000e+00	1.821933e-05	
602	3.500000e+00	1.824879e-05	
603	3.550000e+00	1.827341e-05	
604	3.600000e+00	1.829378e-05	
605	3.650000e+00	1.831053e-05	
606	3.700000e+00	1.832429e-05	
607	3.750000e+00	1.833565e-05	
608	3.800000e+00	1.834509e-05	
609	3.850000e+00	1.835303e-05	
610	3.900000e+00	1.835978e-05	
611	3.950000e+00	1.836560e-05	
612	4.000000e+00	1.837068e-05	
613	4.050000e+00	1.837516e-05	
614	4.100000e+00	1.837917e-05	
615	4.150000e+00	1.838279e-05	
616	4.200000e+00	1.838609e-05	
617	4.250000e+00	1.838912e-05	
618	4.300000e+00	1.839192e-05	
619	4.350000e+00	1.839453e-05	
620	4.400000e+00	1.839699e-05	
621	4.450000e+00	1.839930e-05	
622	4.500000e+00	1.840149e-05	
623	4.550000e+00	1.840357e-05	
624	4.600000e+00	1.840557e-05	
625	4.650000e+00	1.840748e-05	
626	4.700000e+00	1.840931e-05	
627	4.750000e+00	1.841109e-05	
628	4.800000e+00	1.841280e-05	
629	4.850000e+00	1.841446e-05	
630	4.900000e+00	1.841608e-05	
631	4.950000e+00	1.841765e-05	
632	5.000000e+00	1.841918e-05	
633	5.050000e+00	1.842067e-05	
634	5.100000e+00	1.842214e-05	

Index   v-sweep         -i(vds)         
--------------------------------------------------------------------------------
635	5.150000e+00	1.842357e-05	
636	5.200000e+00	1.842498e-05	
637	5.250000e+00	1.842636e-05	
638	5.300000e+00	1.842771e-05	
639	5.350000e+00	1.842905e-05	
640	5.400000e+00	1.843036e-05	
641	5.450000e+00	1.843165e-05	
642	5.500000e+00	1.843293e-05	
643	5.550000e+00	1.843419e-05	
644	5.600000e+00	1.843544e-05	
645	5.650000e+00	1.843668e-05	
646	5.700000e+00	1.843790e-05	
647	5.750000e+00	1.843912e-05	
648	5.800000e+00	1.844034e-05	
649	5.850000e+00	1.844155e-05	
650	5.900000e+00	1.844276e-05	
651	5.950000e+00	1.844398e-05	
652	6.000000e+00	1.844521e-05	
653	6.050000e+00	1.844646e-05	
654	6.100000e+00	1.844773e-05	
655	6.150000e+00	1.844904e-05	
656	6.200000e+00	1.845039e-05	
657	6.250000e+00	1.845181e-05	
658	6.300000e+00	1.845329e-05	
659	6.350000e+00	1.845487e-05	
660	6.400000e+00	1.845656e-05	
661	6.450000e+00	1.845838e-05	
662	6.500000e+00	1.846035e-05	
663	6.550000e+00	1.846252e-05	
664	6.600000e+00	1.846490e-05	
665	0.000000e+00	-0.000000e+00	
666	5.000000e-02	5.641670e-07	
667	1.000000e-01	1.121638e-06	
668	1.500000e-01	1.672429e-06	
669	2.000000e-01	2.216553e-06	
670	2.500000e-01	2.754025e-06	
671	3.000000e-01	3.284860e-06	
672	3.500000e-01	3.809073e-06	
673	4.000000e-01	4.326678e-06	
674	4.500000e-01	4.837688e-06	
675	5.000000e-01	5.342120e-06	
676	5.500000e-01	5.839986e-06	
677	6.000000e-01	6.331302e-06	
678	6.500000e-01	6.816082e-06	
679	7.000000e-01	7.294340e-06	
680	7.500000e-01	7.766089e-06	
681	8.000000e-01	8.231345e-06	
682	8.500000e-01	8.690121e-06	
683	9.000000e-01	9.142431e-06	
684	9.500000e-01	9.588290e-06	
685	1.000000e+00	1.002771e-05	
686	1.050000e+00	1.046071e-05	
687	1.100000e+00	1.088730e-05	
688	1.150000e+00	1.130749e-05	
689	1.200000e+00	1.172130e-05	
690	1.250000e+00	1.212874e-05	
691	1.300000e+00	1.252982e-05	
692	1.350000e+00	1.292457e-05	

Index   v-sweep         -i(vds)         
--------------------------------------------------------------------------------
693	1.400000e+00	1.331299e-05	
694	1.450000e+00	1.369509e-05	
695	1.500000e+00	1.407089e-05	
696	1.550000e+00	1.444041e-05	
697	1.600000e+00	1.480366e-05	
698	1.650000e+00	1.516064e-05	
699	1.700000e+00	1.551138e-05	
700	1.750000e+00	1.585588e-05	
701	1.800000e+00	1.619417e-05	
702	1.850000e+00	1.652624e-05	
703	1.900000e+00	1.685213e-05	
704	1.950000e+00	1.717183e-05	
705	2.000000e+00	1.748537e-05	
706	2.050000e+00	1.779276e-05	
707	2.100000e+00	1.809400e-05	
708	2.150000e+00	1.838911e-05	
709	2.200000e+00	1.867811e-05	
710	2.250000e+00	1.896101e-05	
711	2.300000e+00	1.923782e-05	
712	2.350000e+00	1.950855e-05	
713	2.400000e+00	1.977322e-05	
714	2.450000e+00	2.003184e-05	
715	2.500000e+00	2.028442e-05	
716	2.550000e+00	2.053097e-05	
717	2.600000e+00	2.077151e-05	
718	2.650000e+00	2.100605e-05	
719	2.700000e+00	2.123459e-05	
720	2.750000e+00	2.145717e-05	
721	2.800000e+00	2.167378e-05	
722	2.850000e+00	2.188443e-05	
723	2.900000e+00	2.208915e-05	
724	2.950000e+00	2.228793e-05	
725	3.000000e+00	2.248080e-05	
726	3.050000e+00	2.266777e-05	
727	3.100000e+00	2.284884e-05	
728	3.150000e+00	2.302403e-05	
729	3.200000e+00	2.319335e-05	
730	3.250000e+00	2.335681e-05	
731	3.300000e+00	2.351442e-05	
732	3.350000e+00	2.366619e-05	
733	3.400000e+00	2.381213e-05	
734	3.450000e+00	2.395226e-05	
735	3.500000e+00	2.408657e-05	
736	3.550000e+00	2.421508e-05	
737	3.600000e+00	2.433781e-05	
738	3.650000e+00	2.445474e-05	
739	3.700000e+00	2.456591e-05	
740	3.750000e+00	2.467130e-05	
741	3.800000e+00	2.477094e-05	
742	3.850000e+00	2.486482e-05	
743	3.900000e+00	2.495295e-05	
744	3.950000e+00	2.503535e-05	
745	4.000000e+00	2.511201e-05	
746	4.050000e+00	2.518296e-05	
747	4.100000e+00	2.524822e-05	
748	4.150000e+00	2.530781e-05	
749	4.200000e+00	2.536180e-05	
750	4.250000e+00	2.541028e-05	

Index   v-sweep         -i(vds)         
--------------------------------------------------------------------------------
751	4.300000e+00	2.545336e-05	
752	4.350000e+00	2.549125e-05	
753	4.400000e+00	2.552421e-05	
754	4.450000e+00	2.555258e-05	
755	4.500000e+00	2.557680e-05	
756	4.550000e+00	2.559734e-05	
757	4.600000e+00	2.561472e-05	
758	4.650000e+00	2.562942e-05	
759	4.700000e+00	2.564190e-05	
760	4.750000e+00	2.565256e-05	
761	4.800000e+00	2.566174e-05	
762	4.850000e+00	2.566971e-05	
763	4.900000e+00	2.567671e-05	
764	4.950000e+00	2.568290e-05	
765	5.000000e+00	2.568843e-05	
766	5.050000e+00	2.569342e-05	
767	5.100000e+00	2.569796e-05	
768	5.150000e+00	2.570211e-05	
769	5.200000e+00	2.570594e-05	
770	5.250000e+00	2.570950e-05	
771	5.300000e+00	2.571282e-05	
772	5.350000e+00	2.571594e-05	
773	5.400000e+00	2.571887e-05	
774	5.450000e+00	2.572166e-05	
775	5.500000e+00	2.572431e-05	
776	5.550000e+00	2.572683e-05	
777	5.600000e+00	2.572925e-05	
778	5.650000e+00	2.573157e-05	
779	5.700000e+00	2.573381e-05	
780	5.750000e+00	2.573597e-05	
781	5.800000e+00	2.573806e-05	
782	5.850000e+00	2.574009e-05	
783	5.900000e+00	2.574205e-05	
784	5.950000e+00	2.574397e-05	
785	6.000000e+00	2.574583e-05	
786	6.050000e+00	2.574765e-05	
787	6.100000e+00	2.574944e-05	
788	6.150000e+00	2.575118e-05	
789	6.200000e+00	2.575289e-05	
790	6.250000e+00	2.575456e-05	
791	6.300000e+00	2.575621e-05	
792	6.350000e+00	2.575782e-05	
793	6.400000e+00	2.575941e-05	
794	6.450000e+00	2.576098e-05	
795	6.500000e+00	2.576253e-05	
796	6.550000e+00	2.576406e-05	
797	6.600000e+00	2.576557e-05	
Note: No ".plot", ".print", or ".fourier" lines; no simulations run
