
Note: Compatibility modes selected: hs

Warning: m=xx on .subckt line will override multiplier m hierarchy!


Circuit: ***************************

Doing analysis at TEMP = 125.000000 and TNOM = 125.000000


No. of Data Rows : 798
                          ***************************
                          DC transfer characteristic  Mon Jan  9 13:57:41  2023
--------------------------------------------------------------------------------
Index   v-sweep         -i(vds)         
--------------------------------------------------------------------------------
0	0.000000e+00	-0.000000e+00	
1	5.000000e-02	7.515353e-06	
2	1.000000e-01	1.357569e-05	
3	1.500000e-01	1.827486e-05	
4	2.000000e-01	2.168084e-05	
5	2.500000e-01	2.390239e-05	
6	3.000000e-01	2.517512e-05	
7	3.500000e-01	2.587323e-05	
8	4.000000e-01	2.630813e-05	
9	4.500000e-01	2.662624e-05	
10	5.000000e-01	2.688330e-05	
11	5.500000e-01	2.710260e-05	
12	6.000000e-01	2.729568e-05	
13	6.500000e-01	2.746922e-05	
14	7.000000e-01	2.762748e-05	
15	7.500000e-01	2.777338e-05	
16	8.000000e-01	2.790906e-05	
17	8.500000e-01	2.803613e-05	
18	9.000000e-01	2.815583e-05	
19	9.500000e-01	2.826914e-05	
20	1.000000e+00	2.837687e-05	
21	1.050000e+00	2.847966e-05	
22	1.100000e+00	2.857807e-05	
23	1.150000e+00	2.867254e-05	
24	1.200000e+00	2.876349e-05	
25	1.250000e+00	2.885122e-05	
26	1.300000e+00	2.893605e-05	
27	1.350000e+00	2.901821e-05	
28	1.400000e+00	2.909793e-05	
29	1.450000e+00	2.917540e-05	
30	1.500000e+00	2.925080e-05	
31	1.550000e+00	2.932427e-05	
32	1.600000e+00	2.939596e-05	
33	1.650000e+00	2.946598e-05	
34	1.700000e+00	2.953445e-05	
35	1.750000e+00	2.960146e-05	
36	1.800000e+00	2.966711e-05	
37	1.850000e+00	2.973148e-05	
38	1.900000e+00	2.979465e-05	
39	1.950000e+00	2.985667e-05	
40	2.000000e+00	2.991763e-05	
41	2.050000e+00	2.997757e-05	
42	2.100000e+00	3.003654e-05	
43	2.150000e+00	3.009461e-05	
44	2.200000e+00	3.015181e-05	
45	2.250000e+00	3.020818e-05	
46	2.300000e+00	3.026377e-05	
47	2.350000e+00	3.031862e-05	
48	2.400000e+00	3.037275e-05	
49	2.450000e+00	3.042621e-05	
50	2.500000e+00	3.047902e-05	
51	2.550000e+00	3.053122e-05	
52	2.600000e+00	3.058284e-05	
53	2.650000e+00	3.063390e-05	
54	2.700000e+00	3.068444e-05	

Index   v-sweep         -i(vds)         
--------------------------------------------------------------------------------
55	2.750000e+00	3.073448e-05	
56	2.800000e+00	3.078406e-05	
57	2.850000e+00	3.083320e-05	
58	2.900000e+00	3.088195e-05	
59	2.950000e+00	3.093032e-05	
60	3.000000e+00	3.097837e-05	
61	3.050000e+00	3.102613e-05	
62	3.100000e+00	3.107364e-05	
63	3.150000e+00	3.112095e-05	
64	3.200000e+00	3.116811e-05	
65	3.250000e+00	3.121518e-05	
66	3.300000e+00	3.126221e-05	
67	3.350000e+00	3.130927e-05	
68	3.400000e+00	3.135643e-05	
69	3.450000e+00	3.140378e-05	
70	3.500000e+00	3.145140e-05	
71	3.550000e+00	3.149938e-05	
72	3.600000e+00	3.154782e-05	
73	3.650000e+00	3.159685e-05	
74	3.700000e+00	3.164657e-05	
75	3.750000e+00	3.169711e-05	
76	3.800000e+00	3.174862e-05	
77	3.850000e+00	3.180124e-05	
78	3.900000e+00	3.185514e-05	
79	3.950000e+00	3.191048e-05	
80	4.000000e+00	3.196746e-05	
81	4.050000e+00	3.202625e-05	
82	4.100000e+00	3.208708e-05	
83	4.150000e+00	3.215015e-05	
84	4.200000e+00	3.221571e-05	
85	4.250000e+00	3.228398e-05	
86	4.300000e+00	3.235523e-05	
87	4.350000e+00	3.242972e-05	
88	4.400000e+00	3.250774e-05	
89	4.450000e+00	3.258957e-05	
90	4.500000e+00	3.267554e-05	
91	4.550000e+00	3.276595e-05	
92	4.600000e+00	3.286113e-05	
93	4.650000e+00	3.296144e-05	
94	4.700000e+00	3.306722e-05	
95	4.750000e+00	3.317886e-05	
96	4.800000e+00	3.329673e-05	
97	4.850000e+00	3.342122e-05	
98	4.900000e+00	3.355275e-05	
99	4.950000e+00	3.369174e-05	
100	5.000000e+00	3.383860e-05	
101	5.050000e+00	3.399379e-05	
102	5.100000e+00	3.415776e-05	
103	5.150000e+00	3.433097e-05	
104	5.200000e+00	3.451390e-05	
105	5.250000e+00	3.470703e-05	
106	5.300000e+00	3.491085e-05	
107	5.350000e+00	3.512588e-05	
108	5.400000e+00	3.535263e-05	
109	5.450000e+00	3.559162e-05	
110	5.500000e+00	3.584338e-05	
111	5.550000e+00	3.610845e-05	
112	5.600000e+00	3.638739e-05	

Index   v-sweep         -i(vds)         
--------------------------------------------------------------------------------
113	5.650000e+00	3.668076e-05	
114	5.700000e+00	3.698910e-05	
115	5.750000e+00	3.731301e-05	
116	5.800000e+00	3.765305e-05	
117	5.850000e+00	3.800981e-05	
118	5.900000e+00	3.838388e-05	
119	5.950000e+00	3.877587e-05	
120	6.000000e+00	3.918636e-05	
121	6.050000e+00	3.961597e-05	
122	6.100000e+00	4.006531e-05	
123	6.150000e+00	4.053499e-05	
124	6.200000e+00	4.102564e-05	
125	6.250000e+00	4.153788e-05	
126	6.300000e+00	4.207233e-05	
127	6.350000e+00	4.262963e-05	
128	6.400000e+00	4.321041e-05	
129	6.450000e+00	4.381530e-05	
130	6.500000e+00	4.444495e-05	
131	6.550000e+00	4.509998e-05	
132	6.600000e+00	4.578104e-05	
133	0.000000e+00	-0.000000e+00	
134	5.000000e-02	2.503900e-05	
135	1.000000e-01	4.839740e-05	
136	1.500000e-01	7.016586e-05	
137	2.000000e-01	9.039238e-05	
138	2.500000e-01	1.091136e-04	
139	3.000000e-01	1.263627e-04	
140	3.500000e-01	1.421715e-04	
141	4.000000e-01	1.565710e-04	
142	4.500000e-01	1.695915e-04	
143	5.000000e-01	1.812635e-04	
144	5.500000e-01	1.916175e-04	
145	6.000000e-01	2.006855e-04	
146	6.500000e-01	2.085030e-04	
147	7.000000e-01	2.151132e-04	
148	7.500000e-01	2.205757e-04	
149	8.000000e-01	2.249815e-04	
150	8.500000e-01	2.284691e-04	
151	9.000000e-01	2.312193e-04	
152	9.500000e-01	2.334192e-04	
153	1.000000e+00	2.352236e-04	
154	1.050000e+00	2.367432e-04	
155	1.100000e+00	2.380530e-04	
156	1.150000e+00	2.392036e-04	
157	1.200000e+00	2.402297e-04	
158	1.250000e+00	2.411563e-04	
159	1.300000e+00	2.420014e-04	
160	1.350000e+00	2.427788e-04	
161	1.400000e+00	2.434990e-04	
162	1.450000e+00	2.441702e-04	
163	1.500000e+00	2.447989e-04	
164	1.550000e+00	2.453907e-04	
165	1.600000e+00	2.459498e-04	
166	1.650000e+00	2.464799e-04	
167	1.700000e+00	2.469841e-04	
168	1.750000e+00	2.474651e-04	
169	1.800000e+00	2.479250e-04	
170	1.850000e+00	2.483657e-04	

Index   v-sweep         -i(vds)         
--------------------------------------------------------------------------------
171	1.900000e+00	2.487891e-04	
172	1.950000e+00	2.491964e-04	
173	2.000000e+00	2.495891e-04	
174	2.050000e+00	2.499682e-04	
175	2.100000e+00	2.503349e-04	
176	2.150000e+00	2.506898e-04	
177	2.200000e+00	2.510340e-04	
178	2.250000e+00	2.513680e-04	
179	2.300000e+00	2.516927e-04	
180	2.350000e+00	2.520085e-04	
181	2.400000e+00	2.523159e-04	
182	2.450000e+00	2.526156e-04	
183	2.500000e+00	2.529079e-04	
184	2.550000e+00	2.531933e-04	
185	2.600000e+00	2.534721e-04	
186	2.650000e+00	2.537447e-04	
187	2.700000e+00	2.540114e-04	
188	2.750000e+00	2.542725e-04	
189	2.800000e+00	2.545282e-04	
190	2.850000e+00	2.547790e-04	
191	2.900000e+00	2.550249e-04	
192	2.950000e+00	2.552662e-04	
193	3.000000e+00	2.555032e-04	
194	3.050000e+00	2.557360e-04	
195	3.100000e+00	2.559649e-04	
196	3.150000e+00	2.561901e-04	
197	3.200000e+00	2.564118e-04	
198	3.250000e+00	2.566301e-04	
199	3.300000e+00	2.568453e-04	
200	3.350000e+00	2.570576e-04	
201	3.400000e+00	2.572672e-04	
202	3.450000e+00	2.574743e-04	
203	3.500000e+00	2.576793e-04	
204	3.550000e+00	2.578824e-04	
205	3.600000e+00	2.580838e-04	
206	3.650000e+00	2.582840e-04	
207	3.700000e+00	2.584833e-04	
208	3.750000e+00	2.586820e-04	
209	3.800000e+00	2.588806e-04	
210	3.850000e+00	2.590796e-04	
211	3.900000e+00	2.592796e-04	
212	3.950000e+00	2.594810e-04	
213	4.000000e+00	2.596846e-04	
214	4.050000e+00	2.598909e-04	
215	4.100000e+00	2.601009e-04	
216	4.150000e+00	2.603152e-04	
217	4.200000e+00	2.605348e-04	
218	4.250000e+00	2.607607e-04	
219	4.300000e+00	2.609939e-04	
220	4.350000e+00	2.612355e-04	
221	4.400000e+00	2.614867e-04	
222	4.450000e+00	2.617489e-04	
223	4.500000e+00	2.620233e-04	
224	4.550000e+00	2.623115e-04	
225	4.600000e+00	2.626151e-04	
226	4.650000e+00	2.629356e-04	
227	4.700000e+00	2.632749e-04	
228	4.750000e+00	2.636348e-04	

Index   v-sweep         -i(vds)         
--------------------------------------------------------------------------------
229	4.800000e+00	2.640172e-04	
230	4.850000e+00	2.644242e-04	
231	4.900000e+00	2.648579e-04	
232	4.950000e+00	2.653206e-04	
233	5.000000e+00	2.658146e-04	
234	5.050000e+00	2.663423e-04	
235	5.100000e+00	2.669064e-04	
236	5.150000e+00	2.675093e-04	
237	5.200000e+00	2.681540e-04	
238	5.250000e+00	2.688431e-04	
239	5.300000e+00	2.695797e-04	
240	5.350000e+00	2.703667e-04	
241	5.400000e+00	2.712073e-04	
242	5.450000e+00	2.721047e-04	
243	5.500000e+00	2.730622e-04	
244	5.550000e+00	2.740830e-04	
245	5.600000e+00	2.751709e-04	
246	5.650000e+00	2.763291e-04	
247	5.700000e+00	2.775615e-04	
248	5.750000e+00	2.788717e-04	
249	5.800000e+00	2.802634e-04	
250	5.850000e+00	2.817407e-04	
251	5.900000e+00	2.833072e-04	
252	5.950000e+00	2.849672e-04	
253	6.000000e+00	2.867245e-04	
254	6.050000e+00	2.885834e-04	
255	6.100000e+00	2.905480e-04	
256	6.150000e+00	2.926225e-04	
257	6.200000e+00	2.948113e-04	
258	6.250000e+00	2.971187e-04	
259	6.300000e+00	2.995490e-04	
260	6.350000e+00	3.021067e-04	
261	6.400000e+00	3.047963e-04	
262	6.450000e+00	3.076222e-04	
263	6.500000e+00	3.105890e-04	
264	6.550000e+00	3.137013e-04	
265	6.600000e+00	3.169637e-04	
266	0.000000e+00	-0.000000e+00	
267	5.000000e-02	3.865876e-05	
268	1.000000e-01	7.558640e-05	
269	1.500000e-01	1.108734e-04	
270	2.000000e-01	1.445676e-04	
271	2.500000e-01	1.767054e-04	
272	3.000000e-01	2.073197e-04	
273	3.500000e-01	2.364419e-04	
274	4.000000e-01	2.641022e-04	
275	4.500000e-01	2.903303e-04	
276	5.000000e-01	3.151549e-04	
277	5.500000e-01	3.386039e-04	
278	6.000000e-01	3.607045e-04	
279	6.500000e-01	3.814833e-04	
280	7.000000e-01	4.009662e-04	
281	7.500000e-01	4.191783e-04	
282	8.000000e-01	4.361442e-04	
283	8.500000e-01	4.518880e-04	
284	9.000000e-01	4.664330e-04	
285	9.500000e-01	4.798022e-04	
286	1.000000e+00	4.920179e-04	

Index   v-sweep         -i(vds)         
--------------------------------------------------------------------------------
287	1.050000e+00	5.031023e-04	
288	1.100000e+00	5.130775e-04	
289	1.150000e+00	5.219669e-04	
290	1.200000e+00	5.297973e-04	
291	1.250000e+00	5.366050e-04	
292	1.300000e+00	5.424455e-04	
293	1.350000e+00	5.474038e-04	
294	1.400000e+00	5.515953e-04	
295	1.450000e+00	5.551506e-04	
296	1.500000e+00	5.581946e-04	
297	1.550000e+00	5.608335e-04	
298	1.600000e+00	5.631510e-04	
299	1.650000e+00	5.652112e-04	
300	1.700000e+00	5.670627e-04	
301	1.750000e+00	5.687425e-04	
302	1.800000e+00	5.702793e-04	
303	1.850000e+00	5.716952e-04	
304	1.900000e+00	5.730080e-04	
305	1.950000e+00	5.742317e-04	
306	2.000000e+00	5.753778e-04	
307	2.050000e+00	5.764559e-04	
308	2.100000e+00	5.774737e-04	
309	2.150000e+00	5.784378e-04	
310	2.200000e+00	5.793539e-04	
311	2.250000e+00	5.802265e-04	
312	2.300000e+00	5.810600e-04	
313	2.350000e+00	5.818577e-04	
314	2.400000e+00	5.826228e-04	
315	2.450000e+00	5.833580e-04	
316	2.500000e+00	5.840656e-04	
317	2.550000e+00	5.847478e-04	
318	2.600000e+00	5.854065e-04	
319	2.650000e+00	5.860434e-04	
320	2.700000e+00	5.866598e-04	
321	2.750000e+00	5.872573e-04	
322	2.800000e+00	5.878371e-04	
323	2.850000e+00	5.884001e-04	
324	2.900000e+00	5.889476e-04	
325	2.950000e+00	5.894803e-04	
326	3.000000e+00	5.899991e-04	
327	3.050000e+00	5.905049e-04	
328	3.100000e+00	5.909982e-04	
329	3.150000e+00	5.914798e-04	
330	3.200000e+00	5.919503e-04	
331	3.250000e+00	5.924102e-04	
332	3.300000e+00	5.928601e-04	
333	3.350000e+00	5.933005e-04	
334	3.400000e+00	5.937318e-04	
335	3.450000e+00	5.941545e-04	
336	3.500000e+00	5.945690e-04	
337	3.550000e+00	5.949757e-04	
338	3.600000e+00	5.953751e-04	
339	3.650000e+00	5.957676e-04	
340	3.700000e+00	5.961535e-04	
341	3.750000e+00	5.965332e-04	
342	3.800000e+00	5.969074e-04	
343	3.850000e+00	5.972763e-04	
344	3.900000e+00	5.976404e-04	

Index   v-sweep         -i(vds)         
--------------------------------------------------------------------------------
345	3.950000e+00	5.980004e-04	
346	4.000000e+00	5.983568e-04	
347	4.050000e+00	5.987103e-04	
348	4.100000e+00	5.990614e-04	
349	4.150000e+00	5.994111e-04	
350	4.200000e+00	5.997601e-04	
351	4.250000e+00	6.001093e-04	
352	4.300000e+00	6.004599e-04	
353	4.350000e+00	6.008129e-04	
354	4.400000e+00	6.011696e-04	
355	4.450000e+00	6.015314e-04	
356	4.500000e+00	6.018998e-04	
357	4.550000e+00	6.022765e-04	
358	4.600000e+00	6.026632e-04	
359	4.650000e+00	6.030620e-04	
360	4.700000e+00	6.034749e-04	
361	4.750000e+00	6.039044e-04	
362	4.800000e+00	6.043528e-04	
363	4.850000e+00	6.048228e-04	
364	4.900000e+00	6.053174e-04	
365	4.950000e+00	6.058396e-04	
366	5.000000e+00	6.063927e-04	
367	5.050000e+00	6.069802e-04	
368	5.100000e+00	6.076057e-04	
369	5.150000e+00	6.082732e-04	
370	5.200000e+00	6.089869e-04	
371	5.250000e+00	6.097511e-04	
372	5.300000e+00	6.105704e-04	
373	5.350000e+00	6.114495e-04	
374	5.400000e+00	6.123937e-04	
375	5.450000e+00	6.134080e-04	
376	5.500000e+00	6.144981e-04	
377	5.550000e+00	6.156696e-04	
378	5.600000e+00	6.169285e-04	
379	5.650000e+00	6.182810e-04	
380	5.700000e+00	6.197334e-04	
381	5.750000e+00	6.212924e-04	
382	5.800000e+00	6.229648e-04	
383	5.850000e+00	6.247576e-04	
384	5.900000e+00	6.266781e-04	
385	5.950000e+00	6.287336e-04	
386	6.000000e+00	6.309320e-04	
387	6.050000e+00	6.332809e-04	
388	6.100000e+00	6.357885e-04	
389	6.150000e+00	6.384629e-04	
390	6.200000e+00	6.413125e-04	
391	6.250000e+00	6.443460e-04	
392	6.300000e+00	6.475719e-04	
393	6.350000e+00	6.509993e-04	
394	6.400000e+00	6.546372e-04	
395	6.450000e+00	6.584947e-04	
396	6.500000e+00	6.625811e-04	
397	6.550000e+00	6.669060e-04	
398	6.600000e+00	6.714790e-04	
399	0.000000e+00	-0.000000e+00	
400	5.000000e-02	4.885121e-05	
401	1.000000e-01	9.600741e-05	
402	1.500000e-01	1.415559e-04	

Index   v-sweep         -i(vds)         
--------------------------------------------------------------------------------
403	2.000000e-01	1.855414e-04	
404	2.500000e-01	2.279974e-04	
405	3.000000e-01	2.689540e-04	
406	3.500000e-01	3.084400e-04	
407	4.000000e-01	3.464832e-04	
408	4.500000e-01	3.831106e-04	
409	5.000000e-01	4.183486e-04	
410	5.500000e-01	4.522231e-04	
411	6.000000e-01	4.847590e-04	
412	6.500000e-01	5.159809e-04	
413	7.000000e-01	5.459127e-04	
414	7.500000e-01	5.745776e-04	
415	8.000000e-01	6.019984e-04	
416	8.500000e-01	6.281972e-04	
417	9.000000e-01	6.531957e-04	
418	9.500000e-01	6.770150e-04	
419	1.000000e+00	6.996756e-04	
420	1.050000e+00	7.211976e-04	
421	1.100000e+00	7.416004e-04	
422	1.150000e+00	7.609031e-04	
423	1.200000e+00	7.791240e-04	
424	1.250000e+00	7.962808e-04	
425	1.300000e+00	8.123905e-04	
426	1.350000e+00	8.274691e-04	
427	1.400000e+00	8.415314e-04	
428	1.450000e+00	8.545909e-04	
429	1.500000e+00	8.666589e-04	
430	1.550000e+00	8.777443e-04	
431	1.600000e+00	8.878536e-04	
432	1.650000e+00	8.969919e-04	
433	1.700000e+00	9.051680e-04	
434	1.750000e+00	9.124034e-04	
435	1.800000e+00	9.187446e-04	
436	1.850000e+00	9.242682e-04	
437	1.900000e+00	9.290745e-04	
438	1.950000e+00	9.332724e-04	
439	2.000000e+00	9.369646e-04	
440	2.050000e+00	9.402400e-04	
441	2.100000e+00	9.431720e-04	
442	2.150000e+00	9.458191e-04	
443	2.200000e+00	9.482282e-04	
444	2.250000e+00	9.504363e-04	
445	2.300000e+00	9.524733e-04	
446	2.350000e+00	9.543630e-04	
447	2.400000e+00	9.561251e-04	
448	2.450000e+00	9.577754e-04	
449	2.500000e+00	9.593273e-04	
450	2.550000e+00	9.607920e-04	
451	2.600000e+00	9.621787e-04	
452	2.650000e+00	9.634955e-04	
453	2.700000e+00	9.647492e-04	
454	2.750000e+00	9.659457e-04	
455	2.800000e+00	9.670902e-04	
456	2.850000e+00	9.681870e-04	
457	2.900000e+00	9.692402e-04	
458	2.950000e+00	9.702531e-04	
459	3.000000e+00	9.712289e-04	
460	3.050000e+00	9.721703e-04	

Index   v-sweep         -i(vds)         
--------------------------------------------------------------------------------
461	3.100000e+00	9.730798e-04	
462	3.150000e+00	9.739595e-04	
463	3.200000e+00	9.748114e-04	
464	3.250000e+00	9.756373e-04	
465	3.300000e+00	9.764388e-04	
466	3.350000e+00	9.772175e-04	
467	3.400000e+00	9.779746e-04	
468	3.450000e+00	9.787114e-04	
469	3.500000e+00	9.794290e-04	
470	3.550000e+00	9.801285e-04	
471	3.600000e+00	9.808109e-04	
472	3.650000e+00	9.814769e-04	
473	3.700000e+00	9.821276e-04	
474	3.750000e+00	9.827635e-04	
475	3.800000e+00	9.833855e-04	
476	3.850000e+00	9.839943e-04	
477	3.900000e+00	9.845905e-04	
478	3.950000e+00	9.851748e-04	
479	4.000000e+00	9.857477e-04	
480	4.050000e+00	9.863099e-04	
481	4.100000e+00	9.868621e-04	
482	4.150000e+00	9.874048e-04	
483	4.200000e+00	9.879387e-04	
484	4.250000e+00	9.884645e-04	
485	4.300000e+00	9.889830e-04	
486	4.350000e+00	9.894948e-04	
487	4.400000e+00	9.900009e-04	
488	4.450000e+00	9.905022e-04	
489	4.500000e+00	9.909997e-04	
490	4.550000e+00	9.914945e-04	
491	4.600000e+00	9.919879e-04	
492	4.650000e+00	9.924814e-04	
493	4.700000e+00	9.929763e-04	
494	4.750000e+00	9.934744e-04	
495	4.800000e+00	9.939777e-04	
496	4.850000e+00	9.944881e-04	
497	4.900000e+00	9.950080e-04	
498	4.950000e+00	9.955398e-04	
499	5.000000e+00	9.960864e-04	
500	5.050000e+00	9.966507e-04	
501	5.100000e+00	9.972360e-04	
502	5.150000e+00	9.978457e-04	
503	5.200000e+00	9.984839e-04	
504	5.250000e+00	9.991545e-04	
505	5.300000e+00	9.998621e-04	
506	5.350000e+00	1.000611e-03	
507	5.400000e+00	1.001407e-03	
508	5.450000e+00	1.002256e-03	
509	5.500000e+00	1.003162e-03	
510	5.550000e+00	1.004132e-03	
511	5.600000e+00	1.005173e-03	
512	5.650000e+00	1.006292e-03	
513	5.700000e+00	1.007495e-03	
514	5.750000e+00	1.008791e-03	
515	5.800000e+00	1.010187e-03	
516	5.850000e+00	1.011691e-03	
517	5.900000e+00	1.013313e-03	
518	5.950000e+00	1.015062e-03	

Index   v-sweep         -i(vds)         
--------------------------------------------------------------------------------
519	6.000000e+00	1.016946e-03	
520	6.050000e+00	1.018976e-03	
521	6.100000e+00	1.021162e-03	
522	6.150000e+00	1.023514e-03	
523	6.200000e+00	1.026044e-03	
524	6.250000e+00	1.028762e-03	
525	6.300000e+00	1.031681e-03	
526	6.350000e+00	1.034812e-03	
527	6.400000e+00	1.038167e-03	
528	6.450000e+00	1.041760e-03	
529	6.500000e+00	1.045603e-03	
530	6.550000e+00	1.049709e-03	
531	6.600000e+00	1.054091e-03	
532	0.000000e+00	-0.000000e+00	
533	5.000000e-02	5.605827e-05	
534	1.000000e-01	1.105154e-04	
535	1.500000e-01	1.634540e-04	
536	2.000000e-01	2.149147e-04	
537	2.500000e-01	2.649267e-04	
538	3.000000e-01	3.135162e-04	
539	3.500000e-01	3.607079e-04	
540	4.000000e-01	4.065261e-04	
541	4.500000e-01	4.509943e-04	
542	5.000000e-01	4.941354e-04	
543	5.500000e-01	5.359719e-04	
544	6.000000e-01	5.765258e-04	
545	6.500000e-01	6.158186e-04	
546	7.000000e-01	6.538711e-04	
547	7.500000e-01	6.907039e-04	
548	8.000000e-01	7.263372e-04	
549	8.500000e-01	7.607903e-04	
550	9.000000e-01	7.940827e-04	
551	9.500000e-01	8.262329e-04	
552	1.000000e+00	8.572594e-04	
553	1.050000e+00	8.871801e-04	
554	1.100000e+00	9.160125e-04	
555	1.150000e+00	9.437738e-04	
556	1.200000e+00	9.704807e-04	
557	1.250000e+00	9.961498e-04	
558	1.300000e+00	1.020797e-03	
559	1.350000e+00	1.044438e-03	
560	1.400000e+00	1.067088e-03	
561	1.450000e+00	1.088761e-03	
562	1.500000e+00	1.109473e-03	
563	1.550000e+00	1.129237e-03	
564	1.600000e+00	1.148066e-03	
565	1.650000e+00	1.165974e-03	
566	1.700000e+00	1.182972e-03	
567	1.750000e+00	1.199071e-03	
568	1.800000e+00	1.214280e-03	
569	1.850000e+00	1.228607e-03	
570	1.900000e+00	1.242058e-03	
571	1.950000e+00	1.254634e-03	
572	2.000000e+00	1.266333e-03	
573	2.050000e+00	1.277147e-03	
574	2.100000e+00	1.287068e-03	
575	2.150000e+00	1.296089e-03	
576	2.200000e+00	1.304214e-03	

Index   v-sweep         -i(vds)         
--------------------------------------------------------------------------------
577	2.250000e+00	1.311471e-03	
578	2.300000e+00	1.317913e-03	
579	2.350000e+00	1.323621e-03	
580	2.400000e+00	1.328685e-03	
581	2.450000e+00	1.333197e-03	
582	2.500000e+00	1.337243e-03	
583	2.550000e+00	1.340894e-03	
584	2.600000e+00	1.344211e-03	
585	2.650000e+00	1.347246e-03	
586	2.700000e+00	1.350038e-03	
587	2.750000e+00	1.352622e-03	
588	2.800000e+00	1.355025e-03	
589	2.850000e+00	1.357269e-03	
590	2.900000e+00	1.359375e-03	
591	2.950000e+00	1.361358e-03	
592	3.000000e+00	1.363231e-03	
593	3.050000e+00	1.365005e-03	
594	3.100000e+00	1.366692e-03	
595	3.150000e+00	1.368298e-03	
596	3.200000e+00	1.369832e-03	
597	3.250000e+00	1.371299e-03	
598	3.300000e+00	1.372706e-03	
599	3.350000e+00	1.374056e-03	
600	3.400000e+00	1.375356e-03	
601	3.450000e+00	1.376607e-03	
602	3.500000e+00	1.377815e-03	
603	3.550000e+00	1.378981e-03	
604	3.600000e+00	1.380109e-03	
605	3.650000e+00	1.381202e-03	
606	3.700000e+00	1.382261e-03	
607	3.750000e+00	1.383288e-03	
608	3.800000e+00	1.384287e-03	
609	3.850000e+00	1.385257e-03	
610	3.900000e+00	1.386201e-03	
611	3.950000e+00	1.387120e-03	
612	4.000000e+00	1.388016e-03	
613	4.050000e+00	1.388890e-03	
614	4.100000e+00	1.389742e-03	
615	4.150000e+00	1.390575e-03	
616	4.200000e+00	1.391389e-03	
617	4.250000e+00	1.392184e-03	
618	4.300000e+00	1.392963e-03	
619	4.350000e+00	1.393725e-03	
620	4.400000e+00	1.394472e-03	
621	4.450000e+00	1.395204e-03	
622	4.500000e+00	1.395923e-03	
623	4.550000e+00	1.396628e-03	
624	4.600000e+00	1.397322e-03	
625	4.650000e+00	1.398004e-03	
626	4.700000e+00	1.398676e-03	
627	4.750000e+00	1.399338e-03	
628	4.800000e+00	1.399993e-03	
629	4.850000e+00	1.400640e-03	
630	4.900000e+00	1.401282e-03	
631	4.950000e+00	1.401920e-03	
632	5.000000e+00	1.402554e-03	
633	5.050000e+00	1.403189e-03	
634	5.100000e+00	1.403824e-03	

Index   v-sweep         -i(vds)         
--------------------------------------------------------------------------------
635	5.150000e+00	1.404462e-03	
636	5.200000e+00	1.405106e-03	
637	5.250000e+00	1.405759e-03	
638	5.300000e+00	1.406423e-03	
639	5.350000e+00	1.407102e-03	
640	5.400000e+00	1.407799e-03	
641	5.450000e+00	1.408518e-03	
642	5.500000e+00	1.409263e-03	
643	5.550000e+00	1.410040e-03	
644	5.600000e+00	1.410853e-03	
645	5.650000e+00	1.411707e-03	
646	5.700000e+00	1.412609e-03	
647	5.750000e+00	1.413565e-03	
648	5.800000e+00	1.414582e-03	
649	5.850000e+00	1.415667e-03	
650	5.900000e+00	1.416827e-03	
651	5.950000e+00	1.418072e-03	
652	6.000000e+00	1.419409e-03	
653	6.050000e+00	1.420848e-03	
654	6.100000e+00	1.422399e-03	
655	6.150000e+00	1.424072e-03	
656	6.200000e+00	1.425878e-03	
657	6.250000e+00	1.427828e-03	
658	6.300000e+00	1.429934e-03	
659	6.350000e+00	1.432209e-03	
660	6.400000e+00	1.434664e-03	
661	6.450000e+00	1.437315e-03	
662	6.500000e+00	1.440174e-03	
663	6.550000e+00	1.443257e-03	
664	6.600000e+00	1.446578e-03	
665	0.000000e+00	-0.000000e+00	
666	5.000000e-02	6.082488e-05	
667	1.000000e-01	1.201740e-04	
668	1.500000e-01	1.781254e-04	
669	2.000000e-01	2.347150e-04	
670	2.500000e-01	2.899676e-04	
671	3.000000e-01	3.439052e-04	
672	3.500000e-01	3.965486e-04	
673	4.000000e-01	4.479179e-04	
674	4.500000e-01	4.980327e-04	
675	5.000000e-01	5.469126e-04	
676	5.500000e-01	5.945762e-04	
677	6.000000e-01	6.410423e-04	
678	6.500000e-01	6.863288e-04	
679	7.000000e-01	7.304535e-04	
680	7.500000e-01	7.734340e-04	
681	8.000000e-01	8.152871e-04	
682	8.500000e-01	8.560297e-04	
683	9.000000e-01	8.956782e-04	
684	9.500000e-01	9.342485e-04	
685	1.000000e+00	9.717565e-04	
686	1.050000e+00	1.008218e-03	
687	1.100000e+00	1.043647e-03	
688	1.150000e+00	1.078059e-03	
689	1.200000e+00	1.111469e-03	
690	1.250000e+00	1.143891e-03	
691	1.300000e+00	1.175338e-03	
692	1.350000e+00	1.205825e-03	

Index   v-sweep         -i(vds)         
--------------------------------------------------------------------------------
693	1.400000e+00	1.235365e-03	
694	1.450000e+00	1.263972e-03	
695	1.500000e+00	1.291657e-03	
696	1.550000e+00	1.318434e-03	
697	1.600000e+00	1.344315e-03	
698	1.650000e+00	1.369313e-03	
699	1.700000e+00	1.393438e-03	
700	1.750000e+00	1.416704e-03	
701	1.800000e+00	1.439120e-03	
702	1.850000e+00	1.460699e-03	
703	1.900000e+00	1.481450e-03	
704	1.950000e+00	1.501384e-03	
705	2.000000e+00	1.520510e-03	
706	2.050000e+00	1.538838e-03	
707	2.100000e+00	1.556377e-03	
708	2.150000e+00	1.573133e-03	
709	2.200000e+00	1.589113e-03	
710	2.250000e+00	1.604323e-03	
711	2.300000e+00	1.618763e-03	
712	2.350000e+00	1.632434e-03	
713	2.400000e+00	1.645331e-03	
714	2.450000e+00	1.657445e-03	
715	2.500000e+00	1.668762e-03	
716	2.550000e+00	1.679265e-03	
717	2.600000e+00	1.688938e-03	
718	2.650000e+00	1.697775e-03	
719	2.700000e+00	1.705788e-03	
720	2.750000e+00	1.713011e-03	
721	2.800000e+00	1.719504e-03	
722	2.850000e+00	1.725339e-03	
723	2.900000e+00	1.730595e-03	
724	2.950000e+00	1.735349e-03	
725	3.000000e+00	1.739670e-03	
726	3.050000e+00	1.743619e-03	
727	3.100000e+00	1.747247e-03	
728	3.150000e+00	1.750597e-03	
729	3.200000e+00	1.753707e-03	
730	3.250000e+00	1.756605e-03	
731	3.300000e+00	1.759318e-03	
732	3.350000e+00	1.761867e-03	
733	3.400000e+00	1.764270e-03	
734	3.450000e+00	1.766543e-03	
735	3.500000e+00	1.768698e-03	
736	3.550000e+00	1.770747e-03	
737	3.600000e+00	1.772701e-03	
738	3.650000e+00	1.774566e-03	
739	3.700000e+00	1.776352e-03	
740	3.750000e+00	1.778065e-03	
741	3.800000e+00	1.779710e-03	
742	3.850000e+00	1.781293e-03	
743	3.900000e+00	1.782818e-03	
744	3.950000e+00	1.784289e-03	
745	4.000000e+00	1.785711e-03	
746	4.050000e+00	1.787086e-03	
747	4.100000e+00	1.788417e-03	
748	4.150000e+00	1.789708e-03	
749	4.200000e+00	1.790961e-03	
750	4.250000e+00	1.792177e-03	

Index   v-sweep         -i(vds)         
--------------------------------------------------------------------------------
751	4.300000e+00	1.793360e-03	
752	4.350000e+00	1.794510e-03	
753	4.400000e+00	1.795630e-03	
754	4.450000e+00	1.796722e-03	
755	4.500000e+00	1.797787e-03	
756	4.550000e+00	1.798825e-03	
757	4.600000e+00	1.799840e-03	
758	4.650000e+00	1.800831e-03	
759	4.700000e+00	1.801800e-03	
760	4.750000e+00	1.802748e-03	
761	4.800000e+00	1.803676e-03	
762	4.850000e+00	1.804585e-03	
763	4.900000e+00	1.805477e-03	
764	4.950000e+00	1.806351e-03	
765	5.000000e+00	1.807210e-03	
766	5.050000e+00	1.808054e-03	
767	5.100000e+00	1.808884e-03	
768	5.150000e+00	1.809702e-03	
769	5.200000e+00	1.810508e-03	
770	5.250000e+00	1.811305e-03	
771	5.300000e+00	1.812093e-03	
772	5.350000e+00	1.812875e-03	
773	5.400000e+00	1.813652e-03	
774	5.450000e+00	1.814426e-03	
775	5.500000e+00	1.815199e-03	
776	5.550000e+00	1.815975e-03	
777	5.600000e+00	1.816755e-03	
778	5.650000e+00	1.817543e-03	
779	5.700000e+00	1.818343e-03	
780	5.750000e+00	1.819157e-03	
781	5.800000e+00	1.819991e-03	
782	5.850000e+00	1.820849e-03	
783	5.900000e+00	1.821736e-03	
784	5.950000e+00	1.822658e-03	
785	6.000000e+00	1.823620e-03	
786	6.050000e+00	1.824630e-03	
787	6.100000e+00	1.825693e-03	
788	6.150000e+00	1.826818e-03	
789	6.200000e+00	1.828013e-03	
790	6.250000e+00	1.829287e-03	
791	6.300000e+00	1.830649e-03	
792	6.350000e+00	1.832109e-03	
793	6.400000e+00	1.833677e-03	
794	6.450000e+00	1.835365e-03	
795	6.500000e+00	1.837186e-03	
796	6.550000e+00	1.839151e-03	
797	6.600000e+00	1.841273e-03	
Note: No ".plot", ".print", or ".fourier" lines; no simulations run
