
Note: Compatibility modes selected: hs

Warning: m=xx on .subckt line will override multiplier m hierarchy!


Circuit: ***************************

Doing analysis at TEMP = 125.000000 and TNOM = 125.000000


No. of Data Rows : 798
                          ***************************
                          DC transfer characteristic  Mon Jan  9 13:57:41  2023
--------------------------------------------------------------------------------
Index   v-sweep         -i(vds)         
--------------------------------------------------------------------------------
0	0.000000e+00	-0.000000e+00	
1	5.000000e-02	5.483267e-07	
2	1.000000e-01	1.006338e-06	
3	1.500000e-01	1.379153e-06	
4	2.000000e-01	1.669806e-06	
5	2.500000e-01	1.881929e-06	
6	3.000000e-01	2.022568e-06	
7	3.500000e-01	2.106570e-06	
8	4.000000e-01	2.155849e-06	
9	4.500000e-01	2.188266e-06	
10	5.000000e-01	2.212647e-06	
11	5.500000e-01	2.232617e-06	
12	6.000000e-01	2.249780e-06	
13	6.500000e-01	2.264963e-06	
14	7.000000e-01	2.278652e-06	
15	7.500000e-01	2.291163e-06	
16	8.000000e-01	2.302716e-06	
17	8.500000e-01	2.313472e-06	
18	9.000000e-01	2.323552e-06	
19	9.500000e-01	2.333053e-06	
20	1.000000e+00	2.342049e-06	
21	1.050000e+00	2.350603e-06	
22	1.100000e+00	2.358765e-06	
23	1.150000e+00	2.366578e-06	
24	1.200000e+00	2.374079e-06	
25	1.250000e+00	2.381296e-06	
26	1.300000e+00	2.388257e-06	
27	1.350000e+00	2.394985e-06	
28	1.400000e+00	2.401498e-06	
29	1.450000e+00	2.407816e-06	
30	1.500000e+00	2.413952e-06	
31	1.550000e+00	2.419921e-06	
32	1.600000e+00	2.425735e-06	
33	1.650000e+00	2.431405e-06	
34	1.700000e+00	2.436940e-06	
35	1.750000e+00	2.442349e-06	
36	1.800000e+00	2.447641e-06	
37	1.850000e+00	2.452822e-06	
38	1.900000e+00	2.457899e-06	
39	1.950000e+00	2.462878e-06	
40	2.000000e+00	2.467766e-06	
41	2.050000e+00	2.472565e-06	
42	2.100000e+00	2.477283e-06	
43	2.150000e+00	2.481922e-06	
44	2.200000e+00	2.486486e-06	
45	2.250000e+00	2.490981e-06	
46	2.300000e+00	2.495408e-06	
47	2.350000e+00	2.499771e-06	
48	2.400000e+00	2.504073e-06	
49	2.450000e+00	2.508318e-06	
50	2.500000e+00	2.512507e-06	
51	2.550000e+00	2.516643e-06	
52	2.600000e+00	2.520730e-06	
53	2.650000e+00	2.524768e-06	
54	2.700000e+00	2.528762e-06	

Index   v-sweep         -i(vds)         
--------------------------------------------------------------------------------
55	2.750000e+00	2.532712e-06	
56	2.800000e+00	2.536623e-06	
57	2.850000e+00	2.540495e-06	
58	2.900000e+00	2.544332e-06	
59	2.950000e+00	2.548136e-06	
60	3.000000e+00	2.551910e-06	
61	3.050000e+00	2.555658e-06	
62	3.100000e+00	2.559382e-06	
63	3.150000e+00	2.563086e-06	
64	3.200000e+00	2.566773e-06	
65	3.250000e+00	2.570449e-06	
66	3.300000e+00	2.574117e-06	
67	3.350000e+00	2.577783e-06	
68	3.400000e+00	2.581452e-06	
69	3.450000e+00	2.585130e-06	
70	3.500000e+00	2.588824e-06	
71	3.550000e+00	2.592540e-06	
72	3.600000e+00	2.596287e-06	
73	3.650000e+00	2.600073e-06	
74	3.700000e+00	2.603907e-06	
75	3.750000e+00	2.607800e-06	
76	3.800000e+00	2.611761e-06	
77	3.850000e+00	2.615802e-06	
78	3.900000e+00	2.619936e-06	
79	3.950000e+00	2.624176e-06	
80	4.000000e+00	2.628537e-06	
81	4.050000e+00	2.633032e-06	
82	4.100000e+00	2.637679e-06	
83	4.150000e+00	2.642494e-06	
84	4.200000e+00	2.647495e-06	
85	4.250000e+00	2.652702e-06	
86	4.300000e+00	2.658134e-06	
87	4.350000e+00	2.663813e-06	
88	4.400000e+00	2.669760e-06	
89	4.450000e+00	2.675999e-06	
90	4.500000e+00	2.682553e-06	
91	4.550000e+00	2.689449e-06	
92	4.600000e+00	2.696712e-06	
93	4.650000e+00	2.704370e-06	
94	4.700000e+00	2.712452e-06	
95	4.750000e+00	2.720986e-06	
96	4.800000e+00	2.730003e-06	
97	4.850000e+00	2.739534e-06	
98	4.900000e+00	2.749613e-06	
99	4.950000e+00	2.760271e-06	
100	5.000000e+00	2.771545e-06	
101	5.050000e+00	2.783469e-06	
102	5.100000e+00	2.796079e-06	
103	5.150000e+00	2.809413e-06	
104	5.200000e+00	2.823509e-06	
105	5.250000e+00	2.838405e-06	
106	5.300000e+00	2.854142e-06	
107	5.350000e+00	2.870760e-06	
108	5.400000e+00	2.888301e-06	
109	5.450000e+00	2.906806e-06	
110	5.500000e+00	2.926319e-06	
111	5.550000e+00	2.946884e-06	
112	5.600000e+00	2.968544e-06	

Index   v-sweep         -i(vds)         
--------------------------------------------------------------------------------
113	5.650000e+00	2.991344e-06	
114	5.700000e+00	3.015331e-06	
115	5.750000e+00	3.040550e-06	
116	5.800000e+00	3.067049e-06	
117	5.850000e+00	3.094873e-06	
118	5.900000e+00	3.124072e-06	
119	5.950000e+00	3.154694e-06	
120	6.000000e+00	3.186787e-06	
121	6.050000e+00	3.220401e-06	
122	6.100000e+00	3.255585e-06	
123	6.150000e+00	3.292389e-06	
124	6.200000e+00	3.330863e-06	
125	6.250000e+00	3.371058e-06	
126	6.300000e+00	3.413026e-06	
127	6.350000e+00	3.456816e-06	
128	6.400000e+00	3.502481e-06	
129	6.450000e+00	3.550071e-06	
130	6.500000e+00	3.599640e-06	
131	6.550000e+00	3.651238e-06	
132	6.600000e+00	3.704917e-06	
133	0.000000e+00	-0.000000e+00	
134	5.000000e-02	1.626544e-06	
135	1.000000e-01	3.153345e-06	
136	1.500000e-01	4.585493e-06	
137	2.000000e-01	5.925535e-06	
138	2.500000e-01	7.175351e-06	
139	3.000000e-01	8.336632e-06	
140	3.500000e-01	9.410992e-06	
141	4.000000e-01	1.040001e-05	
142	4.500000e-01	1.130524e-05	
143	5.000000e-01	1.212822e-05	
144	5.500000e-01	1.287049e-05	
145	6.000000e-01	1.353364e-05	
146	6.500000e-01	1.411931e-05	
147	7.000000e-01	1.462937e-05	
148	7.500000e-01	1.506608e-05	
149	8.000000e-01	1.543251e-05	
150	8.500000e-01	1.573334e-05	
151	9.000000e-01	1.597573e-05	
152	9.500000e-01	1.616955e-05	
153	1.000000e+00	1.632586e-05	
154	1.050000e+00	1.645456e-05	
155	1.100000e+00	1.656316e-05	
156	1.150000e+00	1.665688e-05	
157	1.200000e+00	1.673927e-05	
158	1.250000e+00	1.681282e-05	
159	1.300000e+00	1.687928e-05	
160	1.350000e+00	1.693993e-05	
161	1.400000e+00	1.699575e-05	
162	1.450000e+00	1.704749e-05	
163	1.500000e+00	1.709573e-05	
164	1.550000e+00	1.714094e-05	
165	1.600000e+00	1.718349e-05	
166	1.650000e+00	1.722371e-05	
167	1.700000e+00	1.726186e-05	
168	1.750000e+00	1.729814e-05	
169	1.800000e+00	1.733276e-05	
170	1.850000e+00	1.736586e-05	

Index   v-sweep         -i(vds)         
--------------------------------------------------------------------------------
171	1.900000e+00	1.739760e-05	
172	1.950000e+00	1.742808e-05	
173	2.000000e+00	1.745741e-05	
174	2.050000e+00	1.748569e-05	
175	2.100000e+00	1.751299e-05	
176	2.150000e+00	1.753939e-05	
177	2.200000e+00	1.756496e-05	
178	2.250000e+00	1.758974e-05	
179	2.300000e+00	1.761380e-05	
180	2.350000e+00	1.763718e-05	
181	2.400000e+00	1.765992e-05	
182	2.450000e+00	1.768207e-05	
183	2.500000e+00	1.770365e-05	
184	2.550000e+00	1.772470e-05	
185	2.600000e+00	1.774525e-05	
186	2.650000e+00	1.776532e-05	
187	2.700000e+00	1.778495e-05	
188	2.750000e+00	1.780415e-05	
189	2.800000e+00	1.782295e-05	
190	2.850000e+00	1.784136e-05	
191	2.900000e+00	1.785941e-05	
192	2.950000e+00	1.787711e-05	
193	3.000000e+00	1.789448e-05	
194	3.050000e+00	1.791154e-05	
195	3.100000e+00	1.792829e-05	
196	3.150000e+00	1.794476e-05	
197	3.200000e+00	1.796096e-05	
198	3.250000e+00	1.797691e-05	
199	3.300000e+00	1.799261e-05	
200	3.350000e+00	1.800808e-05	
201	3.400000e+00	1.802334e-05	
202	3.450000e+00	1.803840e-05	
203	3.500000e+00	1.805328e-05	
204	3.550000e+00	1.806800e-05	
205	3.600000e+00	1.808257e-05	
206	3.650000e+00	1.809702e-05	
207	3.700000e+00	1.811136e-05	
208	3.750000e+00	1.812563e-05	
209	3.800000e+00	1.813985e-05	
210	3.850000e+00	1.815404e-05	
211	3.900000e+00	1.816825e-05	
212	3.950000e+00	1.818250e-05	
213	4.000000e+00	1.819684e-05	
214	4.050000e+00	1.821130e-05	
215	4.100000e+00	1.822595e-05	
216	4.150000e+00	1.824082e-05	
217	4.200000e+00	1.825597e-05	
218	4.250000e+00	1.827146e-05	
219	4.300000e+00	1.828737e-05	
220	4.350000e+00	1.830376e-05	
221	4.400000e+00	1.832070e-05	
222	4.450000e+00	1.833829e-05	
223	4.500000e+00	1.835660e-05	
224	4.550000e+00	1.837574e-05	
225	4.600000e+00	1.839580e-05	
226	4.650000e+00	1.841689e-05	
227	4.700000e+00	1.843912e-05	
228	4.750000e+00	1.846262e-05	

Index   v-sweep         -i(vds)         
--------------------------------------------------------------------------------
229	4.800000e+00	1.848752e-05	
230	4.850000e+00	1.851393e-05	
231	4.900000e+00	1.854202e-05	
232	4.950000e+00	1.857192e-05	
233	5.000000e+00	1.860379e-05	
234	5.050000e+00	1.863779e-05	
235	5.100000e+00	1.867410e-05	
236	5.150000e+00	1.871287e-05	
237	5.200000e+00	1.875431e-05	
238	5.250000e+00	1.879860e-05	
239	5.300000e+00	1.884593e-05	
240	5.350000e+00	1.889650e-05	
241	5.400000e+00	1.895054e-05	
242	5.450000e+00	1.900825e-05	
243	5.500000e+00	1.906985e-05	
244	5.550000e+00	1.913558e-05	
245	5.600000e+00	1.920567e-05	
246	5.650000e+00	1.928036e-05	
247	5.700000e+00	1.935990e-05	
248	5.750000e+00	1.944454e-05	
249	5.800000e+00	1.953454e-05	
250	5.850000e+00	1.963016e-05	
251	5.900000e+00	1.973168e-05	
252	5.950000e+00	1.983936e-05	
253	6.000000e+00	1.995348e-05	
254	6.050000e+00	2.007433e-05	
255	6.100000e+00	2.020220e-05	
256	6.150000e+00	2.033737e-05	
257	6.200000e+00	2.048015e-05	
258	6.250000e+00	2.063082e-05	
259	6.300000e+00	2.078971e-05	
260	6.350000e+00	2.095710e-05	
261	6.400000e+00	2.113332e-05	
262	6.450000e+00	2.131868e-05	
263	6.500000e+00	2.151348e-05	
264	6.550000e+00	2.171805e-05	
265	6.600000e+00	2.193272e-05	
266	0.000000e+00	-0.000000e+00	
267	5.000000e-02	2.471942e-06	
268	1.000000e-01	4.842565e-06	
269	1.500000e-01	7.116941e-06	
270	2.000000e-01	9.297600e-06	
271	2.500000e-01	1.138641e-05	
272	3.000000e-01	1.338502e-05	
273	3.500000e-01	1.529505e-05	
274	4.000000e-01	1.711801e-05	
275	4.500000e-01	1.885543e-05	
276	5.000000e-01	2.050877e-05	
277	5.500000e-01	2.207947e-05	
278	6.000000e-01	2.356893e-05	
279	6.500000e-01	2.497854e-05	
280	7.000000e-01	2.630962e-05	
281	7.500000e-01	2.756352e-05	
282	8.000000e-01	2.874150e-05	
283	8.500000e-01	2.984485e-05	
284	9.000000e-01	3.087480e-05	
285	9.500000e-01	3.183257e-05	
286	1.000000e+00	3.271936e-05	

Index   v-sweep         -i(vds)         
--------------------------------------------------------------------------------
287	1.050000e+00	3.353638e-05	
288	1.100000e+00	3.428481e-05	
289	1.150000e+00	3.496585e-05	
290	1.200000e+00	3.558076e-05	
291	1.250000e+00	3.613095e-05	
292	1.300000e+00	3.661810e-05	
293	1.350000e+00	3.704455e-05	
294	1.400000e+00	3.741375e-05	
295	1.450000e+00	3.773076e-05	
296	1.500000e+00	3.800215e-05	
297	1.550000e+00	3.823527e-05	
298	1.600000e+00	3.843721e-05	
299	1.650000e+00	3.861404e-05	
300	1.700000e+00	3.877067e-05	
301	1.750000e+00	3.891091e-05	
302	1.800000e+00	3.903771e-05	
303	1.850000e+00	3.915335e-05	
304	1.900000e+00	3.925961e-05	
305	1.950000e+00	3.935788e-05	
306	2.000000e+00	3.944929e-05	
307	2.050000e+00	3.953474e-05	
308	2.100000e+00	3.961497e-05	
309	2.150000e+00	3.969061e-05	
310	2.200000e+00	3.976216e-05	
311	2.250000e+00	3.983006e-05	
312	2.300000e+00	3.989467e-05	
313	2.350000e+00	3.995631e-05	
314	2.400000e+00	4.001526e-05	
315	2.450000e+00	4.007175e-05	
316	2.500000e+00	4.012599e-05	
317	2.550000e+00	4.017816e-05	
318	2.600000e+00	4.022842e-05	
319	2.650000e+00	4.027692e-05	
320	2.700000e+00	4.032378e-05	
321	2.750000e+00	4.036912e-05	
322	2.800000e+00	4.041304e-05	
323	2.850000e+00	4.045563e-05	
324	2.900000e+00	4.049698e-05	
325	2.950000e+00	4.053717e-05	
326	3.000000e+00	4.057626e-05	
327	3.050000e+00	4.061431e-05	
328	3.100000e+00	4.065140e-05	
329	3.150000e+00	4.068756e-05	
330	3.200000e+00	4.072285e-05	
331	3.250000e+00	4.075731e-05	
332	3.300000e+00	4.079099e-05	
333	3.350000e+00	4.082392e-05	
334	3.400000e+00	4.085615e-05	
335	3.450000e+00	4.088770e-05	
336	3.500000e+00	4.091861e-05	
337	3.550000e+00	4.094891e-05	
338	3.600000e+00	4.097863e-05	
339	3.650000e+00	4.100780e-05	
340	3.700000e+00	4.103645e-05	
341	3.750000e+00	4.106461e-05	
342	3.800000e+00	4.109230e-05	
343	3.850000e+00	4.111955e-05	
344	3.900000e+00	4.114640e-05	

Index   v-sweep         -i(vds)         
--------------------------------------------------------------------------------
345	3.950000e+00	4.117288e-05	
346	4.000000e+00	4.119902e-05	
347	4.050000e+00	4.122485e-05	
348	4.100000e+00	4.125043e-05	
349	4.150000e+00	4.127578e-05	
350	4.200000e+00	4.130097e-05	
351	4.250000e+00	4.132604e-05	
352	4.300000e+00	4.135105e-05	
353	4.350000e+00	4.137606e-05	
354	4.400000e+00	4.140115e-05	
355	4.450000e+00	4.142640e-05	
356	4.500000e+00	4.145189e-05	
357	4.550000e+00	4.147771e-05	
358	4.600000e+00	4.150398e-05	
359	4.650000e+00	4.153080e-05	
360	4.700000e+00	4.155830e-05	
361	4.750000e+00	4.158661e-05	
362	4.800000e+00	4.161589e-05	
363	4.850000e+00	4.164628e-05	
364	4.900000e+00	4.167797e-05	
365	4.950000e+00	4.171114e-05	
366	5.000000e+00	4.174598e-05	
367	5.050000e+00	4.178270e-05	
368	5.100000e+00	4.182154e-05	
369	5.150000e+00	4.186273e-05	
370	5.200000e+00	4.190652e-05	
371	5.250000e+00	4.195319e-05	
372	5.300000e+00	4.200303e-05	
373	5.350000e+00	4.205632e-05	
374	5.400000e+00	4.211340e-05	
375	5.450000e+00	4.217458e-05	
376	5.500000e+00	4.224022e-05	
377	5.550000e+00	4.231069e-05	
378	5.600000e+00	4.238635e-05	
379	5.650000e+00	4.246760e-05	
380	5.700000e+00	4.255486e-05	
381	5.750000e+00	4.264855e-05	
382	5.800000e+00	4.274911e-05	
383	5.850000e+00	4.285699e-05	
384	5.900000e+00	4.297267e-05	
385	5.950000e+00	4.309663e-05	
386	6.000000e+00	4.322937e-05	
387	6.050000e+00	4.337140e-05	
388	6.100000e+00	4.352325e-05	
389	6.150000e+00	4.368547e-05	
390	6.200000e+00	4.385860e-05	
391	6.250000e+00	4.404321e-05	
392	6.300000e+00	4.423989e-05	
393	6.350000e+00	4.444922e-05	
394	6.400000e+00	4.467180e-05	
395	6.450000e+00	4.490825e-05	
396	6.500000e+00	4.515919e-05	
397	6.550000e+00	4.542526e-05	
398	6.600000e+00	4.570709e-05	
399	0.000000e+00	-0.000000e+00	
400	5.000000e-02	3.122005e-06	
401	1.000000e-01	6.145020e-06	
402	1.500000e-01	9.073969e-06	

Index   v-sweep         -i(vds)         
--------------------------------------------------------------------------------
403	2.000000e-01	1.191124e-05	
404	2.500000e-01	1.465855e-05	
405	3.000000e-01	1.731745e-05	
406	3.500000e-01	1.988939e-05	
407	4.000000e-01	2.237579e-05	
408	4.500000e-01	2.477803e-05	
409	5.000000e-01	2.709749e-05	
410	5.500000e-01	2.933548e-05	
411	6.000000e-01	3.149330e-05	
412	6.500000e-01	3.357222e-05	
413	7.000000e-01	3.557348e-05	
414	7.500000e-01	3.749831e-05	
415	8.000000e-01	3.934788e-05	
416	8.500000e-01	4.112338e-05	
417	9.000000e-01	4.282594e-05	
418	9.500000e-01	4.445668e-05	
419	1.000000e+00	4.601669e-05	
420	1.050000e+00	4.750705e-05	
421	1.100000e+00	4.892881e-05	
422	1.150000e+00	5.028300e-05	
423	1.200000e+00	5.157062e-05	
424	1.250000e+00	5.279266e-05	
425	1.300000e+00	5.395007e-05	
426	1.350000e+00	5.504379e-05	
427	1.400000e+00	5.607472e-05	
428	1.450000e+00	5.704374e-05	
429	1.500000e+00	5.795167e-05	
430	1.550000e+00	5.879929e-05	
431	1.600000e+00	5.958731e-05	
432	1.650000e+00	6.031637e-05	
433	1.700000e+00	6.098700e-05	
434	1.750000e+00	6.159970e-05	
435	1.800000e+00	6.215500e-05	
436	1.850000e+00	6.265384e-05	
437	1.900000e+00	6.309801e-05	
438	1.950000e+00	6.349066e-05	
439	2.000000e+00	6.383645e-05	
440	2.050000e+00	6.414106e-05	
441	2.100000e+00	6.441047e-05	
442	2.150000e+00	6.465029e-05	
443	2.200000e+00	6.486536e-05	
444	2.250000e+00	6.505974e-05	
445	2.300000e+00	6.523673e-05	
446	2.350000e+00	6.539899e-05	
447	2.400000e+00	6.554868e-05	
448	2.450000e+00	6.568754e-05	
449	2.500000e+00	6.581701e-05	
450	2.550000e+00	6.593825e-05	
451	2.600000e+00	6.605225e-05	
452	2.650000e+00	6.615983e-05	
453	2.700000e+00	6.626166e-05	
454	2.750000e+00	6.635836e-05	
455	2.800000e+00	6.645041e-05	
456	2.850000e+00	6.653825e-05	
457	2.900000e+00	6.662226e-05	
458	2.950000e+00	6.670276e-05	
459	3.000000e+00	6.678006e-05	
460	3.050000e+00	6.685439e-05	

Index   v-sweep         -i(vds)         
--------------------------------------------------------------------------------
461	3.100000e+00	6.692600e-05	
462	3.150000e+00	6.699508e-05	
463	3.200000e+00	6.706180e-05	
464	3.250000e+00	6.712634e-05	
465	3.300000e+00	6.718884e-05	
466	3.350000e+00	6.724943e-05	
467	3.400000e+00	6.730822e-05	
468	3.450000e+00	6.736534e-05	
469	3.500000e+00	6.742087e-05	
470	3.550000e+00	6.747491e-05	
471	3.600000e+00	6.752754e-05	
472	3.650000e+00	6.757884e-05	
473	3.700000e+00	6.762887e-05	
474	3.750000e+00	6.767772e-05	
475	3.800000e+00	6.772542e-05	
476	3.850000e+00	6.777205e-05	
477	3.900000e+00	6.781765e-05	
478	3.950000e+00	6.786227e-05	
479	4.000000e+00	6.790597e-05	
480	4.050000e+00	6.794879e-05	
481	4.100000e+00	6.799077e-05	
482	4.150000e+00	6.803195e-05	
483	4.200000e+00	6.807239e-05	
484	4.250000e+00	6.811211e-05	
485	4.300000e+00	6.815117e-05	
486	4.350000e+00	6.818962e-05	
487	4.400000e+00	6.822749e-05	
488	4.450000e+00	6.826485e-05	
489	4.500000e+00	6.830175e-05	
490	4.550000e+00	6.833824e-05	
491	4.600000e+00	6.837440e-05	
492	4.650000e+00	6.841029e-05	
493	4.700000e+00	6.844601e-05	
494	4.750000e+00	6.848162e-05	
495	4.800000e+00	6.851725e-05	
496	4.850000e+00	6.855298e-05	
497	4.900000e+00	6.858895e-05	
498	4.950000e+00	6.862529e-05	
499	5.000000e+00	6.866213e-05	
500	5.050000e+00	6.869966e-05	
501	5.100000e+00	6.873804e-05	
502	5.150000e+00	6.877746e-05	
503	5.200000e+00	6.881814e-05	
504	5.250000e+00	6.886031e-05	
505	5.300000e+00	6.890421e-05	
506	5.350000e+00	6.895012e-05	
507	5.400000e+00	6.899833e-05	
508	5.450000e+00	6.904915e-05	
509	5.500000e+00	6.910291e-05	
510	5.550000e+00	6.915997e-05	
511	5.600000e+00	6.922071e-05	
512	5.650000e+00	6.928554e-05	
513	5.700000e+00	6.935488e-05	
514	5.750000e+00	6.942920e-05	
515	5.800000e+00	6.950896e-05	
516	5.850000e+00	6.959469e-05	
517	5.900000e+00	6.968689e-05	
518	5.950000e+00	6.978615e-05	

Index   v-sweep         -i(vds)         
--------------------------------------------------------------------------------
519	6.000000e+00	6.989302e-05	
520	6.050000e+00	7.000814e-05	
521	6.100000e+00	7.013211e-05	
522	6.150000e+00	7.026562e-05	
523	6.200000e+00	7.040934e-05	
524	6.250000e+00	7.056398e-05	
525	6.300000e+00	7.073028e-05	
526	6.350000e+00	7.090900e-05	
527	6.400000e+00	7.110092e-05	
528	6.450000e+00	7.130684e-05	
529	6.500000e+00	7.152762e-05	
530	6.550000e+00	7.176408e-05	
531	6.600000e+00	7.201712e-05	
532	0.000000e+00	-0.000000e+00	
533	5.000000e-02	3.604667e-06	
534	1.000000e-01	7.115299e-06	
535	1.500000e-01	1.053662e-05	
536	2.000000e-01	1.387081e-05	
537	2.500000e-01	1.711941e-05	
538	3.000000e-01	2.028376e-05	
539	3.500000e-01	2.336516e-05	
540	4.000000e-01	2.636485e-05	
541	4.500000e-01	2.928404e-05	
542	5.000000e-01	3.212395e-05	
543	5.500000e-01	3.488573e-05	
544	6.000000e-01	3.757053e-05	
545	6.500000e-01	4.017949e-05	
546	7.000000e-01	4.271370e-05	
547	7.500000e-01	4.517424e-05	
548	8.000000e-01	4.756218e-05	
549	8.500000e-01	4.987855e-05	
550	9.000000e-01	5.212437e-05	
551	9.500000e-01	5.430065e-05	
552	1.000000e+00	5.640835e-05	
553	1.050000e+00	5.844845e-05	
554	1.100000e+00	6.042189e-05	
555	1.150000e+00	6.232959e-05	
556	1.200000e+00	6.417246e-05	
557	1.250000e+00	6.595139e-05	
558	1.300000e+00	6.766726e-05	
559	1.350000e+00	6.932092e-05	
560	1.400000e+00	7.091322e-05	
561	1.450000e+00	7.244498e-05	
562	1.500000e+00	7.391701e-05	
563	1.550000e+00	7.533010e-05	
564	1.600000e+00	7.668502e-05	
565	1.650000e+00	7.798252e-05	
566	1.700000e+00	7.922335e-05	
567	1.750000e+00	8.040820e-05	
568	1.800000e+00	8.153776e-05	
569	1.850000e+00	8.261267e-05	
570	1.900000e+00	8.363352e-05	
571	1.950000e+00	8.460087e-05	
572	2.000000e+00	8.551518e-05	
573	2.050000e+00	8.637679e-05	
574	2.100000e+00	8.718592e-05	
575	2.150000e+00	8.794261e-05	
576	2.200000e+00	8.864671e-05	

Index   v-sweep         -i(vds)         
--------------------------------------------------------------------------------
577	2.250000e+00	8.929790e-05	
578	2.300000e+00	8.989590e-05	
579	2.350000e+00	9.044078e-05	
580	2.400000e+00	9.093353e-05	
581	2.450000e+00	9.137647e-05	
582	2.500000e+00	9.177329e-05	
583	2.550000e+00	9.212870e-05	
584	2.600000e+00	9.244779e-05	
585	2.650000e+00	9.273553e-05	
586	2.700000e+00	9.299641e-05	
587	2.750000e+00	9.323433e-05	
588	2.800000e+00	9.345257e-05	
589	2.850000e+00	9.365386e-05	
590	2.900000e+00	9.384049e-05	
591	2.950000e+00	9.401433e-05	
592	3.000000e+00	9.417698e-05	
593	3.050000e+00	9.432973e-05	
594	3.100000e+00	9.447371e-05	
595	3.150000e+00	9.460985e-05	
596	3.200000e+00	9.473896e-05	
597	3.250000e+00	9.486174e-05	
598	3.300000e+00	9.497876e-05	
599	3.350000e+00	9.509056e-05	
600	3.400000e+00	9.519758e-05	
601	3.450000e+00	9.530023e-05	
602	3.500000e+00	9.539885e-05	
603	3.550000e+00	9.549375e-05	
604	3.600000e+00	9.558521e-05	
605	3.650000e+00	9.567349e-05	
606	3.700000e+00	9.575879e-05	
607	3.750000e+00	9.584132e-05	
608	3.800000e+00	9.592125e-05	
609	3.850000e+00	9.599877e-05	
610	3.900000e+00	9.607400e-05	
611	3.950000e+00	9.614709e-05	
612	4.000000e+00	9.621817e-05	
613	4.050000e+00	9.628734e-05	
614	4.100000e+00	9.635470e-05	
615	4.150000e+00	9.642037e-05	
616	4.200000e+00	9.648442e-05	
617	4.250000e+00	9.654693e-05	
618	4.300000e+00	9.660799e-05	
619	4.350000e+00	9.666767e-05	
620	4.400000e+00	9.672603e-05	
621	4.450000e+00	9.678314e-05	
622	4.500000e+00	9.683906e-05	
623	4.550000e+00	9.689385e-05	
624	4.600000e+00	9.694757e-05	
625	4.650000e+00	9.700028e-05	
626	4.700000e+00	9.705202e-05	
627	4.750000e+00	9.710287e-05	
628	4.800000e+00	9.715288e-05	
629	4.850000e+00	9.720212e-05	
630	4.900000e+00	9.725066e-05	
631	4.950000e+00	9.729856e-05	
632	5.000000e+00	9.734590e-05	
633	5.050000e+00	9.739278e-05	
634	5.100000e+00	9.743929e-05	

Index   v-sweep         -i(vds)         
--------------------------------------------------------------------------------
635	5.150000e+00	9.748554e-05	
636	5.200000e+00	9.753164e-05	
637	5.250000e+00	9.757773e-05	
638	5.300000e+00	9.762394e-05	
639	5.350000e+00	9.767044e-05	
640	5.400000e+00	9.771741e-05	
641	5.450000e+00	9.776505e-05	
642	5.500000e+00	9.781357e-05	
643	5.550000e+00	9.786320e-05	
644	5.600000e+00	9.791422e-05	
645	5.650000e+00	9.796691e-05	
646	5.700000e+00	9.802157e-05	
647	5.750000e+00	9.807855e-05	
648	5.800000e+00	9.813821e-05	
649	5.850000e+00	9.820095e-05	
650	5.900000e+00	9.826720e-05	
651	5.950000e+00	9.833740e-05	
652	6.000000e+00	9.841206e-05	
653	6.050000e+00	9.849169e-05	
654	6.100000e+00	9.857685e-05	
655	6.150000e+00	9.866814e-05	
656	6.200000e+00	9.876617e-05	
657	6.250000e+00	9.887160e-05	
658	6.300000e+00	9.898515e-05	
659	6.350000e+00	9.910753e-05	
660	6.400000e+00	9.923953e-05	
661	6.450000e+00	9.938194e-05	
662	6.500000e+00	9.953561e-05	
663	6.550000e+00	9.970143e-05	
664	6.600000e+00	9.988030e-05	
665	0.000000e+00	-0.000000e+00	
666	5.000000e-02	3.949288e-06	
667	1.000000e-01	7.810995e-06	
668	1.500000e-01	1.158963e-05	
669	2.000000e-01	1.528716e-05	
670	2.500000e-01	1.890494e-05	
671	3.000000e-01	2.244410e-05	
672	3.500000e-01	2.590575e-05	
673	4.000000e-01	2.929094e-05	
674	4.500000e-01	3.260073e-05	
675	5.000000e-01	3.583613e-05	
676	5.500000e-01	3.899815e-05	
677	6.000000e-01	4.208777e-05	
678	6.500000e-01	4.510596e-05	
679	7.000000e-01	4.805366e-05	
680	7.500000e-01	5.093182e-05	
681	8.000000e-01	5.374135e-05	
682	8.500000e-01	5.648315e-05	
683	9.000000e-01	5.915809e-05	
684	9.500000e-01	6.176706e-05	
685	1.000000e+00	6.431089e-05	
686	1.050000e+00	6.679043e-05	
687	1.100000e+00	6.920650e-05	
688	1.150000e+00	7.155991e-05	
689	1.200000e+00	7.385145e-05	
690	1.250000e+00	7.608190e-05	
691	1.300000e+00	7.825203e-05	
692	1.350000e+00	8.036260e-05	

Index   v-sweep         -i(vds)         
--------------------------------------------------------------------------------
693	1.400000e+00	8.241435e-05	
694	1.450000e+00	8.440800e-05	
695	1.500000e+00	8.634427e-05	
696	1.550000e+00	8.822387e-05	
697	1.600000e+00	9.004750e-05	
698	1.650000e+00	9.181582e-05	
699	1.700000e+00	9.352952e-05	
700	1.750000e+00	9.518925e-05	
701	1.800000e+00	9.679566e-05	
702	1.850000e+00	9.834937e-05	
703	1.900000e+00	9.985103e-05	
704	1.950000e+00	1.013012e-04	
705	2.000000e+00	1.027006e-04	
706	2.050000e+00	1.040496e-04	
707	2.100000e+00	1.053490e-04	
708	2.150000e+00	1.065991e-04	
709	2.200000e+00	1.078006e-04	
710	2.250000e+00	1.089540e-04	
711	2.300000e+00	1.100596e-04	
712	2.350000e+00	1.111179e-04	
713	2.400000e+00	1.121293e-04	
714	2.450000e+00	1.130940e-04	
715	2.500000e+00	1.140122e-04	
716	2.550000e+00	1.148838e-04	
717	2.600000e+00	1.157087e-04	
718	2.650000e+00	1.164865e-04	
719	2.700000e+00	1.172165e-04	
720	2.750000e+00	1.178979e-04	
721	2.800000e+00	1.185299e-04	
722	2.850000e+00	1.191120e-04	
723	2.900000e+00	1.196449e-04	
724	2.950000e+00	1.201300e-04	
725	3.000000e+00	1.205703e-04	
726	3.050000e+00	1.209695e-04	
727	3.100000e+00	1.213321e-04	
728	3.150000e+00	1.216624e-04	
729	3.200000e+00	1.219644e-04	
730	3.250000e+00	1.222419e-04	
731	3.300000e+00	1.224979e-04	
732	3.350000e+00	1.227353e-04	
733	3.400000e+00	1.229564e-04	
734	3.450000e+00	1.231630e-04	
735	3.500000e+00	1.233569e-04	
736	3.550000e+00	1.235395e-04	
737	3.600000e+00	1.237120e-04	
738	3.650000e+00	1.238755e-04	
739	3.700000e+00	1.240307e-04	
740	3.750000e+00	1.241786e-04	
741	3.800000e+00	1.243197e-04	
742	3.850000e+00	1.244547e-04	
743	3.900000e+00	1.245840e-04	
744	3.950000e+00	1.247081e-04	
745	4.000000e+00	1.248275e-04	
746	4.050000e+00	1.249424e-04	
747	4.100000e+00	1.250533e-04	
748	4.150000e+00	1.251603e-04	
749	4.200000e+00	1.252638e-04	
750	4.250000e+00	1.253639e-04	

Index   v-sweep         -i(vds)         
--------------------------------------------------------------------------------
751	4.300000e+00	1.254610e-04	
752	4.350000e+00	1.255551e-04	
753	4.400000e+00	1.256465e-04	
754	4.450000e+00	1.257353e-04	
755	4.500000e+00	1.258217e-04	
756	4.550000e+00	1.259058e-04	
757	4.600000e+00	1.259877e-04	
758	4.650000e+00	1.260675e-04	
759	4.700000e+00	1.261454e-04	
760	4.750000e+00	1.262215e-04	
761	4.800000e+00	1.262957e-04	
762	4.850000e+00	1.263683e-04	
763	4.900000e+00	1.264393e-04	
764	4.950000e+00	1.265088e-04	
765	5.000000e+00	1.265768e-04	
766	5.050000e+00	1.266435e-04	
767	5.100000e+00	1.267089e-04	
768	5.150000e+00	1.267730e-04	
769	5.200000e+00	1.268360e-04	
770	5.250000e+00	1.268979e-04	
771	5.300000e+00	1.269588e-04	
772	5.350000e+00	1.270188e-04	
773	5.400000e+00	1.270779e-04	
774	5.450000e+00	1.271364e-04	
775	5.500000e+00	1.271941e-04	
776	5.550000e+00	1.272514e-04	
777	5.600000e+00	1.273082e-04	
778	5.650000e+00	1.273648e-04	
779	5.700000e+00	1.274213e-04	
780	5.750000e+00	1.274779e-04	
781	5.800000e+00	1.275348e-04	
782	5.850000e+00	1.275921e-04	
783	5.900000e+00	1.276501e-04	
784	5.950000e+00	1.277092e-04	
785	6.000000e+00	1.277695e-04	
786	6.050000e+00	1.278313e-04	
787	6.100000e+00	1.278952e-04	
788	6.150000e+00	1.279613e-04	
789	6.200000e+00	1.280302e-04	
790	6.250000e+00	1.281022e-04	
791	6.300000e+00	1.281779e-04	
792	6.350000e+00	1.282578e-04	
793	6.400000e+00	1.283425e-04	
794	6.450000e+00	1.284325e-04	
795	6.500000e+00	1.285286e-04	
796	6.550000e+00	1.286313e-04	
797	6.600000e+00	1.287415e-04	
Note: No ".plot", ".print", or ".fourier" lines; no simulations run
