
Note: Compatibility modes selected: hs

Warning: m=xx on .subckt line will override multiplier m hierarchy!


Circuit: ***************************

Doing analysis at TEMP = 125.000000 and TNOM = 125.000000


No. of Data Rows : 798
                          ***************************
                          DC transfer characteristic  Mon Jan  9 13:57:41  2023
--------------------------------------------------------------------------------
Index   v-sweep         -i(vds)         
--------------------------------------------------------------------------------
0	0.000000e+00	-0.000000e+00	
1	5.000000e-02	2.310601e-06	
2	1.000000e-01	4.164043e-06	
3	1.500000e-01	5.586168e-06	
4	2.000000e-01	6.601564e-06	
5	2.500000e-01	7.255233e-06	
6	3.000000e-01	7.640559e-06	
7	3.500000e-01	7.880799e-06	
8	4.000000e-01	8.057754e-06	
9	4.500000e-01	8.204520e-06	
10	5.000000e-01	8.333495e-06	
11	5.500000e-01	8.450232e-06	
12	6.000000e-01	8.557771e-06	
13	6.500000e-01	8.658033e-06	
14	7.000000e-01	8.752347e-06	
15	7.500000e-01	8.841686e-06	
16	8.000000e-01	8.926796e-06	
17	8.500000e-01	9.008261e-06	
18	9.000000e-01	9.086552e-06	
19	9.500000e-01	9.162050e-06	
20	1.000000e+00	9.235076e-06	
21	1.050000e+00	9.305895e-06	
22	1.100000e+00	9.374734e-06	
23	1.150000e+00	9.441785e-06	
24	1.200000e+00	9.507217e-06	
25	1.250000e+00	9.571172e-06	
26	1.300000e+00	9.633778e-06	
27	1.350000e+00	9.695146e-06	
28	1.400000e+00	9.755375e-06	
29	1.450000e+00	9.814550e-06	
30	1.500000e+00	9.872751e-06	
31	1.550000e+00	9.930046e-06	
32	1.600000e+00	9.986499e-06	
33	1.650000e+00	1.004217e-05	
34	1.700000e+00	1.009710e-05	
35	1.750000e+00	1.015134e-05	
36	1.800000e+00	1.020494e-05	
37	1.850000e+00	1.025793e-05	
38	1.900000e+00	1.031035e-05	
39	1.950000e+00	1.036223e-05	
40	2.000000e+00	1.041360e-05	
41	2.050000e+00	1.046449e-05	
42	2.100000e+00	1.051492e-05	
43	2.150000e+00	1.056492e-05	
44	2.200000e+00	1.061450e-05	
45	2.250000e+00	1.066370e-05	
46	2.300000e+00	1.071253e-05	
47	2.350000e+00	1.076100e-05	
48	2.400000e+00	1.080914e-05	
49	2.450000e+00	1.085696e-05	
50	2.500000e+00	1.090447e-05	
51	2.550000e+00	1.095170e-05	
52	2.600000e+00	1.099865e-05	
53	2.650000e+00	1.104533e-05	
54	2.700000e+00	1.109177e-05	

Index   v-sweep         -i(vds)         
--------------------------------------------------------------------------------
55	2.750000e+00	1.113797e-05	
56	2.800000e+00	1.118396e-05	
57	2.850000e+00	1.122973e-05	
58	2.900000e+00	1.127532e-05	
59	2.950000e+00	1.132073e-05	
60	3.000000e+00	1.136597e-05	
61	3.050000e+00	1.141108e-05	
62	3.100000e+00	1.145606e-05	
63	3.150000e+00	1.150093e-05	
64	3.200000e+00	1.154572e-05	
65	3.250000e+00	1.159044e-05	
66	3.300000e+00	1.163514e-05	
67	3.350000e+00	1.167982e-05	
68	3.400000e+00	1.172452e-05	
69	3.450000e+00	1.176928e-05	
70	3.500000e+00	1.181413e-05	
71	3.550000e+00	1.185911e-05	
72	3.600000e+00	1.190425e-05	
73	3.650000e+00	1.194962e-05	
74	3.700000e+00	1.199525e-05	
75	3.750000e+00	1.204119e-05	
76	3.800000e+00	1.208752e-05	
77	3.850000e+00	1.213428e-05	
78	3.900000e+00	1.218155e-05	
79	3.950000e+00	1.222940e-05	
80	4.000000e+00	1.227790e-05	
81	4.050000e+00	1.232713e-05	
82	4.100000e+00	1.237719e-05	
83	4.150000e+00	1.242815e-05	
84	4.200000e+00	1.248013e-05	
85	4.250000e+00	1.253321e-05	
86	4.300000e+00	1.258752e-05	
87	4.350000e+00	1.264315e-05	
88	4.400000e+00	1.270024e-05	
89	4.450000e+00	1.275891e-05	
90	4.500000e+00	1.281929e-05	
91	4.550000e+00	1.288152e-05	
92	4.600000e+00	1.294573e-05	
93	4.650000e+00	1.301209e-05	
94	4.700000e+00	1.308074e-05	
95	4.750000e+00	1.315184e-05	
96	4.800000e+00	1.322557e-05	
97	4.850000e+00	1.330210e-05	
98	4.900000e+00	1.338160e-05	
99	4.950000e+00	1.346426e-05	
100	5.000000e+00	1.355027e-05	
101	5.050000e+00	1.363983e-05	
102	5.100000e+00	1.373315e-05	
103	5.150000e+00	1.383042e-05	
104	5.200000e+00	1.393186e-05	
105	5.250000e+00	1.403770e-05	
106	5.300000e+00	1.414815e-05	
107	5.350000e+00	1.426345e-05	
108	5.400000e+00	1.438383e-05	
109	5.450000e+00	1.450954e-05	
110	5.500000e+00	1.464081e-05	
111	5.550000e+00	1.477790e-05	
112	5.600000e+00	1.492107e-05	

Index   v-sweep         -i(vds)         
--------------------------------------------------------------------------------
113	5.650000e+00	1.507057e-05	
114	5.700000e+00	1.522667e-05	
115	5.750000e+00	1.538964e-05	
116	5.800000e+00	1.555975e-05	
117	5.850000e+00	1.573728e-05	
118	5.900000e+00	1.592251e-05	
119	5.950000e+00	1.611573e-05	
120	6.000000e+00	1.631722e-05	
121	6.050000e+00	1.652729e-05	
122	6.100000e+00	1.674621e-05	
123	6.150000e+00	1.697431e-05	
124	6.200000e+00	1.721187e-05	
125	6.250000e+00	1.745921e-05	
126	6.300000e+00	1.771664e-05	
127	6.350000e+00	1.798446e-05	
128	6.400000e+00	1.826300e-05	
129	6.450000e+00	1.855256e-05	
130	6.500000e+00	1.885348e-05	
131	6.550000e+00	1.916608e-05	
132	6.600000e+00	1.949067e-05	
133	0.000000e+00	-0.000000e+00	
134	5.000000e-02	7.509597e-06	
135	1.000000e-01	1.449212e-05	
136	1.500000e-01	2.097189e-05	
137	2.000000e-01	2.696450e-05	
138	2.500000e-01	3.248302e-05	
139	3.000000e-01	3.753967e-05	
140	3.500000e-01	4.214624e-05	
141	4.000000e-01	4.631424e-05	
142	4.500000e-01	5.005508e-05	
143	5.000000e-01	5.338024e-05	
144	5.500000e-01	5.630173e-05	
145	6.000000e-01	5.883277e-05	
146	6.500000e-01	6.098948e-05	
147	7.000000e-01	6.279386e-05	
148	7.500000e-01	6.427870e-05	
149	8.000000e-01	6.549110e-05	
150	8.500000e-01	6.648812e-05	
151	9.000000e-01	6.732412e-05	
152	9.500000e-01	6.804153e-05	
153	1.000000e+00	6.867014e-05	
154	1.050000e+00	6.923043e-05	
155	1.100000e+00	6.973669e-05	
156	1.150000e+00	7.019922e-05	
157	1.200000e+00	7.062564e-05	
158	1.250000e+00	7.102174e-05	
159	1.300000e+00	7.139204e-05	
160	1.350000e+00	7.174011e-05	
161	1.400000e+00	7.206884e-05	
162	1.450000e+00	7.238058e-05	
163	1.500000e+00	7.267729e-05	
164	1.550000e+00	7.296059e-05	
165	1.600000e+00	7.323188e-05	
166	1.650000e+00	7.349234e-05	
167	1.700000e+00	7.374297e-05	
168	1.750000e+00	7.398467e-05	
169	1.800000e+00	7.421819e-05	
170	1.850000e+00	7.444422e-05	

Index   v-sweep         -i(vds)         
--------------------------------------------------------------------------------
171	1.900000e+00	7.466333e-05	
172	1.950000e+00	7.487607e-05	
173	2.000000e+00	7.508289e-05	
174	2.050000e+00	7.528422e-05	
175	2.100000e+00	7.548043e-05	
176	2.150000e+00	7.567187e-05	
177	2.200000e+00	7.585883e-05	
178	2.250000e+00	7.604160e-05	
179	2.300000e+00	7.622043e-05	
180	2.350000e+00	7.639555e-05	
181	2.400000e+00	7.656717e-05	
182	2.450000e+00	7.673549e-05	
183	2.500000e+00	7.690069e-05	
184	2.550000e+00	7.706292e-05	
185	2.600000e+00	7.722235e-05	
186	2.650000e+00	7.737911e-05	
187	2.700000e+00	7.753333e-05	
188	2.750000e+00	7.768514e-05	
189	2.800000e+00	7.783466e-05	
190	2.850000e+00	7.798198e-05	
191	2.900000e+00	7.812721e-05	
192	2.950000e+00	7.827045e-05	
193	3.000000e+00	7.841179e-05	
194	3.050000e+00	7.855131e-05	
195	3.100000e+00	7.868912e-05	
196	3.150000e+00	7.882528e-05	
197	3.200000e+00	7.895988e-05	
198	3.250000e+00	7.909302e-05	
199	3.300000e+00	7.922477e-05	
200	3.350000e+00	7.935522e-05	
201	3.400000e+00	7.948447e-05	
202	3.450000e+00	7.961261e-05	
203	3.500000e+00	7.973974e-05	
204	3.550000e+00	7.986597e-05	
205	3.600000e+00	7.999143e-05	
206	3.650000e+00	8.011623e-05	
207	3.700000e+00	8.024053e-05	
208	3.750000e+00	8.036445e-05	
209	3.800000e+00	8.048818e-05	
210	3.850000e+00	8.061189e-05	
211	3.900000e+00	8.073577e-05	
212	3.950000e+00	8.086004e-05	
213	4.000000e+00	8.098492e-05	
214	4.050000e+00	8.111067e-05	
215	4.100000e+00	8.123756e-05	
216	4.150000e+00	8.136588e-05	
217	4.200000e+00	8.149596e-05	
218	4.250000e+00	8.162813e-05	
219	4.300000e+00	8.176276e-05	
220	4.350000e+00	8.190024e-05	
221	4.400000e+00	8.204101e-05	
222	4.450000e+00	8.218550e-05	
223	4.500000e+00	8.233421e-05	
224	4.550000e+00	8.248763e-05	
225	4.600000e+00	8.264631e-05	
226	4.650000e+00	8.281082e-05	
227	4.700000e+00	8.298177e-05	
228	4.750000e+00	8.315978e-05	

Index   v-sweep         -i(vds)         
--------------------------------------------------------------------------------
229	4.800000e+00	8.334553e-05	
230	4.850000e+00	8.353971e-05	
231	4.900000e+00	8.374306e-05	
232	4.950000e+00	8.395634e-05	
233	5.000000e+00	8.418036e-05	
234	5.050000e+00	8.441593e-05	
235	5.100000e+00	8.466393e-05	
236	5.150000e+00	8.492525e-05	
237	5.200000e+00	8.520082e-05	
238	5.250000e+00	8.549161e-05	
239	5.300000e+00	8.579859e-05	
240	5.350000e+00	8.612280e-05	
241	5.400000e+00	8.646530e-05	
242	5.450000e+00	8.682716e-05	
243	5.500000e+00	8.720950e-05	
244	5.550000e+00	8.761346e-05	
245	5.600000e+00	8.804022e-05	
246	5.650000e+00	8.849098e-05	
247	5.700000e+00	8.896696e-05	
248	5.750000e+00	8.946942e-05	
249	5.800000e+00	8.999964e-05	
250	5.850000e+00	9.055892e-05	
251	5.900000e+00	9.114859e-05	
252	5.950000e+00	9.177000e-05	
253	6.000000e+00	9.242452e-05	
254	6.050000e+00	9.311356e-05	
255	6.100000e+00	9.383852e-05	
256	6.150000e+00	9.460083e-05	
257	6.200000e+00	9.540197e-05	
258	6.250000e+00	9.624339e-05	
259	6.300000e+00	9.712658e-05	
260	6.350000e+00	9.805306e-05	
261	6.400000e+00	9.902433e-05	
262	6.450000e+00	1.000419e-04	
263	6.500000e+00	1.011074e-04	
264	6.550000e+00	1.022224e-04	
265	6.600000e+00	1.033883e-04	
266	0.000000e+00	-0.000000e+00	
267	5.000000e-02	1.143357e-05	
268	1.000000e-01	2.232101e-05	
269	1.500000e-01	3.268671e-05	
270	2.000000e-01	4.254630e-05	
271	2.500000e-01	5.191288e-05	
272	3.000000e-01	6.079864e-05	
273	3.500000e-01	6.921524e-05	
274	4.000000e-01	7.717394e-05	
275	4.500000e-01	8.468564e-05	
276	5.000000e-01	9.176090e-05	
277	5.500000e-01	9.840996e-05	
278	6.000000e-01	1.046428e-04	
279	6.500000e-01	1.104690e-04	
280	7.000000e-01	1.158981e-04	
281	7.500000e-01	1.209392e-04	
282	8.000000e-01	1.256013e-04	
283	8.500000e-01	1.298932e-04	
284	9.000000e-01	1.338238e-04	
285	9.500000e-01	1.374017e-04	
286	1.000000e+00	1.406360e-04	

Index   v-sweep         -i(vds)         
--------------------------------------------------------------------------------
287	1.050000e+00	1.435363e-04	
288	1.100000e+00	1.461137e-04	
289	1.150000e+00	1.483825e-04	
290	1.200000e+00	1.503622e-04	
291	1.250000e+00	1.520806e-04	
292	1.300000e+00	1.535722e-04	
293	1.350000e+00	1.548741e-04	
294	1.400000e+00	1.560210e-04	
295	1.450000e+00	1.570420e-04	
296	1.500000e+00	1.579605e-04	
297	1.550000e+00	1.587946e-04	
298	1.600000e+00	1.595586e-04	
299	1.650000e+00	1.602635e-04	
300	1.700000e+00	1.609181e-04	
301	1.750000e+00	1.615294e-04	
302	1.800000e+00	1.621031e-04	
303	1.850000e+00	1.626439e-04	
304	1.900000e+00	1.631556e-04	
305	1.950000e+00	1.636415e-04	
306	2.000000e+00	1.641043e-04	
307	2.050000e+00	1.645463e-04	
308	2.100000e+00	1.649695e-04	
309	2.150000e+00	1.653756e-04	
310	2.200000e+00	1.657661e-04	
311	2.250000e+00	1.661424e-04	
312	2.300000e+00	1.665055e-04	
313	2.350000e+00	1.668565e-04	
314	2.400000e+00	1.671964e-04	
315	2.450000e+00	1.675258e-04	
316	2.500000e+00	1.678456e-04	
317	2.550000e+00	1.681564e-04	
318	2.600000e+00	1.684588e-04	
319	2.650000e+00	1.687532e-04	
320	2.700000e+00	1.690403e-04	
321	2.750000e+00	1.693204e-04	
322	2.800000e+00	1.695939e-04	
323	2.850000e+00	1.698613e-04	
324	2.900000e+00	1.701227e-04	
325	2.950000e+00	1.703787e-04	
326	3.000000e+00	1.706294e-04	
327	3.050000e+00	1.708751e-04	
328	3.100000e+00	1.711160e-04	
329	3.150000e+00	1.713525e-04	
330	3.200000e+00	1.715847e-04	
331	3.250000e+00	1.718128e-04	
332	3.300000e+00	1.720369e-04	
333	3.350000e+00	1.722574e-04	
334	3.400000e+00	1.724743e-04	
335	3.450000e+00	1.726879e-04	
336	3.500000e+00	1.728983e-04	
337	3.550000e+00	1.731056e-04	
338	3.600000e+00	1.733100e-04	
339	3.650000e+00	1.735117e-04	
340	3.700000e+00	1.737108e-04	
341	3.750000e+00	1.739075e-04	
342	3.800000e+00	1.741020e-04	
343	3.850000e+00	1.742945e-04	
344	3.900000e+00	1.744852e-04	

Index   v-sweep         -i(vds)         
--------------------------------------------------------------------------------
345	3.950000e+00	1.746743e-04	
346	4.000000e+00	1.748620e-04	
347	4.050000e+00	1.750485e-04	
348	4.100000e+00	1.752342e-04	
349	4.150000e+00	1.754194e-04	
350	4.200000e+00	1.756044e-04	
351	4.250000e+00	1.757895e-04	
352	4.300000e+00	1.759751e-04	
353	4.350000e+00	1.761617e-04	
354	4.400000e+00	1.763498e-04	
355	4.450000e+00	1.765399e-04	
356	4.500000e+00	1.767324e-04	
357	4.550000e+00	1.769281e-04	
358	4.600000e+00	1.771276e-04	
359	4.650000e+00	1.773315e-04	
360	4.700000e+00	1.775407e-04	
361	4.750000e+00	1.777560e-04	
362	4.800000e+00	1.779782e-04	
363	4.850000e+00	1.782083e-04	
364	4.900000e+00	1.784473e-04	
365	4.950000e+00	1.786962e-04	
366	5.000000e+00	1.789562e-04	
367	5.050000e+00	1.792284e-04	
368	5.100000e+00	1.795141e-04	
369	5.150000e+00	1.798147e-04	
370	5.200000e+00	1.801315e-04	
371	5.250000e+00	1.804659e-04	
372	5.300000e+00	1.808195e-04	
373	5.350000e+00	1.811940e-04	
374	5.400000e+00	1.815908e-04	
375	5.450000e+00	1.820119e-04	
376	5.500000e+00	1.824590e-04	
377	5.550000e+00	1.829339e-04	
378	5.600000e+00	1.834386e-04	
379	5.650000e+00	1.839751e-04	
380	5.700000e+00	1.845455e-04	
381	5.750000e+00	1.851519e-04	
382	5.800000e+00	1.857965e-04	
383	5.850000e+00	1.864815e-04	
384	5.900000e+00	1.872092e-04	
385	5.950000e+00	1.879822e-04	
386	6.000000e+00	1.888027e-04	
387	6.050000e+00	1.896733e-04	
388	6.100000e+00	1.905965e-04	
389	6.150000e+00	1.915750e-04	
390	6.200000e+00	1.926114e-04	
391	6.250000e+00	1.937083e-04	
392	6.300000e+00	1.948686e-04	
393	6.350000e+00	1.960951e-04	
394	6.400000e+00	1.973905e-04	
395	6.450000e+00	1.987579e-04	
396	6.500000e+00	2.002000e-04	
397	6.550000e+00	2.017199e-04	
398	6.600000e+00	2.033206e-04	
399	0.000000e+00	-0.000000e+00	
400	5.000000e-02	1.433306e-05	
401	1.000000e-01	2.812891e-05	
402	1.500000e-01	4.141079e-05	

Index   v-sweep         -i(vds)         
--------------------------------------------------------------------------------
403	2.000000e-01	5.419324e-05	
404	2.500000e-01	6.648836e-05	
405	3.000000e-01	7.830735e-05	
406	3.500000e-01	8.966095e-05	
407	4.000000e-01	1.005596e-04	
408	4.500000e-01	1.110133e-04	
409	5.000000e-01	1.210318e-04	
410	5.500000e-01	1.306247e-04	
411	6.000000e-01	1.398010e-04	
412	6.500000e-01	1.485699e-04	
413	7.000000e-01	1.569398e-04	
414	7.500000e-01	1.649193e-04	
415	8.000000e-01	1.725165e-04	
416	8.500000e-01	1.797394e-04	
417	9.000000e-01	1.865957e-04	
418	9.500000e-01	1.930931e-04	
419	1.000000e+00	1.992388e-04	
420	1.050000e+00	2.050401e-04	
421	1.100000e+00	2.105037e-04	
422	1.150000e+00	2.156366e-04	
423	1.200000e+00	2.204451e-04	
424	1.250000e+00	2.249355e-04	
425	1.300000e+00	2.291137e-04	
426	1.350000e+00	2.329852e-04	
427	1.400000e+00	2.365550e-04	
428	1.450000e+00	2.398275e-04	
429	1.500000e+00	2.428068e-04	
430	1.550000e+00	2.454982e-04	
431	1.600000e+00	2.479105e-04	
432	1.650000e+00	2.500591e-04	
433	1.700000e+00	2.519670e-04	
434	1.750000e+00	2.536631e-04	
435	1.800000e+00	2.551779e-04	
436	1.850000e+00	2.565395e-04	
437	1.900000e+00	2.577725e-04	
438	1.950000e+00	2.588972e-04	
439	2.000000e+00	2.599304e-04	
440	2.050000e+00	2.608853e-04	
441	2.100000e+00	2.617731e-04	
442	2.150000e+00	2.626025e-04	
443	2.200000e+00	2.633810e-04	
444	2.250000e+00	2.641147e-04	
445	2.300000e+00	2.648086e-04	
446	2.350000e+00	2.654670e-04	
447	2.400000e+00	2.660935e-04	
448	2.450000e+00	2.666914e-04	
449	2.500000e+00	2.672633e-04	
450	2.550000e+00	2.678116e-04	
451	2.600000e+00	2.683382e-04	
452	2.650000e+00	2.688449e-04	
453	2.700000e+00	2.693335e-04	
454	2.750000e+00	2.698051e-04	
455	2.800000e+00	2.702612e-04	
456	2.850000e+00	2.707027e-04	
457	2.900000e+00	2.711308e-04	
458	2.950000e+00	2.715463e-04	
459	3.000000e+00	2.719500e-04	
460	3.050000e+00	2.723426e-04	

Index   v-sweep         -i(vds)         
--------------------------------------------------------------------------------
461	3.100000e+00	2.727249e-04	
462	3.150000e+00	2.730974e-04	
463	3.200000e+00	2.734607e-04	
464	3.250000e+00	2.738153e-04	
465	3.300000e+00	2.741617e-04	
466	3.350000e+00	2.745004e-04	
467	3.400000e+00	2.748316e-04	
468	3.450000e+00	2.751558e-04	
469	3.500000e+00	2.754734e-04	
470	3.550000e+00	2.757847e-04	
471	3.600000e+00	2.760899e-04	
472	3.650000e+00	2.763893e-04	
473	3.700000e+00	2.766833e-04	
474	3.750000e+00	2.769721e-04	
475	3.800000e+00	2.772559e-04	
476	3.850000e+00	2.775349e-04	
477	3.900000e+00	2.778095e-04	
478	3.950000e+00	2.780798e-04	
479	4.000000e+00	2.783460e-04	
480	4.050000e+00	2.786085e-04	
481	4.100000e+00	2.788674e-04	
482	4.150000e+00	2.791230e-04	
483	4.200000e+00	2.793756e-04	
484	4.250000e+00	2.796255e-04	
485	4.300000e+00	2.798729e-04	
486	4.350000e+00	2.801182e-04	
487	4.400000e+00	2.803618e-04	
488	4.450000e+00	2.806041e-04	
489	4.500000e+00	2.808455e-04	
490	4.550000e+00	2.810865e-04	
491	4.600000e+00	2.813275e-04	
492	4.650000e+00	2.815693e-04	
493	4.700000e+00	2.818123e-04	
494	4.750000e+00	2.820574e-04	
495	4.800000e+00	2.823053e-04	
496	4.850000e+00	2.825567e-04	
497	4.900000e+00	2.828126e-04	
498	4.950000e+00	2.830740e-04	
499	5.000000e+00	2.833418e-04	
500	5.050000e+00	2.836173e-04	
501	5.100000e+00	2.839017e-04	
502	5.150000e+00	2.841962e-04	
503	5.200000e+00	2.845024e-04	
504	5.250000e+00	2.848216e-04	
505	5.300000e+00	2.851554e-04	
506	5.350000e+00	2.855056e-04	
507	5.400000e+00	2.858740e-04	
508	5.450000e+00	2.862625e-04	
509	5.500000e+00	2.866730e-04	
510	5.550000e+00	2.871078e-04	
511	5.600000e+00	2.875689e-04	
512	5.650000e+00	2.880588e-04	
513	5.700000e+00	2.885798e-04	
514	5.750000e+00	2.891346e-04	
515	5.800000e+00	2.897257e-04	
516	5.850000e+00	2.903559e-04	
517	5.900000e+00	2.910282e-04	
518	5.950000e+00	2.917454e-04	

Index   v-sweep         -i(vds)         
--------------------------------------------------------------------------------
519	6.000000e+00	2.925107e-04	
520	6.050000e+00	2.933272e-04	
521	6.100000e+00	2.941982e-04	
522	6.150000e+00	2.951271e-04	
523	6.200000e+00	2.961174e-04	
524	6.250000e+00	2.971727e-04	
525	6.300000e+00	2.982966e-04	
526	6.350000e+00	2.994929e-04	
527	6.400000e+00	3.007655e-04	
528	6.450000e+00	3.021184e-04	
529	6.500000e+00	3.035555e-04	
530	6.550000e+00	3.050810e-04	
531	6.600000e+00	3.066991e-04	
532	0.000000e+00	-0.000000e+00	
533	5.000000e-02	1.636967e-05	
534	1.000000e-01	3.223019e-05	
535	1.500000e-01	4.760314e-05	
536	2.000000e-01	6.250146e-05	
537	2.500000e-01	7.693568e-05	
538	3.000000e-01	9.091559e-05	
539	3.500000e-01	1.044505e-04	
540	4.000000e-01	1.175496e-04	
541	4.500000e-01	1.302216e-04	
542	5.000000e-01	1.424750e-04	
543	5.500000e-01	1.543183e-04	
544	6.000000e-01	1.657596e-04	
545	6.500000e-01	1.768066e-04	
546	7.000000e-01	1.874671e-04	
547	7.500000e-01	1.977486e-04	
548	8.000000e-01	2.076583e-04	
549	8.500000e-01	2.172033e-04	
550	9.000000e-01	2.263905e-04	
551	9.500000e-01	2.352267e-04	
552	1.000000e+00	2.437183e-04	
553	1.050000e+00	2.518719e-04	
554	1.100000e+00	2.596935e-04	
555	1.150000e+00	2.671894e-04	
556	1.200000e+00	2.743654e-04	
557	1.250000e+00	2.812274e-04	
558	1.300000e+00	2.877810e-04	
559	1.350000e+00	2.940316e-04	
560	1.400000e+00	2.999847e-04	
561	1.450000e+00	3.056453e-04	
562	1.500000e+00	3.110185e-04	
563	1.550000e+00	3.161089e-04	
564	1.600000e+00	3.209208e-04	
565	1.650000e+00	3.254584e-04	
566	1.700000e+00	3.297248e-04	
567	1.750000e+00	3.337226e-04	
568	1.800000e+00	3.374534e-04	
569	1.850000e+00	3.409174e-04	
570	1.900000e+00	3.441141e-04	
571	1.950000e+00	3.470439e-04	
572	2.000000e+00	3.497102e-04	
573	2.050000e+00	3.521227e-04	
574	2.100000e+00	3.542987e-04	
575	2.150000e+00	3.562611e-04	
576	2.200000e+00	3.580357e-04	

Index   v-sweep         -i(vds)         
--------------------------------------------------------------------------------
577	2.250000e+00	3.596474e-04	
578	2.300000e+00	3.611192e-04	
579	2.350000e+00	3.624708e-04	
580	2.400000e+00	3.637191e-04	
581	2.450000e+00	3.648779e-04	
582	2.500000e+00	3.659588e-04	
583	2.550000e+00	3.669715e-04	
584	2.600000e+00	3.679242e-04	
585	2.650000e+00	3.688235e-04	
586	2.700000e+00	3.696754e-04	
587	2.750000e+00	3.704846e-04	
588	2.800000e+00	3.712555e-04	
589	2.850000e+00	3.719916e-04	
590	2.900000e+00	3.726960e-04	
591	2.950000e+00	3.733716e-04	
592	3.000000e+00	3.740207e-04	
593	3.050000e+00	3.746455e-04	
594	3.100000e+00	3.752479e-04	
595	3.150000e+00	3.758294e-04	
596	3.200000e+00	3.763917e-04	
597	3.250000e+00	3.769361e-04	
598	3.300000e+00	3.774637e-04	
599	3.350000e+00	3.779757e-04	
600	3.400000e+00	3.784730e-04	
601	3.450000e+00	3.789566e-04	
602	3.500000e+00	3.794272e-04	
603	3.550000e+00	3.798857e-04	
604	3.600000e+00	3.803326e-04	
605	3.650000e+00	3.807687e-04	
606	3.700000e+00	3.811946e-04	
607	3.750000e+00	3.816106e-04	
608	3.800000e+00	3.820174e-04	
609	3.850000e+00	3.824154e-04	
610	3.900000e+00	3.828051e-04	
611	3.950000e+00	3.831868e-04	
612	4.000000e+00	3.835609e-04	
613	4.050000e+00	3.839277e-04	
614	4.100000e+00	3.842877e-04	
615	4.150000e+00	3.846411e-04	
616	4.200000e+00	3.849882e-04	
617	4.250000e+00	3.853294e-04	
618	4.300000e+00	3.856650e-04	
619	4.350000e+00	3.859952e-04	
620	4.400000e+00	3.863204e-04	
621	4.450000e+00	3.866408e-04	
622	4.500000e+00	3.869568e-04	
623	4.550000e+00	3.872688e-04	
624	4.600000e+00	3.875771e-04	
625	4.650000e+00	3.878820e-04	
626	4.700000e+00	3.881841e-04	
627	4.750000e+00	3.884838e-04	
628	4.800000e+00	3.887815e-04	
629	4.850000e+00	3.890779e-04	
630	4.900000e+00	3.893735e-04	
631	4.950000e+00	3.896691e-04	
632	5.000000e+00	3.899653e-04	
633	5.050000e+00	3.902630e-04	
634	5.100000e+00	3.905630e-04	

Index   v-sweep         -i(vds)         
--------------------------------------------------------------------------------
635	5.150000e+00	3.908664e-04	
636	5.200000e+00	3.911741e-04	
637	5.250000e+00	3.914874e-04	
638	5.300000e+00	3.918075e-04	
639	5.350000e+00	3.921358e-04	
640	5.400000e+00	3.924737e-04	
641	5.450000e+00	3.928229e-04	
642	5.500000e+00	3.931850e-04	
643	5.550000e+00	3.935620e-04	
644	5.600000e+00	3.939557e-04	
645	5.650000e+00	3.943683e-04	
646	5.700000e+00	3.948020e-04	
647	5.750000e+00	3.952592e-04	
648	5.800000e+00	3.957424e-04	
649	5.850000e+00	3.962543e-04	
650	5.900000e+00	3.967976e-04	
651	5.950000e+00	3.973754e-04	
652	6.000000e+00	3.979907e-04	
653	6.050000e+00	3.986469e-04	
654	6.100000e+00	3.993471e-04	
655	6.150000e+00	4.000951e-04	
656	6.200000e+00	4.008946e-04	
657	6.250000e+00	4.017493e-04	
658	6.300000e+00	4.026632e-04	
659	6.350000e+00	4.036406e-04	
660	6.400000e+00	4.046856e-04	
661	6.450000e+00	4.058027e-04	
662	6.500000e+00	4.069964e-04	
663	6.550000e+00	4.082715e-04	
664	6.600000e+00	4.096328e-04	
665	0.000000e+00	-0.000000e+00	
666	5.000000e-02	1.771337e-05	
667	1.000000e-01	3.495629e-05	
668	1.500000e-01	5.174857e-05	
669	2.000000e-01	6.810142e-05	
670	2.500000e-01	8.402378e-05	
671	3.000000e-01	9.952384e-05	
672	3.500000e-01	1.146095e-04	
673	4.000000e-01	1.292883e-04	
674	4.500000e-01	1.435678e-04	
675	5.000000e-01	1.574551e-04	
676	5.500000e-01	1.709574e-04	
677	6.000000e-01	1.840816e-04	
678	6.500000e-01	1.968344e-04	
679	7.000000e-01	2.092223e-04	
680	7.500000e-01	2.212517e-04	
681	8.000000e-01	2.329290e-04	
682	8.500000e-01	2.442601e-04	
683	9.000000e-01	2.552510e-04	
684	9.500000e-01	2.659076e-04	
685	1.000000e+00	2.762354e-04	
686	1.050000e+00	2.862402e-04	
687	1.100000e+00	2.959272e-04	
688	1.150000e+00	3.053017e-04	
689	1.200000e+00	3.143690e-04	
690	1.250000e+00	3.231341e-04	
691	1.300000e+00	3.316019e-04	
692	1.350000e+00	3.397774e-04	

Index   v-sweep         -i(vds)         
--------------------------------------------------------------------------------
693	1.400000e+00	3.476653e-04	
694	1.450000e+00	3.552701e-04	
695	1.500000e+00	3.625965e-04	
696	1.550000e+00	3.696488e-04	
697	1.600000e+00	3.764315e-04	
698	1.650000e+00	3.829488e-04	
699	1.700000e+00	3.892047e-04	
700	1.750000e+00	3.952032e-04	
701	1.800000e+00	4.009483e-04	
702	1.850000e+00	4.064435e-04	
703	1.900000e+00	4.116923e-04	
704	1.950000e+00	4.166979e-04	
705	2.000000e+00	4.214630e-04	
706	2.050000e+00	4.259897e-04	
707	2.100000e+00	4.302797e-04	
708	2.150000e+00	4.343332e-04	
709	2.200000e+00	4.381496e-04	
710	2.250000e+00	4.417267e-04	
711	2.300000e+00	4.450616e-04	
712	2.350000e+00	4.481520e-04	
713	2.400000e+00	4.509983e-04	
714	2.450000e+00	4.536065e-04	
715	2.500000e+00	4.559888e-04	
716	2.550000e+00	4.581631e-04	
717	2.600000e+00	4.601501e-04	
718	2.650000e+00	4.619715e-04	
719	2.700000e+00	4.636477e-04	
720	2.750000e+00	4.651969e-04	
721	2.800000e+00	4.666352e-04	
722	2.850000e+00	4.679764e-04	
723	2.900000e+00	4.692321e-04	
724	2.950000e+00	4.704121e-04	
725	3.000000e+00	4.715251e-04	
726	3.050000e+00	4.725781e-04	
727	3.100000e+00	4.735774e-04	
728	3.150000e+00	4.745282e-04	
729	3.200000e+00	4.754350e-04	
730	3.250000e+00	4.763020e-04	
731	3.300000e+00	4.771325e-04	
732	3.350000e+00	4.779297e-04	
733	3.400000e+00	4.786962e-04	
734	3.450000e+00	4.794344e-04	
735	3.500000e+00	4.801464e-04	
736	3.550000e+00	4.808341e-04	
737	3.600000e+00	4.814993e-04	
738	3.650000e+00	4.821434e-04	
739	3.700000e+00	4.827679e-04	
740	3.750000e+00	4.833740e-04	
741	3.800000e+00	4.839627e-04	
742	3.850000e+00	4.845353e-04	
743	3.900000e+00	4.850926e-04	
744	3.950000e+00	4.856354e-04	
745	4.000000e+00	4.861646e-04	
746	4.050000e+00	4.866809e-04	
747	4.100000e+00	4.871850e-04	
748	4.150000e+00	4.876775e-04	
749	4.200000e+00	4.881590e-04	
750	4.250000e+00	4.886300e-04	

Index   v-sweep         -i(vds)         
--------------------------------------------------------------------------------
751	4.300000e+00	4.890910e-04	
752	4.350000e+00	4.895425e-04	
753	4.400000e+00	4.899850e-04	
754	4.450000e+00	4.904188e-04	
755	4.500000e+00	4.908444e-04	
756	4.550000e+00	4.912621e-04	
757	4.600000e+00	4.916724e-04	
758	4.650000e+00	4.920755e-04	
759	4.700000e+00	4.924720e-04	
760	4.750000e+00	4.928620e-04	
761	4.800000e+00	4.932460e-04	
762	4.850000e+00	4.936244e-04	
763	4.900000e+00	4.939976e-04	
764	4.950000e+00	4.943659e-04	
765	5.000000e+00	4.947300e-04	
766	5.050000e+00	4.950902e-04	
767	5.100000e+00	4.954470e-04	
768	5.150000e+00	4.958012e-04	
769	5.200000e+00	4.961532e-04	
770	5.250000e+00	4.965039e-04	
771	5.300000e+00	4.968540e-04	
772	5.350000e+00	4.972043e-04	
773	5.400000e+00	4.975558e-04	
774	5.450000e+00	4.979095e-04	
775	5.500000e+00	4.982666e-04	
776	5.550000e+00	4.986283e-04	
777	5.600000e+00	4.989960e-04	
778	5.650000e+00	4.993711e-04	
779	5.700000e+00	4.997554e-04	
780	5.750000e+00	5.001504e-04	
781	5.800000e+00	5.005582e-04	
782	5.850000e+00	5.009808e-04	
783	5.900000e+00	5.014204e-04	
784	5.950000e+00	5.018792e-04	
785	6.000000e+00	5.023600e-04	
786	6.050000e+00	5.028653e-04	
787	6.100000e+00	5.033980e-04	
788	6.150000e+00	5.039612e-04	
789	6.200000e+00	5.045581e-04	
790	6.250000e+00	5.051922e-04	
791	6.300000e+00	5.058669e-04	
792	6.350000e+00	5.065860e-04	
793	6.400000e+00	5.073537e-04	
794	6.450000e+00	5.081739e-04	
795	6.500000e+00	5.090510e-04	
796	6.550000e+00	5.099897e-04	
797	6.600000e+00	5.109945e-04	
Note: No ".plot", ".print", or ".fourier" lines; no simulations run
