
Note: Compatibility modes selected: hs

Warning: m=xx on .subckt line will override multiplier m hierarchy!


Circuit: ***************************

Doing analysis at TEMP = 25.000000 and TNOM = 25.000000


No. of Data Rows : 798
                          ***************************
                          DC transfer characteristic  Mon Jan  9 13:57:40  2023
--------------------------------------------------------------------------------
Index   v-sweep         -i(vds)         
--------------------------------------------------------------------------------
0	0.000000e+00	-0.000000e+00	
1	5.000000e-02	2.928462e-06	
2	1.000000e-01	5.051428e-06	
3	1.500000e-01	6.433305e-06	
4	2.000000e-01	7.220049e-06	
5	2.500000e-01	7.668413e-06	
6	3.000000e-01	7.981262e-06	
7	3.500000e-01	8.236585e-06	
8	4.000000e-01	8.460015e-06	
9	4.500000e-01	8.662321e-06	
10	5.000000e-01	8.849268e-06	
11	5.500000e-01	9.024432e-06	
12	6.000000e-01	9.190240e-06	
13	6.500000e-01	9.348428e-06	
14	7.000000e-01	9.500292e-06	
15	7.500000e-01	9.646826e-06	
16	8.000000e-01	9.788809e-06	
17	8.500000e-01	9.926866e-06	
18	9.000000e-01	1.006150e-05	
19	9.500000e-01	1.019314e-05	
20	1.000000e+00	1.032212e-05	
21	1.050000e+00	1.044875e-05	
22	1.100000e+00	1.057326e-05	
23	1.150000e+00	1.069588e-05	
24	1.200000e+00	1.081678e-05	
25	1.250000e+00	1.093613e-05	
26	1.300000e+00	1.105406e-05	
27	1.350000e+00	1.117070e-05	
28	1.400000e+00	1.128617e-05	
29	1.450000e+00	1.140054e-05	
30	1.500000e+00	1.151391e-05	
31	1.550000e+00	1.162637e-05	
32	1.600000e+00	1.173796e-05	
33	1.650000e+00	1.184876e-05	
34	1.700000e+00	1.195883e-05	
35	1.750000e+00	1.206821e-05	
36	1.800000e+00	1.217694e-05	
37	1.850000e+00	1.228508e-05	
38	1.900000e+00	1.239266e-05	
39	1.950000e+00	1.249972e-05	
40	2.000000e+00	1.260628e-05	
41	2.050000e+00	1.271239e-05	
42	2.100000e+00	1.281805e-05	
43	2.150000e+00	1.292331e-05	
44	2.200000e+00	1.302819e-05	
45	2.250000e+00	1.313270e-05	
46	2.300000e+00	1.323687e-05	
47	2.350000e+00	1.334071e-05	
48	2.400000e+00	1.344425e-05	
49	2.450000e+00	1.354751e-05	
50	2.500000e+00	1.365049e-05	
51	2.550000e+00	1.375322e-05	
52	2.600000e+00	1.385572e-05	
53	2.650000e+00	1.395799e-05	
54	2.700000e+00	1.406006e-05	

Index   v-sweep         -i(vds)         
--------------------------------------------------------------------------------
55	2.750000e+00	1.416195e-05	
56	2.800000e+00	1.426366e-05	
57	2.850000e+00	1.436522e-05	
58	2.900000e+00	1.446665e-05	
59	2.950000e+00	1.456796e-05	
60	3.000000e+00	1.466919e-05	
61	3.050000e+00	1.477034e-05	
62	3.100000e+00	1.487146e-05	
63	3.150000e+00	1.497257e-05	
64	3.200000e+00	1.507370e-05	
65	3.250000e+00	1.517489e-05	
66	3.300000e+00	1.527617e-05	
67	3.350000e+00	1.537758e-05	
68	3.400000e+00	1.547918e-05	
69	3.450000e+00	1.558101e-05	
70	3.500000e+00	1.568313e-05	
71	3.550000e+00	1.578560e-05	
72	3.600000e+00	1.588848e-05	
73	3.650000e+00	1.599186e-05	
74	3.700000e+00	1.609579e-05	
75	3.750000e+00	1.620038e-05	
76	3.800000e+00	1.630571e-05	
77	3.850000e+00	1.641188e-05	
78	3.900000e+00	1.651900e-05	
79	3.950000e+00	1.662717e-05	
80	4.000000e+00	1.673653e-05	
81	4.050000e+00	1.684720e-05	
82	4.100000e+00	1.695931e-05	
83	4.150000e+00	1.707302e-05	
84	4.200000e+00	1.718848e-05	
85	4.250000e+00	1.730586e-05	
86	4.300000e+00	1.742532e-05	
87	4.350000e+00	1.754705e-05	
88	4.400000e+00	1.767125e-05	
89	4.450000e+00	1.779812e-05	
90	4.500000e+00	1.792786e-05	
91	4.550000e+00	1.806071e-05	
92	4.600000e+00	1.819689e-05	
93	4.650000e+00	1.833664e-05	
94	4.700000e+00	1.848023e-05	
95	4.750000e+00	1.862790e-05	
96	4.800000e+00	1.877995e-05	
97	4.850000e+00	1.893663e-05	
98	4.900000e+00	1.909827e-05	
99	4.950000e+00	1.926514e-05	
100	5.000000e+00	1.943758e-05	
101	5.050000e+00	1.961591e-05	
102	5.100000e+00	1.980045e-05	
103	5.150000e+00	1.999156e-05	
104	5.200000e+00	2.018959e-05	
105	5.250000e+00	2.039491e-05	
106	5.300000e+00	2.060789e-05	
107	5.350000e+00	2.082892e-05	
108	5.400000e+00	2.105838e-05	
109	5.450000e+00	2.129669e-05	
110	5.500000e+00	2.154427e-05	
111	5.550000e+00	2.180152e-05	
112	5.600000e+00	2.206890e-05	

Index   v-sweep         -i(vds)         
--------------------------------------------------------------------------------
113	5.650000e+00	2.234683e-05	
114	5.700000e+00	2.263577e-05	
115	5.750000e+00	2.293618e-05	
116	5.800000e+00	2.324852e-05	
117	5.850000e+00	2.357328e-05	
118	5.900000e+00	2.391094e-05	
119	5.950000e+00	2.426199e-05	
120	6.000000e+00	2.462694e-05	
121	6.050000e+00	2.500629e-05	
122	6.100000e+00	2.540056e-05	
123	6.150000e+00	2.581028e-05	
124	6.200000e+00	2.623597e-05	
125	6.250000e+00	2.667818e-05	
126	6.300000e+00	2.713745e-05	
127	6.350000e+00	2.761434e-05	
128	6.400000e+00	2.810940e-05	
129	6.450000e+00	2.862319e-05	
130	6.500000e+00	2.915630e-05	
131	6.550000e+00	2.970930e-05	
132	6.600000e+00	3.028277e-05	
133	0.000000e+00	-0.000000e+00	
134	5.000000e-02	1.171647e-05	
135	1.000000e-01	2.246548e-05	
136	1.500000e-01	3.228405e-05	
137	2.000000e-01	4.120740e-05	
138	2.500000e-01	4.926909e-05	
139	3.000000e-01	5.650123e-05	
140	3.500000e-01	6.293473e-05	
141	4.000000e-01	6.859971e-05	
142	4.500000e-01	7.352610e-05	
143	5.000000e-01	7.774497e-05	
144	5.500000e-01	8.129133e-05	
145	6.000000e-01	8.421062e-05	
146	6.500000e-01	8.656989e-05	
147	7.000000e-01	8.846426e-05	
148	7.500000e-01	9.000190e-05	
149	8.000000e-01	9.127821e-05	
150	8.500000e-01	9.236420e-05	
151	9.000000e-01	9.330902e-05	
152	9.500000e-01	9.414642e-05	
153	1.000000e+00	9.489992e-05	
154	1.050000e+00	9.558636e-05	
155	1.100000e+00	9.621809e-05	
156	1.150000e+00	9.680442e-05	
157	1.200000e+00	9.735250e-05	
158	1.250000e+00	9.786795e-05	
159	1.300000e+00	9.835523e-05	
160	1.350000e+00	9.881799e-05	
161	1.400000e+00	9.925918e-05	
162	1.450000e+00	9.968129e-05	
163	1.500000e+00	1.000864e-04	
164	1.550000e+00	1.004762e-04	
165	1.600000e+00	1.008523e-04	
166	1.650000e+00	1.012159e-04	
167	1.700000e+00	1.015681e-04	
168	1.750000e+00	1.019100e-04	
169	1.800000e+00	1.022423e-04	
170	1.850000e+00	1.025659e-04	

Index   v-sweep         -i(vds)         
--------------------------------------------------------------------------------
171	1.900000e+00	1.028814e-04	
172	1.950000e+00	1.031894e-04	
173	2.000000e+00	1.034904e-04	
174	2.050000e+00	1.037849e-04	
175	2.100000e+00	1.040734e-04	
176	2.150000e+00	1.043562e-04	
177	2.200000e+00	1.046337e-04	
178	2.250000e+00	1.049063e-04	
179	2.300000e+00	1.051741e-04	
180	2.350000e+00	1.054375e-04	
181	2.400000e+00	1.056967e-04	
182	2.450000e+00	1.059520e-04	
183	2.500000e+00	1.062035e-04	
184	2.550000e+00	1.064515e-04	
185	2.600000e+00	1.066962e-04	
186	2.650000e+00	1.069376e-04	
187	2.700000e+00	1.071760e-04	
188	2.750000e+00	1.074115e-04	
189	2.800000e+00	1.076443e-04	
190	2.850000e+00	1.078744e-04	
191	2.900000e+00	1.081021e-04	
192	2.950000e+00	1.083273e-04	
193	3.000000e+00	1.085504e-04	
194	3.050000e+00	1.087713e-04	
195	3.100000e+00	1.089902e-04	
196	3.150000e+00	1.092072e-04	
197	3.200000e+00	1.094224e-04	
198	3.250000e+00	1.096361e-04	
199	3.300000e+00	1.098482e-04	
200	3.350000e+00	1.100589e-04	
201	3.400000e+00	1.102685e-04	
202	3.450000e+00	1.104770e-04	
203	3.500000e+00	1.106846e-04	
204	3.550000e+00	1.108916e-04	
205	3.600000e+00	1.110981e-04	
206	3.650000e+00	1.113043e-04	
207	3.700000e+00	1.115106e-04	
208	3.750000e+00	1.117171e-04	
209	3.800000e+00	1.119241e-04	
210	3.850000e+00	1.121321e-04	
211	3.900000e+00	1.123413e-04	
212	3.950000e+00	1.125521e-04	
213	4.000000e+00	1.127649e-04	
214	4.050000e+00	1.129801e-04	
215	4.100000e+00	1.131983e-04	
216	4.150000e+00	1.134199e-04	
217	4.200000e+00	1.136454e-04	
218	4.250000e+00	1.138756e-04	
219	4.300000e+00	1.141109e-04	
220	4.350000e+00	1.143521e-04	
221	4.400000e+00	1.145999e-04	
222	4.450000e+00	1.148550e-04	
223	4.500000e+00	1.151182e-04	
224	4.550000e+00	1.153904e-04	
225	4.600000e+00	1.156724e-04	
226	4.650000e+00	1.159652e-04	
227	4.700000e+00	1.162698e-04	
228	4.750000e+00	1.165871e-04	

Index   v-sweep         -i(vds)         
--------------------------------------------------------------------------------
229	4.800000e+00	1.169184e-04	
230	4.850000e+00	1.172645e-04	
231	4.900000e+00	1.176269e-04	
232	4.950000e+00	1.180066e-04	
233	5.000000e+00	1.184049e-04	
234	5.050000e+00	1.188231e-04	
235	5.100000e+00	1.192627e-04	
236	5.150000e+00	1.197249e-04	
237	5.200000e+00	1.202112e-04	
238	5.250000e+00	1.207231e-04	
239	5.300000e+00	1.212622e-04	
240	5.350000e+00	1.218301e-04	
241	5.400000e+00	1.224282e-04	
242	5.450000e+00	1.230584e-04	
243	5.500000e+00	1.237223e-04	
244	5.550000e+00	1.244216e-04	
245	5.600000e+00	1.251582e-04	
246	5.650000e+00	1.259338e-04	
247	5.700000e+00	1.267504e-04	
248	5.750000e+00	1.276097e-04	
249	5.800000e+00	1.285138e-04	
250	5.850000e+00	1.294645e-04	
251	5.900000e+00	1.304640e-04	
252	5.950000e+00	1.315142e-04	
253	6.000000e+00	1.326171e-04	
254	6.050000e+00	1.337749e-04	
255	6.100000e+00	1.349896e-04	
256	6.150000e+00	1.362634e-04	
257	6.200000e+00	1.375985e-04	
258	6.250000e+00	1.389971e-04	
259	6.300000e+00	1.404613e-04	
260	6.350000e+00	1.419933e-04	
261	6.400000e+00	1.435955e-04	
262	6.450000e+00	1.452701e-04	
263	6.500000e+00	1.470195e-04	
264	6.550000e+00	1.488457e-04	
265	6.600000e+00	1.507513e-04	
266	0.000000e+00	-0.000000e+00	
267	5.000000e-02	1.822769e-05	
268	1.000000e-01	3.541301e-05	
269	1.500000e-01	5.159495e-05	
270	2.000000e-01	6.681054e-05	
271	2.500000e-01	8.109493e-05	
272	3.000000e-01	9.448149e-05	
273	3.500000e-01	1.070019e-04	
274	4.000000e-01	1.186861e-04	
275	4.500000e-01	1.295626e-04	
276	5.000000e-01	1.396587e-04	
277	5.500000e-01	1.490002e-04	
278	6.000000e-01	1.576115e-04	
279	6.500000e-01	1.655159e-04	
280	7.000000e-01	1.727351e-04	
281	7.500000e-01	1.792887e-04	
282	8.000000e-01	1.851934e-04	
283	8.500000e-01	1.904618e-04	
284	9.000000e-01	1.951018e-04	
285	9.500000e-01	1.991210e-04	
286	1.000000e+00	2.025404e-04	

Index   v-sweep         -i(vds)         
--------------------------------------------------------------------------------
287	1.050000e+00	2.054113e-04	
288	1.100000e+00	2.078156e-04	
289	1.150000e+00	2.098453e-04	
290	1.200000e+00	2.115828e-04	
291	1.250000e+00	2.130936e-04	
292	1.300000e+00	2.144269e-04	
293	1.350000e+00	2.156193e-04	
294	1.400000e+00	2.166978e-04	
295	1.450000e+00	2.176828e-04	
296	1.500000e+00	2.185901e-04	
297	1.550000e+00	2.194317e-04	
298	1.600000e+00	2.202172e-04	
299	1.650000e+00	2.209544e-04	
300	1.700000e+00	2.216493e-04	
301	1.750000e+00	2.223073e-04	
302	1.800000e+00	2.229325e-04	
303	1.850000e+00	2.235286e-04	
304	1.900000e+00	2.240984e-04	
305	1.950000e+00	2.246447e-04	
306	2.000000e+00	2.251697e-04	
307	2.050000e+00	2.256753e-04	
308	2.100000e+00	2.261631e-04	
309	2.150000e+00	2.266346e-04	
310	2.200000e+00	2.270912e-04	
311	2.250000e+00	2.275340e-04	
312	2.300000e+00	2.279640e-04	
313	2.350000e+00	2.283821e-04	
314	2.400000e+00	2.287892e-04	
315	2.450000e+00	2.291860e-04	
316	2.500000e+00	2.295731e-04	
317	2.550000e+00	2.299511e-04	
318	2.600000e+00	2.303207e-04	
319	2.650000e+00	2.306823e-04	
320	2.700000e+00	2.310363e-04	
321	2.750000e+00	2.313832e-04	
322	2.800000e+00	2.317235e-04	
323	2.850000e+00	2.320573e-04	
324	2.900000e+00	2.323851e-04	
325	2.950000e+00	2.327072e-04	
326	3.000000e+00	2.330239e-04	
327	3.050000e+00	2.333354e-04	
328	3.100000e+00	2.336420e-04	
329	3.150000e+00	2.339439e-04	
330	3.200000e+00	2.342414e-04	
331	3.250000e+00	2.345347e-04	
332	3.300000e+00	2.348240e-04	
333	3.350000e+00	2.351095e-04	
334	3.400000e+00	2.353914e-04	
335	3.450000e+00	2.356700e-04	
336	3.500000e+00	2.359454e-04	
337	3.550000e+00	2.362180e-04	
338	3.600000e+00	2.364879e-04	
339	3.650000e+00	2.367555e-04	
340	3.700000e+00	2.370209e-04	
341	3.750000e+00	2.372845e-04	
342	3.800000e+00	2.375467e-04	
343	3.850000e+00	2.378077e-04	
344	3.900000e+00	2.380680e-04	

Index   v-sweep         -i(vds)         
--------------------------------------------------------------------------------
345	3.950000e+00	2.383280e-04	
346	4.000000e+00	2.385882e-04	
347	4.050000e+00	2.388490e-04	
348	4.100000e+00	2.391111e-04	
349	4.150000e+00	2.393750e-04	
350	4.200000e+00	2.396415e-04	
351	4.250000e+00	2.399112e-04	
352	4.300000e+00	2.401849e-04	
353	4.350000e+00	2.404635e-04	
354	4.400000e+00	2.407479e-04	
355	4.450000e+00	2.410392e-04	
356	4.500000e+00	2.413383e-04	
357	4.550000e+00	2.416464e-04	
358	4.600000e+00	2.419649e-04	
359	4.650000e+00	2.422949e-04	
360	4.700000e+00	2.426378e-04	
361	4.750000e+00	2.429953e-04	
362	4.800000e+00	2.433688e-04	
363	4.850000e+00	2.437600e-04	
364	4.900000e+00	2.441706e-04	
365	4.950000e+00	2.446025e-04	
366	5.000000e+00	2.450577e-04	
367	5.050000e+00	2.455382e-04	
368	5.100000e+00	2.460461e-04	
369	5.150000e+00	2.465836e-04	
370	5.200000e+00	2.471530e-04	
371	5.250000e+00	2.477568e-04	
372	5.300000e+00	2.483975e-04	
373	5.350000e+00	2.490776e-04	
374	5.400000e+00	2.497998e-04	
375	5.450000e+00	2.505670e-04	
376	5.500000e+00	2.513819e-04	
377	5.550000e+00	2.522476e-04	
378	5.600000e+00	2.531670e-04	
379	5.650000e+00	2.541434e-04	
380	5.700000e+00	2.551799e-04	
381	5.750000e+00	2.562798e-04	
382	5.800000e+00	2.574465e-04	
383	5.850000e+00	2.586834e-04	
384	5.900000e+00	2.599941e-04	
385	5.950000e+00	2.613821e-04	
386	6.000000e+00	2.628511e-04	
387	6.050000e+00	2.644050e-04	
388	6.100000e+00	2.660473e-04	
389	6.150000e+00	2.677821e-04	
390	6.200000e+00	2.696133e-04	
391	6.250000e+00	2.715448e-04	
392	6.300000e+00	2.735806e-04	
393	6.350000e+00	2.757250e-04	
394	6.400000e+00	2.779819e-04	
395	6.450000e+00	2.803556e-04	
396	6.500000e+00	2.828504e-04	
397	6.550000e+00	2.854705e-04	
398	6.600000e+00	2.882202e-04	
399	0.000000e+00	-0.000000e+00	
400	5.000000e-02	2.309362e-05	
401	1.000000e-01	4.513026e-05	
402	1.500000e-01	6.614691e-05	

Index   v-sweep         -i(vds)         
--------------------------------------------------------------------------------
403	2.000000e-01	8.617882e-05	
404	2.500000e-01	1.052596e-04	
405	3.000000e-01	1.234211e-04	
406	3.500000e-01	1.406939e-04	
407	4.000000e-01	1.571069e-04	
408	4.500000e-01	1.726874e-04	
409	5.000000e-01	1.874618e-04	
410	5.500000e-01	2.014549e-04	
411	6.000000e-01	2.146905e-04	
412	6.500000e-01	2.271912e-04	
413	7.000000e-01	2.389788e-04	
414	7.500000e-01	2.500739e-04	
415	8.000000e-01	2.604963e-04	
416	8.500000e-01	2.702648e-04	
417	9.000000e-01	2.793967e-04	
418	9.500000e-01	2.879082e-04	
419	1.000000e+00	2.958129e-04	
420	1.050000e+00	3.031213e-04	
421	1.100000e+00	3.098386e-04	
422	1.150000e+00	3.159633e-04	
423	1.200000e+00	3.214857e-04	
424	1.250000e+00	3.263922e-04	
425	1.300000e+00	3.306792e-04	
426	1.350000e+00	3.343712e-04	
427	1.400000e+00	3.375275e-04	
428	1.450000e+00	3.402293e-04	
429	1.500000e+00	3.425602e-04	
430	1.550000e+00	3.445934e-04	
431	1.600000e+00	3.463883e-04	
432	1.650000e+00	3.479909e-04	
433	1.700000e+00	3.494368e-04	
434	1.750000e+00	3.507532e-04	
435	1.800000e+00	3.519615e-04	
436	1.850000e+00	3.530782e-04	
437	1.900000e+00	3.541167e-04	
438	1.950000e+00	3.550876e-04	
439	2.000000e+00	3.559997e-04	
440	2.050000e+00	3.568602e-04	
441	2.100000e+00	3.576749e-04	
442	2.150000e+00	3.584490e-04	
443	2.200000e+00	3.591865e-04	
444	2.250000e+00	3.598913e-04	
445	2.300000e+00	3.605664e-04	
446	2.350000e+00	3.612145e-04	
447	2.400000e+00	3.618379e-04	
448	2.450000e+00	3.624387e-04	
449	2.500000e+00	3.630188e-04	
450	2.550000e+00	3.635797e-04	
451	2.600000e+00	3.641228e-04	
452	2.650000e+00	3.646495e-04	
453	2.700000e+00	3.651609e-04	
454	2.750000e+00	3.656580e-04	
455	2.800000e+00	3.661418e-04	
456	2.850000e+00	3.666131e-04	
457	2.900000e+00	3.670726e-04	
458	2.950000e+00	3.675211e-04	
459	3.000000e+00	3.679592e-04	
460	3.050000e+00	3.683874e-04	

Index   v-sweep         -i(vds)         
--------------------------------------------------------------------------------
461	3.100000e+00	3.688064e-04	
462	3.150000e+00	3.692166e-04	
463	3.200000e+00	3.696185e-04	
464	3.250000e+00	3.700126e-04	
465	3.300000e+00	3.703991e-04	
466	3.350000e+00	3.707785e-04	
467	3.400000e+00	3.711511e-04	
468	3.450000e+00	3.715174e-04	
469	3.500000e+00	3.718775e-04	
470	3.550000e+00	3.722318e-04	
471	3.600000e+00	3.725807e-04	
472	3.650000e+00	3.729243e-04	
473	3.700000e+00	3.732632e-04	
474	3.750000e+00	3.735974e-04	
475	3.800000e+00	3.739274e-04	
476	3.850000e+00	3.742536e-04	
477	3.900000e+00	3.745762e-04	
478	3.950000e+00	3.748956e-04	
479	4.000000e+00	3.752124e-04	
480	4.050000e+00	3.755268e-04	
481	4.100000e+00	3.758394e-04	
482	4.150000e+00	3.761508e-04	
483	4.200000e+00	3.764615e-04	
484	4.250000e+00	3.767722e-04	
485	4.300000e+00	3.770836e-04	
486	4.350000e+00	3.773965e-04	
487	4.400000e+00	3.777117e-04	
488	4.450000e+00	3.780302e-04	
489	4.500000e+00	3.783530e-04	
490	4.550000e+00	3.786813e-04	
491	4.600000e+00	3.790162e-04	
492	4.650000e+00	3.793590e-04	
493	4.700000e+00	3.797113e-04	
494	4.750000e+00	3.800745e-04	
495	4.800000e+00	3.804503e-04	
496	4.850000e+00	3.808405e-04	
497	4.900000e+00	3.812471e-04	
498	4.950000e+00	3.816719e-04	
499	5.000000e+00	3.821173e-04	
500	5.050000e+00	3.825855e-04	
501	5.100000e+00	3.830789e-04	
502	5.150000e+00	3.836002e-04	
503	5.200000e+00	3.841520e-04	
504	5.250000e+00	3.847373e-04	
505	5.300000e+00	3.853590e-04	
506	5.350000e+00	3.860203e-04	
507	5.400000e+00	3.867245e-04	
508	5.450000e+00	3.874751e-04	
509	5.500000e+00	3.882756e-04	
510	5.550000e+00	3.891298e-04	
511	5.600000e+00	3.900415e-04	
512	5.650000e+00	3.910149e-04	
513	5.700000e+00	3.920539e-04	
514	5.750000e+00	3.931631e-04	
515	5.800000e+00	3.943467e-04	
516	5.850000e+00	3.956094e-04	
517	5.900000e+00	3.969559e-04	
518	5.950000e+00	3.983910e-04	

Index   v-sweep         -i(vds)         
--------------------------------------------------------------------------------
519	6.000000e+00	3.999198e-04	
520	6.050000e+00	4.015472e-04	
521	6.100000e+00	4.032785e-04	
522	6.150000e+00	4.051191e-04	
523	6.200000e+00	4.070743e-04	
524	6.250000e+00	4.091498e-04	
525	6.300000e+00	4.113513e-04	
526	6.350000e+00	4.136843e-04	
527	6.400000e+00	4.161550e-04	
528	6.450000e+00	4.187691e-04	
529	6.500000e+00	4.215328e-04	
530	6.550000e+00	4.244522e-04	
531	6.600000e+00	4.275335e-04	
532	0.000000e+00	-0.000000e+00	
533	5.000000e-02	2.656851e-05	
534	1.000000e-01	5.211366e-05	
535	1.500000e-01	7.666821e-05	
536	2.000000e-01	1.002635e-04	
537	2.500000e-01	1.229296e-04	
538	3.000000e-01	1.446952e-04	
539	3.500000e-01	1.655876e-04	
540	4.000000e-01	1.856332e-04	
541	4.500000e-01	2.048570e-04	
542	5.000000e-01	2.232827e-04	
543	5.500000e-01	2.409333e-04	
544	6.000000e-01	2.578304e-04	
545	6.500000e-01	2.739949e-04	
546	7.000000e-01	2.894468e-04	
547	7.500000e-01	3.042051e-04	
548	8.000000e-01	3.182881e-04	
549	8.500000e-01	3.317137e-04	
550	9.000000e-01	3.444986e-04	
551	9.500000e-01	3.566594e-04	
552	1.000000e+00	3.682116e-04	
553	1.050000e+00	3.791702e-04	
554	1.100000e+00	3.895495e-04	
555	1.150000e+00	3.993627e-04	
556	1.200000e+00	4.086216e-04	
557	1.250000e+00	4.173361e-04	
558	1.300000e+00	4.255133e-04	
559	1.350000e+00	4.331562e-04	
560	1.400000e+00	4.402614e-04	
561	1.450000e+00	4.468179e-04	
562	1.500000e+00	4.528062e-04	
563	1.550000e+00	4.582039e-04	
564	1.600000e+00	4.629983e-04	
565	1.650000e+00	4.672022e-04	
566	1.700000e+00	4.708602e-04	
567	1.750000e+00	4.740398e-04	
568	1.800000e+00	4.768163e-04	
569	1.850000e+00	4.792599e-04	
570	1.900000e+00	4.814306e-04	
571	1.950000e+00	4.833770e-04	
572	2.000000e+00	4.851379e-04	
573	2.050000e+00	4.867440e-04	
574	2.100000e+00	4.882195e-04	
575	2.150000e+00	4.895837e-04	
576	2.200000e+00	4.908524e-04	

Index   v-sweep         -i(vds)         
--------------------------------------------------------------------------------
577	2.250000e+00	4.920382e-04	
578	2.300000e+00	4.931516e-04	
579	2.350000e+00	4.942012e-04	
580	2.400000e+00	4.951941e-04	
581	2.450000e+00	4.961366e-04	
582	2.500000e+00	4.970339e-04	
583	2.550000e+00	4.978902e-04	
584	2.600000e+00	4.987096e-04	
585	2.650000e+00	4.994953e-04	
586	2.700000e+00	5.002502e-04	
587	2.750000e+00	5.009769e-04	
588	2.800000e+00	5.016776e-04	
589	2.850000e+00	5.023543e-04	
590	2.900000e+00	5.030088e-04	
591	2.950000e+00	5.036427e-04	
592	3.000000e+00	5.042574e-04	
593	3.050000e+00	5.048542e-04	
594	3.100000e+00	5.054343e-04	
595	3.150000e+00	5.059987e-04	
596	3.200000e+00	5.065483e-04	
597	3.250000e+00	5.070840e-04	
598	3.300000e+00	5.076067e-04	
599	3.350000e+00	5.081171e-04	
600	3.400000e+00	5.086158e-04	
601	3.450000e+00	5.091035e-04	
602	3.500000e+00	5.095807e-04	
603	3.550000e+00	5.100480e-04	
604	3.600000e+00	5.105059e-04	
605	3.650000e+00	5.109548e-04	
606	3.700000e+00	5.113953e-04	
607	3.750000e+00	5.118277e-04	
608	3.800000e+00	5.122524e-04	
609	3.850000e+00	5.126698e-04	
610	3.900000e+00	5.130804e-04	
611	3.950000e+00	5.134845e-04	
612	4.000000e+00	5.138825e-04	
613	4.050000e+00	5.142748e-04	
614	4.100000e+00	5.146619e-04	
615	4.150000e+00	5.150442e-04	
616	4.200000e+00	5.154221e-04	
617	4.250000e+00	5.157962e-04	
618	4.300000e+00	5.161671e-04	
619	4.350000e+00	5.165353e-04	
620	4.400000e+00	5.169015e-04	
621	4.450000e+00	5.172665e-04	
622	4.500000e+00	5.176310e-04	
623	4.550000e+00	5.179959e-04	
624	4.600000e+00	5.183622e-04	
625	4.650000e+00	5.187309e-04	
626	4.700000e+00	5.191033e-04	
627	4.750000e+00	5.194806e-04	
628	4.800000e+00	5.198643e-04	
629	4.850000e+00	5.202558e-04	
630	4.900000e+00	5.206568e-04	
631	4.950000e+00	5.210692e-04	
632	5.000000e+00	5.214949e-04	
633	5.050000e+00	5.219361e-04	
634	5.100000e+00	5.223950e-04	

Index   v-sweep         -i(vds)         
--------------------------------------------------------------------------------
635	5.150000e+00	5.228740e-04	
636	5.200000e+00	5.233758e-04	
637	5.250000e+00	5.239032e-04	
638	5.300000e+00	5.244591e-04	
639	5.350000e+00	5.250468e-04	
640	5.400000e+00	5.256695e-04	
641	5.450000e+00	5.263309e-04	
642	5.500000e+00	5.270346e-04	
643	5.550000e+00	5.277845e-04	
644	5.600000e+00	5.285849e-04	
645	5.650000e+00	5.294400e-04	
646	5.700000e+00	5.303543e-04	
647	5.750000e+00	5.313326e-04	
648	5.800000e+00	5.323798e-04	
649	5.850000e+00	5.335010e-04	
650	5.900000e+00	5.347016e-04	
651	5.950000e+00	5.359870e-04	
652	6.000000e+00	5.373629e-04	
653	6.050000e+00	5.388352e-04	
654	6.100000e+00	5.404100e-04	
655	6.150000e+00	5.420936e-04	
656	6.200000e+00	5.438923e-04	
657	6.250000e+00	5.458129e-04	
658	6.300000e+00	5.478620e-04	
659	6.350000e+00	5.500468e-04	
660	6.400000e+00	5.523741e-04	
661	6.450000e+00	5.548515e-04	
662	6.500000e+00	5.574862e-04	
663	6.550000e+00	5.602859e-04	
664	6.600000e+00	5.632582e-04	
665	0.000000e+00	-0.000000e+00	
666	5.000000e-02	2.890579e-05	
667	1.000000e-01	5.685242e-05	
668	1.500000e-01	8.386766e-05	
669	2.000000e-01	1.099782e-04	
670	2.500000e-01	1.352097e-04	
671	3.000000e-01	1.595869e-04	
672	3.500000e-01	1.831333e-04	
673	4.000000e-01	2.058719e-04	
674	4.500000e-01	2.278242e-04	
675	5.000000e-01	2.490114e-04	
676	5.500000e-01	2.694534e-04	
677	6.000000e-01	2.891694e-04	
678	6.500000e-01	3.081779e-04	
679	7.000000e-01	3.264966e-04	
680	7.500000e-01	3.441424e-04	
681	8.000000e-01	3.611316e-04	
682	8.500000e-01	3.774801e-04	
683	9.000000e-01	3.932029e-04	
684	9.500000e-01	4.083147e-04	
685	1.000000e+00	4.228297e-04	
686	1.050000e+00	4.367614e-04	
687	1.100000e+00	4.501233e-04	
688	1.150000e+00	4.629281e-04	
689	1.200000e+00	4.751883e-04	
690	1.250000e+00	4.869159e-04	
691	1.300000e+00	4.981223e-04	
692	1.350000e+00	5.088185e-04	

Index   v-sweep         -i(vds)         
--------------------------------------------------------------------------------
693	1.400000e+00	5.190145e-04	
694	1.450000e+00	5.287194e-04	
695	1.500000e+00	5.379410e-04	
696	1.550000e+00	5.466848e-04	
697	1.600000e+00	5.549534e-04	
698	1.650000e+00	5.627451e-04	
699	1.700000e+00	5.700519e-04	
700	1.750000e+00	5.768585e-04	
701	1.800000e+00	5.831423e-04	
702	1.850000e+00	5.888779e-04	
703	1.900000e+00	5.940479e-04	
704	1.950000e+00	5.986549e-04	
705	2.000000e+00	6.027288e-04	
706	2.050000e+00	6.063219e-04	
707	2.100000e+00	6.094974e-04	
708	2.150000e+00	6.123187e-04	
709	2.200000e+00	6.148428e-04	
710	2.250000e+00	6.171184e-04	
711	2.300000e+00	6.191853e-04	
712	2.350000e+00	6.210758e-04	
713	2.400000e+00	6.228164e-04	
714	2.450000e+00	6.244283e-04	
715	2.500000e+00	6.259288e-04	
716	2.550000e+00	6.273324e-04	
717	2.600000e+00	6.286508e-04	
718	2.650000e+00	6.298940e-04	
719	2.700000e+00	6.310703e-04	
720	2.750000e+00	6.321867e-04	
721	2.800000e+00	6.332493e-04	
722	2.850000e+00	6.342632e-04	
723	2.900000e+00	6.352330e-04	
724	2.950000e+00	6.361626e-04	
725	3.000000e+00	6.370554e-04	
726	3.050000e+00	6.379143e-04	
727	3.100000e+00	6.387421e-04	
728	3.150000e+00	6.395412e-04	
729	3.200000e+00	6.403135e-04	
730	3.250000e+00	6.410611e-04	
731	3.300000e+00	6.417856e-04	
732	3.350000e+00	6.424886e-04	
733	3.400000e+00	6.431714e-04	
734	3.450000e+00	6.438352e-04	
735	3.500000e+00	6.444813e-04	
736	3.550000e+00	6.451107e-04	
737	3.600000e+00	6.457243e-04	
738	3.650000e+00	6.463230e-04	
739	3.700000e+00	6.469076e-04	
740	3.750000e+00	6.474789e-04	
741	3.800000e+00	6.480376e-04	
742	3.850000e+00	6.485842e-04	
743	3.900000e+00	6.491195e-04	
744	3.950000e+00	6.496440e-04	
745	4.000000e+00	6.501581e-04	
746	4.050000e+00	6.506625e-04	
747	4.100000e+00	6.511577e-04	
748	4.150000e+00	6.516440e-04	
749	4.200000e+00	6.521220e-04	
750	4.250000e+00	6.525922e-04	

Index   v-sweep         -i(vds)         
--------------------------------------------------------------------------------
751	4.300000e+00	6.530551e-04	
752	4.350000e+00	6.535110e-04	
753	4.400000e+00	6.539607e-04	
754	4.450000e+00	6.544046e-04	
755	4.500000e+00	6.548433e-04	
756	4.550000e+00	6.552774e-04	
757	4.600000e+00	6.557077e-04	
758	4.650000e+00	6.561348e-04	
759	4.700000e+00	6.565596e-04	
760	4.750000e+00	6.569831e-04	
761	4.800000e+00	6.574062e-04	
762	4.850000e+00	6.578300e-04	
763	4.900000e+00	6.582558e-04	
764	4.950000e+00	6.586848e-04	
765	5.000000e+00	6.591187e-04	
766	5.050000e+00	6.595589e-04	
767	5.100000e+00	6.600072e-04	
768	5.150000e+00	6.604657e-04	
769	5.200000e+00	6.609364e-04	
770	5.250000e+00	6.614216e-04	
771	5.300000e+00	6.619237e-04	
772	5.350000e+00	6.624455e-04	
773	5.400000e+00	6.629897e-04	
774	5.450000e+00	6.635596e-04	
775	5.500000e+00	6.641584e-04	
776	5.550000e+00	6.647896e-04	
777	5.600000e+00	6.654571e-04	
778	5.650000e+00	6.661647e-04	
779	5.700000e+00	6.669167e-04	
780	5.750000e+00	6.677176e-04	
781	5.800000e+00	6.685722e-04	
782	5.850000e+00	6.694853e-04	
783	5.900000e+00	6.704622e-04	
784	5.950000e+00	6.715084e-04	
785	6.000000e+00	6.726295e-04	
786	6.050000e+00	6.738316e-04	
787	6.100000e+00	6.751209e-04	
788	6.150000e+00	6.765038e-04	
789	6.200000e+00	6.779870e-04	
790	6.250000e+00	6.795775e-04	
791	6.300000e+00	6.812826e-04	
792	6.350000e+00	6.831096e-04	
793	6.400000e+00	6.850662e-04	
794	6.450000e+00	6.871603e-04	
795	6.500000e+00	6.894001e-04	
796	6.550000e+00	6.917940e-04	
797	6.600000e+00	6.943504e-04	
Note: No ".plot", ".print", or ".fourier" lines; no simulations run
