
Note: Compatibility modes selected: hs

Warning: m=xx on .subckt line will override multiplier m hierarchy!


Circuit: ***************************

Doing analysis at TEMP = 25.000000 and TNOM = 25.000000


No. of Data Rows : 798
                          ***************************
                          DC transfer characteristic  Mon Jan  9 13:57:40  2023
--------------------------------------------------------------------------------
Index   v-sweep         -i(vds)         
--------------------------------------------------------------------------------
0	0.000000e+00	-0.000000e+00	
1	5.000000e-02	3.018912e-06	
2	1.000000e-01	5.381859e-06	
3	1.500000e-01	7.100369e-06	
4	2.000000e-01	8.204720e-06	
5	2.500000e-01	8.783756e-06	
6	3.000000e-01	9.024359e-06	
7	3.500000e-01	9.119170e-06	
8	4.000000e-01	9.163772e-06	
9	4.500000e-01	9.190044e-06	
10	5.000000e-01	9.208432e-06	
11	5.500000e-01	9.222859e-06	
12	6.000000e-01	9.235038e-06	
13	6.500000e-01	9.245817e-06	
14	7.000000e-01	9.255656e-06	
15	7.500000e-01	9.264830e-06	
16	8.000000e-01	9.273511e-06	
17	8.500000e-01	9.281814e-06	
18	9.000000e-01	9.289819e-06	
19	9.500000e-01	9.297581e-06	
20	1.000000e+00	9.305145e-06	
21	1.050000e+00	9.312541e-06	
22	1.100000e+00	9.319795e-06	
23	1.150000e+00	9.326926e-06	
24	1.200000e+00	9.333951e-06	
25	1.250000e+00	9.340882e-06	
26	1.300000e+00	9.347731e-06	
27	1.350000e+00	9.354505e-06	
28	1.400000e+00	9.361213e-06	
29	1.450000e+00	9.367862e-06	
30	1.500000e+00	9.374456e-06	
31	1.550000e+00	9.381001e-06	
32	1.600000e+00	9.387500e-06	
33	1.650000e+00	9.393958e-06	
34	1.700000e+00	9.400377e-06	
35	1.750000e+00	9.406761e-06	
36	1.800000e+00	9.413112e-06	
37	1.850000e+00	9.419433e-06	
38	1.900000e+00	9.425725e-06	
39	1.950000e+00	9.431990e-06	
40	2.000000e+00	9.438230e-06	
41	2.050000e+00	9.444447e-06	
42	2.100000e+00	9.450642e-06	
43	2.150000e+00	9.456816e-06	
44	2.200000e+00	9.462971e-06	
45	2.250000e+00	9.469108e-06	
46	2.300000e+00	9.475228e-06	
47	2.350000e+00	9.481333e-06	
48	2.400000e+00	9.487423e-06	
49	2.450000e+00	9.493501e-06	
50	2.500000e+00	9.499567e-06	
51	2.550000e+00	9.505624e-06	
52	2.600000e+00	9.511674e-06	
53	2.650000e+00	9.517719e-06	
54	2.700000e+00	9.523762e-06	

Index   v-sweep         -i(vds)         
--------------------------------------------------------------------------------
55	2.750000e+00	9.529806e-06	
56	2.800000e+00	9.535856e-06	
57	2.850000e+00	9.541915e-06	
58	2.900000e+00	9.547990e-06	
59	2.950000e+00	9.554087e-06	
60	3.000000e+00	9.560214e-06	
61	3.050000e+00	9.566378e-06	
62	3.100000e+00	9.572590e-06	
63	3.150000e+00	9.578861e-06	
64	3.200000e+00	9.585205e-06	
65	3.250000e+00	9.591635e-06	
66	3.300000e+00	9.598168e-06	
67	3.350000e+00	9.604823e-06	
68	3.400000e+00	9.611621e-06	
69	3.450000e+00	9.618583e-06	
70	3.500000e+00	9.625736e-06	
71	3.550000e+00	9.633107e-06	
72	3.600000e+00	9.640726e-06	
73	3.650000e+00	9.648628e-06	
74	3.700000e+00	9.656847e-06	
75	3.750000e+00	9.665424e-06	
76	3.800000e+00	9.674401e-06	
77	3.850000e+00	9.683823e-06	
78	3.900000e+00	9.693739e-06	
79	3.950000e+00	9.704202e-06	
80	4.000000e+00	9.715267e-06	
81	4.050000e+00	9.726994e-06	
82	4.100000e+00	9.739446e-06	
83	4.150000e+00	9.752688e-06	
84	4.200000e+00	9.766793e-06	
85	4.250000e+00	9.781833e-06	
86	4.300000e+00	9.797887e-06	
87	4.350000e+00	9.815036e-06	
88	4.400000e+00	9.833366e-06	
89	4.450000e+00	9.852965e-06	
90	4.500000e+00	9.873928e-06	
91	4.550000e+00	9.896350e-06	
92	4.600000e+00	9.920331e-06	
93	4.650000e+00	9.945977e-06	
94	4.700000e+00	9.973395e-06	
95	4.750000e+00	1.000270e-05	
96	4.800000e+00	1.003400e-05	
97	4.850000e+00	1.006741e-05	
98	4.900000e+00	1.010307e-05	
99	4.950000e+00	1.014109e-05	
100	5.000000e+00	1.018160e-05	
101	5.050000e+00	1.022473e-05	
102	5.100000e+00	1.027063e-05	
103	5.150000e+00	1.031942e-05	
104	5.200000e+00	1.037125e-05	
105	5.250000e+00	1.042627e-05	
106	5.300000e+00	1.048461e-05	
107	5.350000e+00	1.054643e-05	
108	5.400000e+00	1.061188e-05	
109	5.450000e+00	1.068111e-05	
110	5.500000e+00	1.075428e-05	
111	5.550000e+00	1.083155e-05	
112	5.600000e+00	1.091309e-05	

Index   v-sweep         -i(vds)         
--------------------------------------------------------------------------------
113	5.650000e+00	1.099904e-05	
114	5.700000e+00	1.108959e-05	
115	5.750000e+00	1.118489e-05	
116	5.800000e+00	1.128511e-05	
117	5.850000e+00	1.139043e-05	
118	5.900000e+00	1.150102e-05	
119	5.950000e+00	1.161704e-05	
120	6.000000e+00	1.173868e-05	
121	6.050000e+00	1.186610e-05	
122	6.100000e+00	1.199949e-05	
123	6.150000e+00	1.213902e-05	
124	6.200000e+00	1.228488e-05	
125	6.250000e+00	1.243724e-05	
126	6.300000e+00	1.259627e-05	
127	6.350000e+00	1.276217e-05	
128	6.400000e+00	1.293511e-05	
129	6.450000e+00	1.311528e-05	
130	6.500000e+00	1.330285e-05	
131	6.550000e+00	1.349801e-05	
132	6.600000e+00	1.370094e-05	
133	0.000000e+00	-0.000000e+00	
134	5.000000e-02	1.316831e-05	
135	1.000000e-01	2.562870e-05	
136	1.500000e-01	3.738489e-05	
137	2.000000e-01	4.844060e-05	
138	2.500000e-01	5.879954e-05	
139	3.000000e-01	6.846541e-05	
140	3.500000e-01	7.744193e-05	
141	4.000000e-01	8.573283e-05	
142	4.500000e-01	9.334192e-05	
143	5.000000e-01	1.002731e-04	
144	5.500000e-01	1.065304e-04	
145	6.000000e-01	1.121183e-04	
146	6.500000e-01	1.170417e-04	
147	7.000000e-01	1.213069e-04	
148	7.500000e-01	1.249221e-04	
149	8.000000e-01	1.279004e-04	
150	8.500000e-01	1.302638e-04	
151	9.000000e-01	1.320516e-04	
152	9.500000e-01	1.333313e-04	
153	1.000000e+00	1.342024e-04	
154	1.050000e+00	1.347807e-04	
155	1.100000e+00	1.351689e-04	
156	1.150000e+00	1.354401e-04	
157	1.200000e+00	1.356396e-04	
158	1.250000e+00	1.357940e-04	
159	1.300000e+00	1.359188e-04	
160	1.350000e+00	1.360233e-04	
161	1.400000e+00	1.361135e-04	
162	1.450000e+00	1.361931e-04	
163	1.500000e+00	1.362647e-04	
164	1.550000e+00	1.363299e-04	
165	1.600000e+00	1.363902e-04	
166	1.650000e+00	1.364464e-04	
167	1.700000e+00	1.364992e-04	
168	1.750000e+00	1.365493e-04	
169	1.800000e+00	1.365969e-04	
170	1.850000e+00	1.366425e-04	

Index   v-sweep         -i(vds)         
--------------------------------------------------------------------------------
171	1.900000e+00	1.366862e-04	
172	1.950000e+00	1.367285e-04	
173	2.000000e+00	1.367693e-04	
174	2.050000e+00	1.368090e-04	
175	2.100000e+00	1.368475e-04	
176	2.150000e+00	1.368851e-04	
177	2.200000e+00	1.369217e-04	
178	2.250000e+00	1.369576e-04	
179	2.300000e+00	1.369927e-04	
180	2.350000e+00	1.370272e-04	
181	2.400000e+00	1.370611e-04	
182	2.450000e+00	1.370943e-04	
183	2.500000e+00	1.371271e-04	
184	2.550000e+00	1.371594e-04	
185	2.600000e+00	1.371912e-04	
186	2.650000e+00	1.372226e-04	
187	2.700000e+00	1.372536e-04	
188	2.750000e+00	1.372842e-04	
189	2.800000e+00	1.373145e-04	
190	2.850000e+00	1.373445e-04	
191	2.900000e+00	1.373742e-04	
192	2.950000e+00	1.374036e-04	
193	3.000000e+00	1.374327e-04	
194	3.050000e+00	1.374616e-04	
195	3.100000e+00	1.374903e-04	
196	3.150000e+00	1.375187e-04	
197	3.200000e+00	1.375470e-04	
198	3.250000e+00	1.375751e-04	
199	3.300000e+00	1.376032e-04	
200	3.350000e+00	1.376311e-04	
201	3.400000e+00	1.376590e-04	
202	3.450000e+00	1.376868e-04	
203	3.500000e+00	1.377148e-04	
204	3.550000e+00	1.377428e-04	
205	3.600000e+00	1.377711e-04	
206	3.650000e+00	1.377996e-04	
207	3.700000e+00	1.378285e-04	
208	3.750000e+00	1.378580e-04	
209	3.800000e+00	1.378880e-04	
210	3.850000e+00	1.379189e-04	
211	3.900000e+00	1.379507e-04	
212	3.950000e+00	1.379838e-04	
213	4.000000e+00	1.380182e-04	
214	4.050000e+00	1.380543e-04	
215	4.100000e+00	1.380924e-04	
216	4.150000e+00	1.381327e-04	
217	4.200000e+00	1.381757e-04	
218	4.250000e+00	1.382216e-04	
219	4.300000e+00	1.382710e-04	
220	4.350000e+00	1.383243e-04	
221	4.400000e+00	1.383819e-04	
222	4.450000e+00	1.384445e-04	
223	4.500000e+00	1.385126e-04	
224	4.550000e+00	1.385869e-04	
225	4.600000e+00	1.386680e-04	
226	4.650000e+00	1.387567e-04	
227	4.700000e+00	1.388537e-04	
228	4.750000e+00	1.389599e-04	

Index   v-sweep         -i(vds)         
--------------------------------------------------------------------------------
229	4.800000e+00	1.390761e-04	
230	4.850000e+00	1.392032e-04	
231	4.900000e+00	1.393423e-04	
232	4.950000e+00	1.394944e-04	
233	5.000000e+00	1.396604e-04	
234	5.050000e+00	1.398417e-04	
235	5.100000e+00	1.400393e-04	
236	5.150000e+00	1.402545e-04	
237	5.200000e+00	1.404885e-04	
238	5.250000e+00	1.407428e-04	
239	5.300000e+00	1.410186e-04	
240	5.350000e+00	1.413175e-04	
241	5.400000e+00	1.416410e-04	
242	5.450000e+00	1.419904e-04	
243	5.500000e+00	1.423676e-04	
244	5.550000e+00	1.427740e-04	
245	5.600000e+00	1.432113e-04	
246	5.650000e+00	1.436814e-04	
247	5.700000e+00	1.441859e-04	
248	5.750000e+00	1.447266e-04	
249	5.800000e+00	1.453055e-04	
250	5.850000e+00	1.459244e-04	
251	5.900000e+00	1.465852e-04	
252	5.950000e+00	1.472899e-04	
253	6.000000e+00	1.480406e-04	
254	6.050000e+00	1.488392e-04	
255	6.100000e+00	1.496879e-04	
256	6.150000e+00	1.505887e-04	
257	6.200000e+00	1.515437e-04	
258	6.250000e+00	1.525552e-04	
259	6.300000e+00	1.536254e-04	
260	6.350000e+00	1.547564e-04	
261	6.400000e+00	1.559505e-04	
262	6.450000e+00	1.572100e-04	
263	6.500000e+00	1.585371e-04	
264	6.550000e+00	1.599341e-04	
265	6.600000e+00	1.614035e-04	
266	0.000000e+00	-0.000000e+00	
267	5.000000e-02	2.172303e-05	
268	1.000000e-01	4.276677e-05	
269	1.500000e-01	6.313483e-05	
270	2.000000e-01	8.283083e-05	
271	2.500000e-01	1.018583e-04	
272	3.000000e-01	1.202209e-04	
273	3.500000e-01	1.379221e-04	
274	4.000000e-01	1.549653e-04	
275	4.500000e-01	1.713541e-04	
276	5.000000e-01	1.870919e-04	
277	5.500000e-01	2.021821e-04	
278	6.000000e-01	2.166282e-04	
279	6.500000e-01	2.304335e-04	
280	7.000000e-01	2.436014e-04	
281	7.500000e-01	2.561352e-04	
282	8.000000e-01	2.680382e-04	
283	8.500000e-01	2.793138e-04	
284	9.000000e-01	2.899652e-04	
285	9.500000e-01	2.999956e-04	
286	1.000000e+00	3.094083e-04	

Index   v-sweep         -i(vds)         
--------------------------------------------------------------------------------
287	1.050000e+00	3.182065e-04	
288	1.100000e+00	3.263936e-04	
289	1.150000e+00	3.339727e-04	
290	1.200000e+00	3.409472e-04	
291	1.250000e+00	3.473206e-04	
292	1.300000e+00	3.530966e-04	
293	1.350000e+00	3.582795e-04	
294	1.400000e+00	3.628743e-04	
295	1.450000e+00	3.668881e-04	
296	1.500000e+00	3.703313e-04	
297	1.550000e+00	3.732203e-04	
298	1.600000e+00	3.755823e-04	
299	1.650000e+00	3.774601e-04	
300	1.700000e+00	3.789147e-04	
301	1.750000e+00	3.800221e-04	
302	1.800000e+00	3.808615e-04	
303	1.850000e+00	3.815037e-04	
304	1.900000e+00	3.820047e-04	
305	1.950000e+00	3.824051e-04	
306	2.000000e+00	3.827333e-04	
307	2.050000e+00	3.830087e-04	
308	2.100000e+00	3.832447e-04	
309	2.150000e+00	3.834508e-04	
310	2.200000e+00	3.836336e-04	
311	2.250000e+00	3.837979e-04	
312	2.300000e+00	3.839473e-04	
313	2.350000e+00	3.840845e-04	
314	2.400000e+00	3.842116e-04	
315	2.450000e+00	3.843301e-04	
316	2.500000e+00	3.844414e-04	
317	2.550000e+00	3.845465e-04	
318	2.600000e+00	3.846462e-04	
319	2.650000e+00	3.847411e-04	
320	2.700000e+00	3.848319e-04	
321	2.750000e+00	3.849190e-04	
322	2.800000e+00	3.850028e-04	
323	2.850000e+00	3.850837e-04	
324	2.900000e+00	3.851619e-04	
325	2.950000e+00	3.852377e-04	
326	3.000000e+00	3.853114e-04	
327	3.050000e+00	3.853830e-04	
328	3.100000e+00	3.854528e-04	
329	3.150000e+00	3.855209e-04	
330	3.200000e+00	3.855875e-04	
331	3.250000e+00	3.856527e-04	
332	3.300000e+00	3.857165e-04	
333	3.350000e+00	3.857791e-04	
334	3.400000e+00	3.858405e-04	
335	3.450000e+00	3.859008e-04	
336	3.500000e+00	3.859602e-04	
337	3.550000e+00	3.860186e-04	
338	3.600000e+00	3.860762e-04	
339	3.650000e+00	3.861329e-04	
340	3.700000e+00	3.861888e-04	
341	3.750000e+00	3.862441e-04	
342	3.800000e+00	3.862987e-04	
343	3.850000e+00	3.863527e-04	
344	3.900000e+00	3.864062e-04	

Index   v-sweep         -i(vds)         
--------------------------------------------------------------------------------
345	3.950000e+00	3.864593e-04	
346	4.000000e+00	3.865120e-04	
347	4.050000e+00	3.865644e-04	
348	4.100000e+00	3.866166e-04	
349	4.150000e+00	3.866688e-04	
350	4.200000e+00	3.867211e-04	
351	4.250000e+00	3.867737e-04	
352	4.300000e+00	3.868268e-04	
353	4.350000e+00	3.868807e-04	
354	4.400000e+00	3.869355e-04	
355	4.450000e+00	3.869917e-04	
356	4.500000e+00	3.870496e-04	
357	4.550000e+00	3.871096e-04	
358	4.600000e+00	3.871722e-04	
359	4.650000e+00	3.872380e-04	
360	4.700000e+00	3.873076e-04	
361	4.750000e+00	3.873817e-04	
362	4.800000e+00	3.874610e-04	
363	4.850000e+00	3.875464e-04	
364	4.900000e+00	3.876390e-04	
365	4.950000e+00	3.877397e-04	
366	5.000000e+00	3.878496e-04	
367	5.050000e+00	3.879701e-04	
368	5.100000e+00	3.881026e-04	
369	5.150000e+00	3.882485e-04	
370	5.200000e+00	3.884094e-04	
371	5.250000e+00	3.885871e-04	
372	5.300000e+00	3.887834e-04	
373	5.350000e+00	3.890003e-04	
374	5.400000e+00	3.892401e-04	
375	5.450000e+00	3.895048e-04	
376	5.500000e+00	3.897970e-04	
377	5.550000e+00	3.901191e-04	
378	5.600000e+00	3.904740e-04	
379	5.650000e+00	3.908643e-04	
380	5.700000e+00	3.912931e-04	
381	5.750000e+00	3.917635e-04	
382	5.800000e+00	3.922788e-04	
383	5.850000e+00	3.928423e-04	
384	5.900000e+00	3.934576e-04	
385	5.950000e+00	3.941285e-04	
386	6.000000e+00	3.948587e-04	
387	6.050000e+00	3.956523e-04	
388	6.100000e+00	3.965133e-04	
389	6.150000e+00	3.974460e-04	
390	6.200000e+00	3.984548e-04	
391	6.250000e+00	3.995443e-04	
392	6.300000e+00	4.007190e-04	
393	6.350000e+00	4.019837e-04	
394	6.400000e+00	4.033434e-04	
395	6.450000e+00	4.048030e-04	
396	6.500000e+00	4.063677e-04	
397	6.550000e+00	4.080428e-04	
398	6.600000e+00	4.098335e-04	
399	0.000000e+00	-0.000000e+00	
400	5.000000e-02	2.851880e-05	
401	1.000000e-01	5.640550e-05	
402	1.500000e-01	8.366334e-05	

Index   v-sweep         -i(vds)         
--------------------------------------------------------------------------------
403	2.000000e-01	1.102955e-04	
404	2.500000e-01	1.363053e-04	
405	3.000000e-01	1.616958e-04	
406	3.500000e-01	1.864702e-04	
407	4.000000e-01	2.106316e-04	
408	4.500000e-01	2.341831e-04	
409	5.000000e-01	2.571278e-04	
410	5.500000e-01	2.794688e-04	
411	6.000000e-01	3.012091e-04	
412	6.500000e-01	3.223518e-04	
413	7.000000e-01	3.428998e-04	
414	7.500000e-01	3.628561e-04	
415	8.000000e-01	3.822237e-04	
416	8.500000e-01	4.010056e-04	
417	9.000000e-01	4.192046e-04	
418	9.500000e-01	4.368236e-04	
419	1.000000e+00	4.538656e-04	
420	1.050000e+00	4.703333e-04	
421	1.100000e+00	4.862296e-04	
422	1.150000e+00	5.015574e-04	
423	1.200000e+00	5.163193e-04	
424	1.250000e+00	5.305183e-04	
425	1.300000e+00	5.441569e-04	
426	1.350000e+00	5.572379e-04	
427	1.400000e+00	5.697640e-04	
428	1.450000e+00	5.817379e-04	
429	1.500000e+00	5.931622e-04	
430	1.550000e+00	6.040394e-04	
431	1.600000e+00	6.143721e-04	
432	1.650000e+00	6.241628e-04	
433	1.700000e+00	6.334140e-04	
434	1.750000e+00	6.421280e-04	
435	1.800000e+00	6.503073e-04	
436	1.850000e+00	6.579540e-04	
437	1.900000e+00	6.650704e-04	
438	1.950000e+00	6.716587e-04	
439	2.000000e+00	6.777210e-04	
440	2.050000e+00	6.832596e-04	
441	2.100000e+00	6.882772e-04	
442	2.150000e+00	6.927772e-04	
443	2.200000e+00	6.967646e-04	
444	2.250000e+00	7.002481e-04	
445	2.300000e+00	7.032416e-04	
446	2.350000e+00	7.057683e-04	
447	2.400000e+00	7.078632e-04	
448	2.450000e+00	7.095738e-04	
449	2.500000e+00	7.109573e-04	
450	2.550000e+00	7.120735e-04	
451	2.600000e+00	7.129787e-04	
452	2.650000e+00	7.137205e-04	
453	2.700000e+00	7.143369e-04	
454	2.750000e+00	7.148572e-04	
455	2.800000e+00	7.153031e-04	
456	2.850000e+00	7.156908e-04	
457	2.900000e+00	7.160325e-04	
458	2.950000e+00	7.163371e-04	
459	3.000000e+00	7.166117e-04	
460	3.050000e+00	7.168616e-04	

Index   v-sweep         -i(vds)         
--------------------------------------------------------------------------------
461	3.100000e+00	7.170908e-04	
462	3.150000e+00	7.173026e-04	
463	3.200000e+00	7.174997e-04	
464	3.250000e+00	7.176840e-04	
465	3.300000e+00	7.178573e-04	
466	3.350000e+00	7.180211e-04	
467	3.400000e+00	7.181764e-04	
468	3.450000e+00	7.183242e-04	
469	3.500000e+00	7.184654e-04	
470	3.550000e+00	7.186007e-04	
471	3.600000e+00	7.187306e-04	
472	3.650000e+00	7.188557e-04	
473	3.700000e+00	7.189764e-04	
474	3.750000e+00	7.190932e-04	
475	3.800000e+00	7.192063e-04	
476	3.850000e+00	7.193160e-04	
477	3.900000e+00	7.194227e-04	
478	3.950000e+00	7.195266e-04	
479	4.000000e+00	7.196278e-04	
480	4.050000e+00	7.197266e-04	
481	4.100000e+00	7.198231e-04	
482	4.150000e+00	7.199176e-04	
483	4.200000e+00	7.200100e-04	
484	4.250000e+00	7.201007e-04	
485	4.300000e+00	7.201896e-04	
486	4.350000e+00	7.202769e-04	
487	4.400000e+00	7.203627e-04	
488	4.450000e+00	7.204471e-04	
489	4.500000e+00	7.205303e-04	
490	4.550000e+00	7.206123e-04	
491	4.600000e+00	7.206932e-04	
492	4.650000e+00	7.207732e-04	
493	4.700000e+00	7.208525e-04	
494	4.750000e+00	7.209311e-04	
495	4.800000e+00	7.210093e-04	
496	4.850000e+00	7.210873e-04	
497	4.900000e+00	7.211654e-04	
498	4.950000e+00	7.212438e-04	
499	5.000000e+00	7.213229e-04	
500	5.050000e+00	7.214032e-04	
501	5.100000e+00	7.214850e-04	
502	5.150000e+00	7.215690e-04	
503	5.200000e+00	7.216558e-04	
504	5.250000e+00	7.217461e-04	
505	5.300000e+00	7.218407e-04	
506	5.350000e+00	7.219407e-04	
507	5.400000e+00	7.220472e-04	
508	5.450000e+00	7.221612e-04	
509	5.500000e+00	7.222842e-04	
510	5.550000e+00	7.224178e-04	
511	5.600000e+00	7.225635e-04	
512	5.650000e+00	7.227233e-04	
513	5.700000e+00	7.228992e-04	
514	5.750000e+00	7.230935e-04	
515	5.800000e+00	7.233085e-04	
516	5.850000e+00	7.235470e-04	
517	5.900000e+00	7.238118e-04	
518	5.950000e+00	7.241060e-04	

Index   v-sweep         -i(vds)         
--------------------------------------------------------------------------------
519	6.000000e+00	7.244330e-04	
520	6.050000e+00	7.247964e-04	
521	6.100000e+00	7.251999e-04	
522	6.150000e+00	7.256476e-04	
523	6.200000e+00	7.261439e-04	
524	6.250000e+00	7.266934e-04	
525	6.300000e+00	7.273009e-04	
526	6.350000e+00	7.279715e-04	
527	6.400000e+00	7.287107e-04	
528	6.450000e+00	7.295240e-04	
529	6.500000e+00	7.304174e-04	
530	6.550000e+00	7.313971e-04	
531	6.600000e+00	7.324696e-04	
532	0.000000e+00	-0.000000e+00	
533	5.000000e-02	3.360935e-05	
534	1.000000e-01	6.664339e-05	
535	1.500000e-01	9.910486e-05	
536	2.000000e-01	1.309965e-04	
537	2.500000e-01	1.623210e-04	
538	3.000000e-01	1.930811e-04	
539	3.500000e-01	2.232795e-04	
540	4.000000e-01	2.529188e-04	
541	4.500000e-01	2.820016e-04	
542	5.000000e-01	3.105306e-04	
543	5.500000e-01	3.385085e-04	
544	6.000000e-01	3.659377e-04	
545	6.500000e-01	3.928209e-04	
546	7.000000e-01	4.191607e-04	
547	7.500000e-01	4.449595e-04	
548	8.000000e-01	4.702199e-04	
549	8.500000e-01	4.949445e-04	
550	9.000000e-01	5.191357e-04	
551	9.500000e-01	5.427960e-04	
552	1.000000e+00	5.659279e-04	
553	1.050000e+00	5.885338e-04	
554	1.100000e+00	6.106161e-04	
555	1.150000e+00	6.321773e-04	
556	1.200000e+00	6.532198e-04	
557	1.250000e+00	6.737459e-04	
558	1.300000e+00	6.937580e-04	
559	1.350000e+00	7.132585e-04	
560	1.400000e+00	7.322497e-04	
561	1.450000e+00	7.507340e-04	
562	1.500000e+00	7.687135e-04	
563	1.550000e+00	7.861907e-04	
564	1.600000e+00	8.031678e-04	
565	1.650000e+00	8.196470e-04	
566	1.700000e+00	8.356306e-04	
567	1.750000e+00	8.511207e-04	
568	1.800000e+00	8.661196e-04	
569	1.850000e+00	8.806294e-04	
570	1.900000e+00	8.946523e-04	
571	1.950000e+00	9.081905e-04	
572	2.000000e+00	9.212459e-04	
573	2.050000e+00	9.338207e-04	
574	2.100000e+00	9.459169e-04	
575	2.150000e+00	9.575364e-04	
576	2.200000e+00	9.686813e-04	

Index   v-sweep         -i(vds)         
--------------------------------------------------------------------------------
577	2.250000e+00	9.793535e-04	
578	2.300000e+00	9.895547e-04	
579	2.350000e+00	9.992869e-04	
580	2.400000e+00	1.008552e-03	
581	2.450000e+00	1.017350e-03	
582	2.500000e+00	1.025685e-03	
583	2.550000e+00	1.033556e-03	
584	2.600000e+00	1.040966e-03	
585	2.650000e+00	1.047915e-03	
586	2.700000e+00	1.054403e-03	
587	2.750000e+00	1.060432e-03	
588	2.800000e+00	1.066003e-03	
589	2.850000e+00	1.071114e-03	
590	2.900000e+00	1.075768e-03	
591	2.950000e+00	1.079966e-03	
592	3.000000e+00	1.083712e-03	
593	3.050000e+00	1.087014e-03	
594	3.100000e+00	1.089887e-03	
595	3.150000e+00	1.092353e-03	
596	3.200000e+00	1.094445e-03	
597	3.250000e+00	1.096205e-03	
598	3.300000e+00	1.097679e-03	
599	3.350000e+00	1.098914e-03	
600	3.400000e+00	1.099953e-03	
601	3.450000e+00	1.100835e-03	
602	3.500000e+00	1.101591e-03	
603	3.550000e+00	1.102246e-03	
604	3.600000e+00	1.102819e-03	
605	3.650000e+00	1.103326e-03	
606	3.700000e+00	1.103778e-03	
607	3.750000e+00	1.104187e-03	
608	3.800000e+00	1.104558e-03	
609	3.850000e+00	1.104897e-03	
610	3.900000e+00	1.105210e-03	
611	3.950000e+00	1.105501e-03	
612	4.000000e+00	1.105771e-03	
613	4.050000e+00	1.106025e-03	
614	4.100000e+00	1.106264e-03	
615	4.150000e+00	1.106489e-03	
616	4.200000e+00	1.106703e-03	
617	4.250000e+00	1.106907e-03	
618	4.300000e+00	1.107101e-03	
619	4.350000e+00	1.107287e-03	
620	4.400000e+00	1.107465e-03	
621	4.450000e+00	1.107637e-03	
622	4.500000e+00	1.107802e-03	
623	4.550000e+00	1.107961e-03	
624	4.600000e+00	1.108116e-03	
625	4.650000e+00	1.108265e-03	
626	4.700000e+00	1.108410e-03	
627	4.750000e+00	1.108551e-03	
628	4.800000e+00	1.108688e-03	
629	4.850000e+00	1.108822e-03	
630	4.900000e+00	1.108952e-03	
631	4.950000e+00	1.109079e-03	
632	5.000000e+00	1.109204e-03	
633	5.050000e+00	1.109325e-03	
634	5.100000e+00	1.109444e-03	

Index   v-sweep         -i(vds)         
--------------------------------------------------------------------------------
635	5.150000e+00	1.109561e-03	
636	5.200000e+00	1.109676e-03	
637	5.250000e+00	1.109789e-03	
638	5.300000e+00	1.109900e-03	
639	5.350000e+00	1.110009e-03	
640	5.400000e+00	1.110117e-03	
641	5.450000e+00	1.110223e-03	
642	5.500000e+00	1.110329e-03	
643	5.550000e+00	1.110434e-03	
644	5.600000e+00	1.110538e-03	
645	5.650000e+00	1.110643e-03	
646	5.700000e+00	1.110748e-03	
647	5.750000e+00	1.110854e-03	
648	5.800000e+00	1.110962e-03	
649	5.850000e+00	1.111072e-03	
650	5.900000e+00	1.111185e-03	
651	5.950000e+00	1.111303e-03	
652	6.000000e+00	1.111426e-03	
653	6.050000e+00	1.111555e-03	
654	6.100000e+00	1.111693e-03	
655	6.150000e+00	1.111840e-03	
656	6.200000e+00	1.111999e-03	
657	6.250000e+00	1.112171e-03	
658	6.300000e+00	1.112359e-03	
659	6.350000e+00	1.112566e-03	
660	6.400000e+00	1.112794e-03	
661	6.450000e+00	1.113046e-03	
662	6.500000e+00	1.113327e-03	
663	6.550000e+00	1.113638e-03	
664	6.600000e+00	1.113986e-03	
665	0.000000e+00	-0.000000e+00	
666	5.000000e-02	3.719515e-05	
667	1.000000e-01	7.387525e-05	
668	1.500000e-01	1.100426e-04	
669	2.000000e-01	1.456993e-04	
670	2.500000e-01	1.808477e-04	
671	3.000000e-01	2.154901e-04	
672	3.500000e-01	2.496285e-04	
673	4.000000e-01	2.832652e-04	
674	4.500000e-01	3.164023e-04	
675	5.000000e-01	3.490421e-04	
676	5.500000e-01	3.811867e-04	
677	6.000000e-01	4.128382e-04	
678	6.500000e-01	4.439987e-04	
679	7.000000e-01	4.746704e-04	
680	7.500000e-01	5.048554e-04	
681	8.000000e-01	5.345557e-04	
682	8.500000e-01	5.637734e-04	
683	9.000000e-01	5.925107e-04	
684	9.500000e-01	6.207695e-04	
685	1.000000e+00	6.485519e-04	
686	1.050000e+00	6.758599e-04	
687	1.100000e+00	7.026956e-04	
688	1.150000e+00	7.290609e-04	
689	1.200000e+00	7.549579e-04	
690	1.250000e+00	7.803885e-04	
691	1.300000e+00	8.053547e-04	
692	1.350000e+00	8.298585e-04	

Index   v-sweep         -i(vds)         
--------------------------------------------------------------------------------
693	1.400000e+00	8.539018e-04	
694	1.450000e+00	8.774865e-04	
695	1.500000e+00	9.006146e-04	
696	1.550000e+00	9.232880e-04	
697	1.600000e+00	9.455086e-04	
698	1.650000e+00	9.672783e-04	
699	1.700000e+00	9.885990e-04	
700	1.750000e+00	1.009472e-03	
701	1.800000e+00	1.029901e-03	
702	1.850000e+00	1.049885e-03	
703	1.900000e+00	1.069428e-03	
704	1.950000e+00	1.088532e-03	
705	2.000000e+00	1.107197e-03	
706	2.050000e+00	1.125426e-03	
707	2.100000e+00	1.143221e-03	
708	2.150000e+00	1.160582e-03	
709	2.200000e+00	1.177514e-03	
710	2.250000e+00	1.194015e-03	
711	2.300000e+00	1.210090e-03	
712	2.350000e+00	1.225739e-03	
713	2.400000e+00	1.240963e-03	
714	2.450000e+00	1.255766e-03	
715	2.500000e+00	1.270148e-03	
716	2.550000e+00	1.284110e-03	
717	2.600000e+00	1.297656e-03	
718	2.650000e+00	1.310785e-03	
719	2.700000e+00	1.323500e-03	
720	2.750000e+00	1.335803e-03	
721	2.800000e+00	1.347694e-03	
722	2.850000e+00	1.359176e-03	
723	2.900000e+00	1.370249e-03	
724	2.950000e+00	1.380916e-03	
725	3.000000e+00	1.391176e-03	
726	3.050000e+00	1.401033e-03	
727	3.100000e+00	1.410486e-03	
728	3.150000e+00	1.419537e-03	
729	3.200000e+00	1.428187e-03	
730	3.250000e+00	1.436437e-03	
731	3.300000e+00	1.444286e-03	
732	3.350000e+00	1.451736e-03	
733	3.400000e+00	1.458787e-03	
734	3.450000e+00	1.465439e-03	
735	3.500000e+00	1.471690e-03	
736	3.550000e+00	1.477540e-03	
737	3.600000e+00	1.482989e-03	
738	3.650000e+00	1.488034e-03	
739	3.700000e+00	1.492674e-03	
740	3.750000e+00	1.496910e-03	
741	3.800000e+00	1.500742e-03	
742	3.850000e+00	1.504174e-03	
743	3.900000e+00	1.507217e-03	
744	3.950000e+00	1.509887e-03	
745	4.000000e+00	1.512208e-03	
746	4.050000e+00	1.514210e-03	
747	4.100000e+00	1.515931e-03	
748	4.150000e+00	1.517409e-03	
749	4.200000e+00	1.518679e-03	
750	4.250000e+00	1.519778e-03	

Index   v-sweep         -i(vds)         
--------------------------------------------------------------------------------
751	4.300000e+00	1.520734e-03	
752	4.350000e+00	1.521572e-03	
753	4.400000e+00	1.522312e-03	
754	4.450000e+00	1.522972e-03	
755	4.500000e+00	1.523564e-03	
756	4.550000e+00	1.524100e-03	
757	4.600000e+00	1.524588e-03	
758	4.650000e+00	1.525035e-03	
759	4.700000e+00	1.525448e-03	
760	4.750000e+00	1.525831e-03	
761	4.800000e+00	1.526188e-03	
762	4.850000e+00	1.526522e-03	
763	4.900000e+00	1.526836e-03	
764	4.950000e+00	1.527132e-03	
765	5.000000e+00	1.527413e-03	
766	5.050000e+00	1.527680e-03	
767	5.100000e+00	1.527934e-03	
768	5.150000e+00	1.528176e-03	
769	5.200000e+00	1.528409e-03	
770	5.250000e+00	1.528631e-03	
771	5.300000e+00	1.528846e-03	
772	5.350000e+00	1.529053e-03	
773	5.400000e+00	1.529252e-03	
774	5.450000e+00	1.529445e-03	
775	5.500000e+00	1.529632e-03	
776	5.550000e+00	1.529813e-03	
777	5.600000e+00	1.529989e-03	
778	5.650000e+00	1.530160e-03	
779	5.700000e+00	1.530326e-03	
780	5.750000e+00	1.530489e-03	
781	5.800000e+00	1.530647e-03	
782	5.850000e+00	1.530802e-03	
783	5.900000e+00	1.530953e-03	
784	5.950000e+00	1.531101e-03	
785	6.000000e+00	1.531246e-03	
786	6.050000e+00	1.531388e-03	
787	6.100000e+00	1.531528e-03	
788	6.150000e+00	1.531666e-03	
789	6.200000e+00	1.531802e-03	
790	6.250000e+00	1.531936e-03	
791	6.300000e+00	1.532068e-03	
792	6.350000e+00	1.532200e-03	
793	6.400000e+00	1.532332e-03	
794	6.450000e+00	1.532463e-03	
795	6.500000e+00	1.532595e-03	
796	6.550000e+00	1.532729e-03	
797	6.600000e+00	1.532865e-03	
Note: No ".plot", ".print", or ".fourier" lines; no simulations run
