
Note: Compatibility modes selected: hs

Warning: m=xx on .subckt line will override multiplier m hierarchy!


Circuit: ***************************

Doing analysis at TEMP = 125.000000 and TNOM = 125.000000


No. of Data Rows : 798
                          ***************************
                          DC transfer characteristic  Mon Jan  9 13:57:41  2023
--------------------------------------------------------------------------------
Index   v-sweep         -i(vds)         
--------------------------------------------------------------------------------
0	0.000000e+00	-0.000000e+00	
1	5.000000e-02	5.619665e-08	
2	1.000000e-01	1.016246e-07	
3	1.500000e-01	1.396536e-07	
4	2.000000e-01	1.711609e-07	
5	2.500000e-01	1.964182e-07	
6	3.000000e-01	2.155959e-07	
7	3.500000e-01	2.289740e-07	
8	4.000000e-01	2.371909e-07	
9	4.500000e-01	2.415090e-07	
10	5.000000e-01	2.435542e-07	
11	5.500000e-01	2.445497e-07	
12	6.000000e-01	2.450988e-07	
13	6.500000e-01	2.454489e-07	
14	7.000000e-01	2.457014e-07	
15	7.500000e-01	2.459013e-07	
16	8.000000e-01	2.460703e-07	
17	8.500000e-01	2.462200e-07	
18	9.000000e-01	2.463568e-07	
19	9.500000e-01	2.464847e-07	
20	1.000000e+00	2.466061e-07	
21	1.050000e+00	2.467227e-07	
22	1.100000e+00	2.468356e-07	
23	1.150000e+00	2.469455e-07	
24	1.200000e+00	2.470531e-07	
25	1.250000e+00	2.471588e-07	
26	1.300000e+00	2.472628e-07	
27	1.350000e+00	2.473656e-07	
28	1.400000e+00	2.474672e-07	
29	1.450000e+00	2.475678e-07	
30	1.500000e+00	2.476676e-07	
31	1.550000e+00	2.477666e-07	
32	1.600000e+00	2.478650e-07	
33	1.650000e+00	2.479628e-07	
34	1.700000e+00	2.480601e-07	
35	1.750000e+00	2.481569e-07	
36	1.800000e+00	2.482533e-07	
37	1.850000e+00	2.483493e-07	
38	1.900000e+00	2.484449e-07	
39	1.950000e+00	2.485402e-07	
40	2.000000e+00	2.486353e-07	
41	2.050000e+00	2.487300e-07	
42	2.100000e+00	2.488245e-07	
43	2.150000e+00	2.489188e-07	
44	2.200000e+00	2.490129e-07	
45	2.250000e+00	2.491068e-07	
46	2.300000e+00	2.492005e-07	
47	2.350000e+00	2.492940e-07	
48	2.400000e+00	2.493873e-07	
49	2.450000e+00	2.494806e-07	
50	2.500000e+00	2.495737e-07	
51	2.550000e+00	2.496667e-07	
52	2.600000e+00	2.497596e-07	
53	2.650000e+00	2.498525e-07	
54	2.700000e+00	2.499453e-07	

Index   v-sweep         -i(vds)         
--------------------------------------------------------------------------------
55	2.750000e+00	2.500382e-07	
56	2.800000e+00	2.501311e-07	
57	2.850000e+00	2.502242e-07	
58	2.900000e+00	2.503175e-07	
59	2.950000e+00	2.504110e-07	
60	3.000000e+00	2.505050e-07	
61	3.050000e+00	2.505994e-07	
62	3.100000e+00	2.506945e-07	
63	3.150000e+00	2.507904e-07	
64	3.200000e+00	2.508874e-07	
65	3.250000e+00	2.509856e-07	
66	3.300000e+00	2.510853e-07	
67	3.350000e+00	2.511869e-07	
68	3.400000e+00	2.512906e-07	
69	3.450000e+00	2.513969e-07	
70	3.500000e+00	2.515063e-07	
71	3.550000e+00	2.516191e-07	
72	3.600000e+00	2.517359e-07	
73	3.650000e+00	2.518574e-07	
74	3.700000e+00	2.519843e-07	
75	3.750000e+00	2.521172e-07	
76	3.800000e+00	2.522570e-07	
77	3.850000e+00	2.524045e-07	
78	3.900000e+00	2.525608e-07	
79	3.950000e+00	2.527268e-07	
80	4.000000e+00	2.529036e-07	
81	4.050000e+00	2.530924e-07	
82	4.100000e+00	2.532946e-07	
83	4.150000e+00	2.535115e-07	
84	4.200000e+00	2.537444e-07	
85	4.250000e+00	2.539951e-07	
86	4.300000e+00	2.542651e-07	
87	4.350000e+00	2.545560e-07	
88	4.400000e+00	2.548699e-07	
89	4.450000e+00	2.552085e-07	
90	4.500000e+00	2.555738e-07	
91	4.550000e+00	2.559680e-07	
92	4.600000e+00	2.563933e-07	
93	4.650000e+00	2.568519e-07	
94	4.700000e+00	2.573462e-07	
95	4.750000e+00	2.578787e-07	
96	4.800000e+00	2.584519e-07	
97	4.850000e+00	2.590685e-07	
98	4.900000e+00	2.597313e-07	
99	4.950000e+00	2.604431e-07	
100	5.000000e+00	2.612067e-07	
101	5.050000e+00	2.620253e-07	
102	5.100000e+00	2.629018e-07	
103	5.150000e+00	2.638394e-07	
104	5.200000e+00	2.648415e-07	
105	5.250000e+00	2.659112e-07	
106	5.300000e+00	2.670521e-07	
107	5.350000e+00	2.682675e-07	
108	5.400000e+00	2.695611e-07	
109	5.450000e+00	2.709364e-07	
110	5.500000e+00	2.723971e-07	
111	5.550000e+00	2.739469e-07	
112	5.600000e+00	2.755896e-07	

Index   v-sweep         -i(vds)         
--------------------------------------------------------------------------------
113	5.650000e+00	2.773292e-07	
114	5.700000e+00	2.791694e-07	
115	5.750000e+00	2.811143e-07	
116	5.800000e+00	2.831678e-07	
117	5.850000e+00	2.853341e-07	
118	5.900000e+00	2.876172e-07	
119	5.950000e+00	2.900212e-07	
120	6.000000e+00	2.925504e-07	
121	6.050000e+00	2.952089e-07	
122	6.100000e+00	2.980010e-07	
123	6.150000e+00	3.009310e-07	
124	6.200000e+00	3.040031e-07	
125	6.250000e+00	3.072218e-07	
126	6.300000e+00	3.105913e-07	
127	6.350000e+00	3.141161e-07	
128	6.400000e+00	3.178005e-07	
129	6.450000e+00	3.216489e-07	
130	6.500000e+00	3.256658e-07	
131	6.550000e+00	3.298555e-07	
132	6.600000e+00	3.342225e-07	
133	0.000000e+00	-0.000000e+00	
134	5.000000e-02	1.535264e-07	
135	1.000000e-01	2.961345e-07	
136	1.500000e-01	4.311852e-07	
137	2.000000e-01	5.595378e-07	
138	2.500000e-01	6.814235e-07	
139	3.000000e-01	7.969162e-07	
140	3.500000e-01	9.060501e-07	
141	4.000000e-01	1.008850e-06	
142	4.500000e-01	1.105337e-06	
143	5.000000e-01	1.195533e-06	
144	5.500000e-01	1.279460e-06	
145	6.000000e-01	1.357140e-06	
146	6.500000e-01	1.428597e-06	
147	7.000000e-01	1.493854e-06	
148	7.500000e-01	1.552939e-06	
149	8.000000e-01	1.605882e-06	
150	8.500000e-01	1.652721e-06	
151	9.000000e-01	1.693506e-06	
152	9.500000e-01	1.728308e-06	
153	1.000000e+00	1.757243e-06	
154	1.050000e+00	1.780503e-06	
155	1.100000e+00	1.798420e-06	
156	1.150000e+00	1.811540e-06	
157	1.200000e+00	1.820670e-06	
158	1.250000e+00	1.826791e-06	
159	1.300000e+00	1.830855e-06	
160	1.350000e+00	1.833608e-06	
161	1.400000e+00	1.835551e-06	
162	1.450000e+00	1.836990e-06	
163	1.500000e+00	1.838110e-06	
164	1.550000e+00	1.839019e-06	
165	1.600000e+00	1.839785e-06	
166	1.650000e+00	1.840449e-06	
167	1.700000e+00	1.841040e-06	
168	1.750000e+00	1.841575e-06	
169	1.800000e+00	1.842069e-06	
170	1.850000e+00	1.842529e-06	

Index   v-sweep         -i(vds)         
--------------------------------------------------------------------------------
171	1.900000e+00	1.842964e-06	
172	1.950000e+00	1.843376e-06	
173	2.000000e+00	1.843771e-06	
174	2.050000e+00	1.844152e-06	
175	2.100000e+00	1.844520e-06	
176	2.150000e+00	1.844877e-06	
177	2.200000e+00	1.845225e-06	
178	2.250000e+00	1.845566e-06	
179	2.300000e+00	1.845899e-06	
180	2.350000e+00	1.846226e-06	
181	2.400000e+00	1.846548e-06	
182	2.450000e+00	1.846865e-06	
183	2.500000e+00	1.847177e-06	
184	2.550000e+00	1.847486e-06	
185	2.600000e+00	1.847791e-06	
186	2.650000e+00	1.848093e-06	
187	2.700000e+00	1.848391e-06	
188	2.750000e+00	1.848688e-06	
189	2.800000e+00	1.848981e-06	
190	2.850000e+00	1.849273e-06	
191	2.900000e+00	1.849562e-06	
192	2.950000e+00	1.849849e-06	
193	3.000000e+00	1.850135e-06	
194	3.050000e+00	1.850418e-06	
195	3.100000e+00	1.850701e-06	
196	3.150000e+00	1.850982e-06	
197	3.200000e+00	1.851261e-06	
198	3.250000e+00	1.851540e-06	
199	3.300000e+00	1.851817e-06	
200	3.350000e+00	1.852094e-06	
201	3.400000e+00	1.852370e-06	
202	3.450000e+00	1.852646e-06	
203	3.500000e+00	1.852921e-06	
204	3.550000e+00	1.853197e-06	
205	3.600000e+00	1.853474e-06	
206	3.650000e+00	1.853752e-06	
207	3.700000e+00	1.854032e-06	
208	3.750000e+00	1.854315e-06	
209	3.800000e+00	1.854601e-06	
210	3.850000e+00	1.854892e-06	
211	3.900000e+00	1.855188e-06	
212	3.950000e+00	1.855492e-06	
213	4.000000e+00	1.855806e-06	
214	4.050000e+00	1.856130e-06	
215	4.100000e+00	1.856467e-06	
216	4.150000e+00	1.856821e-06	
217	4.200000e+00	1.857193e-06	
218	4.250000e+00	1.857587e-06	
219	4.300000e+00	1.858007e-06	
220	4.350000e+00	1.858456e-06	
221	4.400000e+00	1.858939e-06	
222	4.450000e+00	1.859462e-06	
223	4.500000e+00	1.860029e-06	
224	4.550000e+00	1.860647e-06	
225	4.600000e+00	1.861322e-06	
226	4.650000e+00	1.862061e-06	
227	4.700000e+00	1.862871e-06	
228	4.750000e+00	1.863762e-06	

Index   v-sweep         -i(vds)         
--------------------------------------------------------------------------------
229	4.800000e+00	1.864741e-06	
230	4.850000e+00	1.865819e-06	
231	4.900000e+00	1.867005e-06	
232	4.950000e+00	1.868310e-06	
233	5.000000e+00	1.869745e-06	
234	5.050000e+00	1.871324e-06	
235	5.100000e+00	1.873057e-06	
236	5.150000e+00	1.874960e-06	
237	5.200000e+00	1.877045e-06	
238	5.250000e+00	1.879329e-06	
239	5.300000e+00	1.881826e-06	
240	5.350000e+00	1.884552e-06	
241	5.400000e+00	1.887526e-06	
242	5.450000e+00	1.890763e-06	
243	5.500000e+00	1.894283e-06	
244	5.550000e+00	1.898105e-06	
245	5.600000e+00	1.902247e-06	
246	5.650000e+00	1.906732e-06	
247	5.700000e+00	1.911578e-06	
248	5.750000e+00	1.916809e-06	
249	5.800000e+00	1.922446e-06	
250	5.850000e+00	1.928512e-06	
251	5.900000e+00	1.935031e-06	
252	5.950000e+00	1.942026e-06	
253	6.000000e+00	1.949522e-06	
254	6.050000e+00	1.957545e-06	
255	6.100000e+00	1.966119e-06	
256	6.150000e+00	1.975271e-06	
257	6.200000e+00	1.985027e-06	
258	6.250000e+00	1.995416e-06	
259	6.300000e+00	2.006463e-06	
260	6.350000e+00	2.018198e-06	
261	6.400000e+00	2.030648e-06	
262	6.450000e+00	2.043843e-06	
263	6.500000e+00	2.057812e-06	
264	6.550000e+00	2.072583e-06	
265	6.600000e+00	2.088187e-06	
266	0.000000e+00	-0.000000e+00	
267	5.000000e-02	2.358481e-07	
268	1.000000e-01	4.611493e-07	
269	1.500000e-01	6.792624e-07	
270	2.000000e-01	8.910447e-07	
271	2.500000e-01	1.096725e-06	
272	3.000000e-01	1.296376e-06	
273	3.500000e-01	1.490028e-06	
274	4.000000e-01	1.677705e-06	
275	4.500000e-01	1.859425e-06	
276	5.000000e-01	2.035207e-06	
277	5.500000e-01	2.205070e-06	
278	6.000000e-01	2.369031e-06	
279	6.500000e-01	2.527110e-06	
280	7.000000e-01	2.679325e-06	
281	7.500000e-01	2.825694e-06	
282	8.000000e-01	2.966234e-06	
283	8.500000e-01	3.100964e-06	
284	9.000000e-01	3.229902e-06	
285	9.500000e-01	3.353066e-06	
286	1.000000e+00	3.470474e-06	

Index   v-sweep         -i(vds)         
--------------------------------------------------------------------------------
287	1.050000e+00	3.582144e-06	
288	1.100000e+00	3.688093e-06	
289	1.150000e+00	3.788339e-06	
290	1.200000e+00	3.882901e-06	
291	1.250000e+00	3.971797e-06	
292	1.300000e+00	4.055046e-06	
293	1.350000e+00	4.132665e-06	
294	1.400000e+00	4.204676e-06	
295	1.450000e+00	4.271099e-06	
296	1.500000e+00	4.331957e-06	
297	1.550000e+00	4.387279e-06	
298	1.600000e+00	4.437095e-06	
299	1.650000e+00	4.481450e-06	
300	1.700000e+00	4.520404e-06	
301	1.750000e+00	4.554046e-06	
302	1.800000e+00	4.582515e-06	
303	1.850000e+00	4.606029e-06	
304	1.900000e+00	4.624923e-06	
305	1.950000e+00	4.639674e-06	
306	2.000000e+00	4.650905e-06	
307	2.050000e+00	4.659317e-06	
308	2.100000e+00	4.665593e-06	
309	2.150000e+00	4.670322e-06	
310	2.200000e+00	4.673955e-06	
311	2.250000e+00	4.676817e-06	
312	2.300000e+00	4.679131e-06	
313	2.350000e+00	4.681053e-06	
314	2.400000e+00	4.682687e-06	
315	2.450000e+00	4.684106e-06	
316	2.500000e+00	4.685361e-06	
317	2.550000e+00	4.686488e-06	
318	2.600000e+00	4.687515e-06	
319	2.650000e+00	4.688461e-06	
320	2.700000e+00	4.689342e-06	
321	2.750000e+00	4.690168e-06	
322	2.800000e+00	4.690948e-06	
323	2.850000e+00	4.691690e-06	
324	2.900000e+00	4.692400e-06	
325	2.950000e+00	4.693081e-06	
326	3.000000e+00	4.693738e-06	
327	3.050000e+00	4.694373e-06	
328	3.100000e+00	4.694990e-06	
329	3.150000e+00	4.695590e-06	
330	3.200000e+00	4.696175e-06	
331	3.250000e+00	4.696747e-06	
332	3.300000e+00	4.697307e-06	
333	3.350000e+00	4.697857e-06	
334	3.400000e+00	4.698396e-06	
335	3.450000e+00	4.698927e-06	
336	3.500000e+00	4.699450e-06	
337	3.550000e+00	4.699965e-06	
338	3.600000e+00	4.700473e-06	
339	3.650000e+00	4.700975e-06	
340	3.700000e+00	4.701471e-06	
341	3.750000e+00	4.701962e-06	
342	3.800000e+00	4.702448e-06	
343	3.850000e+00	4.702929e-06	
344	3.900000e+00	4.703406e-06	

Index   v-sweep         -i(vds)         
--------------------------------------------------------------------------------
345	3.950000e+00	4.703879e-06	
346	4.000000e+00	4.704349e-06	
347	4.050000e+00	4.704816e-06	
348	4.100000e+00	4.705280e-06	
349	4.150000e+00	4.705742e-06	
350	4.200000e+00	4.706202e-06	
351	4.250000e+00	4.706661e-06	
352	4.300000e+00	4.707121e-06	
353	4.350000e+00	4.707581e-06	
354	4.400000e+00	4.708043e-06	
355	4.450000e+00	4.708509e-06	
356	4.500000e+00	4.708981e-06	
357	4.550000e+00	4.709460e-06	
358	4.600000e+00	4.709948e-06	
359	4.650000e+00	4.710449e-06	
360	4.700000e+00	4.710967e-06	
361	4.750000e+00	4.711504e-06	
362	4.800000e+00	4.712066e-06	
363	4.850000e+00	4.712658e-06	
364	4.900000e+00	4.713285e-06	
365	4.950000e+00	4.713955e-06	
366	5.000000e+00	4.714676e-06	
367	5.050000e+00	4.715455e-06	
368	5.100000e+00	4.716302e-06	
369	5.150000e+00	4.717228e-06	
370	5.200000e+00	4.718246e-06	
371	5.250000e+00	4.719367e-06	
372	5.300000e+00	4.720606e-06	
373	5.350000e+00	4.721979e-06	
374	5.400000e+00	4.723502e-06	
375	5.450000e+00	4.725194e-06	
376	5.500000e+00	4.727076e-06	
377	5.550000e+00	4.729167e-06	
378	5.600000e+00	4.731492e-06	
379	5.650000e+00	4.734075e-06	
380	5.700000e+00	4.736941e-06	
381	5.750000e+00	4.740119e-06	
382	5.800000e+00	4.743639e-06	
383	5.850000e+00	4.747531e-06	
384	5.900000e+00	4.751828e-06	
385	5.950000e+00	4.756566e-06	
386	6.000000e+00	4.761780e-06	
387	6.050000e+00	4.767510e-06	
388	6.100000e+00	4.773794e-06	
389	6.150000e+00	4.780675e-06	
390	6.200000e+00	4.788196e-06	
391	6.250000e+00	4.796403e-06	
392	6.300000e+00	4.805342e-06	
393	6.350000e+00	4.815062e-06	
394	6.400000e+00	4.825613e-06	
395	6.450000e+00	4.837047e-06	
396	6.500000e+00	4.849419e-06	
397	6.550000e+00	4.862782e-06	
398	6.600000e+00	4.877194e-06	
399	0.000000e+00	-0.000000e+00	
400	5.000000e-02	3.023557e-07	
401	1.000000e-01	5.946593e-07	
402	1.500000e-01	8.802671e-07	

Index   v-sweep         -i(vds)         
--------------------------------------------------------------------------------
403	2.000000e-01	1.160034e-06	
404	2.500000e-01	1.434186e-06	
405	3.000000e-01	1.702792e-06	
406	3.500000e-01	1.965882e-06	
407	4.000000e-01	2.223475e-06	
408	4.500000e-01	2.475588e-06	
409	5.000000e-01	2.722237e-06	
410	5.500000e-01	2.963439e-06	
411	6.000000e-01	3.199208e-06	
412	6.500000e-01	3.429562e-06	
413	7.000000e-01	3.654514e-06	
414	7.500000e-01	3.874082e-06	
415	8.000000e-01	4.088281e-06	
416	8.500000e-01	4.297126e-06	
417	9.000000e-01	4.500633e-06	
418	9.500000e-01	4.698817e-06	
419	1.000000e+00	4.891693e-06	
420	1.050000e+00	5.079277e-06	
421	1.100000e+00	5.261584e-06	
422	1.150000e+00	5.438629e-06	
423	1.200000e+00	5.610427e-06	
424	1.250000e+00	5.776993e-06	
425	1.300000e+00	5.938342e-06	
426	1.350000e+00	6.094489e-06	
427	1.400000e+00	6.245448e-06	
428	1.450000e+00	6.391235e-06	
429	1.500000e+00	6.531864e-06	
430	1.550000e+00	6.667349e-06	
431	1.600000e+00	6.797706e-06	
432	1.650000e+00	6.922947e-06	
433	1.700000e+00	7.043089e-06	
434	1.750000e+00	7.158144e-06	
435	1.800000e+00	7.268127e-06	
436	1.850000e+00	7.373053e-06	
437	1.900000e+00	7.472934e-06	
438	1.950000e+00	7.567785e-06	
439	2.000000e+00	7.657621e-06	
440	2.050000e+00	7.742454e-06	
441	2.100000e+00	7.822298e-06	
442	2.150000e+00	7.897169e-06	
443	2.200000e+00	7.967080e-06	
444	2.250000e+00	8.032048e-06	
445	2.300000e+00	8.092088e-06	
446	2.350000e+00	8.147223e-06	
447	2.400000e+00	8.197474e-06	
448	2.450000e+00	8.242875e-06	
449	2.500000e+00	8.283472e-06	
450	2.550000e+00	8.319330e-06	
451	2.600000e+00	8.350550e-06	
452	2.650000e+00	8.377288e-06	
453	2.700000e+00	8.399772e-06	
454	2.750000e+00	8.418325e-06	
455	2.800000e+00	8.433370e-06	
456	2.850000e+00	8.445407e-06	
457	2.900000e+00	8.454971e-06	
458	2.950000e+00	8.462572e-06	
459	3.000000e+00	8.468659e-06	
460	3.050000e+00	8.473593e-06	

Index   v-sweep         -i(vds)         
--------------------------------------------------------------------------------
461	3.100000e+00	8.477658e-06	
462	3.150000e+00	8.481062e-06	
463	3.200000e+00	8.483963e-06	
464	3.250000e+00	8.486476e-06	
465	3.300000e+00	8.488684e-06	
466	3.350000e+00	8.490652e-06	
467	3.400000e+00	8.492426e-06	
468	3.450000e+00	8.494044e-06	
469	3.500000e+00	8.495532e-06	
470	3.550000e+00	8.496913e-06	
471	3.600000e+00	8.498204e-06	
472	3.650000e+00	8.499418e-06	
473	3.700000e+00	8.500567e-06	
474	3.750000e+00	8.501659e-06	
475	3.800000e+00	8.502702e-06	
476	3.850000e+00	8.503702e-06	
477	3.900000e+00	8.504665e-06	
478	3.950000e+00	8.505594e-06	
479	4.000000e+00	8.506493e-06	
480	4.050000e+00	8.507366e-06	
481	4.100000e+00	8.508215e-06	
482	4.150000e+00	8.509042e-06	
483	4.200000e+00	8.509849e-06	
484	4.250000e+00	8.510639e-06	
485	4.300000e+00	8.511412e-06	
486	4.350000e+00	8.512171e-06	
487	4.400000e+00	8.512916e-06	
488	4.450000e+00	8.513648e-06	
489	4.500000e+00	8.514368e-06	
490	4.550000e+00	8.515078e-06	
491	4.600000e+00	8.515778e-06	
492	4.650000e+00	8.516469e-06	
493	4.700000e+00	8.517151e-06	
494	4.750000e+00	8.517825e-06	
495	4.800000e+00	8.518493e-06	
496	4.850000e+00	8.519154e-06	
497	4.900000e+00	8.519810e-06	
498	4.950000e+00	8.520461e-06	
499	5.000000e+00	8.521108e-06	
500	5.050000e+00	8.521754e-06	
501	5.100000e+00	8.522398e-06	
502	5.150000e+00	8.523043e-06	
503	5.200000e+00	8.523690e-06	
504	5.250000e+00	8.524344e-06	
505	5.300000e+00	8.525005e-06	
506	5.350000e+00	8.525678e-06	
507	5.400000e+00	8.526367e-06	
508	5.450000e+00	8.527077e-06	
509	5.500000e+00	8.527814e-06	
510	5.550000e+00	8.528584e-06	
511	5.600000e+00	8.529396e-06	
512	5.650000e+00	8.530258e-06	
513	5.700000e+00	8.531181e-06	
514	5.750000e+00	8.532176e-06	
515	5.800000e+00	8.533257e-06	
516	5.850000e+00	8.534438e-06	
517	5.900000e+00	8.535737e-06	
518	5.950000e+00	8.537172e-06	

Index   v-sweep         -i(vds)         
--------------------------------------------------------------------------------
519	6.000000e+00	8.538763e-06	
520	6.050000e+00	8.540534e-06	
521	6.100000e+00	8.542509e-06	
522	6.150000e+00	8.544715e-06	
523	6.200000e+00	8.547183e-06	
524	6.250000e+00	8.549945e-06	
525	6.300000e+00	8.553035e-06	
526	6.350000e+00	8.556492e-06	
527	6.400000e+00	8.560356e-06	
528	6.450000e+00	8.564669e-06	
529	6.500000e+00	8.569479e-06	
530	6.550000e+00	8.574835e-06	
531	6.600000e+00	8.580789e-06	
532	0.000000e+00	-0.000000e+00	
533	5.000000e-02	3.537825e-07	
534	1.000000e-01	6.980504e-07	
535	1.500000e-01	1.036158e-06	
536	2.000000e-01	1.368956e-06	
537	2.500000e-01	1.696668e-06	
538	3.000000e-01	2.019362e-06	
539	3.500000e-01	2.337064e-06	
540	4.000000e-01	2.649791e-06	
541	4.500000e-01	2.957556e-06	
542	5.000000e-01	3.260374e-06	
543	5.500000e-01	3.558257e-06	
544	6.000000e-01	3.851220e-06	
545	6.500000e-01	4.139275e-06	
546	7.000000e-01	4.422435e-06	
547	7.500000e-01	4.700714e-06	
548	8.000000e-01	4.974124e-06	
549	8.500000e-01	5.242679e-06	
550	9.000000e-01	5.506391e-06	
551	9.500000e-01	5.765274e-06	
552	1.000000e+00	6.019340e-06	
553	1.050000e+00	6.268602e-06	
554	1.100000e+00	6.513073e-06	
555	1.150000e+00	6.752766e-06	
556	1.200000e+00	6.987692e-06	
557	1.250000e+00	7.217866e-06	
558	1.300000e+00	7.443299e-06	
559	1.350000e+00	7.664004e-06	
560	1.400000e+00	7.879994e-06	
561	1.450000e+00	8.091280e-06	
562	1.500000e+00	8.297875e-06	
563	1.550000e+00	8.499792e-06	
564	1.600000e+00	8.697043e-06	
565	1.650000e+00	8.889640e-06	
566	1.700000e+00	9.077595e-06	
567	1.750000e+00	9.260920e-06	
568	1.800000e+00	9.439628e-06	
569	1.850000e+00	9.613729e-06	
570	1.900000e+00	9.783237e-06	
571	1.950000e+00	9.948163e-06	
572	2.000000e+00	1.010852e-05	
573	2.050000e+00	1.026432e-05	
574	2.100000e+00	1.041557e-05	
575	2.150000e+00	1.056228e-05	
576	2.200000e+00	1.070448e-05	

Index   v-sweep         -i(vds)         
--------------------------------------------------------------------------------
577	2.250000e+00	1.084216e-05	
578	2.300000e+00	1.097533e-05	
579	2.350000e+00	1.110402e-05	
580	2.400000e+00	1.122824e-05	
581	2.450000e+00	1.134798e-05	
582	2.500000e+00	1.146327e-05	
583	2.550000e+00	1.157411e-05	
584	2.600000e+00	1.168051e-05	
585	2.650000e+00	1.178249e-05	
586	2.700000e+00	1.188006e-05	
587	2.750000e+00	1.197322e-05	
588	2.800000e+00	1.206199e-05	
589	2.850000e+00	1.214637e-05	
590	2.900000e+00	1.222637e-05	
591	2.950000e+00	1.230201e-05	
592	3.000000e+00	1.237329e-05	
593	3.050000e+00	1.244022e-05	
594	3.100000e+00	1.250281e-05	
595	3.150000e+00	1.256107e-05	
596	3.200000e+00	1.261502e-05	
597	3.250000e+00	1.266466e-05	
598	3.300000e+00	1.271001e-05	
599	3.350000e+00	1.275112e-05	
600	3.400000e+00	1.278802e-05	
601	3.450000e+00	1.282078e-05	
602	3.500000e+00	1.284952e-05	
603	3.550000e+00	1.287439e-05	
604	3.600000e+00	1.289562e-05	
605	3.650000e+00	1.291352e-05	
606	3.700000e+00	1.292843e-05	
607	3.750000e+00	1.294078e-05	
608	3.800000e+00	1.295098e-05	
609	3.850000e+00	1.295941e-05	
610	3.900000e+00	1.296643e-05	
611	3.950000e+00	1.297233e-05	
612	4.000000e+00	1.297734e-05	
613	4.050000e+00	1.298165e-05	
614	4.100000e+00	1.298540e-05	
615	4.150000e+00	1.298870e-05	
616	4.200000e+00	1.299164e-05	
617	4.250000e+00	1.299428e-05	
618	4.300000e+00	1.299668e-05	
619	4.350000e+00	1.299888e-05	
620	4.400000e+00	1.300090e-05	
621	4.450000e+00	1.300279e-05	
622	4.500000e+00	1.300455e-05	
623	4.550000e+00	1.300620e-05	
624	4.600000e+00	1.300776e-05	
625	4.650000e+00	1.300925e-05	
626	4.700000e+00	1.301066e-05	
627	4.750000e+00	1.301202e-05	
628	4.800000e+00	1.301331e-05	
629	4.850000e+00	1.301456e-05	
630	4.900000e+00	1.301577e-05	
631	4.950000e+00	1.301694e-05	
632	5.000000e+00	1.301807e-05	
633	5.050000e+00	1.301917e-05	
634	5.100000e+00	1.302024e-05	

Index   v-sweep         -i(vds)         
--------------------------------------------------------------------------------
635	5.150000e+00	1.302128e-05	
636	5.200000e+00	1.302230e-05	
637	5.250000e+00	1.302330e-05	
638	5.300000e+00	1.302428e-05	
639	5.350000e+00	1.302523e-05	
640	5.400000e+00	1.302617e-05	
641	5.450000e+00	1.302710e-05	
642	5.500000e+00	1.302801e-05	
643	5.550000e+00	1.302890e-05	
644	5.600000e+00	1.302978e-05	
645	5.650000e+00	1.303065e-05	
646	5.700000e+00	1.303151e-05	
647	5.750000e+00	1.303237e-05	
648	5.800000e+00	1.303321e-05	
649	5.850000e+00	1.303405e-05	
650	5.900000e+00	1.303488e-05	
651	5.950000e+00	1.303571e-05	
652	6.000000e+00	1.303654e-05	
653	6.050000e+00	1.303737e-05	
654	6.100000e+00	1.303821e-05	
655	6.150000e+00	1.303906e-05	
656	6.200000e+00	1.303993e-05	
657	6.250000e+00	1.304082e-05	
658	6.300000e+00	1.304175e-05	
659	6.350000e+00	1.304270e-05	
660	6.400000e+00	1.304371e-05	
661	6.450000e+00	1.304478e-05	
662	6.500000e+00	1.304592e-05	
663	6.550000e+00	1.304715e-05	
664	6.600000e+00	1.304849e-05	
665	0.000000e+00	-0.000000e+00	
666	5.000000e-02	3.918681e-07	
667	1.000000e-01	7.747598e-07	
668	1.500000e-01	1.152026e-06	
669	2.000000e-01	1.524517e-06	
670	2.500000e-01	1.892452e-06	
671	3.000000e-01	2.255897e-06	
672	3.500000e-01	2.614876e-06	
673	4.000000e-01	2.969402e-06	
674	4.500000e-01	3.319488e-06	
675	5.000000e-01	3.665145e-06	
676	5.500000e-01	4.006383e-06	
677	6.000000e-01	4.343214e-06	
678	6.500000e-01	4.675649e-06	
679	7.000000e-01	5.003697e-06	
680	7.500000e-01	5.327371e-06	
681	8.000000e-01	5.646680e-06	
682	8.500000e-01	5.961635e-06	
683	9.000000e-01	6.272247e-06	
684	9.500000e-01	6.578527e-06	
685	1.000000e+00	6.880485e-06	
686	1.050000e+00	7.178131e-06	
687	1.100000e+00	7.471476e-06	
688	1.150000e+00	7.760531e-06	
689	1.200000e+00	8.045306e-06	
690	1.250000e+00	8.325812e-06	
691	1.300000e+00	8.602058e-06	
692	1.350000e+00	8.874055e-06	

Index   v-sweep         -i(vds)         
--------------------------------------------------------------------------------
693	1.400000e+00	9.141814e-06	
694	1.450000e+00	9.405344e-06	
695	1.500000e+00	9.664655e-06	
696	1.550000e+00	9.919759e-06	
697	1.600000e+00	1.017066e-05	
698	1.650000e+00	1.041738e-05	
699	1.700000e+00	1.065992e-05	
700	1.750000e+00	1.089830e-05	
701	1.800000e+00	1.113251e-05	
702	1.850000e+00	1.136258e-05	
703	1.900000e+00	1.158851e-05	
704	1.950000e+00	1.181031e-05	
705	2.000000e+00	1.202799e-05	
706	2.050000e+00	1.224157e-05	
707	2.100000e+00	1.245104e-05	
708	2.150000e+00	1.265643e-05	
709	2.200000e+00	1.285774e-05	
710	2.250000e+00	1.305498e-05	
711	2.300000e+00	1.324816e-05	
712	2.350000e+00	1.343729e-05	
713	2.400000e+00	1.362238e-05	
714	2.450000e+00	1.380343e-05	
715	2.500000e+00	1.398047e-05	
716	2.550000e+00	1.415349e-05	
717	2.600000e+00	1.432251e-05	
718	2.650000e+00	1.448754e-05	
719	2.700000e+00	1.464858e-05	
720	2.750000e+00	1.480565e-05	
721	2.800000e+00	1.495875e-05	
722	2.850000e+00	1.510789e-05	
723	2.900000e+00	1.525309e-05	
724	2.950000e+00	1.539435e-05	
725	3.000000e+00	1.553167e-05	
726	3.050000e+00	1.566508e-05	
727	3.100000e+00	1.579457e-05	
728	3.150000e+00	1.592016e-05	
729	3.200000e+00	1.604185e-05	
730	3.250000e+00	1.615965e-05	
731	3.300000e+00	1.627357e-05	
732	3.350000e+00	1.638363e-05	
733	3.400000e+00	1.648981e-05	
734	3.450000e+00	1.659214e-05	
735	3.500000e+00	1.669063e-05	
736	3.550000e+00	1.678527e-05	
737	3.600000e+00	1.687607e-05	
738	3.650000e+00	1.696305e-05	
739	3.700000e+00	1.704620e-05	
740	3.750000e+00	1.712554e-05	
741	3.800000e+00	1.720107e-05	
742	3.850000e+00	1.727278e-05	
743	3.900000e+00	1.734070e-05	
744	3.950000e+00	1.740481e-05	
745	4.000000e+00	1.746513e-05	
746	4.050000e+00	1.752165e-05	
747	4.100000e+00	1.757438e-05	
748	4.150000e+00	1.762333e-05	
749	4.200000e+00	1.766851e-05	
750	4.250000e+00	1.770992e-05	

Index   v-sweep         -i(vds)         
--------------------------------------------------------------------------------
751	4.300000e+00	1.774761e-05	
752	4.350000e+00	1.778161e-05	
753	4.400000e+00	1.781199e-05	
754	4.450000e+00	1.783886e-05	
755	4.500000e+00	1.786238e-05	
756	4.550000e+00	1.788275e-05	
757	4.600000e+00	1.790025e-05	
758	4.650000e+00	1.791516e-05	
759	4.700000e+00	1.792782e-05	
760	4.750000e+00	1.793857e-05	
761	4.800000e+00	1.794771e-05	
762	4.850000e+00	1.795552e-05	
763	4.900000e+00	1.796225e-05	
764	4.950000e+00	1.796808e-05	
765	5.000000e+00	1.797319e-05	
766	5.050000e+00	1.797770e-05	
767	5.100000e+00	1.798173e-05	
768	5.150000e+00	1.798535e-05	
769	5.200000e+00	1.798862e-05	
770	5.250000e+00	1.799162e-05	
771	5.300000e+00	1.799437e-05	
772	5.350000e+00	1.799693e-05	
773	5.400000e+00	1.799930e-05	
774	5.450000e+00	1.800152e-05	
775	5.500000e+00	1.800361e-05	
776	5.550000e+00	1.800559e-05	
777	5.600000e+00	1.800746e-05	
778	5.650000e+00	1.800925e-05	
779	5.700000e+00	1.801095e-05	
780	5.750000e+00	1.801259e-05	
781	5.800000e+00	1.801416e-05	
782	5.850000e+00	1.801567e-05	
783	5.900000e+00	1.801714e-05	
784	5.950000e+00	1.801855e-05	
785	6.000000e+00	1.801992e-05	
786	6.050000e+00	1.802126e-05	
787	6.100000e+00	1.802256e-05	
788	6.150000e+00	1.802382e-05	
789	6.200000e+00	1.802506e-05	
790	6.250000e+00	1.802626e-05	
791	6.300000e+00	1.802745e-05	
792	6.350000e+00	1.802860e-05	
793	6.400000e+00	1.802974e-05	
794	6.450000e+00	1.803085e-05	
795	6.500000e+00	1.803195e-05	
796	6.550000e+00	1.803303e-05	
797	6.600000e+00	1.803410e-05	
Note: No ".plot", ".print", or ".fourier" lines; no simulations run
