
Note: Compatibility modes selected: hs

Warning: m=xx on .subckt line will override multiplier m hierarchy!


Circuit: ***************************

Doing analysis at TEMP = 25.000000 and TNOM = 25.000000


No. of Data Rows : 798
                          ***************************
                          DC transfer characteristic  Mon Jan  9 13:57:40  2023
--------------------------------------------------------------------------------
Index   v-sweep         -i(vds)         
--------------------------------------------------------------------------------
0	0.000000e+00	-0.000000e+00	
1	5.000000e-02	1.524272e-06	
2	1.000000e-01	2.720953e-06	
3	1.500000e-01	3.595615e-06	
4	2.000000e-01	4.162662e-06	
5	2.500000e-01	4.464285e-06	
6	3.000000e-01	4.591382e-06	
7	3.500000e-01	4.641514e-06	
8	4.000000e-01	4.664889e-06	
9	4.500000e-01	4.678525e-06	
10	5.000000e-01	4.687999e-06	
11	5.500000e-01	4.695394e-06	
12	6.000000e-01	4.701614e-06	
13	6.500000e-01	4.707106e-06	
14	7.000000e-01	4.712110e-06	
15	7.500000e-01	4.716770e-06	
16	8.000000e-01	4.721176e-06	
17	8.500000e-01	4.725386e-06	
18	9.000000e-01	4.729443e-06	
19	9.500000e-01	4.733375e-06	
20	1.000000e+00	4.737204e-06	
21	1.050000e+00	4.740948e-06	
22	1.100000e+00	4.744618e-06	
23	1.150000e+00	4.748226e-06	
24	1.200000e+00	4.751779e-06	
25	1.250000e+00	4.755284e-06	
26	1.300000e+00	4.758747e-06	
27	1.350000e+00	4.762172e-06	
28	1.400000e+00	4.765563e-06	
29	1.450000e+00	4.768923e-06	
30	1.500000e+00	4.772256e-06	
31	1.550000e+00	4.775563e-06	
32	1.600000e+00	4.778847e-06	
33	1.650000e+00	4.782109e-06	
34	1.700000e+00	4.785353e-06	
35	1.750000e+00	4.788577e-06	
36	1.800000e+00	4.791786e-06	
37	1.850000e+00	4.794978e-06	
38	1.900000e+00	4.798156e-06	
39	1.950000e+00	4.801320e-06	
40	2.000000e+00	4.804472e-06	
41	2.050000e+00	4.807611e-06	
42	2.100000e+00	4.810740e-06	
43	2.150000e+00	4.813858e-06	
44	2.200000e+00	4.816965e-06	
45	2.250000e+00	4.820064e-06	
46	2.300000e+00	4.823154e-06	
47	2.350000e+00	4.826236e-06	
48	2.400000e+00	4.829311e-06	
49	2.450000e+00	4.832380e-06	
50	2.500000e+00	4.835442e-06	
51	2.550000e+00	4.838500e-06	
52	2.600000e+00	4.841554e-06	
53	2.650000e+00	4.844605e-06	
54	2.700000e+00	4.847656e-06	

Index   v-sweep         -i(vds)         
--------------------------------------------------------------------------------
55	2.750000e+00	4.850707e-06	
56	2.800000e+00	4.853760e-06	
57	2.850000e+00	4.856819e-06	
58	2.900000e+00	4.859885e-06	
59	2.950000e+00	4.862962e-06	
60	3.000000e+00	4.866054e-06	
61	3.050000e+00	4.869165e-06	
62	3.100000e+00	4.872301e-06	
63	3.150000e+00	4.875465e-06	
64	3.200000e+00	4.878667e-06	
65	3.250000e+00	4.881912e-06	
66	3.300000e+00	4.885209e-06	
67	3.350000e+00	4.888567e-06	
68	3.400000e+00	4.891997e-06	
69	3.450000e+00	4.895511e-06	
70	3.500000e+00	4.899121e-06	
71	3.550000e+00	4.902841e-06	
72	3.600000e+00	4.906687e-06	
73	3.650000e+00	4.910675e-06	
74	3.700000e+00	4.914825e-06	
75	3.750000e+00	4.919155e-06	
76	3.800000e+00	4.923687e-06	
77	3.850000e+00	4.928445e-06	
78	3.900000e+00	4.933453e-06	
79	3.950000e+00	4.938738e-06	
80	4.000000e+00	4.944328e-06	
81	4.050000e+00	4.950253e-06	
82	4.100000e+00	4.956545e-06	
83	4.150000e+00	4.963238e-06	
84	4.200000e+00	4.970367e-06	
85	4.250000e+00	4.977971e-06	
86	4.300000e+00	4.986089e-06	
87	4.350000e+00	4.994761e-06	
88	4.400000e+00	5.004033e-06	
89	4.450000e+00	5.013948e-06	
90	4.500000e+00	5.024554e-06	
91	4.550000e+00	5.035900e-06	
92	4.600000e+00	5.048037e-06	
93	4.650000e+00	5.061019e-06	
94	4.700000e+00	5.074899e-06	
95	4.750000e+00	5.089734e-06	
96	4.800000e+00	5.105584e-06	
97	4.850000e+00	5.122507e-06	
98	4.900000e+00	5.140566e-06	
99	4.950000e+00	5.159825e-06	
100	5.000000e+00	5.180349e-06	
101	5.050000e+00	5.202204e-06	
102	5.100000e+00	5.225460e-06	
103	5.150000e+00	5.250187e-06	
104	5.200000e+00	5.276456e-06	
105	5.250000e+00	5.304340e-06	
106	5.300000e+00	5.333914e-06	
107	5.350000e+00	5.365253e-06	
108	5.400000e+00	5.398435e-06	
109	5.450000e+00	5.433538e-06	
110	5.500000e+00	5.470643e-06	
111	5.550000e+00	5.509828e-06	
112	5.600000e+00	5.551177e-06	

Index   v-sweep         -i(vds)         
--------------------------------------------------------------------------------
113	5.650000e+00	5.594773e-06	
114	5.700000e+00	5.640698e-06	
115	5.750000e+00	5.689039e-06	
116	5.800000e+00	5.739880e-06	
117	5.850000e+00	5.793309e-06	
118	5.900000e+00	5.849412e-06	
119	5.950000e+00	5.908277e-06	
120	6.000000e+00	5.969994e-06	
121	6.050000e+00	6.034651e-06	
122	6.100000e+00	6.102339e-06	
123	6.150000e+00	6.173147e-06	
124	6.200000e+00	6.247166e-06	
125	6.250000e+00	6.324488e-06	
126	6.300000e+00	6.405204e-06	
127	6.350000e+00	6.489406e-06	
128	6.400000e+00	6.577186e-06	
129	6.450000e+00	6.668636e-06	
130	6.500000e+00	6.763848e-06	
131	6.550000e+00	6.862916e-06	
132	6.600000e+00	6.965932e-06	
133	0.000000e+00	-0.000000e+00	
134	5.000000e-02	6.586852e-06	
135	1.000000e-01	1.282065e-05	
136	1.500000e-01	1.870325e-05	
137	2.000000e-01	2.423651e-05	
138	2.500000e-01	2.942227e-05	
139	3.000000e-01	3.426240e-05	
140	3.500000e-01	3.875873e-05	
141	4.000000e-01	4.291314e-05	
142	4.500000e-01	4.672752e-05	
143	5.000000e-01	5.020380e-05	
144	5.500000e-01	5.334401e-05	
145	6.000000e-01	5.615034e-05	
146	6.500000e-01	5.862526e-05	
147	7.000000e-01	6.077180e-05	
148	7.500000e-01	6.259407e-05	
149	8.000000e-01	6.409833e-05	
150	8.500000e-01	6.529522e-05	
151	9.000000e-01	6.620370e-05	
152	9.500000e-01	6.685648e-05	
153	1.000000e+00	6.730229e-05	
154	1.050000e+00	6.759861e-05	
155	1.100000e+00	6.779737e-05	
156	1.150000e+00	6.793590e-05	
157	1.200000e+00	6.803754e-05	
158	1.250000e+00	6.811598e-05	
159	1.300000e+00	6.817925e-05	
160	1.350000e+00	6.823217e-05	
161	1.400000e+00	6.827774e-05	
162	1.450000e+00	6.831791e-05	
163	1.500000e+00	6.835398e-05	
164	1.550000e+00	6.838686e-05	
165	1.600000e+00	6.841720e-05	
166	1.650000e+00	6.844547e-05	
167	1.700000e+00	6.847204e-05	
168	1.750000e+00	6.849719e-05	
169	1.800000e+00	6.852112e-05	
170	1.850000e+00	6.854401e-05	

Index   v-sweep         -i(vds)         
--------------------------------------------------------------------------------
171	1.900000e+00	6.856600e-05	
172	1.950000e+00	6.858720e-05	
173	2.000000e+00	6.860770e-05	
174	2.050000e+00	6.862759e-05	
175	2.100000e+00	6.864693e-05	
176	2.150000e+00	6.866577e-05	
177	2.200000e+00	6.868417e-05	
178	2.250000e+00	6.870216e-05	
179	2.300000e+00	6.871978e-05	
180	2.350000e+00	6.873706e-05	
181	2.400000e+00	6.875403e-05	
182	2.450000e+00	6.877072e-05	
183	2.500000e+00	6.878714e-05	
184	2.550000e+00	6.880332e-05	
185	2.600000e+00	6.881927e-05	
186	2.650000e+00	6.883501e-05	
187	2.700000e+00	6.885054e-05	
188	2.750000e+00	6.886590e-05	
189	2.800000e+00	6.888108e-05	
190	2.850000e+00	6.889610e-05	
191	2.900000e+00	6.891097e-05	
192	2.950000e+00	6.892569e-05	
193	3.000000e+00	6.894029e-05	
194	3.050000e+00	6.895476e-05	
195	3.100000e+00	6.896912e-05	
196	3.150000e+00	6.898337e-05	
197	3.200000e+00	6.899754e-05	
198	3.250000e+00	6.901163e-05	
199	3.300000e+00	6.902566e-05	
200	3.350000e+00	6.903964e-05	
201	3.400000e+00	6.905360e-05	
202	3.450000e+00	6.906756e-05	
203	3.500000e+00	6.908154e-05	
204	3.550000e+00	6.909559e-05	
205	3.600000e+00	6.910972e-05	
206	3.650000e+00	6.912400e-05	
207	3.700000e+00	6.913847e-05	
208	3.750000e+00	6.915319e-05	
209	3.800000e+00	6.916822e-05	
210	3.850000e+00	6.918366e-05	
211	3.900000e+00	6.919958e-05	
212	3.950000e+00	6.921608e-05	
213	4.000000e+00	6.923329e-05	
214	4.050000e+00	6.925132e-05	
215	4.100000e+00	6.927033e-05	
216	4.150000e+00	6.929046e-05	
217	4.200000e+00	6.931190e-05	
218	4.250000e+00	6.933483e-05	
219	4.300000e+00	6.935947e-05	
220	4.350000e+00	6.938604e-05	
221	4.400000e+00	6.941480e-05	
222	4.450000e+00	6.944602e-05	
223	4.500000e+00	6.948000e-05	
224	4.550000e+00	6.951704e-05	
225	4.600000e+00	6.955749e-05	
226	4.650000e+00	6.960171e-05	
227	4.700000e+00	6.965009e-05	
228	4.750000e+00	6.970304e-05	

Index   v-sweep         -i(vds)         
--------------------------------------------------------------------------------
229	4.800000e+00	6.976100e-05	
230	4.850000e+00	6.982442e-05	
231	4.900000e+00	6.989380e-05	
232	4.950000e+00	6.996965e-05	
233	5.000000e+00	7.005251e-05	
234	5.050000e+00	7.014294e-05	
235	5.100000e+00	7.024154e-05	
236	5.150000e+00	7.034892e-05	
237	5.200000e+00	7.046573e-05	
238	5.250000e+00	7.059264e-05	
239	5.300000e+00	7.073033e-05	
240	5.350000e+00	7.087955e-05	
241	5.400000e+00	7.104101e-05	
242	5.450000e+00	7.121551e-05	
243	5.500000e+00	7.140382e-05	
244	5.550000e+00	7.160678e-05	
245	5.600000e+00	7.182521e-05	
246	5.650000e+00	7.205999e-05	
247	5.700000e+00	7.231199e-05	
248	5.750000e+00	7.258213e-05	
249	5.800000e+00	7.287134e-05	
250	5.850000e+00	7.318056e-05	
251	5.900000e+00	7.351076e-05	
252	5.950000e+00	7.386293e-05	
253	6.000000e+00	7.423807e-05	
254	6.050000e+00	7.463721e-05	
255	6.100000e+00	7.506139e-05	
256	6.150000e+00	7.551166e-05	
257	6.200000e+00	7.598910e-05	
258	6.250000e+00	7.649478e-05	
259	6.300000e+00	7.702981e-05	
260	6.350000e+00	7.759531e-05	
261	6.400000e+00	7.819238e-05	
262	6.450000e+00	7.882218e-05	
263	6.500000e+00	7.948584e-05	
264	6.550000e+00	8.018453e-05	
265	6.600000e+00	8.091940e-05	
266	0.000000e+00	-0.000000e+00	
267	5.000000e-02	1.085523e-05	
268	1.000000e-01	2.137165e-05	
269	1.500000e-01	3.155105e-05	
270	2.000000e-01	4.139525e-05	
271	2.500000e-01	5.090601e-05	
272	3.000000e-01	6.008512e-05	
273	3.500000e-01	6.893433e-05	
274	4.000000e-01	7.745538e-05	
275	4.500000e-01	8.565002e-05	
276	5.000000e-01	9.351996e-05	
277	5.500000e-01	1.010669e-04	
278	6.000000e-01	1.082926e-04	
279	6.500000e-01	1.151986e-04	
280	7.000000e-01	1.217867e-04	
281	7.500000e-01	1.280586e-04	
282	8.000000e-01	1.340159e-04	
283	8.500000e-01	1.396601e-04	
284	9.000000e-01	1.449931e-04	
285	9.500000e-01	1.500163e-04	
286	1.000000e+00	1.547314e-04	

Index   v-sweep         -i(vds)         
--------------------------------------------------------------------------------
287	1.050000e+00	1.591401e-04	
288	1.100000e+00	1.632439e-04	
289	1.150000e+00	1.670445e-04	
290	1.200000e+00	1.705435e-04	
291	1.250000e+00	1.737426e-04	
292	1.300000e+00	1.766438e-04	
293	1.350000e+00	1.792491e-04	
294	1.400000e+00	1.815610e-04	
295	1.450000e+00	1.835829e-04	
296	1.500000e+00	1.853198e-04	
297	1.550000e+00	1.867798e-04	
298	1.600000e+00	1.879758e-04	
299	1.650000e+00	1.889287e-04	
300	1.700000e+00	1.896683e-04	
301	1.750000e+00	1.902320e-04	
302	1.800000e+00	1.906593e-04	
303	1.850000e+00	1.909861e-04	
304	1.900000e+00	1.912406e-04	
305	1.950000e+00	1.914438e-04	
306	2.000000e+00	1.916101e-04	
307	2.050000e+00	1.917495e-04	
308	2.100000e+00	1.918687e-04	
309	2.150000e+00	1.919728e-04	
310	2.200000e+00	1.920649e-04	
311	2.250000e+00	1.921477e-04	
312	2.300000e+00	1.922230e-04	
313	2.350000e+00	1.922920e-04	
314	2.400000e+00	1.923559e-04	
315	2.450000e+00	1.924155e-04	
316	2.500000e+00	1.924714e-04	
317	2.550000e+00	1.925242e-04	
318	2.600000e+00	1.925742e-04	
319	2.650000e+00	1.926219e-04	
320	2.700000e+00	1.926674e-04	
321	2.750000e+00	1.927111e-04	
322	2.800000e+00	1.927532e-04	
323	2.850000e+00	1.927937e-04	
324	2.900000e+00	1.928330e-04	
325	2.950000e+00	1.928710e-04	
326	3.000000e+00	1.929079e-04	
327	3.050000e+00	1.929438e-04	
328	3.100000e+00	1.929788e-04	
329	3.150000e+00	1.930129e-04	
330	3.200000e+00	1.930463e-04	
331	3.250000e+00	1.930789e-04	
332	3.300000e+00	1.931109e-04	
333	3.350000e+00	1.931422e-04	
334	3.400000e+00	1.931730e-04	
335	3.450000e+00	1.932032e-04	
336	3.500000e+00	1.932330e-04	
337	3.550000e+00	1.932622e-04	
338	3.600000e+00	1.932910e-04	
339	3.650000e+00	1.933194e-04	
340	3.700000e+00	1.933474e-04	
341	3.750000e+00	1.933751e-04	
342	3.800000e+00	1.934024e-04	
343	3.850000e+00	1.934295e-04	
344	3.900000e+00	1.934563e-04	

Index   v-sweep         -i(vds)         
--------------------------------------------------------------------------------
345	3.950000e+00	1.934828e-04	
346	4.000000e+00	1.935092e-04	
347	4.050000e+00	1.935354e-04	
348	4.100000e+00	1.935615e-04	
349	4.150000e+00	1.935876e-04	
350	4.200000e+00	1.936138e-04	
351	4.250000e+00	1.936401e-04	
352	4.300000e+00	1.936666e-04	
353	4.350000e+00	1.936935e-04	
354	4.400000e+00	1.937209e-04	
355	4.450000e+00	1.937490e-04	
356	4.500000e+00	1.937779e-04	
357	4.550000e+00	1.938078e-04	
358	4.600000e+00	1.938391e-04	
359	4.650000e+00	1.938719e-04	
360	4.700000e+00	1.939066e-04	
361	4.750000e+00	1.939435e-04	
362	4.800000e+00	1.939830e-04	
363	4.850000e+00	1.940255e-04	
364	4.900000e+00	1.940716e-04	
365	4.950000e+00	1.941216e-04	
366	5.000000e+00	1.941763e-04	
367	5.050000e+00	1.942363e-04	
368	5.100000e+00	1.943022e-04	
369	5.150000e+00	1.943747e-04	
370	5.200000e+00	1.944547e-04	
371	5.250000e+00	1.945431e-04	
372	5.300000e+00	1.946407e-04	
373	5.350000e+00	1.947486e-04	
374	5.400000e+00	1.948678e-04	
375	5.450000e+00	1.949994e-04	
376	5.500000e+00	1.951447e-04	
377	5.550000e+00	1.953049e-04	
378	5.600000e+00	1.954814e-04	
379	5.650000e+00	1.956756e-04	
380	5.700000e+00	1.958889e-04	
381	5.750000e+00	1.961230e-04	
382	5.800000e+00	1.963794e-04	
383	5.850000e+00	1.966598e-04	
384	5.900000e+00	1.969661e-04	
385	5.950000e+00	1.973001e-04	
386	6.000000e+00	1.976636e-04	
387	6.050000e+00	1.980587e-04	
388	6.100000e+00	1.984874e-04	
389	6.150000e+00	1.989519e-04	
390	6.200000e+00	1.994544e-04	
391	6.250000e+00	1.999970e-04	
392	6.300000e+00	2.005822e-04	
393	6.350000e+00	2.012123e-04	
394	6.400000e+00	2.018898e-04	
395	6.450000e+00	2.026171e-04	
396	6.500000e+00	2.033969e-04	
397	6.550000e+00	2.042318e-04	
398	6.600000e+00	2.051244e-04	
399	0.000000e+00	-0.000000e+00	
400	5.000000e-02	1.424730e-05	
401	1.000000e-01	2.817926e-05	
402	1.500000e-01	4.179751e-05	

Index   v-sweep         -i(vds)         
--------------------------------------------------------------------------------
403	2.000000e-01	5.510366e-05	
404	2.500000e-01	6.809929e-05	
405	3.000000e-01	8.078599e-05	
406	3.500000e-01	9.316533e-05	
407	4.000000e-01	1.052389e-04	
408	4.500000e-01	1.170082e-04	
409	5.000000e-01	1.284748e-04	
410	5.500000e-01	1.396402e-04	
411	6.000000e-01	1.505060e-04	
412	6.500000e-01	1.610736e-04	
413	7.000000e-01	1.713445e-04	
414	7.500000e-01	1.813203e-04	
415	8.000000e-01	1.910024e-04	
416	8.500000e-01	2.003923e-04	
417	9.000000e-01	2.094914e-04	
418	9.500000e-01	2.183012e-04	
419	1.000000e+00	2.268232e-04	
420	1.050000e+00	2.350586e-04	
421	1.100000e+00	2.430090e-04	
422	1.150000e+00	2.506758e-04	
423	1.200000e+00	2.580603e-04	
424	1.250000e+00	2.651639e-04	
425	1.300000e+00	2.719880e-04	
426	1.350000e+00	2.785339e-04	
427	1.400000e+00	2.848031e-04	
428	1.450000e+00	2.907967e-04	
429	1.500000e+00	2.965161e-04	
430	1.550000e+00	3.019626e-04	
431	1.600000e+00	3.071375e-04	
432	1.650000e+00	3.120421e-04	
433	1.700000e+00	3.166774e-04	
434	1.750000e+00	3.210448e-04	
435	1.800000e+00	3.251455e-04	
436	1.850000e+00	3.289804e-04	
437	1.900000e+00	3.325509e-04	
438	1.950000e+00	3.358578e-04	
439	2.000000e+00	3.389024e-04	
440	2.050000e+00	3.416857e-04	
441	2.100000e+00	3.442090e-04	
442	2.150000e+00	3.464741e-04	
443	2.200000e+00	3.484833e-04	
444	2.250000e+00	3.502407e-04	
445	2.300000e+00	3.517531e-04	
446	2.350000e+00	3.530316e-04	
447	2.400000e+00	3.540932e-04	
448	2.450000e+00	3.549611e-04	
449	2.500000e+00	3.556635e-04	
450	2.550000e+00	3.562304e-04	
451	2.600000e+00	3.566898e-04	
452	2.650000e+00	3.570661e-04	
453	2.700000e+00	3.573785e-04	
454	2.750000e+00	3.576418e-04	
455	2.800000e+00	3.578673e-04	
456	2.850000e+00	3.580631e-04	
457	2.900000e+00	3.582356e-04	
458	2.950000e+00	3.583892e-04	
459	3.000000e+00	3.585276e-04	
460	3.050000e+00	3.586534e-04	

Index   v-sweep         -i(vds)         
--------------------------------------------------------------------------------
461	3.100000e+00	3.587688e-04	
462	3.150000e+00	3.588753e-04	
463	3.200000e+00	3.589744e-04	
464	3.250000e+00	3.590671e-04	
465	3.300000e+00	3.591542e-04	
466	3.350000e+00	3.592364e-04	
467	3.400000e+00	3.593144e-04	
468	3.450000e+00	3.593886e-04	
469	3.500000e+00	3.594594e-04	
470	3.550000e+00	3.595273e-04	
471	3.600000e+00	3.595925e-04	
472	3.650000e+00	3.596552e-04	
473	3.700000e+00	3.597158e-04	
474	3.750000e+00	3.597743e-04	
475	3.800000e+00	3.598310e-04	
476	3.850000e+00	3.598860e-04	
477	3.900000e+00	3.599395e-04	
478	3.950000e+00	3.599915e-04	
479	4.000000e+00	3.600422e-04	
480	4.050000e+00	3.600917e-04	
481	4.100000e+00	3.601401e-04	
482	4.150000e+00	3.601874e-04	
483	4.200000e+00	3.602337e-04	
484	4.250000e+00	3.602791e-04	
485	4.300000e+00	3.603236e-04	
486	4.350000e+00	3.603673e-04	
487	4.400000e+00	3.604103e-04	
488	4.450000e+00	3.604526e-04	
489	4.500000e+00	3.604942e-04	
490	4.550000e+00	3.605352e-04	
491	4.600000e+00	3.605758e-04	
492	4.650000e+00	3.606158e-04	
493	4.700000e+00	3.606555e-04	
494	4.750000e+00	3.606948e-04	
495	4.800000e+00	3.607339e-04	
496	4.850000e+00	3.607729e-04	
497	4.900000e+00	3.608120e-04	
498	4.950000e+00	3.608512e-04	
499	5.000000e+00	3.608907e-04	
500	5.050000e+00	3.609308e-04	
501	5.100000e+00	3.609716e-04	
502	5.150000e+00	3.610135e-04	
503	5.200000e+00	3.610568e-04	
504	5.250000e+00	3.611018e-04	
505	5.300000e+00	3.611490e-04	
506	5.350000e+00	3.611988e-04	
507	5.400000e+00	3.612517e-04	
508	5.450000e+00	3.613085e-04	
509	5.500000e+00	3.613696e-04	
510	5.550000e+00	3.614360e-04	
511	5.600000e+00	3.615084e-04	
512	5.650000e+00	3.615878e-04	
513	5.700000e+00	3.616752e-04	
514	5.750000e+00	3.617716e-04	
515	5.800000e+00	3.618783e-04	
516	5.850000e+00	3.619967e-04	
517	5.900000e+00	3.621282e-04	
518	5.950000e+00	3.622742e-04	

Index   v-sweep         -i(vds)         
--------------------------------------------------------------------------------
519	6.000000e+00	3.624365e-04	
520	6.050000e+00	3.626168e-04	
521	6.100000e+00	3.628171e-04	
522	6.150000e+00	3.630394e-04	
523	6.200000e+00	3.632858e-04	
524	6.250000e+00	3.635587e-04	
525	6.300000e+00	3.638603e-04	
526	6.350000e+00	3.641934e-04	
527	6.400000e+00	3.645605e-04	
528	6.450000e+00	3.649646e-04	
529	6.500000e+00	3.654084e-04	
530	6.550000e+00	3.658953e-04	
531	6.600000e+00	3.664282e-04	
532	0.000000e+00	-0.000000e+00	
533	5.000000e-02	1.678960e-05	
534	1.000000e-01	3.329214e-05	
535	1.500000e-01	4.950900e-05	
536	2.000000e-01	6.544153e-05	
537	2.500000e-01	8.109110e-05	
538	3.000000e-01	9.645904e-05	
539	3.500000e-01	1.115467e-04	
540	4.000000e-01	1.263554e-04	
541	4.500000e-01	1.408865e-04	
542	5.000000e-01	1.551412e-04	
543	5.500000e-01	1.691209e-04	
544	6.000000e-01	1.828269e-04	
545	6.500000e-01	1.962604e-04	
546	7.000000e-01	2.094227e-04	
547	7.500000e-01	2.223152e-04	
548	8.000000e-01	2.349390e-04	
549	8.500000e-01	2.472955e-04	
550	9.000000e-01	2.593858e-04	
551	9.500000e-01	2.712112e-04	
552	1.000000e+00	2.827730e-04	
553	1.050000e+00	2.940723e-04	
554	1.100000e+00	3.051103e-04	
555	1.150000e+00	3.158884e-04	
556	1.200000e+00	3.264076e-04	
557	1.250000e+00	3.366692e-04	
558	1.300000e+00	3.466743e-04	
559	1.350000e+00	3.564241e-04	
560	1.400000e+00	3.659198e-04	
561	1.450000e+00	3.751626e-04	
562	1.500000e+00	3.841535e-04	
563	1.550000e+00	3.928937e-04	
564	1.600000e+00	4.013845e-04	
565	1.650000e+00	4.096268e-04	
566	1.700000e+00	4.176217e-04	
567	1.750000e+00	4.253705e-04	
568	1.800000e+00	4.328742e-04	
569	1.850000e+00	4.401339e-04	
570	1.900000e+00	4.471505e-04	
571	1.950000e+00	4.539253e-04	
572	2.000000e+00	4.604593e-04	
573	2.050000e+00	4.667534e-04	
574	2.100000e+00	4.728087e-04	
575	2.150000e+00	4.786262e-04	
576	2.200000e+00	4.842069e-04	

Index   v-sweep         -i(vds)         
--------------------------------------------------------------------------------
577	2.250000e+00	4.895517e-04	
578	2.300000e+00	4.946615e-04	
579	2.350000e+00	4.995373e-04	
580	2.400000e+00	5.041798e-04	
581	2.450000e+00	5.085899e-04	
582	2.500000e+00	5.127683e-04	
583	2.550000e+00	5.167157e-04	
584	2.600000e+00	5.204327e-04	
585	2.650000e+00	5.239197e-04	
586	2.700000e+00	5.271772e-04	
587	2.750000e+00	5.302056e-04	
588	2.800000e+00	5.330049e-04	
589	2.850000e+00	5.355754e-04	
590	2.900000e+00	5.379175e-04	
591	2.950000e+00	5.400321e-04	
592	3.000000e+00	5.419209e-04	
593	3.050000e+00	5.435879e-04	
594	3.100000e+00	5.450399e-04	
595	3.150000e+00	5.462878e-04	
596	3.200000e+00	5.473478e-04	
597	3.250000e+00	5.482399e-04	
598	3.300000e+00	5.489873e-04	
599	3.350000e+00	5.496136e-04	
600	3.400000e+00	5.501405e-04	
601	3.450000e+00	5.505874e-04	
602	3.500000e+00	5.509700e-04	
603	3.550000e+00	5.513010e-04	
604	3.600000e+00	5.515906e-04	
605	3.650000e+00	5.518466e-04	
606	3.700000e+00	5.520751e-04	
607	3.750000e+00	5.522809e-04	
608	3.800000e+00	5.524678e-04	
609	3.850000e+00	5.526389e-04	
610	3.900000e+00	5.527964e-04	
611	3.950000e+00	5.529425e-04	
612	4.000000e+00	5.530787e-04	
613	4.050000e+00	5.532062e-04	
614	4.100000e+00	5.533261e-04	
615	4.150000e+00	5.534394e-04	
616	4.200000e+00	5.535469e-04	
617	4.250000e+00	5.536490e-04	
618	4.300000e+00	5.537465e-04	
619	4.350000e+00	5.538398e-04	
620	4.400000e+00	5.539293e-04	
621	4.450000e+00	5.540153e-04	
622	4.500000e+00	5.540982e-04	
623	4.550000e+00	5.541782e-04	
624	4.600000e+00	5.542555e-04	
625	4.650000e+00	5.543305e-04	
626	4.700000e+00	5.544032e-04	
627	4.750000e+00	5.544738e-04	
628	4.800000e+00	5.545425e-04	
629	4.850000e+00	5.546095e-04	
630	4.900000e+00	5.546748e-04	
631	4.950000e+00	5.547385e-04	
632	5.000000e+00	5.548008e-04	
633	5.050000e+00	5.548618e-04	
634	5.100000e+00	5.549214e-04	

Index   v-sweep         -i(vds)         
--------------------------------------------------------------------------------
635	5.150000e+00	5.549800e-04	
636	5.200000e+00	5.550374e-04	
637	5.250000e+00	5.550938e-04	
638	5.300000e+00	5.551494e-04	
639	5.350000e+00	5.552040e-04	
640	5.400000e+00	5.552580e-04	
641	5.450000e+00	5.553113e-04	
642	5.500000e+00	5.553642e-04	
643	5.550000e+00	5.554167e-04	
644	5.600000e+00	5.554690e-04	
645	5.650000e+00	5.555212e-04	
646	5.700000e+00	5.555738e-04	
647	5.750000e+00	5.556268e-04	
648	5.800000e+00	5.556806e-04	
649	5.850000e+00	5.557356e-04	
650	5.900000e+00	5.557921e-04	
651	5.950000e+00	5.558507e-04	
652	6.000000e+00	5.559119e-04	
653	6.050000e+00	5.559763e-04	
654	6.100000e+00	5.560447e-04	
655	6.150000e+00	5.561179e-04	
656	6.200000e+00	5.561967e-04	
657	6.250000e+00	5.562823e-04	
658	6.300000e+00	5.563757e-04	
659	6.350000e+00	5.564783e-04	
660	6.400000e+00	5.565914e-04	
661	6.450000e+00	5.567165e-04	
662	6.500000e+00	5.568555e-04	
663	6.550000e+00	5.570101e-04	
664	6.600000e+00	5.571823e-04	
665	0.000000e+00	-0.000000e+00	
666	5.000000e-02	1.858180e-05	
667	1.000000e-01	3.690657e-05	
668	1.500000e-01	5.497541e-05	
669	2.000000e-01	7.278946e-05	
670	2.500000e-01	9.034982e-05	
671	3.000000e-01	1.076576e-04	
672	3.500000e-01	1.247139e-04	
673	4.000000e-01	1.415198e-04	
674	4.500000e-01	1.580764e-04	
675	5.000000e-01	1.743848e-04	
676	5.500000e-01	1.904461e-04	
677	6.000000e-01	2.062613e-04	
678	6.500000e-01	2.218314e-04	
679	7.000000e-01	2.371576e-04	
680	7.500000e-01	2.522409e-04	
681	8.000000e-01	2.670823e-04	
682	8.500000e-01	2.816829e-04	
683	9.000000e-01	2.960436e-04	
684	9.500000e-01	3.101656e-04	
685	1.000000e+00	3.240499e-04	
686	1.050000e+00	3.376974e-04	
687	1.100000e+00	3.511092e-04	
688	1.150000e+00	3.642862e-04	
689	1.200000e+00	3.772295e-04	
690	1.250000e+00	3.899400e-04	
691	1.300000e+00	4.024188e-04	
692	1.350000e+00	4.146668e-04	

Index   v-sweep         -i(vds)         
--------------------------------------------------------------------------------
693	1.400000e+00	4.266849e-04	
694	1.450000e+00	4.384743e-04	
695	1.500000e+00	4.500357e-04	
696	1.550000e+00	4.613702e-04	
697	1.600000e+00	4.724787e-04	
698	1.650000e+00	4.833622e-04	
699	1.700000e+00	4.940216e-04	
700	1.750000e+00	5.044578e-04	
701	1.800000e+00	5.146718e-04	
702	1.850000e+00	5.246645e-04	
703	1.900000e+00	5.344367e-04	
704	1.950000e+00	5.439894e-04	
705	2.000000e+00	5.533236e-04	
706	2.050000e+00	5.624401e-04	
707	2.100000e+00	5.713397e-04	
708	2.150000e+00	5.800234e-04	
709	2.200000e+00	5.884921e-04	
710	2.250000e+00	5.967466e-04	
711	2.300000e+00	6.047877e-04	
712	2.350000e+00	6.126164e-04	
713	2.400000e+00	6.202335e-04	
714	2.450000e+00	6.276399e-04	
715	2.500000e+00	6.348362e-04	
716	2.550000e+00	6.418235e-04	
717	2.600000e+00	6.486024e-04	
718	2.650000e+00	6.551738e-04	
719	2.700000e+00	6.615385e-04	
720	2.750000e+00	6.676972e-04	
721	2.800000e+00	6.736507e-04	
722	2.850000e+00	6.793997e-04	
723	2.900000e+00	6.849450e-04	
724	2.950000e+00	6.902872e-04	
725	3.000000e+00	6.954270e-04	
726	3.050000e+00	7.003650e-04	
727	3.100000e+00	7.051017e-04	
728	3.150000e+00	7.096378e-04	
729	3.200000e+00	7.139737e-04	
730	3.250000e+00	7.181097e-04	
731	3.300000e+00	7.220463e-04	
732	3.350000e+00	7.257835e-04	
733	3.400000e+00	7.293215e-04	
734	3.450000e+00	7.326602e-04	
735	3.500000e+00	7.357993e-04	
736	3.550000e+00	7.387384e-04	
737	3.600000e+00	7.414770e-04	
738	3.650000e+00	7.440144e-04	
739	3.700000e+00	7.463500e-04	
740	3.750000e+00	7.484834e-04	
741	3.800000e+00	7.504153e-04	
742	3.850000e+00	7.521477e-04	
743	3.900000e+00	7.536851e-04	
744	3.950000e+00	7.550353e-04	
745	4.000000e+00	7.562099e-04	
746	4.050000e+00	7.572243e-04	
747	4.100000e+00	7.580962e-04	
748	4.150000e+00	7.588448e-04	
749	4.200000e+00	7.594887e-04	
750	4.250000e+00	7.600451e-04	

Index   v-sweep         -i(vds)         
--------------------------------------------------------------------------------
751	4.300000e+00	7.605288e-04	
752	4.350000e+00	7.609526e-04	
753	4.400000e+00	7.613269e-04	
754	4.450000e+00	7.616601e-04	
755	4.500000e+00	7.619590e-04	
756	4.550000e+00	7.622294e-04	
757	4.600000e+00	7.624755e-04	
758	4.650000e+00	7.627010e-04	
759	4.700000e+00	7.629089e-04	
760	4.750000e+00	7.631017e-04	
761	4.800000e+00	7.632812e-04	
762	4.850000e+00	7.634493e-04	
763	4.900000e+00	7.636072e-04	
764	4.950000e+00	7.637561e-04	
765	5.000000e+00	7.638971e-04	
766	5.050000e+00	7.640311e-04	
767	5.100000e+00	7.641586e-04	
768	5.150000e+00	7.642804e-04	
769	5.200000e+00	7.643970e-04	
770	5.250000e+00	7.645089e-04	
771	5.300000e+00	7.646165e-04	
772	5.350000e+00	7.647202e-04	
773	5.400000e+00	7.648202e-04	
774	5.450000e+00	7.649169e-04	
775	5.500000e+00	7.650106e-04	
776	5.550000e+00	7.651014e-04	
777	5.600000e+00	7.651896e-04	
778	5.650000e+00	7.652753e-04	
779	5.700000e+00	7.653588e-04	
780	5.750000e+00	7.654402e-04	
781	5.800000e+00	7.655195e-04	
782	5.850000e+00	7.655971e-04	
783	5.900000e+00	7.656728e-04	
784	5.950000e+00	7.657470e-04	
785	6.000000e+00	7.658197e-04	
786	6.050000e+00	7.658910e-04	
787	6.100000e+00	7.659611e-04	
788	6.150000e+00	7.660300e-04	
789	6.200000e+00	7.660979e-04	
790	6.250000e+00	7.661650e-04	
791	6.300000e+00	7.662315e-04	
792	6.350000e+00	7.662974e-04	
793	6.400000e+00	7.663631e-04	
794	6.450000e+00	7.664289e-04	
795	6.500000e+00	7.664949e-04	
796	6.550000e+00	7.665617e-04	
797	6.600000e+00	7.666297e-04	
Note: No ".plot", ".print", or ".fourier" lines; no simulations run
