
Note: Compatibility modes selected: hs

Warning: m=xx on .subckt line will override multiplier m hierarchy!


Circuit: ***************************

Doing analysis at TEMP = 125.000000 and TNOM = 125.000000


No. of Data Rows : 798
                          ***************************
                          DC transfer characteristic  Mon Jan  9 13:57:41  2023
--------------------------------------------------------------------------------
Index   v-sweep         -i(vds)         
--------------------------------------------------------------------------------
0	0.000000e+00	-0.000000e+00	
1	5.000000e-02	3.185847e-07	
2	1.000000e-01	5.797179e-07	
3	1.500000e-01	7.948655e-07	
4	2.000000e-01	9.672750e-07	
5	2.500000e-01	1.098417e-06	
6	3.000000e-01	1.190120e-06	
7	3.500000e-01	1.246434e-06	
8	4.000000e-01	1.275804e-06	
9	4.500000e-01	1.289603e-06	
10	5.000000e-01	1.296398e-06	
11	5.500000e-01	1.300272e-06	
12	6.000000e-01	1.302838e-06	
13	6.500000e-01	1.304747e-06	
14	7.000000e-01	1.306288e-06	
15	7.500000e-01	1.307602e-06	
16	8.000000e-01	1.308768e-06	
17	8.500000e-01	1.309828e-06	
18	9.000000e-01	1.310812e-06	
19	9.500000e-01	1.311739e-06	
20	1.000000e+00	1.312619e-06	
21	1.050000e+00	1.313463e-06	
22	1.100000e+00	1.314277e-06	
23	1.150000e+00	1.315066e-06	
24	1.200000e+00	1.315834e-06	
25	1.250000e+00	1.316584e-06	
26	1.300000e+00	1.317318e-06	
27	1.350000e+00	1.318039e-06	
28	1.400000e+00	1.318747e-06	
29	1.450000e+00	1.319445e-06	
30	1.500000e+00	1.320133e-06	
31	1.550000e+00	1.320812e-06	
32	1.600000e+00	1.321483e-06	
33	1.650000e+00	1.322147e-06	
34	1.700000e+00	1.322805e-06	
35	1.750000e+00	1.323457e-06	
36	1.800000e+00	1.324103e-06	
37	1.850000e+00	1.324744e-06	
38	1.900000e+00	1.325380e-06	
39	1.950000e+00	1.326012e-06	
40	2.000000e+00	1.326640e-06	
41	2.050000e+00	1.327264e-06	
42	2.100000e+00	1.327884e-06	
43	2.150000e+00	1.328501e-06	
44	2.200000e+00	1.329115e-06	
45	2.250000e+00	1.329726e-06	
46	2.300000e+00	1.330335e-06	
47	2.350000e+00	1.330940e-06	
48	2.400000e+00	1.331543e-06	
49	2.450000e+00	1.332144e-06	
50	2.500000e+00	1.332743e-06	
51	2.550000e+00	1.333340e-06	
52	2.600000e+00	1.333936e-06	
53	2.650000e+00	1.334530e-06	
54	2.700000e+00	1.335123e-06	

Index   v-sweep         -i(vds)         
--------------------------------------------------------------------------------
55	2.750000e+00	1.335715e-06	
56	2.800000e+00	1.336306e-06	
57	2.850000e+00	1.336897e-06	
58	2.900000e+00	1.337489e-06	
59	2.950000e+00	1.338082e-06	
60	3.000000e+00	1.338677e-06	
61	3.050000e+00	1.339274e-06	
62	3.100000e+00	1.339875e-06	
63	3.150000e+00	1.340480e-06	
64	3.200000e+00	1.341092e-06	
65	3.250000e+00	1.341710e-06	
66	3.300000e+00	1.342338e-06	
67	3.350000e+00	1.342977e-06	
68	3.400000e+00	1.343628e-06	
69	3.450000e+00	1.344296e-06	
70	3.500000e+00	1.344981e-06	
71	3.550000e+00	1.345687e-06	
72	3.600000e+00	1.346418e-06	
73	3.650000e+00	1.347177e-06	
74	3.700000e+00	1.347968e-06	
75	3.750000e+00	1.348795e-06	
76	3.800000e+00	1.349663e-06	
77	3.850000e+00	1.350578e-06	
78	3.900000e+00	1.351545e-06	
79	3.950000e+00	1.352569e-06	
80	4.000000e+00	1.353658e-06	
81	4.050000e+00	1.354819e-06	
82	4.100000e+00	1.356058e-06	
83	4.150000e+00	1.357383e-06	
84	4.200000e+00	1.358803e-06	
85	4.250000e+00	1.360327e-06	
86	4.300000e+00	1.361964e-06	
87	4.350000e+00	1.363724e-06	
88	4.400000e+00	1.365618e-06	
89	4.450000e+00	1.367655e-06	
90	4.500000e+00	1.369847e-06	
91	4.550000e+00	1.372207e-06	
92	4.600000e+00	1.374747e-06	
93	4.650000e+00	1.377479e-06	
94	4.700000e+00	1.380418e-06	
95	4.750000e+00	1.383576e-06	
96	4.800000e+00	1.386968e-06	
97	4.850000e+00	1.390609e-06	
98	4.900000e+00	1.394515e-06	
99	4.950000e+00	1.398701e-06	
100	5.000000e+00	1.403184e-06	
101	5.050000e+00	1.407979e-06	
102	5.100000e+00	1.413106e-06	
103	5.150000e+00	1.418580e-06	
104	5.200000e+00	1.424420e-06	
105	5.250000e+00	1.430645e-06	
106	5.300000e+00	1.437273e-06	
107	5.350000e+00	1.444324e-06	
108	5.400000e+00	1.451817e-06	
109	5.450000e+00	1.459772e-06	
110	5.500000e+00	1.468209e-06	
111	5.550000e+00	1.477149e-06	
112	5.600000e+00	1.486613e-06	

Index   v-sweep         -i(vds)         
--------------------------------------------------------------------------------
113	5.650000e+00	1.496622e-06	
114	5.700000e+00	1.507198e-06	
115	5.750000e+00	1.518362e-06	
116	5.800000e+00	1.530137e-06	
117	5.850000e+00	1.542544e-06	
118	5.900000e+00	1.555607e-06	
119	5.950000e+00	1.569347e-06	
120	6.000000e+00	1.583789e-06	
121	6.050000e+00	1.598954e-06	
122	6.100000e+00	1.614867e-06	
123	6.150000e+00	1.631550e-06	
124	6.200000e+00	1.649027e-06	
125	6.250000e+00	1.667322e-06	
126	6.300000e+00	1.686459e-06	
127	6.350000e+00	1.706461e-06	
128	6.400000e+00	1.727353e-06	
129	6.450000e+00	1.749158e-06	
130	6.500000e+00	1.771901e-06	
131	6.550000e+00	1.795606e-06	
132	6.600000e+00	1.820297e-06	
133	0.000000e+00	-0.000000e+00	
134	5.000000e-02	9.565174e-07	
135	1.000000e-01	1.853454e-06	
136	1.500000e-01	2.702192e-06	
137	2.000000e-01	3.505775e-06	
138	2.500000e-01	4.265153e-06	
139	3.000000e-01	4.980746e-06	
140	3.500000e-01	5.652847e-06	
141	4.000000e-01	6.281711e-06	
142	4.500000e-01	6.867586e-06	
143	5.000000e-01	7.410722e-06	
144	5.500000e-01	7.911369e-06	
145	6.000000e-01	8.369782e-06	
146	6.500000e-01	8.786227e-06	
147	7.000000e-01	9.160986e-06	
148	7.500000e-01	9.494374e-06	
149	8.000000e-01	9.786761e-06	
150	8.500000e-01	1.003862e-05	
151	9.000000e-01	1.025064e-05	
152	9.500000e-01	1.042388e-05	
153	1.000000e+00	1.056017e-05	
154	1.050000e+00	1.066260e-05	
155	1.100000e+00	1.073600e-05	
156	1.150000e+00	1.078675e-05	
157	1.200000e+00	1.082149e-05	
158	1.250000e+00	1.084577e-05	
159	1.300000e+00	1.086340e-05	
160	1.350000e+00	1.087682e-05	
161	1.400000e+00	1.088747e-05	
162	1.450000e+00	1.089625e-05	
163	1.500000e+00	1.090372e-05	
164	1.550000e+00	1.091023e-05	
165	1.600000e+00	1.091602e-05	
166	1.650000e+00	1.092125e-05	
167	1.700000e+00	1.092604e-05	
168	1.750000e+00	1.093048e-05	
169	1.800000e+00	1.093463e-05	
170	1.850000e+00	1.093854e-05	

Index   v-sweep         -i(vds)         
--------------------------------------------------------------------------------
171	1.900000e+00	1.094224e-05	
172	1.950000e+00	1.094576e-05	
173	2.000000e+00	1.094914e-05	
174	2.050000e+00	1.095238e-05	
175	2.100000e+00	1.095551e-05	
176	2.150000e+00	1.095853e-05	
177	2.200000e+00	1.096146e-05	
178	2.250000e+00	1.096432e-05	
179	2.300000e+00	1.096709e-05	
180	2.350000e+00	1.096980e-05	
181	2.400000e+00	1.097245e-05	
182	2.450000e+00	1.097505e-05	
183	2.500000e+00	1.097759e-05	
184	2.550000e+00	1.098009e-05	
185	2.600000e+00	1.098254e-05	
186	2.650000e+00	1.098495e-05	
187	2.700000e+00	1.098733e-05	
188	2.750000e+00	1.098967e-05	
189	2.800000e+00	1.099198e-05	
190	2.850000e+00	1.099426e-05	
191	2.900000e+00	1.099651e-05	
192	2.950000e+00	1.099873e-05	
193	3.000000e+00	1.100093e-05	
194	3.050000e+00	1.100311e-05	
195	3.100000e+00	1.100526e-05	
196	3.150000e+00	1.100740e-05	
197	3.200000e+00	1.100952e-05	
198	3.250000e+00	1.101161e-05	
199	3.300000e+00	1.101370e-05	
200	3.350000e+00	1.101577e-05	
201	3.400000e+00	1.101783e-05	
202	3.450000e+00	1.101988e-05	
203	3.500000e+00	1.102193e-05	
204	3.550000e+00	1.102397e-05	
205	3.600000e+00	1.102601e-05	
206	3.650000e+00	1.102807e-05	
207	3.700000e+00	1.103013e-05	
208	3.750000e+00	1.103221e-05	
209	3.800000e+00	1.103432e-05	
210	3.850000e+00	1.103646e-05	
211	3.900000e+00	1.103865e-05	
212	3.950000e+00	1.104089e-05	
213	4.000000e+00	1.104321e-05	
214	4.050000e+00	1.104560e-05	
215	4.100000e+00	1.104810e-05	
216	4.150000e+00	1.105072e-05	
217	4.200000e+00	1.105348e-05	
218	4.250000e+00	1.105641e-05	
219	4.300000e+00	1.105953e-05	
220	4.350000e+00	1.106287e-05	
221	4.400000e+00	1.106646e-05	
222	4.450000e+00	1.107034e-05	
223	4.500000e+00	1.107455e-05	
224	4.550000e+00	1.107912e-05	
225	4.600000e+00	1.108411e-05	
226	4.650000e+00	1.108956e-05	
227	4.700000e+00	1.109552e-05	
228	4.750000e+00	1.110205e-05	

Index   v-sweep         -i(vds)         
--------------------------------------------------------------------------------
229	4.800000e+00	1.110920e-05	
230	4.850000e+00	1.111705e-05	
231	4.900000e+00	1.112565e-05	
232	4.950000e+00	1.113509e-05	
233	5.000000e+00	1.114542e-05	
234	5.050000e+00	1.115675e-05	
235	5.100000e+00	1.116914e-05	
236	5.150000e+00	1.118269e-05	
237	5.200000e+00	1.119748e-05	
238	5.250000e+00	1.121362e-05	
239	5.300000e+00	1.123120e-05	
240	5.350000e+00	1.125033e-05	
241	5.400000e+00	1.127111e-05	
242	5.450000e+00	1.129366e-05	
243	5.500000e+00	1.131810e-05	
244	5.550000e+00	1.134454e-05	
245	5.600000e+00	1.137311e-05	
246	5.650000e+00	1.140394e-05	
247	5.700000e+00	1.143716e-05	
248	5.750000e+00	1.147290e-05	
249	5.800000e+00	1.151130e-05	
250	5.850000e+00	1.155251e-05	
251	5.900000e+00	1.159667e-05	
252	5.950000e+00	1.164393e-05	
253	6.000000e+00	1.169445e-05	
254	6.050000e+00	1.174837e-05	
255	6.100000e+00	1.180585e-05	
256	6.150000e+00	1.186707e-05	
257	6.200000e+00	1.193217e-05	
258	6.250000e+00	1.200133e-05	
259	6.300000e+00	1.207472e-05	
260	6.350000e+00	1.215250e-05	
261	6.400000e+00	1.223486e-05	
262	6.450000e+00	1.232196e-05	
263	6.500000e+00	1.241399e-05	
264	6.550000e+00	1.251111e-05	
265	6.600000e+00	1.261353e-05	
266	0.000000e+00	-0.000000e+00	
267	5.000000e-02	1.487628e-06	
268	1.000000e-01	2.917622e-06	
269	1.500000e-01	4.301348e-06	
270	2.000000e-01	5.641830e-06	
271	2.500000e-01	6.939995e-06	
272	3.000000e-01	8.196247e-06	
273	3.500000e-01	9.410855e-06	
274	4.000000e-01	1.058405e-05	
275	4.500000e-01	1.171606e-05	
276	5.000000e-01	1.280711e-05	
277	5.500000e-01	1.385741e-05	
278	6.000000e-01	1.486718e-05	
279	6.500000e-01	1.583664e-05	
280	7.000000e-01	1.676600e-05	
281	7.500000e-01	1.765547e-05	
282	8.000000e-01	1.850527e-05	
283	8.500000e-01	1.931560e-05	
284	9.000000e-01	2.008668e-05	
285	9.500000e-01	2.081870e-05	
286	1.000000e+00	2.151188e-05	

Index   v-sweep         -i(vds)         
--------------------------------------------------------------------------------
287	1.050000e+00	2.216643e-05	
288	1.100000e+00	2.278254e-05	
289	1.150000e+00	2.336042e-05	
290	1.200000e+00	2.390027e-05	
291	1.250000e+00	2.440231e-05	
292	1.300000e+00	2.486674e-05	
293	1.350000e+00	2.529378e-05	
294	1.400000e+00	2.568366e-05	
295	1.450000e+00	2.603663e-05	
296	1.500000e+00	2.635297e-05	
297	1.550000e+00	2.663307e-05	
298	1.600000e+00	2.687742e-05	
299	1.650000e+00	2.708679e-05	
300	1.700000e+00	2.726236e-05	
301	1.750000e+00	2.740603e-05	
302	1.800000e+00	2.752065e-05	
303	1.850000e+00	2.761011e-05	
304	1.900000e+00	2.767898e-05	
305	1.950000e+00	2.773195e-05	
306	2.000000e+00	2.777312e-05	
307	2.050000e+00	2.780572e-05	
308	2.100000e+00	2.783212e-05	
309	2.150000e+00	2.785399e-05	
310	2.200000e+00	2.787253e-05	
311	2.250000e+00	2.788853e-05	
312	2.300000e+00	2.790259e-05	
313	2.350000e+00	2.791512e-05	
314	2.400000e+00	2.792642e-05	
315	2.450000e+00	2.793674e-05	
316	2.500000e+00	2.794624e-05	
317	2.550000e+00	2.795505e-05	
318	2.600000e+00	2.796329e-05	
319	2.650000e+00	2.797104e-05	
320	2.700000e+00	2.797836e-05	
321	2.750000e+00	2.798531e-05	
322	2.800000e+00	2.799193e-05	
323	2.850000e+00	2.799828e-05	
324	2.900000e+00	2.800436e-05	
325	2.950000e+00	2.801022e-05	
326	3.000000e+00	2.801587e-05	
327	3.050000e+00	2.802134e-05	
328	3.100000e+00	2.802665e-05	
329	3.150000e+00	2.803180e-05	
330	3.200000e+00	2.803681e-05	
331	3.250000e+00	2.804169e-05	
332	3.300000e+00	2.804645e-05	
333	3.350000e+00	2.805111e-05	
334	3.400000e+00	2.805567e-05	
335	3.450000e+00	2.806013e-05	
336	3.500000e+00	2.806450e-05	
337	3.550000e+00	2.806880e-05	
338	3.600000e+00	2.807302e-05	
339	3.650000e+00	2.807716e-05	
340	3.700000e+00	2.808124e-05	
341	3.750000e+00	2.808526e-05	
342	3.800000e+00	2.808923e-05	
343	3.850000e+00	2.809313e-05	
344	3.900000e+00	2.809699e-05	

Index   v-sweep         -i(vds)         
--------------------------------------------------------------------------------
345	3.950000e+00	2.810080e-05	
346	4.000000e+00	2.810458e-05	
347	4.050000e+00	2.810831e-05	
348	4.100000e+00	2.811201e-05	
349	4.150000e+00	2.811569e-05	
350	4.200000e+00	2.811935e-05	
351	4.250000e+00	2.812300e-05	
352	4.300000e+00	2.812666e-05	
353	4.350000e+00	2.813032e-05	
354	4.400000e+00	2.813400e-05	
355	4.450000e+00	2.813773e-05	
356	4.500000e+00	2.814151e-05	
357	4.550000e+00	2.814537e-05	
358	4.600000e+00	2.814934e-05	
359	4.650000e+00	2.815343e-05	
360	4.700000e+00	2.815769e-05	
361	4.750000e+00	2.816214e-05	
362	4.800000e+00	2.816683e-05	
363	4.850000e+00	2.817181e-05	
364	4.900000e+00	2.817712e-05	
365	4.950000e+00	2.818283e-05	
366	5.000000e+00	2.818900e-05	
367	5.050000e+00	2.819570e-05	
368	5.100000e+00	2.820300e-05	
369	5.150000e+00	2.821100e-05	
370	5.200000e+00	2.821979e-05	
371	5.250000e+00	2.822946e-05	
372	5.300000e+00	2.824013e-05	
373	5.350000e+00	2.825192e-05	
374	5.400000e+00	2.826495e-05	
375	5.450000e+00	2.827937e-05	
376	5.500000e+00	2.829531e-05	
377	5.550000e+00	2.831294e-05	
378	5.600000e+00	2.833243e-05	
379	5.650000e+00	2.835394e-05	
380	5.700000e+00	2.837767e-05	
381	5.750000e+00	2.840382e-05	
382	5.800000e+00	2.843259e-05	
383	5.850000e+00	2.846419e-05	
384	5.900000e+00	2.849887e-05	
385	5.950000e+00	2.853685e-05	
386	6.000000e+00	2.857839e-05	
387	6.050000e+00	2.862375e-05	
388	6.100000e+00	2.867319e-05	
389	6.150000e+00	2.872701e-05	
390	6.200000e+00	2.878549e-05	
391	6.250000e+00	2.884892e-05	
392	6.300000e+00	2.891763e-05	
393	6.350000e+00	2.899193e-05	
394	6.400000e+00	2.907216e-05	
395	6.450000e+00	2.915864e-05	
396	6.500000e+00	2.925174e-05	
397	6.550000e+00	2.935181e-05	
398	6.600000e+00	2.945921e-05	
399	0.000000e+00	-0.000000e+00	
400	5.000000e-02	1.909533e-06	
401	1.000000e-01	3.764480e-06	
402	1.500000e-01	5.576177e-06	

Index   v-sweep         -i(vds)         
--------------------------------------------------------------------------------
403	2.000000e-01	7.347616e-06	
404	2.500000e-01	9.079697e-06	
405	3.000000e-01	1.077279e-05	
406	3.500000e-01	1.242715e-05	
407	4.000000e-01	1.404297e-05	
408	4.500000e-01	1.562044e-05	
409	5.000000e-01	1.715977e-05	
410	5.500000e-01	1.866113e-05	
411	6.000000e-01	2.012474e-05	
412	6.500000e-01	2.155076e-05	
413	7.000000e-01	2.293939e-05	
414	7.500000e-01	2.429081e-05	
415	8.000000e-01	2.560521e-05	
416	8.500000e-01	2.688277e-05	
417	9.000000e-01	2.812367e-05	
418	9.500000e-01	2.932810e-05	
419	1.000000e+00	3.049623e-05	
420	1.050000e+00	3.162824e-05	
421	1.100000e+00	3.272431e-05	
422	1.150000e+00	3.378462e-05	
423	1.200000e+00	3.480933e-05	
424	1.250000e+00	3.579863e-05	
425	1.300000e+00	3.675267e-05	
426	1.350000e+00	3.767165e-05	
427	1.400000e+00	3.855571e-05	
428	1.450000e+00	3.940503e-05	
429	1.500000e+00	4.021978e-05	
430	1.550000e+00	4.100013e-05	
431	1.600000e+00	4.174622e-05	
432	1.650000e+00	4.245823e-05	
433	1.700000e+00	4.313631e-05	
434	1.750000e+00	4.378063e-05	
435	1.800000e+00	4.439133e-05	
436	1.850000e+00	4.496856e-05	
437	1.900000e+00	4.551249e-05	
438	1.950000e+00	4.602325e-05	
439	2.000000e+00	4.650098e-05	
440	2.050000e+00	4.694584e-05	
441	2.100000e+00	4.735795e-05	
442	2.150000e+00	4.773748e-05	
443	2.200000e+00	4.808457e-05	
444	2.250000e+00	4.839942e-05	
445	2.300000e+00	4.868225e-05	
446	2.350000e+00	4.893344e-05	
447	2.400000e+00	4.915354e-05	
448	2.450000e+00	4.934346e-05	
449	2.500000e+00	4.950464e-05	
450	2.550000e+00	4.963917e-05	
451	2.600000e+00	4.974992e-05	
452	2.650000e+00	4.984025e-05	
453	2.700000e+00	4.991376e-05	
454	2.750000e+00	4.997383e-05	
455	2.800000e+00	5.002339e-05	
456	2.850000e+00	5.006481e-05	
457	2.900000e+00	5.009992e-05	
458	2.950000e+00	5.013012e-05	
459	3.000000e+00	5.015645e-05	
460	3.050000e+00	5.017972e-05	

Index   v-sweep         -i(vds)         
--------------------------------------------------------------------------------
461	3.100000e+00	5.020050e-05	
462	3.150000e+00	5.021927e-05	
463	3.200000e+00	5.023636e-05	
464	3.250000e+00	5.025206e-05	
465	3.300000e+00	5.026659e-05	
466	3.350000e+00	5.028011e-05	
467	3.400000e+00	5.029276e-05	
468	3.450000e+00	5.030467e-05	
469	3.500000e+00	5.031592e-05	
470	3.550000e+00	5.032660e-05	
471	3.600000e+00	5.033677e-05	
472	3.650000e+00	5.034648e-05	
473	3.700000e+00	5.035578e-05	
474	3.750000e+00	5.036472e-05	
475	3.800000e+00	5.037333e-05	
476	3.850000e+00	5.038164e-05	
477	3.900000e+00	5.038967e-05	
478	3.950000e+00	5.039746e-05	
479	4.000000e+00	5.040501e-05	
480	4.050000e+00	5.041235e-05	
481	4.100000e+00	5.041950e-05	
482	4.150000e+00	5.042647e-05	
483	4.200000e+00	5.043326e-05	
484	4.250000e+00	5.043991e-05	
485	4.300000e+00	5.044640e-05	
486	4.350000e+00	5.045276e-05	
487	4.400000e+00	5.045899e-05	
488	4.450000e+00	5.046511e-05	
489	4.500000e+00	5.047111e-05	
490	4.550000e+00	5.047701e-05	
491	4.600000e+00	5.048282e-05	
492	4.650000e+00	5.048853e-05	
493	4.700000e+00	5.049417e-05	
494	4.750000e+00	5.049973e-05	
495	4.800000e+00	5.050523e-05	
496	4.850000e+00	5.051067e-05	
497	4.900000e+00	5.051607e-05	
498	4.950000e+00	5.052144e-05	
499	5.000000e+00	5.052680e-05	
500	5.050000e+00	5.053216e-05	
501	5.100000e+00	5.053755e-05	
502	5.150000e+00	5.054298e-05	
503	5.200000e+00	5.054849e-05	
504	5.250000e+00	5.055411e-05	
505	5.300000e+00	5.055988e-05	
506	5.350000e+00	5.056584e-05	
507	5.400000e+00	5.057204e-05	
508	5.450000e+00	5.057855e-05	
509	5.500000e+00	5.058543e-05	
510	5.550000e+00	5.059275e-05	
511	5.600000e+00	5.060061e-05	
512	5.650000e+00	5.060908e-05	
513	5.700000e+00	5.061829e-05	
514	5.750000e+00	5.062834e-05	
515	5.800000e+00	5.063937e-05	
516	5.850000e+00	5.065152e-05	
517	5.900000e+00	5.066495e-05	
518	5.950000e+00	5.067982e-05	

Index   v-sweep         -i(vds)         
--------------------------------------------------------------------------------
519	6.000000e+00	5.069632e-05	
520	6.050000e+00	5.071465e-05	
521	6.100000e+00	5.073503e-05	
522	6.150000e+00	5.075769e-05	
523	6.200000e+00	5.078288e-05	
524	6.250000e+00	5.081086e-05	
525	6.300000e+00	5.084193e-05	
526	6.350000e+00	5.087637e-05	
527	6.400000e+00	5.091452e-05	
528	6.450000e+00	5.095672e-05	
529	6.500000e+00	5.100331e-05	
530	6.550000e+00	5.105468e-05	
531	6.600000e+00	5.111121e-05	
532	0.000000e+00	-0.000000e+00	
533	5.000000e-02	2.229068e-06	
534	1.000000e-01	4.407095e-06	
535	1.500000e-01	6.545383e-06	
536	2.000000e-01	8.646895e-06	
537	2.500000e-01	1.071250e-05	
538	3.000000e-01	1.274253e-05	
539	3.500000e-01	1.473721e-05	
540	4.000000e-01	1.669670e-05	
541	4.500000e-01	1.862118e-05	
542	5.000000e-01	2.051080e-05	
543	5.500000e-01	2.236573e-05	
544	6.000000e-01	2.418613e-05	
545	6.500000e-01	2.597215e-05	
546	7.000000e-01	2.772396e-05	
547	7.500000e-01	2.944170e-05	
548	8.000000e-01	3.112554e-05	
549	8.500000e-01	3.277563e-05	
550	9.000000e-01	3.439213e-05	
551	9.500000e-01	3.597519e-05	
552	1.000000e+00	3.752495e-05	
553	1.050000e+00	3.904158e-05	
554	1.100000e+00	4.052522e-05	
555	1.150000e+00	4.197602e-05	
556	1.200000e+00	4.339413e-05	
557	1.250000e+00	4.477970e-05	
558	1.300000e+00	4.613287e-05	
559	1.350000e+00	4.745379e-05	
560	1.400000e+00	4.874260e-05	
561	1.450000e+00	4.999945e-05	
562	1.500000e+00	5.122448e-05	
563	1.550000e+00	5.241783e-05	
564	1.600000e+00	5.357965e-05	
565	1.650000e+00	5.471006e-05	
566	1.700000e+00	5.580922e-05	
567	1.750000e+00	5.687725e-05	
568	1.800000e+00	5.791430e-05	
569	1.850000e+00	5.892050e-05	
570	1.900000e+00	5.989599e-05	
571	1.950000e+00	6.084089e-05	
572	2.000000e+00	6.175534e-05	
573	2.050000e+00	6.263948e-05	
574	2.100000e+00	6.349343e-05	
575	2.150000e+00	6.431731e-05	
576	2.200000e+00	6.511126e-05	

Index   v-sweep         -i(vds)         
--------------------------------------------------------------------------------
577	2.250000e+00	6.587540e-05	
578	2.300000e+00	6.660986e-05	
579	2.350000e+00	6.731474e-05	
580	2.400000e+00	6.799017e-05	
581	2.450000e+00	6.863627e-05	
582	2.500000e+00	6.925313e-05	
583	2.550000e+00	6.984088e-05	
584	2.600000e+00	7.039961e-05	
585	2.650000e+00	7.092942e-05	
586	2.700000e+00	7.143039e-05	
587	2.750000e+00	7.190261e-05	
588	2.800000e+00	7.234614e-05	
589	2.850000e+00	7.276106e-05	
590	2.900000e+00	7.314740e-05	
591	2.950000e+00	7.350522e-05	
592	3.000000e+00	7.383457e-05	
593	3.050000e+00	7.413553e-05	
594	3.100000e+00	7.440821e-05	
595	3.150000e+00	7.465286e-05	
596	3.200000e+00	7.486993e-05	
597	3.250000e+00	7.506020e-05	
598	3.300000e+00	7.522493e-05	
599	3.350000e+00	7.536591e-05	
600	3.400000e+00	7.548547e-05	
601	3.450000e+00	7.558632e-05	
602	3.500000e+00	7.567129e-05	
603	3.550000e+00	7.574310e-05	
604	3.600000e+00	7.580419e-05	
605	3.650000e+00	7.585660e-05	
606	3.700000e+00	7.590203e-05	
607	3.750000e+00	7.594179e-05	
608	3.800000e+00	7.597695e-05	
609	3.850000e+00	7.600835e-05	
610	3.900000e+00	7.603663e-05	
611	3.950000e+00	7.606232e-05	
612	4.000000e+00	7.608583e-05	
613	4.050000e+00	7.610748e-05	
614	4.100000e+00	7.612755e-05	
615	4.150000e+00	7.614625e-05	
616	4.200000e+00	7.616376e-05	
617	4.250000e+00	7.618023e-05	
618	4.300000e+00	7.619579e-05	
619	4.350000e+00	7.621054e-05	
620	4.400000e+00	7.622456e-05	
621	4.450000e+00	7.623794e-05	
622	4.500000e+00	7.625074e-05	
623	4.550000e+00	7.626302e-05	
624	4.600000e+00	7.627482e-05	
625	4.650000e+00	7.628618e-05	
626	4.700000e+00	7.629716e-05	
627	4.750000e+00	7.630776e-05	
628	4.800000e+00	7.631804e-05	
629	4.850000e+00	7.632800e-05	
630	4.900000e+00	7.633768e-05	
631	4.950000e+00	7.634710e-05	
632	5.000000e+00	7.635627e-05	
633	5.050000e+00	7.636522e-05	
634	5.100000e+00	7.637395e-05	

Index   v-sweep         -i(vds)         
--------------------------------------------------------------------------------
635	5.150000e+00	7.638248e-05	
636	5.200000e+00	7.639083e-05	
637	5.250000e+00	7.639900e-05	
638	5.300000e+00	7.640701e-05	
639	5.350000e+00	7.641487e-05	
640	5.400000e+00	7.642259e-05	
641	5.450000e+00	7.643019e-05	
642	5.500000e+00	7.643766e-05	
643	5.550000e+00	7.644504e-05	
644	5.600000e+00	7.645233e-05	
645	5.650000e+00	7.645954e-05	
646	5.700000e+00	7.646670e-05	
647	5.750000e+00	7.647383e-05	
648	5.800000e+00	7.648095e-05	
649	5.850000e+00	7.648810e-05	
650	5.900000e+00	7.649530e-05	
651	5.950000e+00	7.650261e-05	
652	6.000000e+00	7.651005e-05	
653	6.050000e+00	7.651770e-05	
654	6.100000e+00	7.652561e-05	
655	6.150000e+00	7.653386e-05	
656	6.200000e+00	7.654253e-05	
657	6.250000e+00	7.655172e-05	
658	6.300000e+00	7.656153e-05	
659	6.350000e+00	7.657209e-05	
660	6.400000e+00	7.658353e-05	
661	6.450000e+00	7.659601e-05	
662	6.500000e+00	7.660969e-05	
663	6.550000e+00	7.662477e-05	
664	6.600000e+00	7.664145e-05	
665	0.000000e+00	-0.000000e+00	
666	5.000000e-02	2.459506e-06	
667	1.000000e-01	4.871660e-06	
668	1.500000e-01	7.247733e-06	
669	2.000000e-01	9.590656e-06	
670	2.500000e-01	1.190127e-05	
671	3.000000e-01	1.417988e-05	
672	3.500000e-01	1.642667e-05	
673	4.000000e-01	1.864179e-05	
674	4.500000e-01	2.082537e-05	
675	5.000000e-01	2.297755e-05	
676	5.500000e-01	2.509845e-05	
677	6.000000e-01	2.718822e-05	
678	6.500000e-01	2.924697e-05	
679	7.000000e-01	3.127485e-05	
680	7.500000e-01	3.327198e-05	
681	8.000000e-01	3.523849e-05	
682	8.500000e-01	3.717451e-05	
683	9.000000e-01	3.908016e-05	
684	9.500000e-01	4.095557e-05	
685	1.000000e+00	4.280087e-05	
686	1.050000e+00	4.461619e-05	
687	1.100000e+00	4.640164e-05	
688	1.150000e+00	4.815735e-05	
689	1.200000e+00	4.988344e-05	
690	1.250000e+00	5.158004e-05	
691	1.300000e+00	5.324726e-05	
692	1.350000e+00	5.488524e-05	

Index   v-sweep         -i(vds)         
--------------------------------------------------------------------------------
693	1.400000e+00	5.649408e-05	
694	1.450000e+00	5.807391e-05	
695	1.500000e+00	5.962485e-05	
696	1.550000e+00	6.114701e-05	
697	1.600000e+00	6.264052e-05	
698	1.650000e+00	6.410548e-05	
699	1.700000e+00	6.554203e-05	
700	1.750000e+00	6.695026e-05	
701	1.800000e+00	6.833030e-05	
702	1.850000e+00	6.968226e-05	
703	1.900000e+00	7.100625e-05	
704	1.950000e+00	7.230239e-05	
705	2.000000e+00	7.357079e-05	
706	2.050000e+00	7.481155e-05	
707	2.100000e+00	7.602480e-05	
708	2.150000e+00	7.721064e-05	
709	2.200000e+00	7.836918e-05	
710	2.250000e+00	7.950053e-05	
711	2.300000e+00	8.060479e-05	
712	2.350000e+00	8.168208e-05	
713	2.400000e+00	8.273250e-05	
714	2.450000e+00	8.375615e-05	
715	2.500000e+00	8.475314e-05	
716	2.550000e+00	8.572358e-05	
717	2.600000e+00	8.666756e-05	
718	2.650000e+00	8.758519e-05	
719	2.700000e+00	8.847657e-05	
720	2.750000e+00	8.934179e-05	
721	2.800000e+00	9.018096e-05	
722	2.850000e+00	9.099417e-05	
723	2.900000e+00	9.178152e-05	
724	2.950000e+00	9.254310e-05	
725	3.000000e+00	9.327900e-05	
726	3.050000e+00	9.398931e-05	
727	3.100000e+00	9.467412e-05	
728	3.150000e+00	9.533351e-05	
729	3.200000e+00	9.596755e-05	
730	3.250000e+00	9.657633e-05	
731	3.300000e+00	9.715991e-05	
732	3.350000e+00	9.771836e-05	
733	3.400000e+00	9.825174e-05	
734	3.450000e+00	9.876008e-05	
735	3.500000e+00	9.924343e-05	
736	3.550000e+00	9.970180e-05	
737	3.600000e+00	1.001352e-04	
738	3.650000e+00	1.005437e-04	
739	3.700000e+00	1.009271e-04	
740	3.750000e+00	1.012855e-04	
741	3.800000e+00	1.016188e-04	
742	3.850000e+00	1.019270e-04	
743	3.900000e+00	1.022100e-04	
744	3.950000e+00	1.024679e-04	
745	4.000000e+00	1.027008e-04	
746	4.050000e+00	1.029093e-04	
747	4.100000e+00	1.030939e-04	
748	4.150000e+00	1.032560e-04	
749	4.200000e+00	1.033971e-04	
750	4.250000e+00	1.035193e-04	

Index   v-sweep         -i(vds)         
--------------------------------------------------------------------------------
751	4.300000e+00	1.036247e-04	
752	4.350000e+00	1.037156e-04	
753	4.400000e+00	1.037944e-04	
754	4.450000e+00	1.038629e-04	
755	4.500000e+00	1.039229e-04	
756	4.550000e+00	1.039758e-04	
757	4.600000e+00	1.040228e-04	
758	4.650000e+00	1.040649e-04	
759	4.700000e+00	1.041030e-04	
760	4.750000e+00	1.041375e-04	
761	4.800000e+00	1.041691e-04	
762	4.850000e+00	1.041982e-04	
763	4.900000e+00	1.042251e-04	
764	4.950000e+00	1.042502e-04	
765	5.000000e+00	1.042736e-04	
766	5.050000e+00	1.042956e-04	
767	5.100000e+00	1.043163e-04	
768	5.150000e+00	1.043359e-04	
769	5.200000e+00	1.043544e-04	
770	5.250000e+00	1.043721e-04	
771	5.300000e+00	1.043890e-04	
772	5.350000e+00	1.044051e-04	
773	5.400000e+00	1.044206e-04	
774	5.450000e+00	1.044355e-04	
775	5.500000e+00	1.044498e-04	
776	5.550000e+00	1.044636e-04	
777	5.600000e+00	1.044769e-04	
778	5.650000e+00	1.044899e-04	
779	5.700000e+00	1.045024e-04	
780	5.750000e+00	1.045145e-04	
781	5.800000e+00	1.045263e-04	
782	5.850000e+00	1.045378e-04	
783	5.900000e+00	1.045490e-04	
784	5.950000e+00	1.045599e-04	
785	6.000000e+00	1.045706e-04	
786	6.050000e+00	1.045810e-04	
787	6.100000e+00	1.045912e-04	
788	6.150000e+00	1.046012e-04	
789	6.200000e+00	1.046110e-04	
790	6.250000e+00	1.046206e-04	
791	6.300000e+00	1.046300e-04	
792	6.350000e+00	1.046393e-04	
793	6.400000e+00	1.046485e-04	
794	6.450000e+00	1.046575e-04	
795	6.500000e+00	1.046665e-04	
796	6.550000e+00	1.046755e-04	
797	6.600000e+00	1.046844e-04	
Note: No ".plot", ".print", or ".fourier" lines; no simulations run
