
Note: Compatibility modes selected: hs

Warning: m=xx on .subckt line will override multiplier m hierarchy!


Circuit: ***************************

Doing analysis at TEMP = 125.000000 and TNOM = 125.000000


No. of Data Rows : 798
                          ***************************
                          DC transfer characteristic  Mon Jan  9 13:57:41  2023
--------------------------------------------------------------------------------
Index   v-sweep         -i(vds)         
--------------------------------------------------------------------------------
0	0.000000e+00	-0.000000e+00	
1	5.000000e-02	1.082764e-07	
2	1.000000e-01	1.988592e-07	
3	1.500000e-01	2.751878e-07	
4	2.000000e-01	3.382217e-07	
5	2.500000e-01	3.883448e-07	
6	3.000000e-01	4.259205e-07	
7	3.500000e-01	4.516403e-07	
8	4.000000e-01	4.670678e-07	
9	4.500000e-01	4.750842e-07	
10	5.000000e-01	4.790045e-07	
11	5.500000e-01	4.810663e-07	
12	6.000000e-01	4.823122e-07	
13	6.500000e-01	4.831707e-07	
14	7.000000e-01	4.838249e-07	
15	7.500000e-01	4.843599e-07	
16	8.000000e-01	4.848197e-07	
17	8.500000e-01	4.852288e-07	
18	9.000000e-01	4.856018e-07	
19	9.500000e-01	4.859480e-07	
20	1.000000e+00	4.862736e-07	
21	1.050000e+00	4.865831e-07	
22	1.100000e+00	4.868795e-07	
23	1.150000e+00	4.871652e-07	
24	1.200000e+00	4.874418e-07	
25	1.250000e+00	4.877107e-07	
26	1.300000e+00	4.879731e-07	
27	1.350000e+00	4.882297e-07	
28	1.400000e+00	4.884813e-07	
29	1.450000e+00	4.887285e-07	
30	1.500000e+00	4.889718e-07	
31	1.550000e+00	4.892115e-07	
32	1.600000e+00	4.894480e-07	
33	1.650000e+00	4.896816e-07	
34	1.700000e+00	4.899126e-07	
35	1.750000e+00	4.901412e-07	
36	1.800000e+00	4.903676e-07	
37	1.850000e+00	4.905920e-07	
38	1.900000e+00	4.908145e-07	
39	1.950000e+00	4.910352e-07	
40	2.000000e+00	4.912543e-07	
41	2.050000e+00	4.914719e-07	
42	2.100000e+00	4.916882e-07	
43	2.150000e+00	4.919031e-07	
44	2.200000e+00	4.921167e-07	
45	2.250000e+00	4.923292e-07	
46	2.300000e+00	4.925406e-07	
47	2.350000e+00	4.927510e-07	
48	2.400000e+00	4.929605e-07	
49	2.450000e+00	4.931691e-07	
50	2.500000e+00	4.933768e-07	
51	2.550000e+00	4.935838e-07	
52	2.600000e+00	4.937901e-07	
53	2.650000e+00	4.939958e-07	
54	2.700000e+00	4.942010e-07	

Index   v-sweep         -i(vds)         
--------------------------------------------------------------------------------
55	2.750000e+00	4.944058e-07	
56	2.800000e+00	4.946103e-07	
57	2.850000e+00	4.948147e-07	
58	2.900000e+00	4.950191e-07	
59	2.950000e+00	4.952237e-07	
60	3.000000e+00	4.954287e-07	
61	3.050000e+00	4.956345e-07	
62	3.100000e+00	4.958414e-07	
63	3.150000e+00	4.960496e-07	
64	3.200000e+00	4.962597e-07	
65	3.250000e+00	4.964721e-07	
66	3.300000e+00	4.966874e-07	
67	3.350000e+00	4.969062e-07	
68	3.400000e+00	4.971293e-07	
69	3.450000e+00	4.973575e-07	
70	3.500000e+00	4.975917e-07	
71	3.550000e+00	4.978329e-07	
72	3.600000e+00	4.980822e-07	
73	3.650000e+00	4.983409e-07	
74	3.700000e+00	4.986105e-07	
75	3.750000e+00	4.988924e-07	
76	3.800000e+00	4.991882e-07	
77	3.850000e+00	4.994998e-07	
78	3.900000e+00	4.998292e-07	
79	3.950000e+00	5.001784e-07	
80	4.000000e+00	5.005498e-07	
81	4.050000e+00	5.009457e-07	
82	4.100000e+00	5.013688e-07	
83	4.150000e+00	5.018218e-07	
84	4.200000e+00	5.023078e-07	
85	4.250000e+00	5.028298e-07	
86	4.300000e+00	5.033913e-07	
87	4.350000e+00	5.039956e-07	
88	4.400000e+00	5.046466e-07	
89	4.450000e+00	5.053481e-07	
90	4.500000e+00	5.061041e-07	
91	4.550000e+00	5.069190e-07	
92	4.600000e+00	5.077971e-07	
93	4.650000e+00	5.087432e-07	
94	4.700000e+00	5.097621e-07	
95	4.750000e+00	5.108587e-07	
96	4.800000e+00	5.120382e-07	
97	4.850000e+00	5.133061e-07	
98	4.900000e+00	5.146680e-07	
99	4.950000e+00	5.161294e-07	
100	5.000000e+00	5.176964e-07	
101	5.050000e+00	5.193750e-07	
102	5.100000e+00	5.211715e-07	
103	5.150000e+00	5.230922e-07	
104	5.200000e+00	5.251437e-07	
105	5.250000e+00	5.273329e-07	
106	5.300000e+00	5.296664e-07	
107	5.350000e+00	5.321513e-07	
108	5.400000e+00	5.347949e-07	
109	5.450000e+00	5.376043e-07	
110	5.500000e+00	5.405870e-07	
111	5.550000e+00	5.437505e-07	
112	5.600000e+00	5.471025e-07	

Index   v-sweep         -i(vds)         
--------------------------------------------------------------------------------
113	5.650000e+00	5.506508e-07	
114	5.700000e+00	5.544033e-07	
115	5.750000e+00	5.583679e-07	
116	5.800000e+00	5.625527e-07	
117	5.850000e+00	5.669660e-07	
118	5.900000e+00	5.716159e-07	
119	5.950000e+00	5.765108e-07	
120	6.000000e+00	5.816592e-07	
121	6.050000e+00	5.870696e-07	
122	6.100000e+00	5.927505e-07	
123	6.150000e+00	5.987104e-07	
124	6.200000e+00	6.049582e-07	
125	6.250000e+00	6.115025e-07	
126	6.300000e+00	6.183521e-07	
127	6.350000e+00	6.255158e-07	
128	6.400000e+00	6.330024e-07	
129	6.450000e+00	6.408208e-07	
130	6.500000e+00	6.489799e-07	
131	6.550000e+00	6.574886e-07	
132	6.600000e+00	6.663558e-07	
133	0.000000e+00	-0.000000e+00	
134	5.000000e-02	3.060699e-07	
135	1.000000e-01	5.938339e-07	
136	1.500000e-01	8.667154e-07	
137	2.000000e-01	1.125636e-06	
138	2.500000e-01	1.370888e-06	
139	3.000000e-01	1.602606e-06	
140	3.500000e-01	1.820887e-06	
141	4.000000e-01	2.025813e-06	
142	4.500000e-01	2.217467e-06	
143	5.000000e-01	2.395931e-06	
144	5.500000e-01	2.561286e-06	
145	6.000000e-01	2.713615e-06	
146	6.500000e-01	2.853000e-06	
147	7.000000e-01	2.979530e-06	
148	7.500000e-01	3.093296e-06	
149	8.000000e-01	3.194402e-06	
150	8.500000e-01	3.282967e-06	
151	9.000000e-01	3.359148e-06	
152	9.500000e-01	3.423169e-06	
153	1.000000e+00	3.475385e-06	
154	1.050000e+00	3.516395e-06	
155	1.100000e+00	3.547207e-06	
156	1.150000e+00	3.569356e-06	
157	1.200000e+00	3.584796e-06	
158	1.250000e+00	3.595506e-06	
159	1.300000e+00	3.603097e-06	
160	1.350000e+00	3.608688e-06	
161	1.400000e+00	3.612986e-06	
162	1.450000e+00	3.616426e-06	
163	1.500000e+00	3.619276e-06	
164	1.550000e+00	3.621708e-06	
165	1.600000e+00	3.623833e-06	
166	1.650000e+00	3.625724e-06	
167	1.700000e+00	3.627435e-06	
168	1.750000e+00	3.629002e-06	
169	1.800000e+00	3.630453e-06	
170	1.850000e+00	3.631808e-06	

Index   v-sweep         -i(vds)         
--------------------------------------------------------------------------------
171	1.900000e+00	3.633084e-06	
172	1.950000e+00	3.634292e-06	
173	2.000000e+00	3.635442e-06	
174	2.050000e+00	3.636542e-06	
175	2.100000e+00	3.637599e-06	
176	2.150000e+00	3.638617e-06	
177	2.200000e+00	3.639601e-06	
178	2.250000e+00	3.640555e-06	
179	2.300000e+00	3.641482e-06	
180	2.350000e+00	3.642384e-06	
181	2.400000e+00	3.643264e-06	
182	2.450000e+00	3.644124e-06	
183	2.500000e+00	3.644965e-06	
184	2.550000e+00	3.645790e-06	
185	2.600000e+00	3.646599e-06	
186	2.650000e+00	3.647393e-06	
187	2.700000e+00	3.648175e-06	
188	2.750000e+00	3.648944e-06	
189	2.800000e+00	3.649701e-06	
190	2.850000e+00	3.650448e-06	
191	2.900000e+00	3.651185e-06	
192	2.950000e+00	3.651912e-06	
193	3.000000e+00	3.652631e-06	
194	3.050000e+00	3.653342e-06	
195	3.100000e+00	3.654044e-06	
196	3.150000e+00	3.654740e-06	
197	3.200000e+00	3.655429e-06	
198	3.250000e+00	3.656112e-06	
199	3.300000e+00	3.656790e-06	
200	3.350000e+00	3.657462e-06	
201	3.400000e+00	3.658130e-06	
202	3.450000e+00	3.658795e-06	
203	3.500000e+00	3.659457e-06	
204	3.550000e+00	3.660117e-06	
205	3.600000e+00	3.660776e-06	
206	3.650000e+00	3.661437e-06	
207	3.700000e+00	3.662100e-06	
208	3.750000e+00	3.662767e-06	
209	3.800000e+00	3.663441e-06	
210	3.850000e+00	3.664123e-06	
211	3.900000e+00	3.664818e-06	
212	3.950000e+00	3.665528e-06	
213	4.000000e+00	3.666258e-06	
214	4.050000e+00	3.667012e-06	
215	4.100000e+00	3.667794e-06	
216	4.150000e+00	3.668612e-06	
217	4.200000e+00	3.669470e-06	
218	4.250000e+00	3.670377e-06	
219	4.300000e+00	3.671341e-06	
220	4.350000e+00	3.672369e-06	
221	4.400000e+00	3.673473e-06	
222	4.450000e+00	3.674663e-06	
223	4.500000e+00	3.675951e-06	
224	4.550000e+00	3.677349e-06	
225	4.600000e+00	3.678871e-06	
226	4.650000e+00	3.680534e-06	
227	4.700000e+00	3.682352e-06	
228	4.750000e+00	3.684343e-06	

Index   v-sweep         -i(vds)         
--------------------------------------------------------------------------------
229	4.800000e+00	3.686527e-06	
230	4.850000e+00	3.688922e-06	
231	4.900000e+00	3.691551e-06	
232	4.950000e+00	3.694435e-06	
233	5.000000e+00	3.697599e-06	
234	5.050000e+00	3.701068e-06	
235	5.100000e+00	3.704868e-06	
236	5.150000e+00	3.709029e-06	
237	5.200000e+00	3.713577e-06	
238	5.250000e+00	3.718546e-06	
239	5.300000e+00	3.723966e-06	
240	5.350000e+00	3.729872e-06	
241	5.400000e+00	3.736297e-06	
242	5.450000e+00	3.743279e-06	
243	5.500000e+00	3.750854e-06	
244	5.550000e+00	3.759062e-06	
245	5.600000e+00	3.767943e-06	
246	5.650000e+00	3.777537e-06	
247	5.700000e+00	3.787889e-06	
248	5.750000e+00	3.799041e-06	
249	5.800000e+00	3.811040e-06	
250	5.850000e+00	3.823930e-06	
251	5.900000e+00	3.837760e-06	
252	5.950000e+00	3.852579e-06	
253	6.000000e+00	3.868435e-06	
254	6.050000e+00	3.885380e-06	
255	6.100000e+00	3.903466e-06	
256	6.150000e+00	3.922744e-06	
257	6.200000e+00	3.943269e-06	
258	6.250000e+00	3.965096e-06	
259	6.300000e+00	3.988278e-06	
260	6.350000e+00	4.012874e-06	
261	6.400000e+00	4.038939e-06	
262	6.450000e+00	4.066532e-06	
263	6.500000e+00	4.095711e-06	
264	6.550000e+00	4.126534e-06	
265	6.600000e+00	4.159062e-06	
266	0.000000e+00	-0.000000e+00	
267	5.000000e-02	4.717924e-07	
268	1.000000e-01	9.258038e-07	
269	1.500000e-01	1.365452e-06	
270	2.000000e-01	1.791651e-06	
271	2.500000e-01	2.204688e-06	
272	3.000000e-01	2.604692e-06	
273	3.500000e-01	2.991751e-06	
274	4.000000e-01	3.365943e-06	
275	4.500000e-01	3.727342e-06	
276	5.000000e-01	4.076022e-06	
277	5.500000e-01	4.412057e-06	
278	6.000000e-01	4.735518e-06	
279	6.500000e-01	5.046477e-06	
280	7.000000e-01	5.345006e-06	
281	7.500000e-01	5.631174e-06	
282	8.000000e-01	5.905052e-06	
283	8.500000e-01	6.166710e-06	
284	9.000000e-01	6.416217e-06	
285	9.500000e-01	6.653641e-06	
286	1.000000e+00	6.879049e-06	

Index   v-sweep         -i(vds)         
--------------------------------------------------------------------------------
287	1.050000e+00	7.092510e-06	
288	1.100000e+00	7.294091e-06	
289	1.150000e+00	7.483857e-06	
290	1.200000e+00	7.661875e-06	
291	1.250000e+00	7.828212e-06	
292	1.300000e+00	7.982933e-06	
293	1.350000e+00	8.126104e-06	
294	1.400000e+00	8.257793e-06	
295	1.450000e+00	8.378072e-06	
296	1.500000e+00	8.487016e-06	
297	1.550000e+00	8.584715e-06	
298	1.600000e+00	8.671277e-06	
299	1.650000e+00	8.746856e-06	
300	1.700000e+00	8.811680e-06	
301	1.750000e+00	8.866116e-06	
302	1.800000e+00	8.910747e-06	
303	1.850000e+00	8.946455e-06	
304	1.900000e+00	8.974437e-06	
305	1.950000e+00	8.996098e-06	
306	2.000000e+00	9.012857e-06	
307	2.050000e+00	9.025959e-06	
308	2.100000e+00	9.036387e-06	
309	2.150000e+00	9.044867e-06	
310	2.200000e+00	9.051916e-06	
311	2.250000e+00	9.057899e-06	
312	2.300000e+00	9.063072e-06	
313	2.350000e+00	9.067618e-06	
314	2.400000e+00	9.071671e-06	
315	2.450000e+00	9.075328e-06	
316	2.500000e+00	9.078663e-06	
317	2.550000e+00	9.081732e-06	
318	2.600000e+00	9.084579e-06	
319	2.650000e+00	9.087237e-06	
320	2.700000e+00	9.089735e-06	
321	2.750000e+00	9.092094e-06	
322	2.800000e+00	9.094332e-06	
323	2.850000e+00	9.096464e-06	
324	2.900000e+00	9.098502e-06	
325	2.950000e+00	9.100457e-06	
326	3.000000e+00	9.102338e-06	
327	3.050000e+00	9.104152e-06	
328	3.100000e+00	9.105906e-06	
329	3.150000e+00	9.107605e-06	
330	3.200000e+00	9.109254e-06	
331	3.250000e+00	9.110858e-06	
332	3.300000e+00	9.112420e-06	
333	3.350000e+00	9.113944e-06	
334	3.400000e+00	9.115432e-06	
335	3.450000e+00	9.116887e-06	
336	3.500000e+00	9.118311e-06	
337	3.550000e+00	9.119708e-06	
338	3.600000e+00	9.121078e-06	
339	3.650000e+00	9.122423e-06	
340	3.700000e+00	9.123745e-06	
341	3.750000e+00	9.125046e-06	
342	3.800000e+00	9.126326e-06	
343	3.850000e+00	9.127588e-06	
344	3.900000e+00	9.128832e-06	

Index   v-sweep         -i(vds)         
--------------------------------------------------------------------------------
345	3.950000e+00	9.130060e-06	
346	4.000000e+00	9.131273e-06	
347	4.050000e+00	9.132473e-06	
348	4.100000e+00	9.133661e-06	
349	4.150000e+00	9.134840e-06	
350	4.200000e+00	9.136010e-06	
351	4.250000e+00	9.137175e-06	
352	4.300000e+00	9.138337e-06	
353	4.350000e+00	9.139499e-06	
354	4.400000e+00	9.140665e-06	
355	4.450000e+00	9.141840e-06	
356	4.500000e+00	9.143028e-06	
357	4.550000e+00	9.144236e-06	
358	4.600000e+00	9.145470e-06	
359	4.650000e+00	9.146738e-06	
360	4.700000e+00	9.148050e-06	
361	4.750000e+00	9.149416e-06	
362	4.800000e+00	9.150848e-06	
363	4.850000e+00	9.152359e-06	
364	4.900000e+00	9.153965e-06	
365	4.950000e+00	9.155683e-06	
366	5.000000e+00	9.157531e-06	
367	5.050000e+00	9.159532e-06	
368	5.100000e+00	9.161708e-06	
369	5.150000e+00	9.164084e-06	
370	5.200000e+00	9.166690e-06	
371	5.250000e+00	9.169555e-06	
372	5.300000e+00	9.172714e-06	
373	5.350000e+00	9.176201e-06	
374	5.400000e+00	9.180057e-06	
375	5.450000e+00	9.184323e-06	
376	5.500000e+00	9.189045e-06	
377	5.550000e+00	9.194269e-06	
378	5.600000e+00	9.200049e-06	
379	5.650000e+00	9.206437e-06	
380	5.700000e+00	9.213493e-06	
381	5.750000e+00	9.221277e-06	
382	5.800000e+00	9.229854e-06	
383	5.850000e+00	9.239292e-06	
384	5.900000e+00	9.249662e-06	
385	5.950000e+00	9.261039e-06	
386	6.000000e+00	9.273501e-06	
387	6.050000e+00	9.287130e-06	
388	6.100000e+00	9.302010e-06	
389	6.150000e+00	9.318230e-06	
390	6.200000e+00	9.335881e-06	
391	6.250000e+00	9.355060e-06	
392	6.300000e+00	9.375863e-06	
393	6.350000e+00	9.398392e-06	
394	6.400000e+00	9.422752e-06	
395	6.450000e+00	9.449050e-06	
396	6.500000e+00	9.477397e-06	
397	6.550000e+00	9.507908e-06	
398	6.600000e+00	9.540697e-06	
399	0.000000e+00	-0.000000e+00	
400	5.000000e-02	6.047083e-07	
401	1.000000e-01	1.192503e-06	
402	1.500000e-01	1.766793e-06	

Index   v-sweep         -i(vds)         
--------------------------------------------------------------------------------
403	2.000000e-01	2.328482e-06	
404	2.500000e-01	2.877849e-06	
405	3.000000e-01	3.415012e-06	
406	3.500000e-01	3.940051e-06	
407	4.000000e-01	4.453034e-06	
408	4.500000e-01	4.954027e-06	
409	5.000000e-01	5.443094e-06	
410	5.500000e-01	5.920301e-06	
411	6.000000e-01	6.385709e-06	
412	6.500000e-01	6.839384e-06	
413	7.000000e-01	7.281386e-06	
414	7.500000e-01	7.711778e-06	
415	8.000000e-01	8.130622e-06	
416	8.500000e-01	8.537979e-06	
417	9.000000e-01	8.933910e-06	
418	9.500000e-01	9.318476e-06	
419	1.000000e+00	9.691735e-06	
420	1.050000e+00	1.005375e-05	
421	1.100000e+00	1.040457e-05	
422	1.150000e+00	1.074427e-05	
423	1.200000e+00	1.107290e-05	
424	1.250000e+00	1.139051e-05	
425	1.300000e+00	1.169716e-05	
426	1.350000e+00	1.199292e-05	
427	1.400000e+00	1.227783e-05	
428	1.450000e+00	1.255196e-05	
429	1.500000e+00	1.281535e-05	
430	1.550000e+00	1.306806e-05	
431	1.600000e+00	1.331015e-05	
432	1.650000e+00	1.354166e-05	
433	1.700000e+00	1.376266e-05	
434	1.750000e+00	1.397318e-05	
435	1.800000e+00	1.417329e-05	
436	1.850000e+00	1.436303e-05	
437	1.900000e+00	1.454246e-05	
438	1.950000e+00	1.471161e-05	
439	2.000000e+00	1.487053e-05	
440	2.050000e+00	1.501926e-05	
441	2.100000e+00	1.515786e-05	
442	2.150000e+00	1.528635e-05	
443	2.200000e+00	1.540478e-05	
444	2.250000e+00	1.551320e-05	
445	2.300000e+00	1.561164e-05	
446	2.350000e+00	1.570017e-05	
447	2.400000e+00	1.577888e-05	
448	2.450000e+00	1.584794e-05	
449	2.500000e+00	1.590762e-05	
450	2.550000e+00	1.595834e-05	
451	2.600000e+00	1.600076e-05	
452	2.650000e+00	1.603576e-05	
453	2.700000e+00	1.606439e-05	
454	2.750000e+00	1.608776e-05	
455	2.800000e+00	1.610692e-05	
456	2.850000e+00	1.612277e-05	
457	2.900000e+00	1.613604e-05	
458	2.950000e+00	1.614731e-05	
459	3.000000e+00	1.615702e-05	
460	3.050000e+00	1.616549e-05	

Index   v-sweep         -i(vds)         
--------------------------------------------------------------------------------
461	3.100000e+00	1.617297e-05	
462	3.150000e+00	1.617966e-05	
463	3.200000e+00	1.618570e-05	
464	3.250000e+00	1.619120e-05	
465	3.300000e+00	1.619624e-05	
466	3.350000e+00	1.620091e-05	
467	3.400000e+00	1.620525e-05	
468	3.450000e+00	1.620931e-05	
469	3.500000e+00	1.621313e-05	
470	3.550000e+00	1.621673e-05	
471	3.600000e+00	1.622015e-05	
472	3.650000e+00	1.622340e-05	
473	3.700000e+00	1.622651e-05	
474	3.750000e+00	1.622948e-05	
475	3.800000e+00	1.623233e-05	
476	3.850000e+00	1.623508e-05	
477	3.900000e+00	1.623773e-05	
478	3.950000e+00	1.624029e-05	
479	4.000000e+00	1.624277e-05	
480	4.050000e+00	1.624517e-05	
481	4.100000e+00	1.624751e-05	
482	4.150000e+00	1.624978e-05	
483	4.200000e+00	1.625200e-05	
484	4.250000e+00	1.625416e-05	
485	4.300000e+00	1.625626e-05	
486	4.350000e+00	1.625833e-05	
487	4.400000e+00	1.626034e-05	
488	4.450000e+00	1.626232e-05	
489	4.500000e+00	1.626426e-05	
490	4.550000e+00	1.626616e-05	
491	4.600000e+00	1.626803e-05	
492	4.650000e+00	1.626987e-05	
493	4.700000e+00	1.627168e-05	
494	4.750000e+00	1.627346e-05	
495	4.800000e+00	1.627522e-05	
496	4.850000e+00	1.627696e-05	
497	4.900000e+00	1.627868e-05	
498	4.950000e+00	1.628039e-05	
499	5.000000e+00	1.628209e-05	
500	5.050000e+00	1.628379e-05	
501	5.100000e+00	1.628549e-05	
502	5.150000e+00	1.628720e-05	
503	5.200000e+00	1.628892e-05	
504	5.250000e+00	1.629067e-05	
505	5.300000e+00	1.629246e-05	
506	5.350000e+00	1.629429e-05	
507	5.400000e+00	1.629619e-05	
508	5.450000e+00	1.629817e-05	
509	5.500000e+00	1.630026e-05	
510	5.550000e+00	1.630246e-05	
511	5.600000e+00	1.630481e-05	
512	5.650000e+00	1.630734e-05	
513	5.700000e+00	1.631007e-05	
514	5.750000e+00	1.631304e-05	
515	5.800000e+00	1.631629e-05	
516	5.850000e+00	1.631986e-05	
517	5.900000e+00	1.632380e-05	
518	5.950000e+00	1.632816e-05	

Index   v-sweep         -i(vds)         
--------------------------------------------------------------------------------
519	6.000000e+00	1.633299e-05	
520	6.050000e+00	1.633835e-05	
521	6.100000e+00	1.634431e-05	
522	6.150000e+00	1.635095e-05	
523	6.200000e+00	1.635833e-05	
524	6.250000e+00	1.636653e-05	
525	6.300000e+00	1.637565e-05	
526	6.350000e+00	1.638578e-05	
527	6.400000e+00	1.639701e-05	
528	6.450000e+00	1.640945e-05	
529	6.500000e+00	1.642320e-05	
530	6.550000e+00	1.643839e-05	
531	6.600000e+00	1.645514e-05	
532	0.000000e+00	-0.000000e+00	
533	5.000000e-02	7.068165e-07	
534	1.000000e-01	1.397754e-06	
535	1.500000e-01	2.076210e-06	
536	2.000000e-01	2.743080e-06	
537	2.500000e-01	3.398630e-06	
538	3.000000e-01	4.042970e-06	
539	3.500000e-01	4.676168e-06	
540	4.000000e-01	5.298283e-06	
541	4.500000e-01	5.909371e-06	
542	5.000000e-01	6.509487e-06	
543	5.500000e-01	7.098686e-06	
544	6.000000e-01	7.677021e-06	
545	6.500000e-01	8.244546e-06	
546	7.000000e-01	8.801314e-06	
547	7.500000e-01	9.347379e-06	
548	8.000000e-01	9.882792e-06	
549	8.500000e-01	1.040761e-05	
550	9.000000e-01	1.092187e-05	
551	9.500000e-01	1.142564e-05	
552	1.000000e+00	1.191897e-05	
553	1.050000e+00	1.240190e-05	
554	1.100000e+00	1.287449e-05	
555	1.150000e+00	1.333679e-05	
556	1.200000e+00	1.378884e-05	
557	1.250000e+00	1.423070e-05	
558	1.300000e+00	1.466241e-05	
559	1.350000e+00	1.508403e-05	
560	1.400000e+00	1.549560e-05	
561	1.450000e+00	1.589717e-05	
562	1.500000e+00	1.628879e-05	
563	1.550000e+00	1.667050e-05	
564	1.600000e+00	1.704236e-05	
565	1.650000e+00	1.740441e-05	
566	1.700000e+00	1.775669e-05	
567	1.750000e+00	1.809925e-05	
568	1.800000e+00	1.843214e-05	
569	1.850000e+00	1.875541e-05	
570	1.900000e+00	1.906909e-05	
571	1.950000e+00	1.937323e-05	
572	2.000000e+00	1.966788e-05	
573	2.050000e+00	1.995307e-05	
574	2.100000e+00	2.022886e-05	
575	2.150000e+00	2.049529e-05	
576	2.200000e+00	2.075239e-05	

Index   v-sweep         -i(vds)         
--------------------------------------------------------------------------------
577	2.250000e+00	2.100020e-05	
578	2.300000e+00	2.123878e-05	
579	2.350000e+00	2.146815e-05	
580	2.400000e+00	2.168836e-05	
581	2.450000e+00	2.189945e-05	
582	2.500000e+00	2.210144e-05	
583	2.550000e+00	2.229438e-05	
584	2.600000e+00	2.247829e-05	
585	2.650000e+00	2.265322e-05	
586	2.700000e+00	2.281918e-05	
587	2.750000e+00	2.297621e-05	
588	2.800000e+00	2.312432e-05	
589	2.850000e+00	2.326352e-05	
590	2.900000e+00	2.339385e-05	
591	2.950000e+00	2.351529e-05	
592	3.000000e+00	2.362786e-05	
593	3.050000e+00	2.373155e-05	
594	3.100000e+00	2.382637e-05	
595	3.150000e+00	2.391235e-05	
596	3.200000e+00	2.398953e-05	
597	3.250000e+00	2.405805e-05	
598	3.300000e+00	2.411814e-05	
599	3.350000e+00	2.417019e-05	
600	3.400000e+00	2.421476e-05	
601	3.450000e+00	2.425259e-05	
602	3.500000e+00	2.428455e-05	
603	3.550000e+00	2.431151e-05	
604	3.600000e+00	2.433434e-05	
605	3.650000e+00	2.435379e-05	
606	3.700000e+00	2.437051e-05	
607	3.750000e+00	2.438501e-05	
608	3.800000e+00	2.439772e-05	
609	3.850000e+00	2.440896e-05	
610	3.900000e+00	2.441900e-05	
611	3.950000e+00	2.442805e-05	
612	4.000000e+00	2.443627e-05	
613	4.050000e+00	2.444379e-05	
614	4.100000e+00	2.445072e-05	
615	4.150000e+00	2.445713e-05	
616	4.200000e+00	2.446311e-05	
617	4.250000e+00	2.446870e-05	
618	4.300000e+00	2.447396e-05	
619	4.350000e+00	2.447892e-05	
620	4.400000e+00	2.448363e-05	
621	4.450000e+00	2.448810e-05	
622	4.500000e+00	2.449236e-05	
623	4.550000e+00	2.449643e-05	
624	4.600000e+00	2.450034e-05	
625	4.650000e+00	2.450409e-05	
626	4.700000e+00	2.450771e-05	
627	4.750000e+00	2.451119e-05	
628	4.800000e+00	2.451456e-05	
629	4.850000e+00	2.451782e-05	
630	4.900000e+00	2.452098e-05	
631	4.950000e+00	2.452405e-05	
632	5.000000e+00	2.452703e-05	
633	5.050000e+00	2.452994e-05	
634	5.100000e+00	2.453277e-05	

Index   v-sweep         -i(vds)         
--------------------------------------------------------------------------------
635	5.150000e+00	2.453554e-05	
636	5.200000e+00	2.453824e-05	
637	5.250000e+00	2.454088e-05	
638	5.300000e+00	2.454346e-05	
639	5.350000e+00	2.454599e-05	
640	5.400000e+00	2.454848e-05	
641	5.450000e+00	2.455092e-05	
642	5.500000e+00	2.455331e-05	
643	5.550000e+00	2.455568e-05	
644	5.600000e+00	2.455800e-05	
645	5.650000e+00	2.456031e-05	
646	5.700000e+00	2.456259e-05	
647	5.750000e+00	2.456485e-05	
648	5.800000e+00	2.456710e-05	
649	5.850000e+00	2.456936e-05	
650	5.900000e+00	2.457162e-05	
651	5.950000e+00	2.457390e-05	
652	6.000000e+00	2.457622e-05	
653	6.050000e+00	2.457859e-05	
654	6.100000e+00	2.458102e-05	
655	6.150000e+00	2.458354e-05	
656	6.200000e+00	2.458618e-05	
657	6.250000e+00	2.458896e-05	
658	6.300000e+00	2.459191e-05	
659	6.350000e+00	2.459507e-05	
660	6.400000e+00	2.459847e-05	
661	6.450000e+00	2.460217e-05	
662	6.500000e+00	2.460621e-05	
663	6.550000e+00	2.461065e-05	
664	6.600000e+00	2.461555e-05	
665	0.000000e+00	-0.000000e+00	
666	5.000000e-02	7.819631e-07	
667	1.000000e-01	1.549141e-06	
668	1.500000e-01	2.304922e-06	
669	2.000000e-01	3.050191e-06	
670	2.500000e-01	3.785205e-06	
671	3.000000e-01	4.510062e-06	
672	3.500000e-01	5.224823e-06	
673	4.000000e-01	5.929537e-06	
674	4.500000e-01	6.624250e-06	
675	5.000000e-01	7.309007e-06	
676	5.500000e-01	7.983854e-06	
677	6.000000e-01	8.648836e-06	
678	6.500000e-01	9.303996e-06	
679	7.000000e-01	9.949380e-06	
680	7.500000e-01	1.058503e-05	
681	8.000000e-01	1.121099e-05	
682	8.500000e-01	1.182731e-05	
683	9.000000e-01	1.243402e-05	
684	9.500000e-01	1.303118e-05	
685	1.000000e+00	1.361882e-05	
686	1.050000e+00	1.419698e-05	
687	1.100000e+00	1.476571e-05	
688	1.150000e+00	1.532505e-05	
689	1.200000e+00	1.587504e-05	
690	1.250000e+00	1.641573e-05	
691	1.300000e+00	1.694715e-05	
692	1.350000e+00	1.746934e-05	

Index   v-sweep         -i(vds)         
--------------------------------------------------------------------------------
693	1.400000e+00	1.798235e-05	
694	1.450000e+00	1.848621e-05	
695	1.500000e+00	1.898097e-05	
696	1.550000e+00	1.946667e-05	
697	1.600000e+00	1.994334e-05	
698	1.650000e+00	2.041102e-05	
699	1.700000e+00	2.086976e-05	
700	1.750000e+00	2.131959e-05	
701	1.800000e+00	2.176056e-05	
702	1.850000e+00	2.219269e-05	
703	1.900000e+00	2.261603e-05	
704	1.950000e+00	2.303062e-05	
705	2.000000e+00	2.343649e-05	
706	2.050000e+00	2.383369e-05	
707	2.100000e+00	2.422224e-05	
708	2.150000e+00	2.460219e-05	
709	2.200000e+00	2.497357e-05	
710	2.250000e+00	2.533641e-05	
711	2.300000e+00	2.569077e-05	
712	2.350000e+00	2.603666e-05	
713	2.400000e+00	2.637413e-05	
714	2.450000e+00	2.670321e-05	
715	2.500000e+00	2.702393e-05	
716	2.550000e+00	2.733634e-05	
717	2.600000e+00	2.764046e-05	
718	2.650000e+00	2.793633e-05	
719	2.700000e+00	2.822399e-05	
720	2.750000e+00	2.850346e-05	
721	2.800000e+00	2.877478e-05	
722	2.850000e+00	2.903797e-05	
723	2.900000e+00	2.929309e-05	
724	2.950000e+00	2.954014e-05	
725	3.000000e+00	2.977917e-05	
726	3.050000e+00	3.001020e-05	
727	3.100000e+00	3.023326e-05	
728	3.150000e+00	3.044838e-05	
729	3.200000e+00	3.065559e-05	
730	3.250000e+00	3.085490e-05	
731	3.300000e+00	3.104635e-05	
732	3.350000e+00	3.122995e-05	
733	3.400000e+00	3.140572e-05	
734	3.450000e+00	3.157368e-05	
735	3.500000e+00	3.173384e-05	
736	3.550000e+00	3.188620e-05	
737	3.600000e+00	3.203076e-05	
738	3.650000e+00	3.216753e-05	
739	3.700000e+00	3.229648e-05	
740	3.750000e+00	3.241759e-05	
741	3.800000e+00	3.253085e-05	
742	3.850000e+00	3.263621e-05	
743	3.900000e+00	3.273364e-05	
744	3.950000e+00	3.282311e-05	
745	4.000000e+00	3.290462e-05	
746	4.050000e+00	3.297821e-05	
747	4.100000e+00	3.304401e-05	
748	4.150000e+00	3.310226e-05	
749	4.200000e+00	3.315335e-05	
750	4.250000e+00	3.319780e-05	

Index   v-sweep         -i(vds)         
--------------------------------------------------------------------------------
751	4.300000e+00	3.323628e-05	
752	4.350000e+00	3.326949e-05	
753	4.400000e+00	3.329818e-05	
754	4.450000e+00	3.332304e-05	
755	4.500000e+00	3.334470e-05	
756	4.550000e+00	3.336368e-05	
757	4.600000e+00	3.338044e-05	
758	4.650000e+00	3.339536e-05	
759	4.700000e+00	3.340873e-05	
760	4.750000e+00	3.342081e-05	
761	4.800000e+00	3.343179e-05	
762	4.850000e+00	3.344183e-05	
763	4.900000e+00	3.345108e-05	
764	4.950000e+00	3.345964e-05	
765	5.000000e+00	3.346761e-05	
766	5.050000e+00	3.347505e-05	
767	5.100000e+00	3.348203e-05	
768	5.150000e+00	3.348861e-05	
769	5.200000e+00	3.349483e-05	
770	5.250000e+00	3.350073e-05	
771	5.300000e+00	3.350635e-05	
772	5.350000e+00	3.351170e-05	
773	5.400000e+00	3.351682e-05	
774	5.450000e+00	3.352173e-05	
775	5.500000e+00	3.352644e-05	
776	5.550000e+00	3.353098e-05	
777	5.600000e+00	3.353535e-05	
778	5.650000e+00	3.353958e-05	
779	5.700000e+00	3.354366e-05	
780	5.750000e+00	3.354763e-05	
781	5.800000e+00	3.355147e-05	
782	5.850000e+00	3.355520e-05	
783	5.900000e+00	3.355883e-05	
784	5.950000e+00	3.356237e-05	
785	6.000000e+00	3.356582e-05	
786	6.050000e+00	3.356918e-05	
787	6.100000e+00	3.357247e-05	
788	6.150000e+00	3.357569e-05	
789	6.200000e+00	3.357884e-05	
790	6.250000e+00	3.358192e-05	
791	6.300000e+00	3.358496e-05	
792	6.350000e+00	3.358794e-05	
793	6.400000e+00	3.359087e-05	
794	6.450000e+00	3.359376e-05	
795	6.500000e+00	3.359663e-05	
796	6.550000e+00	3.359947e-05	
797	6.600000e+00	3.360229e-05	
Note: No ".plot", ".print", or ".fourier" lines; no simulations run
