
Note: Compatibility modes selected: hs

Warning: m=xx on .subckt line will override multiplier m hierarchy!


Circuit: ***************************

Doing analysis at TEMP = -40.000000 and TNOM = -40.000000


No. of Data Rows : 798
                          ***************************
                          DC transfer characteristic  Mon Jan  9 13:57:41  2023
--------------------------------------------------------------------------------
Index   v-sweep         -i(vds)         
--------------------------------------------------------------------------------
0	0.000000e+00	-0.000000e+00	
1	5.000000e-02	2.898093e-06	
2	1.000000e-01	4.720974e-06	
3	1.500000e-01	5.673806e-06	
4	2.000000e-01	6.155167e-06	
5	2.500000e-01	6.470401e-06	
6	3.000000e-01	6.721027e-06	
7	3.500000e-01	6.937345e-06	
8	4.000000e-01	7.131758e-06	
9	4.500000e-01	7.310763e-06	
10	5.000000e-01	7.478291e-06	
11	5.500000e-01	7.636929e-06	
12	6.000000e-01	7.788481e-06	
13	6.500000e-01	7.934261e-06	
14	7.000000e-01	8.075255e-06	
15	7.500000e-01	8.212223e-06	
16	8.000000e-01	8.345761e-06	
17	8.500000e-01	8.476348e-06	
18	9.000000e-01	8.604373e-06	
19	9.500000e-01	8.730156e-06	
20	1.000000e+00	8.853963e-06	
21	1.050000e+00	8.976019e-06	
22	1.100000e+00	9.096513e-06	
23	1.150000e+00	9.215608e-06	
24	1.200000e+00	9.333445e-06	
25	1.250000e+00	9.450145e-06	
26	1.300000e+00	9.565815e-06	
27	1.350000e+00	9.680547e-06	
28	1.400000e+00	9.794423e-06	
29	1.450000e+00	9.907516e-06	
30	1.500000e+00	1.001989e-05	
31	1.550000e+00	1.013161e-05	
32	1.600000e+00	1.024271e-05	
33	1.650000e+00	1.035326e-05	
34	1.700000e+00	1.046328e-05	
35	1.750000e+00	1.057282e-05	
36	1.800000e+00	1.068192e-05	
37	1.850000e+00	1.079060e-05	
38	1.900000e+00	1.089889e-05	
39	1.950000e+00	1.100682e-05	
40	2.000000e+00	1.111441e-05	
41	2.050000e+00	1.122168e-05	
42	2.100000e+00	1.132867e-05	
43	2.150000e+00	1.143537e-05	
44	2.200000e+00	1.154182e-05	
45	2.250000e+00	1.164803e-05	
46	2.300000e+00	1.175401e-05	
47	2.350000e+00	1.185977e-05	
48	2.400000e+00	1.196534e-05	
49	2.450000e+00	1.207073e-05	
50	2.500000e+00	1.217594e-05	
51	2.550000e+00	1.228100e-05	
52	2.600000e+00	1.238591e-05	
53	2.650000e+00	1.249069e-05	
54	2.700000e+00	1.259535e-05	

Index   v-sweep         -i(vds)         
--------------------------------------------------------------------------------
55	2.750000e+00	1.269990e-05	
56	2.800000e+00	1.280437e-05	
57	2.850000e+00	1.290876e-05	
58	2.900000e+00	1.301309e-05	
59	2.950000e+00	1.311739e-05	
60	3.000000e+00	1.322166e-05	
61	3.050000e+00	1.332595e-05	
62	3.100000e+00	1.343026e-05	
63	3.150000e+00	1.353464e-05	
64	3.200000e+00	1.363910e-05	
65	3.250000e+00	1.374368e-05	
66	3.300000e+00	1.384843e-05	
67	3.350000e+00	1.395337e-05	
68	3.400000e+00	1.405857e-05	
69	3.450000e+00	1.416406e-05	
70	3.500000e+00	1.426990e-05	
71	3.550000e+00	1.437615e-05	
72	3.600000e+00	1.448288e-05	
73	3.650000e+00	1.459017e-05	
74	3.700000e+00	1.469807e-05	
75	3.750000e+00	1.480669e-05	
76	3.800000e+00	1.491611e-05	
77	3.850000e+00	1.502642e-05	
78	3.900000e+00	1.513774e-05	
79	3.950000e+00	1.525018e-05	
80	4.000000e+00	1.536385e-05	
81	4.050000e+00	1.547888e-05	
82	4.100000e+00	1.559541e-05	
83	4.150000e+00	1.571359e-05	
84	4.200000e+00	1.583356e-05	
85	4.250000e+00	1.595550e-05	
86	4.300000e+00	1.607956e-05	
87	4.350000e+00	1.620594e-05	
88	4.400000e+00	1.633482e-05	
89	4.450000e+00	1.646641e-05	
90	4.500000e+00	1.660090e-05	
91	4.550000e+00	1.673852e-05	
92	4.600000e+00	1.687951e-05	
93	4.650000e+00	1.702409e-05	
94	4.700000e+00	1.717252e-05	
95	4.750000e+00	1.732506e-05	
96	4.800000e+00	1.748197e-05	
97	4.850000e+00	1.764353e-05	
98	4.900000e+00	1.781004e-05	
99	4.950000e+00	1.798180e-05	
100	5.000000e+00	1.815910e-05	
101	5.050000e+00	1.834228e-05	
102	5.100000e+00	1.853166e-05	
103	5.150000e+00	1.872758e-05	
104	5.200000e+00	1.893040e-05	
105	5.250000e+00	1.914047e-05	
106	5.300000e+00	1.935816e-05	
107	5.350000e+00	1.958386e-05	
108	5.400000e+00	1.981794e-05	
109	5.450000e+00	2.006082e-05	
110	5.500000e+00	2.031290e-05	
111	5.550000e+00	2.057459e-05	
112	5.600000e+00	2.084633e-05	

Index   v-sweep         -i(vds)         
--------------------------------------------------------------------------------
113	5.650000e+00	2.112855e-05	
114	5.700000e+00	2.142170e-05	
115	5.750000e+00	2.172622e-05	
116	5.800000e+00	2.204259e-05	
117	5.850000e+00	2.237128e-05	
118	5.900000e+00	2.271276e-05	
119	5.950000e+00	2.306752e-05	
120	6.000000e+00	2.343606e-05	
121	6.050000e+00	2.381889e-05	
122	6.100000e+00	2.421652e-05	
123	6.150000e+00	2.462946e-05	
124	6.200000e+00	2.505824e-05	
125	6.250000e+00	2.550341e-05	
126	6.300000e+00	2.596549e-05	
127	6.350000e+00	2.644504e-05	
128	6.400000e+00	2.694262e-05	
129	6.450000e+00	2.745878e-05	
130	6.500000e+00	2.799410e-05	
131	6.550000e+00	2.854915e-05	
132	6.600000e+00	2.912451e-05	
133	0.000000e+00	-0.000000e+00	
134	5.000000e-02	1.442982e-05	
135	1.000000e-01	2.754124e-05	
136	1.500000e-01	3.939393e-05	
137	2.000000e-01	5.004383e-05	
138	2.500000e-01	5.954342e-05	
139	3.000000e-01	6.794189e-05	
140	3.500000e-01	7.528550e-05	
141	4.000000e-01	8.161757e-05	
142	4.500000e-01	8.697846e-05	
143	5.000000e-01	9.140729e-05	
144	5.500000e-01	9.495361e-05	
145	6.000000e-01	9.770897e-05	
146	6.500000e-01	9.982653e-05	
147	7.000000e-01	1.014803e-04	
148	7.500000e-01	1.028125e-04	
149	8.000000e-01	1.039206e-04	
150	8.500000e-01	1.048684e-04	
151	9.000000e-01	1.056973e-04	
152	9.500000e-01	1.064356e-04	
153	1.000000e+00	1.071027e-04	
154	1.050000e+00	1.077126e-04	
155	1.100000e+00	1.082756e-04	
156	1.150000e+00	1.087996e-04	
157	1.200000e+00	1.092906e-04	
158	1.250000e+00	1.097533e-04	
159	1.300000e+00	1.101917e-04	
160	1.350000e+00	1.106087e-04	
161	1.400000e+00	1.110070e-04	
162	1.450000e+00	1.113886e-04	
163	1.500000e+00	1.117554e-04	
164	1.550000e+00	1.121089e-04	
165	1.600000e+00	1.124503e-04	
166	1.650000e+00	1.127808e-04	
167	1.700000e+00	1.131013e-04	
168	1.750000e+00	1.134128e-04	
169	1.800000e+00	1.137159e-04	
170	1.850000e+00	1.140113e-04	

Index   v-sweep         -i(vds)         
--------------------------------------------------------------------------------
171	1.900000e+00	1.142995e-04	
172	1.950000e+00	1.145812e-04	
173	2.000000e+00	1.148568e-04	
174	2.050000e+00	1.151266e-04	
175	2.100000e+00	1.153911e-04	
176	2.150000e+00	1.156506e-04	
177	2.200000e+00	1.159055e-04	
178	2.250000e+00	1.161559e-04	
179	2.300000e+00	1.164022e-04	
180	2.350000e+00	1.166446e-04	
181	2.400000e+00	1.168833e-04	
182	2.450000e+00	1.171185e-04	
183	2.500000e+00	1.173504e-04	
184	2.550000e+00	1.175792e-04	
185	2.600000e+00	1.178050e-04	
186	2.650000e+00	1.180280e-04	
187	2.700000e+00	1.182483e-04	
188	2.750000e+00	1.184661e-04	
189	2.800000e+00	1.186814e-04	
190	2.850000e+00	1.188944e-04	
191	2.900000e+00	1.191053e-04	
192	2.950000e+00	1.193141e-04	
193	3.000000e+00	1.195210e-04	
194	3.050000e+00	1.197261e-04	
195	3.100000e+00	1.199294e-04	
196	3.150000e+00	1.201312e-04	
197	3.200000e+00	1.203316e-04	
198	3.250000e+00	1.205306e-04	
199	3.300000e+00	1.207286e-04	
200	3.350000e+00	1.209255e-04	
201	3.400000e+00	1.211216e-04	
202	3.450000e+00	1.213171e-04	
203	3.500000e+00	1.215122e-04	
204	3.550000e+00	1.217072e-04	
205	3.600000e+00	1.219021e-04	
206	3.650000e+00	1.220975e-04	
207	3.700000e+00	1.222935e-04	
208	3.750000e+00	1.224904e-04	
209	3.800000e+00	1.226887e-04	
210	3.850000e+00	1.228887e-04	
211	3.900000e+00	1.230908e-04	
212	3.950000e+00	1.232954e-04	
213	4.000000e+00	1.235032e-04	
214	4.050000e+00	1.237146e-04	
215	4.100000e+00	1.239301e-04	
216	4.150000e+00	1.241504e-04	
217	4.200000e+00	1.243761e-04	
218	4.250000e+00	1.246080e-04	
219	4.300000e+00	1.248467e-04	
220	4.350000e+00	1.250931e-04	
221	4.400000e+00	1.253480e-04	
222	4.450000e+00	1.256123e-04	
223	4.500000e+00	1.258869e-04	
224	4.550000e+00	1.261728e-04	
225	4.600000e+00	1.264709e-04	
226	4.650000e+00	1.267825e-04	
227	4.700000e+00	1.271087e-04	
228	4.750000e+00	1.274505e-04	

Index   v-sweep         -i(vds)         
--------------------------------------------------------------------------------
229	4.800000e+00	1.278093e-04	
230	4.850000e+00	1.281863e-04	
231	4.900000e+00	1.285829e-04	
232	4.950000e+00	1.290004e-04	
233	5.000000e+00	1.294403e-04	
234	5.050000e+00	1.299041e-04	
235	5.100000e+00	1.303933e-04	
236	5.150000e+00	1.309094e-04	
237	5.200000e+00	1.314541e-04	
238	5.250000e+00	1.320292e-04	
239	5.300000e+00	1.326362e-04	
240	5.350000e+00	1.332770e-04	
241	5.400000e+00	1.339533e-04	
242	5.450000e+00	1.346671e-04	
243	5.500000e+00	1.354202e-04	
244	5.550000e+00	1.362145e-04	
245	5.600000e+00	1.370521e-04	
246	5.650000e+00	1.379349e-04	
247	5.700000e+00	1.388650e-04	
248	5.750000e+00	1.398445e-04	
249	5.800000e+00	1.408755e-04	
250	5.850000e+00	1.419601e-04	
251	5.900000e+00	1.431006e-04	
252	5.950000e+00	1.442991e-04	
253	6.000000e+00	1.455580e-04	
254	6.050000e+00	1.468794e-04	
255	6.100000e+00	1.482657e-04	
256	6.150000e+00	1.497192e-04	
257	6.200000e+00	1.512423e-04	
258	6.250000e+00	1.528373e-04	
259	6.300000e+00	1.545067e-04	
260	6.350000e+00	1.562528e-04	
261	6.400000e+00	1.580781e-04	
262	6.450000e+00	1.599850e-04	
263	6.500000e+00	1.619761e-04	
264	6.550000e+00	1.640537e-04	
265	6.600000e+00	1.662204e-04	
266	0.000000e+00	-0.000000e+00	
267	5.000000e-02	2.284057e-05	
268	1.000000e-01	4.423123e-05	
269	1.500000e-01	6.423691e-05	
270	2.000000e-01	8.291846e-05	
271	2.500000e-01	1.003327e-04	
272	3.000000e-01	1.165328e-04	
273	3.500000e-01	1.315678e-04	
274	4.000000e-01	1.454837e-04	
275	4.500000e-01	1.583230e-04	
276	5.000000e-01	1.701255e-04	
277	5.500000e-01	1.809275e-04	
278	6.000000e-01	1.907616e-04	
279	6.500000e-01	1.996551e-04	
280	7.000000e-01	2.076268e-04	
281	7.500000e-01	2.146827e-04	
282	8.000000e-01	2.208130e-04	
283	8.500000e-01	2.260023e-04	
284	9.000000e-01	2.302666e-04	
285	9.500000e-01	2.336945e-04	
286	1.000000e+00	2.364382e-04	

Index   v-sweep         -i(vds)         
--------------------------------------------------------------------------------
287	1.050000e+00	2.386611e-04	
288	1.100000e+00	2.404990e-04	
289	1.150000e+00	2.420522e-04	
290	1.200000e+00	2.433914e-04	
291	1.250000e+00	2.445665e-04	
292	1.300000e+00	2.456127e-04	
293	1.350000e+00	2.465558e-04	
294	1.400000e+00	2.474149e-04	
295	1.450000e+00	2.482042e-04	
296	1.500000e+00	2.489351e-04	
297	1.550000e+00	2.496161e-04	
298	1.600000e+00	2.502543e-04	
299	1.650000e+00	2.508552e-04	
300	1.700000e+00	2.514235e-04	
301	1.750000e+00	2.519630e-04	
302	1.800000e+00	2.524770e-04	
303	1.850000e+00	2.529680e-04	
304	1.900000e+00	2.534385e-04	
305	1.950000e+00	2.538903e-04	
306	2.000000e+00	2.543252e-04	
307	2.050000e+00	2.547446e-04	
308	2.100000e+00	2.551500e-04	
309	2.150000e+00	2.555423e-04	
310	2.200000e+00	2.559227e-04	
311	2.250000e+00	2.562920e-04	
312	2.300000e+00	2.566510e-04	
313	2.350000e+00	2.570005e-04	
314	2.400000e+00	2.573411e-04	
315	2.450000e+00	2.576733e-04	
316	2.500000e+00	2.579978e-04	
317	2.550000e+00	2.583149e-04	
318	2.600000e+00	2.586252e-04	
319	2.650000e+00	2.589289e-04	
320	2.700000e+00	2.592266e-04	
321	2.750000e+00	2.595185e-04	
322	2.800000e+00	2.598050e-04	
323	2.850000e+00	2.600862e-04	
324	2.900000e+00	2.603626e-04	
325	2.950000e+00	2.606343e-04	
326	3.000000e+00	2.609017e-04	
327	3.050000e+00	2.611648e-04	
328	3.100000e+00	2.614240e-04	
329	3.150000e+00	2.616794e-04	
330	3.200000e+00	2.619313e-04	
331	3.250000e+00	2.621799e-04	
332	3.300000e+00	2.624253e-04	
333	3.350000e+00	2.626678e-04	
334	3.400000e+00	2.629077e-04	
335	3.450000e+00	2.631451e-04	
336	3.500000e+00	2.633803e-04	
337	3.550000e+00	2.636136e-04	
338	3.600000e+00	2.638452e-04	
339	3.650000e+00	2.640755e-04	
340	3.700000e+00	2.643048e-04	
341	3.750000e+00	2.645336e-04	
342	3.800000e+00	2.647622e-04	
343	3.850000e+00	2.649910e-04	
344	3.900000e+00	2.652207e-04	

Index   v-sweep         -i(vds)         
--------------------------------------------------------------------------------
345	3.950000e+00	2.654517e-04	
346	4.000000e+00	2.656847e-04	
347	4.050000e+00	2.659203e-04	
348	4.100000e+00	2.661593e-04	
349	4.150000e+00	2.664025e-04	
350	4.200000e+00	2.666507e-04	
351	4.250000e+00	2.669049e-04	
352	4.300000e+00	2.671662e-04	
353	4.350000e+00	2.674355e-04	
354	4.400000e+00	2.677142e-04	
355	4.450000e+00	2.680034e-04	
356	4.500000e+00	2.683047e-04	
357	4.550000e+00	2.686193e-04	
358	4.600000e+00	2.689488e-04	
359	4.650000e+00	2.692950e-04	
360	4.700000e+00	2.696595e-04	
361	4.750000e+00	2.700442e-04	
362	4.800000e+00	2.704511e-04	
363	4.850000e+00	2.708821e-04	
364	4.900000e+00	2.713395e-04	
365	4.950000e+00	2.718254e-04	
366	5.000000e+00	2.723422e-04	
367	5.050000e+00	2.728925e-04	
368	5.100000e+00	2.734787e-04	
369	5.150000e+00	2.741036e-04	
370	5.200000e+00	2.747698e-04	
371	5.250000e+00	2.754802e-04	
372	5.300000e+00	2.762379e-04	
373	5.350000e+00	2.770459e-04	
374	5.400000e+00	2.779073e-04	
375	5.450000e+00	2.788255e-04	
376	5.500000e+00	2.798037e-04	
377	5.550000e+00	2.808454e-04	
378	5.600000e+00	2.819542e-04	
379	5.650000e+00	2.831337e-04	
380	5.700000e+00	2.843875e-04	
381	5.750000e+00	2.857196e-04	
382	5.800000e+00	2.871337e-04	
383	5.850000e+00	2.886338e-04	
384	5.900000e+00	2.902240e-04	
385	5.950000e+00	2.919083e-04	
386	6.000000e+00	2.936910e-04	
387	6.050000e+00	2.955763e-04	
388	6.100000e+00	2.975684e-04	
389	6.150000e+00	2.996719e-04	
390	6.200000e+00	3.018910e-04	
391	6.250000e+00	3.042302e-04	
392	6.300000e+00	3.066942e-04	
393	6.350000e+00	3.092875e-04	
394	6.400000e+00	3.120147e-04	
395	6.450000e+00	3.148805e-04	
396	6.500000e+00	3.178897e-04	
397	6.550000e+00	3.210469e-04	
398	6.600000e+00	3.243570e-04	
399	0.000000e+00	-0.000000e+00	
400	5.000000e-02	2.925100e-05	
401	1.000000e-01	5.700009e-05	
402	1.500000e-01	8.331078e-05	

Index   v-sweep         -i(vds)         
--------------------------------------------------------------------------------
403	2.000000e-01	1.082429e-04	
404	2.500000e-01	1.318526e-04	
405	3.000000e-01	1.541925e-04	
406	3.500000e-01	1.753117e-04	
407	4.000000e-01	1.952560e-04	
408	4.500000e-01	2.140682e-04	
409	5.000000e-01	2.317880e-04	
410	5.500000e-01	2.484526e-04	
411	6.000000e-01	2.640970e-04	
412	6.500000e-01	2.787540e-04	
413	7.000000e-01	2.924541e-04	
414	7.500000e-01	3.052258e-04	
415	8.000000e-01	3.170943e-04	
416	8.500000e-01	3.280809e-04	
417	9.000000e-01	3.382001e-04	
418	9.500000e-01	3.474562e-04	
419	1.000000e+00	3.558385e-04	
420	1.050000e+00	3.633173e-04	
421	1.100000e+00	3.698509e-04	
422	1.150000e+00	3.754133e-04	
423	1.200000e+00	3.800370e-04	
424	1.250000e+00	3.838285e-04	
425	1.300000e+00	3.869384e-04	
426	1.350000e+00	3.895169e-04	
427	1.400000e+00	3.916889e-04	
428	1.450000e+00	3.935499e-04	
429	1.500000e+00	3.951701e-04	
430	1.550000e+00	3.966008e-04	
431	1.600000e+00	3.978800e-04	
432	1.650000e+00	3.990359e-04	
433	1.700000e+00	4.000901e-04	
434	1.750000e+00	4.010590e-04	
435	1.800000e+00	4.019558e-04	
436	1.850000e+00	4.027907e-04	
437	1.900000e+00	4.035721e-04	
438	1.950000e+00	4.043068e-04	
439	2.000000e+00	4.050005e-04	
440	2.050000e+00	4.056578e-04	
441	2.100000e+00	4.062826e-04	
442	2.150000e+00	4.068783e-04	
443	2.200000e+00	4.074478e-04	
444	2.250000e+00	4.079936e-04	
445	2.300000e+00	4.085177e-04	
446	2.350000e+00	4.090221e-04	
447	2.400000e+00	4.095084e-04	
448	2.450000e+00	4.099780e-04	
449	2.500000e+00	4.104323e-04	
450	2.550000e+00	4.108723e-04	
451	2.600000e+00	4.112991e-04	
452	2.650000e+00	4.117136e-04	
453	2.700000e+00	4.121166e-04	
454	2.750000e+00	4.125089e-04	
455	2.800000e+00	4.128911e-04	
456	2.850000e+00	4.132639e-04	
457	2.900000e+00	4.136278e-04	
458	2.950000e+00	4.139834e-04	
459	3.000000e+00	4.143310e-04	
460	3.050000e+00	4.146712e-04	

Index   v-sweep         -i(vds)         
--------------------------------------------------------------------------------
461	3.100000e+00	4.150043e-04	
462	3.150000e+00	4.153308e-04	
463	3.200000e+00	4.156509e-04	
464	3.250000e+00	4.159651e-04	
465	3.300000e+00	4.162736e-04	
466	3.350000e+00	4.165766e-04	
467	3.400000e+00	4.168747e-04	
468	3.450000e+00	4.171679e-04	
469	3.500000e+00	4.174566e-04	
470	3.550000e+00	4.177411e-04	
471	3.600000e+00	4.180218e-04	
472	3.650000e+00	4.182988e-04	
473	3.700000e+00	4.185726e-04	
474	3.750000e+00	4.188435e-04	
475	3.800000e+00	4.191119e-04	
476	3.850000e+00	4.193783e-04	
477	3.900000e+00	4.196430e-04	
478	3.950000e+00	4.199066e-04	
479	4.000000e+00	4.201697e-04	
480	4.050000e+00	4.204329e-04	
481	4.100000e+00	4.206968e-04	
482	4.150000e+00	4.209623e-04	
483	4.200000e+00	4.212301e-04	
484	4.250000e+00	4.215013e-04	
485	4.300000e+00	4.217767e-04	
486	4.350000e+00	4.220576e-04	
487	4.400000e+00	4.223451e-04	
488	4.450000e+00	4.226406e-04	
489	4.500000e+00	4.229455e-04	
490	4.550000e+00	4.232614e-04	
491	4.600000e+00	4.235899e-04	
492	4.650000e+00	4.239329e-04	
493	4.700000e+00	4.242924e-04	
494	4.750000e+00	4.246703e-04	
495	4.800000e+00	4.250690e-04	
496	4.850000e+00	4.254909e-04	
497	4.900000e+00	4.259385e-04	
498	4.950000e+00	4.264144e-04	
499	5.000000e+00	4.269215e-04	
500	5.050000e+00	4.274629e-04	
501	5.100000e+00	4.280416e-04	
502	5.150000e+00	4.286610e-04	
503	5.200000e+00	4.293246e-04	
504	5.250000e+00	4.300361e-04	
505	5.300000e+00	4.307991e-04	
506	5.350000e+00	4.316177e-04	
507	5.400000e+00	4.324961e-04	
508	5.450000e+00	4.334384e-04	
509	5.500000e+00	4.344492e-04	
510	5.550000e+00	4.355330e-04	
511	5.600000e+00	4.366946e-04	
512	5.650000e+00	4.379389e-04	
513	5.700000e+00	4.392710e-04	
514	5.750000e+00	4.406961e-04	
515	5.800000e+00	4.422195e-04	
516	5.850000e+00	4.438466e-04	
517	5.900000e+00	4.455833e-04	
518	5.950000e+00	4.474351e-04	

Index   v-sweep         -i(vds)         
--------------------------------------------------------------------------------
519	6.000000e+00	4.494079e-04	
520	6.050000e+00	4.515079e-04	
521	6.100000e+00	4.537412e-04	
522	6.150000e+00	4.561139e-04	
523	6.200000e+00	4.586325e-04	
524	6.250000e+00	4.613034e-04	
525	6.300000e+00	4.641332e-04	
526	6.350000e+00	4.671287e-04	
527	6.400000e+00	4.702965e-04	
528	6.450000e+00	4.736436e-04	
529	6.500000e+00	4.771769e-04	
530	6.550000e+00	4.809035e-04	
531	6.600000e+00	4.848303e-04	
532	0.000000e+00	-0.000000e+00	
533	5.000000e-02	3.395672e-05	
534	1.000000e-01	6.643194e-05	
535	1.500000e-01	9.748347e-05	
536	2.000000e-01	1.271660e-04	
537	2.500000e-01	1.555313e-04	
538	3.000000e-01	1.826281e-04	
539	3.500000e-01	2.085023e-04	
540	4.000000e-01	2.331969e-04	
541	4.500000e-01	2.567522e-04	
542	5.000000e-01	2.792058e-04	
543	5.500000e-01	3.005931e-04	
544	6.000000e-01	3.209471e-04	
545	6.500000e-01	3.402991e-04	
546	7.000000e-01	3.586784e-04	
547	7.500000e-01	3.761130e-04	
548	8.000000e-01	3.926294e-04	
549	8.500000e-01	4.082528e-04	
550	9.000000e-01	4.230071e-04	
551	9.500000e-01	4.369144e-04	
552	1.000000e+00	4.499948e-04	
553	1.050000e+00	4.622654e-04	
554	1.100000e+00	4.737384e-04	
555	1.150000e+00	4.844190e-04	
556	1.200000e+00	4.943013e-04	
557	1.250000e+00	5.033642e-04	
558	1.300000e+00	5.115687e-04	
559	1.350000e+00	5.188640e-04	
560	1.400000e+00	5.252102e-04	
561	1.450000e+00	5.306134e-04	
562	1.500000e+00	5.351457e-04	
563	1.550000e+00	5.389305e-04	
564	1.600000e+00	5.421068e-04	
565	1.650000e+00	5.448016e-04	
566	1.700000e+00	5.471185e-04	
567	1.750000e+00	5.491379e-04	
568	1.800000e+00	5.509205e-04	
569	1.850000e+00	5.525122e-04	
570	1.900000e+00	5.539478e-04	
571	1.950000e+00	5.552541e-04	
572	2.000000e+00	5.564520e-04	
573	2.050000e+00	5.575579e-04	
574	2.100000e+00	5.585850e-04	
575	2.150000e+00	5.595439e-04	
576	2.200000e+00	5.604433e-04	

Index   v-sweep         -i(vds)         
--------------------------------------------------------------------------------
577	2.250000e+00	5.612903e-04	
578	2.300000e+00	5.620909e-04	
579	2.350000e+00	5.628503e-04	
580	2.400000e+00	5.635726e-04	
581	2.450000e+00	5.642616e-04	
582	2.500000e+00	5.649204e-04	
583	2.550000e+00	5.655518e-04	
584	2.600000e+00	5.661580e-04	
585	2.650000e+00	5.667414e-04	
586	2.700000e+00	5.673035e-04	
587	2.750000e+00	5.678462e-04	
588	2.800000e+00	5.683709e-04	
589	2.850000e+00	5.688789e-04	
590	2.900000e+00	5.693712e-04	
591	2.950000e+00	5.698491e-04	
592	3.000000e+00	5.703134e-04	
593	3.050000e+00	5.707651e-04	
594	3.100000e+00	5.712048e-04	
595	3.150000e+00	5.716333e-04	
596	3.200000e+00	5.720512e-04	
597	3.250000e+00	5.724592e-04	
598	3.300000e+00	5.728578e-04	
599	3.350000e+00	5.732475e-04	
600	3.400000e+00	5.736288e-04	
601	3.450000e+00	5.740022e-04	
602	3.500000e+00	5.743680e-04	
603	3.550000e+00	5.747266e-04	
604	3.600000e+00	5.750785e-04	
605	3.650000e+00	5.754241e-04	
606	3.700000e+00	5.757636e-04	
607	3.750000e+00	5.760975e-04	
608	3.800000e+00	5.764262e-04	
609	3.850000e+00	5.767500e-04	
610	3.900000e+00	5.770694e-04	
611	3.950000e+00	5.773847e-04	
612	4.000000e+00	5.776965e-04	
613	4.050000e+00	5.780053e-04	
614	4.100000e+00	5.783116e-04	
615	4.150000e+00	5.786160e-04	
616	4.200000e+00	5.789193e-04	
617	4.250000e+00	5.792221e-04	
618	4.300000e+00	5.795253e-04	
619	4.350000e+00	5.798298e-04	
620	4.400000e+00	5.801367e-04	
621	4.450000e+00	5.804470e-04	
622	4.500000e+00	5.807620e-04	
623	4.550000e+00	5.810831e-04	
624	4.600000e+00	5.814118e-04	
625	4.650000e+00	5.817497e-04	
626	4.700000e+00	5.820987e-04	
627	4.750000e+00	5.824606e-04	
628	4.800000e+00	5.828376e-04	
629	4.850000e+00	5.832319e-04	
630	4.900000e+00	5.836461e-04	
631	4.950000e+00	5.840829e-04	
632	5.000000e+00	5.845449e-04	
633	5.050000e+00	5.850354e-04	
634	5.100000e+00	5.855575e-04	

Index   v-sweep         -i(vds)         
--------------------------------------------------------------------------------
635	5.150000e+00	5.861146e-04	
636	5.200000e+00	5.867106e-04	
637	5.250000e+00	5.873491e-04	
638	5.300000e+00	5.880344e-04	
639	5.350000e+00	5.887707e-04	
640	5.400000e+00	5.895625e-04	
641	5.450000e+00	5.904146e-04	
642	5.500000e+00	5.913321e-04	
643	5.550000e+00	5.923199e-04	
644	5.600000e+00	5.933837e-04	
645	5.650000e+00	5.945289e-04	
646	5.700000e+00	5.957616e-04	
647	5.750000e+00	5.970876e-04	
648	5.800000e+00	5.985134e-04	
649	5.850000e+00	6.000455e-04	
650	5.900000e+00	6.016904e-04	
651	5.950000e+00	6.034552e-04	
652	6.000000e+00	6.053469e-04	
653	6.050000e+00	6.073729e-04	
654	6.100000e+00	6.095406e-04	
655	6.150000e+00	6.118578e-04	
656	6.200000e+00	6.143324e-04	
657	6.250000e+00	6.169723e-04	
658	6.300000e+00	6.197858e-04	
659	6.350000e+00	6.227814e-04	
660	6.400000e+00	6.259675e-04	
661	6.450000e+00	6.293528e-04	
662	6.500000e+00	6.329463e-04	
663	6.550000e+00	6.367569e-04	
664	6.600000e+00	6.407938e-04	
665	0.000000e+00	-0.000000e+00	
666	5.000000e-02	3.723291e-05	
667	1.000000e-01	7.305534e-05	
668	1.500000e-01	1.075174e-04	
669	2.000000e-01	1.406668e-04	
670	2.500000e-01	1.725490e-04	
671	3.000000e-01	2.032069e-04	
672	3.500000e-01	2.326814e-04	
673	4.000000e-01	2.610111e-04	
674	4.500000e-01	2.882323e-04	
675	5.000000e-01	3.143793e-04	
676	5.500000e-01	3.394842e-04	
677	6.000000e-01	3.635775e-04	
678	6.500000e-01	3.866876e-04	
679	7.000000e-01	4.088416e-04	
680	7.500000e-01	4.300649e-04	
681	8.000000e-01	4.503819e-04	
682	8.500000e-01	4.698157e-04	
683	9.000000e-01	4.883886e-04	
684	9.500000e-01	5.061218e-04	
685	1.000000e+00	5.230359e-04	
686	1.050000e+00	5.391506e-04	
687	1.100000e+00	5.544848e-04	
688	1.150000e+00	5.690562e-04	
689	1.200000e+00	5.828811e-04	
690	1.250000e+00	5.959738e-04	
691	1.300000e+00	6.083453e-04	
692	1.350000e+00	6.200021e-04	

Index   v-sweep         -i(vds)         
--------------------------------------------------------------------------------
693	1.400000e+00	6.309436e-04	
694	1.450000e+00	6.411592e-04	
695	1.500000e+00	6.506242e-04	
696	1.550000e+00	6.592982e-04	
697	1.600000e+00	6.671293e-04	
698	1.650000e+00	6.740710e-04	
699	1.700000e+00	6.801089e-04	
700	1.750000e+00	6.852829e-04	
701	1.800000e+00	6.896834e-04	
702	1.850000e+00	6.934282e-04	
703	1.900000e+00	6.966359e-04	
704	1.950000e+00	6.994109e-04	
705	2.000000e+00	7.018384e-04	
706	2.050000e+00	7.039855e-04	
707	2.100000e+00	7.059042e-04	
708	2.150000e+00	7.076349e-04	
709	2.200000e+00	7.092092e-04	
710	2.250000e+00	7.106518e-04	
711	2.300000e+00	7.119825e-04	
712	2.350000e+00	7.132169e-04	
713	2.400000e+00	7.143680e-04	
714	2.450000e+00	7.154464e-04	
715	2.500000e+00	7.164607e-04	
716	2.550000e+00	7.174183e-04	
717	2.600000e+00	7.183253e-04	
718	2.650000e+00	7.191870e-04	
719	2.700000e+00	7.200079e-04	
720	2.750000e+00	7.207918e-04	
721	2.800000e+00	7.215421e-04	
722	2.850000e+00	7.222617e-04	
723	2.900000e+00	7.229532e-04	
724	2.950000e+00	7.236188e-04	
725	3.000000e+00	7.242606e-04	
726	3.050000e+00	7.248804e-04	
727	3.100000e+00	7.254797e-04	
728	3.150000e+00	7.260599e-04	
729	3.200000e+00	7.266225e-04	
730	3.250000e+00	7.271684e-04	
731	3.300000e+00	7.276988e-04	
732	3.350000e+00	7.282147e-04	
733	3.400000e+00	7.287168e-04	
734	3.450000e+00	7.292061e-04	
735	3.500000e+00	7.296832e-04	
736	3.550000e+00	7.301489e-04	
737	3.600000e+00	7.306037e-04	
738	3.650000e+00	7.310482e-04	
739	3.700000e+00	7.314830e-04	
740	3.750000e+00	7.319086e-04	
741	3.800000e+00	7.323255e-04	
742	3.850000e+00	7.327342e-04	
743	3.900000e+00	7.331351e-04	
744	3.950000e+00	7.335286e-04	
745	4.000000e+00	7.339153e-04	
746	4.050000e+00	7.342956e-04	
747	4.100000e+00	7.346699e-04	
748	4.150000e+00	7.350388e-04	
749	4.200000e+00	7.354028e-04	
750	4.250000e+00	7.357625e-04	

Index   v-sweep         -i(vds)         
--------------------------------------------------------------------------------
751	4.300000e+00	7.361185e-04	
752	4.350000e+00	7.364715e-04	
753	4.400000e+00	7.368222e-04	
754	4.450000e+00	7.371715e-04	
755	4.500000e+00	7.375203e-04	
756	4.550000e+00	7.378696e-04	
757	4.600000e+00	7.382206e-04	
758	4.650000e+00	7.385745e-04	
759	4.700000e+00	7.389327e-04	
760	4.750000e+00	7.392968e-04	
761	4.800000e+00	7.396685e-04	
762	4.850000e+00	7.400496e-04	
763	4.900000e+00	7.404422e-04	
764	4.950000e+00	7.408485e-04	
765	5.000000e+00	7.412709e-04	
766	5.050000e+00	7.417122e-04	
767	5.100000e+00	7.421751e-04	
768	5.150000e+00	7.426627e-04	
769	5.200000e+00	7.431785e-04	
770	5.250000e+00	7.437259e-04	
771	5.300000e+00	7.443087e-04	
772	5.350000e+00	7.449311e-04	
773	5.400000e+00	7.455973e-04	
774	5.450000e+00	7.463120e-04	
775	5.500000e+00	7.470800e-04	
776	5.550000e+00	7.479065e-04	
777	5.600000e+00	7.487969e-04	
778	5.650000e+00	7.497569e-04	
779	5.700000e+00	7.507924e-04	
780	5.750000e+00	7.519098e-04	
781	5.800000e+00	7.531156e-04	
782	5.850000e+00	7.544166e-04	
783	5.900000e+00	7.558199e-04	
784	5.950000e+00	7.573329e-04	
785	6.000000e+00	7.589632e-04	
786	6.050000e+00	7.607189e-04	
787	6.100000e+00	7.626081e-04	
788	6.150000e+00	7.646392e-04	
789	6.200000e+00	7.668210e-04	
790	6.250000e+00	7.691626e-04	
791	6.300000e+00	7.716731e-04	
792	6.350000e+00	7.743620e-04	
793	6.400000e+00	7.772390e-04	
794	6.450000e+00	7.803142e-04	
795	6.500000e+00	7.835977e-04	
796	6.550000e+00	7.870999e-04	
797	6.600000e+00	7.908315e-04	
Note: No ".plot", ".print", or ".fourier" lines; no simulations run
