
Note: Compatibility modes selected: hs

Warning: m=xx on .subckt line will override multiplier m hierarchy!


Circuit: ***************************

Doing analysis at TEMP = 125.000000 and TNOM = 125.000000


No. of Data Rows : 798
                          ***************************
                          DC transfer characteristic  Mon Jan  9 13:57:41  2023
--------------------------------------------------------------------------------
Index   v-sweep         -i(vds)         
--------------------------------------------------------------------------------
0	0.000000e+00	-0.000000e+00	
1	5.000000e-02	3.062862e-06	
2	1.000000e-01	5.550689e-06	
3	1.500000e-01	7.578248e-06	
4	2.000000e-01	9.178458e-06	
5	2.500000e-01	1.036748e-05	
6	3.000000e-01	1.116817e-05	
7	3.500000e-01	1.163270e-05	
8	4.000000e-01	1.186087e-05	
9	4.500000e-01	1.196580e-05	
10	5.000000e-01	1.201880e-05	
11	5.500000e-01	1.205030e-05	
12	6.000000e-01	1.207197e-05	
13	6.500000e-01	1.208855e-05	
14	7.000000e-01	1.210222e-05	
15	7.500000e-01	1.211406e-05	
16	8.000000e-01	1.212466e-05	
17	8.500000e-01	1.213440e-05	
18	9.000000e-01	1.214349e-05	
19	9.500000e-01	1.215209e-05	
20	1.000000e+00	1.216029e-05	
21	1.050000e+00	1.216818e-05	
22	1.100000e+00	1.217581e-05	
23	1.150000e+00	1.218322e-05	
24	1.200000e+00	1.219045e-05	
25	1.250000e+00	1.219751e-05	
26	1.300000e+00	1.220444e-05	
27	1.350000e+00	1.221125e-05	
28	1.400000e+00	1.221795e-05	
29	1.450000e+00	1.222455e-05	
30	1.500000e+00	1.223107e-05	
31	1.550000e+00	1.223751e-05	
32	1.600000e+00	1.224388e-05	
33	1.650000e+00	1.225018e-05	
34	1.700000e+00	1.225643e-05	
35	1.750000e+00	1.226262e-05	
36	1.800000e+00	1.226876e-05	
37	1.850000e+00	1.227486e-05	
38	1.900000e+00	1.228092e-05	
39	1.950000e+00	1.228693e-05	
40	2.000000e+00	1.229291e-05	
41	2.050000e+00	1.229885e-05	
42	2.100000e+00	1.230476e-05	
43	2.150000e+00	1.231064e-05	
44	2.200000e+00	1.231650e-05	
45	2.250000e+00	1.232232e-05	
46	2.300000e+00	1.232812e-05	
47	2.350000e+00	1.233390e-05	
48	2.400000e+00	1.233966e-05	
49	2.450000e+00	1.234539e-05	
50	2.500000e+00	1.235111e-05	
51	2.550000e+00	1.235681e-05	
52	2.600000e+00	1.236249e-05	
53	2.650000e+00	1.236817e-05	
54	2.700000e+00	1.237383e-05	

Index   v-sweep         -i(vds)         
--------------------------------------------------------------------------------
55	2.750000e+00	1.237949e-05	
56	2.800000e+00	1.238514e-05	
57	2.850000e+00	1.239080e-05	
58	2.900000e+00	1.239646e-05	
59	2.950000e+00	1.240213e-05	
60	3.000000e+00	1.240782e-05	
61	3.050000e+00	1.241353e-05	
62	3.100000e+00	1.241928e-05	
63	3.150000e+00	1.242508e-05	
64	3.200000e+00	1.243094e-05	
65	3.250000e+00	1.243687e-05	
66	3.300000e+00	1.244289e-05	
67	3.350000e+00	1.244901e-05	
68	3.400000e+00	1.245526e-05	
69	3.450000e+00	1.246167e-05	
70	3.500000e+00	1.246824e-05	
71	3.550000e+00	1.247503e-05	
72	3.600000e+00	1.248204e-05	
73	3.650000e+00	1.248933e-05	
74	3.700000e+00	1.249693e-05	
75	3.750000e+00	1.250488e-05	
76	3.800000e+00	1.251322e-05	
77	3.850000e+00	1.252201e-05	
78	3.900000e+00	1.253129e-05	
79	3.950000e+00	1.254113e-05	
80	4.000000e+00	1.255158e-05	
81	4.050000e+00	1.256271e-05	
82	4.100000e+00	1.257459e-05	
83	4.150000e+00	1.258730e-05	
84	4.200000e+00	1.260091e-05	
85	4.250000e+00	1.261550e-05	
86	4.300000e+00	1.263117e-05	
87	4.350000e+00	1.264801e-05	
88	4.400000e+00	1.266610e-05	
89	4.450000e+00	1.268557e-05	
90	4.500000e+00	1.270650e-05	
91	4.550000e+00	1.272902e-05	
92	4.600000e+00	1.275324e-05	
93	4.650000e+00	1.277928e-05	
94	4.700000e+00	1.280726e-05	
95	4.750000e+00	1.283732e-05	
96	4.800000e+00	1.286959e-05	
97	4.850000e+00	1.290421e-05	
98	4.900000e+00	1.294133e-05	
99	4.950000e+00	1.298108e-05	
100	5.000000e+00	1.302363e-05	
101	5.050000e+00	1.306912e-05	
102	5.100000e+00	1.311773e-05	
103	5.150000e+00	1.316961e-05	
104	5.200000e+00	1.322493e-05	
105	5.250000e+00	1.328386e-05	
106	5.300000e+00	1.334658e-05	
107	5.350000e+00	1.341328e-05	
108	5.400000e+00	1.348412e-05	
109	5.450000e+00	1.355930e-05	
110	5.500000e+00	1.363901e-05	
111	5.550000e+00	1.372343e-05	
112	5.600000e+00	1.381277e-05	

Index   v-sweep         -i(vds)         
--------------------------------------------------------------------------------
113	5.650000e+00	1.390721e-05	
114	5.700000e+00	1.400697e-05	
115	5.750000e+00	1.411224e-05	
116	5.800000e+00	1.422323e-05	
117	5.850000e+00	1.434014e-05	
118	5.900000e+00	1.446319e-05	
119	5.950000e+00	1.459258e-05	
120	6.000000e+00	1.472854e-05	
121	6.050000e+00	1.487126e-05	
122	6.100000e+00	1.502098e-05	
123	6.150000e+00	1.517790e-05	
124	6.200000e+00	1.534225e-05	
125	6.250000e+00	1.551424e-05	
126	6.300000e+00	1.569410e-05	
127	6.350000e+00	1.588205e-05	
128	6.400000e+00	1.607831e-05	
129	6.450000e+00	1.628310e-05	
130	6.500000e+00	1.649665e-05	
131	6.550000e+00	1.671919e-05	
132	6.600000e+00	1.695092e-05	
133	0.000000e+00	-0.000000e+00	
134	5.000000e-02	9.463674e-06	
135	1.000000e-01	1.832997e-05	
136	1.500000e-01	2.671266e-05	
137	2.000000e-01	3.464209e-05	
138	2.500000e-01	4.212768e-05	
139	3.000000e-01	4.917360e-05	
140	3.500000e-01	5.578268e-05	
141	4.000000e-01	6.195743e-05	
142	4.500000e-01	6.770028e-05	
143	5.000000e-01	7.301367e-05	
144	5.500000e-01	7.790005e-05	
145	6.000000e-01	8.236197e-05	
146	6.500000e-01	8.640207e-05	
147	7.000000e-01	9.002322e-05	
148	7.500000e-01	9.322869e-05	
149	8.000000e-01	9.602243e-05	
150	8.500000e-01	9.840976e-05	
151	9.000000e-01	1.003986e-04	
152	9.500000e-01	1.020017e-04	
153	1.000000e+00	1.032414e-04	
154	1.050000e+00	1.041547e-04	
155	1.100000e+00	1.047970e-04	
156	1.150000e+00	1.052359e-04	
157	1.200000e+00	1.055361e-04	
158	1.250000e+00	1.057476e-04	
159	1.300000e+00	1.059033e-04	
160	1.350000e+00	1.060235e-04	
161	1.400000e+00	1.061201e-04	
162	1.450000e+00	1.062007e-04	
163	1.500000e+00	1.062699e-04	
164	1.550000e+00	1.063307e-04	
165	1.600000e+00	1.063852e-04	
166	1.650000e+00	1.064346e-04	
167	1.700000e+00	1.064802e-04	
168	1.750000e+00	1.065225e-04	
169	1.800000e+00	1.065622e-04	
170	1.850000e+00	1.065997e-04	

Index   v-sweep         -i(vds)         
--------------------------------------------------------------------------------
171	1.900000e+00	1.066353e-04	
172	1.950000e+00	1.066693e-04	
173	2.000000e+00	1.067019e-04	
174	2.050000e+00	1.067333e-04	
175	2.100000e+00	1.067636e-04	
176	2.150000e+00	1.067929e-04	
177	2.200000e+00	1.068214e-04	
178	2.250000e+00	1.068492e-04	
179	2.300000e+00	1.068762e-04	
180	2.350000e+00	1.069026e-04	
181	2.400000e+00	1.069285e-04	
182	2.450000e+00	1.069538e-04	
183	2.500000e+00	1.069787e-04	
184	2.550000e+00	1.070031e-04	
185	2.600000e+00	1.070270e-04	
186	2.650000e+00	1.070507e-04	
187	2.700000e+00	1.070739e-04	
188	2.750000e+00	1.070969e-04	
189	2.800000e+00	1.071195e-04	
190	2.850000e+00	1.071418e-04	
191	2.900000e+00	1.071639e-04	
192	2.950000e+00	1.071857e-04	
193	3.000000e+00	1.072073e-04	
194	3.050000e+00	1.072287e-04	
195	3.100000e+00	1.072498e-04	
196	3.150000e+00	1.072708e-04	
197	3.200000e+00	1.072916e-04	
198	3.250000e+00	1.073122e-04	
199	3.300000e+00	1.073327e-04	
200	3.350000e+00	1.073531e-04	
201	3.400000e+00	1.073734e-04	
202	3.450000e+00	1.073936e-04	
203	3.500000e+00	1.074137e-04	
204	3.550000e+00	1.074339e-04	
205	3.600000e+00	1.074541e-04	
206	3.650000e+00	1.074743e-04	
207	3.700000e+00	1.074947e-04	
208	3.750000e+00	1.075153e-04	
209	3.800000e+00	1.075362e-04	
210	3.850000e+00	1.075575e-04	
211	3.900000e+00	1.075792e-04	
212	3.950000e+00	1.076015e-04	
213	4.000000e+00	1.076245e-04	
214	4.050000e+00	1.076485e-04	
215	4.100000e+00	1.076734e-04	
216	4.150000e+00	1.076996e-04	
217	4.200000e+00	1.077273e-04	
218	4.250000e+00	1.077567e-04	
219	4.300000e+00	1.077880e-04	
220	4.350000e+00	1.078216e-04	
221	4.400000e+00	1.078577e-04	
222	4.450000e+00	1.078968e-04	
223	4.500000e+00	1.079392e-04	
224	4.550000e+00	1.079853e-04	
225	4.600000e+00	1.080356e-04	
226	4.650000e+00	1.080906e-04	
227	4.700000e+00	1.081507e-04	
228	4.750000e+00	1.082166e-04	

Index   v-sweep         -i(vds)         
--------------------------------------------------------------------------------
229	4.800000e+00	1.082888e-04	
230	4.850000e+00	1.083679e-04	
231	4.900000e+00	1.084547e-04	
232	4.950000e+00	1.085497e-04	
233	5.000000e+00	1.086539e-04	
234	5.050000e+00	1.087679e-04	
235	5.100000e+00	1.088926e-04	
236	5.150000e+00	1.090289e-04	
237	5.200000e+00	1.091777e-04	
238	5.250000e+00	1.093398e-04	
239	5.300000e+00	1.095164e-04	
240	5.350000e+00	1.097084e-04	
241	5.400000e+00	1.099169e-04	
242	5.450000e+00	1.101431e-04	
243	5.500000e+00	1.103880e-04	
244	5.550000e+00	1.106528e-04	
245	5.600000e+00	1.109388e-04	
246	5.650000e+00	1.112472e-04	
247	5.700000e+00	1.115794e-04	
248	5.750000e+00	1.119366e-04	
249	5.800000e+00	1.123203e-04	
250	5.850000e+00	1.127317e-04	
251	5.900000e+00	1.131724e-04	
252	5.950000e+00	1.136438e-04	
253	6.000000e+00	1.141475e-04	
254	6.050000e+00	1.146848e-04	
255	6.100000e+00	1.152575e-04	
256	6.150000e+00	1.158670e-04	
257	6.200000e+00	1.165150e-04	
258	6.250000e+00	1.172030e-04	
259	6.300000e+00	1.179329e-04	
260	6.350000e+00	1.187061e-04	
261	6.400000e+00	1.195245e-04	
262	6.450000e+00	1.203897e-04	
263	6.500000e+00	1.213036e-04	
264	6.550000e+00	1.222677e-04	
265	6.600000e+00	1.232840e-04	
266	0.000000e+00	-0.000000e+00	
267	5.000000e-02	1.477888e-05	
268	1.000000e-01	2.898089e-05	
269	1.500000e-01	4.271961e-05	
270	2.000000e-01	5.602521e-05	
271	2.500000e-01	6.890692e-05	
272	3.000000e-01	8.136870e-05	
273	3.500000e-01	9.341317e-05	
274	4.000000e-01	1.050426e-04	
275	4.500000e-01	1.162592e-04	
276	5.000000e-01	1.270652e-04	
277	5.500000e-01	1.374625e-04	
278	6.000000e-01	1.474534e-04	
279	6.500000e-01	1.570400e-04	
280	7.000000e-01	1.662243e-04	
281	7.500000e-01	1.750085e-04	
282	8.000000e-01	1.833945e-04	
283	8.500000e-01	1.913844e-04	
284	9.000000e-01	1.989803e-04	
285	9.500000e-01	2.061841e-04	
286	1.000000e+00	2.129980e-04	

Index   v-sweep         -i(vds)         
--------------------------------------------------------------------------------
287	1.050000e+00	2.194239e-04	
288	1.100000e+00	2.254639e-04	
289	1.150000e+00	2.311198e-04	
290	1.200000e+00	2.363938e-04	
291	1.250000e+00	2.412880e-04	
292	1.300000e+00	2.458044e-04	
293	1.350000e+00	2.499451e-04	
294	1.400000e+00	2.537127e-04	
295	1.450000e+00	2.571097e-04	
296	1.500000e+00	2.601393e-04	
297	1.550000e+00	2.628058e-04	
298	1.600000e+00	2.651152e-04	
299	1.650000e+00	2.670765e-04	
300	1.700000e+00	2.687043e-04	
301	1.750000e+00	2.700212e-04	
302	1.800000e+00	2.710603e-04	
303	1.850000e+00	2.718641e-04	
304	1.900000e+00	2.724803e-04	
305	1.950000e+00	2.729545e-04	
306	2.000000e+00	2.733246e-04	
307	2.050000e+00	2.736197e-04	
308	2.100000e+00	2.738607e-04	
309	2.150000e+00	2.740620e-04	
310	2.200000e+00	2.742338e-04	
311	2.250000e+00	2.743832e-04	
312	2.300000e+00	2.745152e-04	
313	2.350000e+00	2.746335e-04	
314	2.400000e+00	2.747407e-04	
315	2.450000e+00	2.748390e-04	
316	2.500000e+00	2.749298e-04	
317	2.550000e+00	2.750143e-04	
318	2.600000e+00	2.750935e-04	
319	2.650000e+00	2.751682e-04	
320	2.700000e+00	2.752389e-04	
321	2.750000e+00	2.753062e-04	
322	2.800000e+00	2.753705e-04	
323	2.850000e+00	2.754321e-04	
324	2.900000e+00	2.754913e-04	
325	2.950000e+00	2.755484e-04	
326	3.000000e+00	2.756035e-04	
327	3.050000e+00	2.756569e-04	
328	3.100000e+00	2.757088e-04	
329	3.150000e+00	2.757592e-04	
330	3.200000e+00	2.758082e-04	
331	3.250000e+00	2.758561e-04	
332	3.300000e+00	2.759028e-04	
333	3.350000e+00	2.759485e-04	
334	3.400000e+00	2.759932e-04	
335	3.450000e+00	2.760371e-04	
336	3.500000e+00	2.760801e-04	
337	3.550000e+00	2.761224e-04	
338	3.600000e+00	2.761639e-04	
339	3.650000e+00	2.762047e-04	
340	3.700000e+00	2.762449e-04	
341	3.750000e+00	2.762845e-04	
342	3.800000e+00	2.763236e-04	
343	3.850000e+00	2.763621e-04	
344	3.900000e+00	2.764002e-04	

Index   v-sweep         -i(vds)         
--------------------------------------------------------------------------------
345	3.950000e+00	2.764379e-04	
346	4.000000e+00	2.764751e-04	
347	4.050000e+00	2.765120e-04	
348	4.100000e+00	2.765487e-04	
349	4.150000e+00	2.765851e-04	
350	4.200000e+00	2.766214e-04	
351	4.250000e+00	2.766576e-04	
352	4.300000e+00	2.766938e-04	
353	4.350000e+00	2.767302e-04	
354	4.400000e+00	2.767669e-04	
355	4.450000e+00	2.768040e-04	
356	4.500000e+00	2.768418e-04	
357	4.550000e+00	2.768804e-04	
358	4.600000e+00	2.769201e-04	
359	4.650000e+00	2.769612e-04	
360	4.700000e+00	2.770040e-04	
361	4.750000e+00	2.770489e-04	
362	4.800000e+00	2.770964e-04	
363	4.850000e+00	2.771468e-04	
364	4.900000e+00	2.772007e-04	
365	4.950000e+00	2.772587e-04	
366	5.000000e+00	2.773215e-04	
367	5.050000e+00	2.773897e-04	
368	5.100000e+00	2.774642e-04	
369	5.150000e+00	2.775459e-04	
370	5.200000e+00	2.776356e-04	
371	5.250000e+00	2.777345e-04	
372	5.300000e+00	2.778436e-04	
373	5.350000e+00	2.779642e-04	
374	5.400000e+00	2.780974e-04	
375	5.450000e+00	2.782448e-04	
376	5.500000e+00	2.784078e-04	
377	5.550000e+00	2.785879e-04	
378	5.600000e+00	2.787869e-04	
379	5.650000e+00	2.790065e-04	
380	5.700000e+00	2.792486e-04	
381	5.750000e+00	2.795151e-04	
382	5.800000e+00	2.798083e-04	
383	5.850000e+00	2.801301e-04	
384	5.900000e+00	2.804830e-04	
385	5.950000e+00	2.808693e-04	
386	6.000000e+00	2.812915e-04	
387	6.050000e+00	2.817522e-04	
388	6.100000e+00	2.822541e-04	
389	6.150000e+00	2.828001e-04	
390	6.200000e+00	2.833929e-04	
391	6.250000e+00	2.840356e-04	
392	6.300000e+00	2.847313e-04	
393	6.350000e+00	2.854832e-04	
394	6.400000e+00	2.862946e-04	
395	6.450000e+00	2.871688e-04	
396	6.500000e+00	2.881093e-04	
397	6.550000e+00	2.891197e-04	
398	6.600000e+00	2.902035e-04	
399	0.000000e+00	-0.000000e+00	
400	5.000000e-02	1.898590e-05	
401	1.000000e-01	3.742642e-05	
402	1.500000e-01	5.543485e-05	

Index   v-sweep         -i(vds)         
--------------------------------------------------------------------------------
403	2.000000e-01	7.304107e-05	
404	2.500000e-01	9.025402e-05	
405	3.000000e-01	1.070774e-04	
406	3.500000e-01	1.235135e-04	
407	4.000000e-01	1.395643e-04	
408	4.500000e-01	1.552318e-04	
409	5.000000e-01	1.705179e-04	
410	5.500000e-01	1.854243e-04	
411	6.000000e-01	1.999530e-04	
412	6.500000e-01	2.141057e-04	
413	7.000000e-01	2.278843e-04	
414	7.500000e-01	2.412906e-04	
415	8.000000e-01	2.543264e-04	
416	8.500000e-01	2.669935e-04	
417	9.000000e-01	2.792936e-04	
418	9.500000e-01	2.912285e-04	
419	1.000000e+00	3.027999e-04	
420	1.050000e+00	3.140096e-04	
421	1.100000e+00	3.248593e-04	
422	1.150000e+00	3.353508e-04	
423	1.200000e+00	3.454856e-04	
424	1.250000e+00	3.552656e-04	
425	1.300000e+00	3.646923e-04	
426	1.350000e+00	3.737675e-04	
427	1.400000e+00	3.824927e-04	
428	1.450000e+00	3.908697e-04	
429	1.500000e+00	3.989000e-04	
430	1.550000e+00	4.065853e-04	
431	1.600000e+00	4.139271e-04	
432	1.650000e+00	4.209270e-04	
433	1.700000e+00	4.275867e-04	
434	1.750000e+00	4.339075e-04	
435	1.800000e+00	4.398911e-04	
436	1.850000e+00	4.455389e-04	
437	1.900000e+00	4.508524e-04	
438	1.950000e+00	4.558331e-04	
439	2.000000e+00	4.604825e-04	
440	2.050000e+00	4.648019e-04	
441	2.100000e+00	4.687928e-04	
442	2.150000e+00	4.724569e-04	
443	2.200000e+00	4.757958e-04	
444	2.250000e+00	4.788117e-04	
445	2.300000e+00	4.815076e-04	
446	2.350000e+00	4.838879e-04	
447	2.400000e+00	4.859597e-04	
448	2.450000e+00	4.877341e-04	
449	2.500000e+00	4.892284e-04	
450	2.550000e+00	4.904668e-04	
451	2.600000e+00	4.914804e-04	
452	2.650000e+00	4.923047e-04	
453	2.700000e+00	4.929753e-04	
454	2.750000e+00	4.935244e-04	
455	2.800000e+00	4.939792e-04	
456	2.850000e+00	4.943612e-04	
457	2.900000e+00	4.946868e-04	
458	2.950000e+00	4.949684e-04	
459	3.000000e+00	4.952152e-04	
460	3.050000e+00	4.954343e-04	

Index   v-sweep         -i(vds)         
--------------------------------------------------------------------------------
461	3.100000e+00	4.956309e-04	
462	3.150000e+00	4.958091e-04	
463	3.200000e+00	4.959721e-04	
464	3.250000e+00	4.961222e-04	
465	3.300000e+00	4.962615e-04	
466	3.350000e+00	4.963916e-04	
467	3.400000e+00	4.965136e-04	
468	3.450000e+00	4.966286e-04	
469	3.500000e+00	4.967375e-04	
470	3.550000e+00	4.968411e-04	
471	3.600000e+00	4.969398e-04	
472	3.650000e+00	4.970343e-04	
473	3.700000e+00	4.971249e-04	
474	3.750000e+00	4.972121e-04	
475	3.800000e+00	4.972962e-04	
476	3.850000e+00	4.973774e-04	
477	3.900000e+00	4.974560e-04	
478	3.950000e+00	4.975323e-04	
479	4.000000e+00	4.976063e-04	
480	4.050000e+00	4.976784e-04	
481	4.100000e+00	4.977486e-04	
482	4.150000e+00	4.978170e-04	
483	4.200000e+00	4.978838e-04	
484	4.250000e+00	4.979492e-04	
485	4.300000e+00	4.980131e-04	
486	4.350000e+00	4.980758e-04	
487	4.400000e+00	4.981372e-04	
488	4.450000e+00	4.981975e-04	
489	4.500000e+00	4.982567e-04	
490	4.550000e+00	4.983149e-04	
491	4.600000e+00	4.983723e-04	
492	4.650000e+00	4.984287e-04	
493	4.700000e+00	4.984844e-04	
494	4.750000e+00	4.985395e-04	
495	4.800000e+00	4.985939e-04	
496	4.850000e+00	4.986478e-04	
497	4.900000e+00	4.987014e-04	
498	4.950000e+00	4.987547e-04	
499	5.000000e+00	4.988080e-04	
500	5.050000e+00	4.988613e-04	
501	5.100000e+00	4.989150e-04	
502	5.150000e+00	4.989692e-04	
503	5.200000e+00	4.990243e-04	
504	5.250000e+00	4.990807e-04	
505	5.300000e+00	4.991386e-04	
506	5.350000e+00	4.991987e-04	
507	5.400000e+00	4.992613e-04	
508	5.450000e+00	4.993272e-04	
509	5.500000e+00	4.993970e-04	
510	5.550000e+00	4.994714e-04	
511	5.600000e+00	4.995515e-04	
512	5.650000e+00	4.996380e-04	
513	5.700000e+00	4.997322e-04	
514	5.750000e+00	4.998351e-04	
515	5.800000e+00	4.999482e-04	
516	5.850000e+00	5.000730e-04	
517	5.900000e+00	5.002109e-04	
518	5.950000e+00	5.003637e-04	

Index   v-sweep         -i(vds)         
--------------------------------------------------------------------------------
519	6.000000e+00	5.005333e-04	
520	6.050000e+00	5.007217e-04	
521	6.100000e+00	5.009312e-04	
522	6.150000e+00	5.011641e-04	
523	6.200000e+00	5.014228e-04	
524	6.250000e+00	5.017102e-04	
525	6.300000e+00	5.020291e-04	
526	6.350000e+00	5.023825e-04	
527	6.400000e+00	5.027736e-04	
528	6.450000e+00	5.032059e-04	
529	6.500000e+00	5.036830e-04	
530	6.550000e+00	5.042086e-04	
531	6.600000e+00	5.047867e-04	
532	0.000000e+00	-0.000000e+00	
533	5.000000e-02	2.215500e-05	
534	1.000000e-01	4.380094e-05	
535	1.500000e-01	6.505078e-05	
536	2.000000e-01	8.593409e-05	
537	2.500000e-01	1.064595e-04	
538	3.000000e-01	1.266304e-04	
539	3.500000e-01	1.464488e-04	
540	4.000000e-01	1.659164e-04	
541	4.500000e-01	1.850348e-04	
542	5.000000e-01	2.038055e-04	
543	5.500000e-01	2.222303e-04	
544	6.000000e-01	2.403105e-04	
545	6.500000e-01	2.580478e-04	
546	7.000000e-01	2.754436e-04	
547	7.500000e-01	2.924996e-04	
548	8.000000e-01	3.092171e-04	
549	8.500000e-01	3.255978e-04	
550	9.000000e-01	3.416431e-04	
551	9.500000e-01	3.573544e-04	
552	1.000000e+00	3.727334e-04	
553	1.050000e+00	3.877813e-04	
554	1.100000e+00	4.024998e-04	
555	1.150000e+00	4.168902e-04	
556	1.200000e+00	4.309540e-04	
557	1.250000e+00	4.446927e-04	
558	1.300000e+00	4.581076e-04	
559	1.350000e+00	4.712001e-04	
560	1.400000e+00	4.839717e-04	
561	1.450000e+00	4.964238e-04	
562	1.500000e+00	5.085577e-04	
563	1.550000e+00	5.203749e-04	
564	1.600000e+00	5.318766e-04	
565	1.650000e+00	5.430643e-04	
566	1.700000e+00	5.539394e-04	
567	1.750000e+00	5.645031e-04	
568	1.800000e+00	5.747567e-04	
569	1.850000e+00	5.847017e-04	
570	1.900000e+00	5.943393e-04	
571	1.950000e+00	6.036708e-04	
572	2.000000e+00	6.126975e-04	
573	2.050000e+00	6.214207e-04	
574	2.100000e+00	6.298416e-04	
575	2.150000e+00	6.379615e-04	
576	2.200000e+00	6.457817e-04	

Index   v-sweep         -i(vds)         
--------------------------------------------------------------------------------
577	2.250000e+00	6.533032e-04	
578	2.300000e+00	6.605274e-04	
579	2.350000e+00	6.674555e-04	
580	2.400000e+00	6.740884e-04	
581	2.450000e+00	6.804275e-04	
582	2.500000e+00	6.864736e-04	
583	2.550000e+00	6.922280e-04	
584	2.600000e+00	6.976916e-04	
585	2.650000e+00	7.028653e-04	
586	2.700000e+00	7.077501e-04	
587	2.750000e+00	7.123466e-04	
588	2.800000e+00	7.166558e-04	
589	2.850000e+00	7.206781e-04	
590	2.900000e+00	7.244142e-04	
591	2.950000e+00	7.278648e-04	
592	3.000000e+00	7.310305e-04	
593	3.050000e+00	7.339125e-04	
594	3.100000e+00	7.365125e-04	
595	3.150000e+00	7.388340e-04	
596	3.200000e+00	7.408829e-04	
597	3.250000e+00	7.426690e-04	
598	3.300000e+00	7.442069e-04	
599	3.350000e+00	7.455171e-04	
600	3.400000e+00	7.466244e-04	
601	3.450000e+00	7.475569e-04	
602	3.500000e+00	7.483427e-04	
603	3.550000e+00	7.490079e-04	
604	3.600000e+00	7.495754e-04	
605	3.650000e+00	7.500639e-04	
606	3.700000e+00	7.504889e-04	
607	3.750000e+00	7.508625e-04	
608	3.800000e+00	7.511941e-04	
609	3.850000e+00	7.514913e-04	
610	3.900000e+00	7.517599e-04	
611	3.950000e+00	7.520047e-04	
612	4.000000e+00	7.522294e-04	
613	4.050000e+00	7.524369e-04	
614	4.100000e+00	7.526298e-04	
615	4.150000e+00	7.528099e-04	
616	4.200000e+00	7.529789e-04	
617	4.250000e+00	7.531382e-04	
618	4.300000e+00	7.532889e-04	
619	4.350000e+00	7.534320e-04	
620	4.400000e+00	7.535683e-04	
621	4.450000e+00	7.536985e-04	
622	4.500000e+00	7.538233e-04	
623	4.550000e+00	7.539431e-04	
624	4.600000e+00	7.540583e-04	
625	4.650000e+00	7.541694e-04	
626	4.700000e+00	7.542768e-04	
627	4.750000e+00	7.543807e-04	
628	4.800000e+00	7.544815e-04	
629	4.850000e+00	7.545793e-04	
630	4.900000e+00	7.546743e-04	
631	4.950000e+00	7.547669e-04	
632	5.000000e+00	7.548571e-04	
633	5.050000e+00	7.549451e-04	
634	5.100000e+00	7.550310e-04	

Index   v-sweep         -i(vds)         
--------------------------------------------------------------------------------
635	5.150000e+00	7.551151e-04	
636	5.200000e+00	7.551974e-04	
637	5.250000e+00	7.552780e-04	
638	5.300000e+00	7.553570e-04	
639	5.350000e+00	7.554346e-04	
640	5.400000e+00	7.555109e-04	
641	5.450000e+00	7.555859e-04	
642	5.500000e+00	7.556599e-04	
643	5.550000e+00	7.557329e-04	
644	5.600000e+00	7.558051e-04	
645	5.650000e+00	7.558766e-04	
646	5.700000e+00	7.559477e-04	
647	5.750000e+00	7.560186e-04	
648	5.800000e+00	7.560894e-04	
649	5.850000e+00	7.561607e-04	
650	5.900000e+00	7.562326e-04	
651	5.950000e+00	7.563057e-04	
652	6.000000e+00	7.563804e-04	
653	6.050000e+00	7.564573e-04	
654	6.100000e+00	7.565370e-04	
655	6.150000e+00	7.566204e-04	
656	6.200000e+00	7.567082e-04	
657	6.250000e+00	7.568015e-04	
658	6.300000e+00	7.569014e-04	
659	6.350000e+00	7.570091e-04	
660	6.400000e+00	7.571261e-04	
661	6.450000e+00	7.572539e-04	
662	6.500000e+00	7.573943e-04	
663	6.550000e+00	7.575491e-04	
664	6.600000e+00	7.577205e-04	
665	0.000000e+00	-0.000000e+00	
666	5.000000e-02	2.442271e-05	
667	1.000000e-01	4.837393e-05	
668	1.500000e-01	7.196632e-05	
669	2.000000e-01	9.522914e-05	
670	2.500000e-01	1.181707e-04	
671	3.000000e-01	1.407942e-04	
672	3.500000e-01	1.631012e-04	
673	4.000000e-01	1.850933e-04	
674	4.500000e-01	2.067717e-04	
675	5.000000e-01	2.281377e-04	
676	5.500000e-01	2.491926e-04	
677	6.000000e-01	2.699377e-04	
678	6.500000e-01	2.903742e-04	
679	7.000000e-01	3.105034e-04	
680	7.500000e-01	3.303266e-04	
681	8.000000e-01	3.498450e-04	
682	8.500000e-01	3.690599e-04	
683	9.000000e-01	3.879724e-04	
684	9.500000e-01	4.065838e-04	
685	1.000000e+00	4.248953e-04	
686	1.050000e+00	4.429081e-04	
687	1.100000e+00	4.606235e-04	
688	1.150000e+00	4.780426e-04	
689	1.200000e+00	4.951666e-04	
690	1.250000e+00	5.119967e-04	
691	1.300000e+00	5.285341e-04	
692	1.350000e+00	5.447800e-04	

Index   v-sweep         -i(vds)         
--------------------------------------------------------------------------------
693	1.400000e+00	5.607355e-04	
694	1.450000e+00	5.764018e-04	
695	1.500000e+00	5.917800e-04	
696	1.550000e+00	6.068713e-04	
697	1.600000e+00	6.216768e-04	
698	1.650000e+00	6.361976e-04	
699	1.700000e+00	6.504349e-04	
700	1.750000e+00	6.643899e-04	
701	1.800000e+00	6.780636e-04	
702	1.850000e+00	6.914570e-04	
703	1.900000e+00	7.045715e-04	
704	1.950000e+00	7.174079e-04	
705	2.000000e+00	7.299674e-04	
706	2.050000e+00	7.422512e-04	
707	2.100000e+00	7.542602e-04	
708	2.150000e+00	7.659955e-04	
709	2.200000e+00	7.774583e-04	
710	2.250000e+00	7.886495e-04	
711	2.300000e+00	7.995702e-04	
712	2.350000e+00	8.102215e-04	
713	2.400000e+00	8.206043e-04	
714	2.450000e+00	8.307198e-04	
715	2.500000e+00	8.405688e-04	
716	2.550000e+00	8.501525e-04	
717	2.600000e+00	8.594719e-04	
718	2.650000e+00	8.685278e-04	
719	2.700000e+00	8.773214e-04	
720	2.750000e+00	8.858535e-04	
721	2.800000e+00	8.941251e-04	
722	2.850000e+00	9.021372e-04	
723	2.900000e+00	9.098907e-04	
724	2.950000e+00	9.173865e-04	
725	3.000000e+00	9.246255e-04	
726	3.050000e+00	9.316085e-04	
727	3.100000e+00	9.383364e-04	
728	3.150000e+00	9.448101e-04	
729	3.200000e+00	9.510302e-04	
730	3.250000e+00	9.569975e-04	
731	3.300000e+00	9.627128e-04	
732	3.350000e+00	9.681766e-04	
733	3.400000e+00	9.733894e-04	
734	3.450000e+00	9.783518e-04	
735	3.500000e+00	9.830640e-04	
736	3.550000e+00	9.875265e-04	
737	3.600000e+00	9.917391e-04	
738	3.650000e+00	9.957020e-04	
739	3.700000e+00	9.994149e-04	
740	3.750000e+00	1.002877e-03	
741	3.800000e+00	1.006089e-03	
742	3.850000e+00	1.009050e-03	
743	3.900000e+00	1.011761e-03	
744	3.950000e+00	1.014222e-03	
745	4.000000e+00	1.016436e-03	
746	4.050000e+00	1.018409e-03	
747	4.100000e+00	1.020150e-03	
748	4.150000e+00	1.021673e-03	
749	4.200000e+00	1.022995e-03	
750	4.250000e+00	1.024137e-03	

Index   v-sweep         -i(vds)         
--------------------------------------------------------------------------------
751	4.300000e+00	1.025122e-03	
752	4.350000e+00	1.025973e-03	
753	4.400000e+00	1.026711e-03	
754	4.450000e+00	1.027353e-03	
755	4.500000e+00	1.027918e-03	
756	4.550000e+00	1.028417e-03	
757	4.600000e+00	1.028862e-03	
758	4.650000e+00	1.029262e-03	
759	4.700000e+00	1.029624e-03	
760	4.750000e+00	1.029954e-03	
761	4.800000e+00	1.030257e-03	
762	4.850000e+00	1.030536e-03	
763	4.900000e+00	1.030795e-03	
764	4.950000e+00	1.031036e-03	
765	5.000000e+00	1.031262e-03	
766	5.050000e+00	1.031474e-03	
767	5.100000e+00	1.031675e-03	
768	5.150000e+00	1.031865e-03	
769	5.200000e+00	1.032046e-03	
770	5.250000e+00	1.032218e-03	
771	5.300000e+00	1.032382e-03	
772	5.350000e+00	1.032539e-03	
773	5.400000e+00	1.032690e-03	
774	5.450000e+00	1.032836e-03	
775	5.500000e+00	1.032976e-03	
776	5.550000e+00	1.033111e-03	
777	5.600000e+00	1.033242e-03	
778	5.650000e+00	1.033368e-03	
779	5.700000e+00	1.033491e-03	
780	5.750000e+00	1.033611e-03	
781	5.800000e+00	1.033727e-03	
782	5.850000e+00	1.033840e-03	
783	5.900000e+00	1.033950e-03	
784	5.950000e+00	1.034057e-03	
785	6.000000e+00	1.034162e-03	
786	6.050000e+00	1.034265e-03	
787	6.100000e+00	1.034365e-03	
788	6.150000e+00	1.034464e-03	
789	6.200000e+00	1.034560e-03	
790	6.250000e+00	1.034655e-03	
791	6.300000e+00	1.034749e-03	
792	6.350000e+00	1.034841e-03	
793	6.400000e+00	1.034931e-03	
794	6.450000e+00	1.035021e-03	
795	6.500000e+00	1.035111e-03	
796	6.550000e+00	1.035199e-03	
797	6.600000e+00	1.035288e-03	
Note: No ".plot", ".print", or ".fourier" lines; no simulations run
