
Note: Compatibility modes selected: hs

Warning: m=xx on .subckt line will override multiplier m hierarchy!


Circuit: ***************************

Doing analysis at TEMP = 125.000000 and TNOM = 125.000000


No. of Data Rows : 798
                          ***************************
                          DC transfer characteristic  Mon Jan  9 13:57:41  2023
--------------------------------------------------------------------------------
Index   v-sweep         -i(vds)         
--------------------------------------------------------------------------------
0	0.000000e+00	-0.000000e+00	
1	5.000000e-02	1.384136e-05	
2	1.000000e-01	2.479693e-05	
3	1.500000e-01	3.304863e-05	
4	2.000000e-01	3.879934e-05	
5	2.500000e-01	4.243421e-05	
6	3.000000e-01	4.466125e-05	
7	3.500000e-01	4.621157e-05	
8	4.000000e-01	4.746601e-05	
9	4.500000e-01	4.856382e-05	
10	5.000000e-01	4.956006e-05	
11	5.500000e-01	5.048219e-05	
12	6.000000e-01	5.134671e-05	
13	6.500000e-01	5.216472e-05	
14	7.000000e-01	5.294425e-05	
15	7.500000e-01	5.369135e-05	
16	8.000000e-01	5.441073e-05	
17	8.500000e-01	5.510615e-05	
18	9.000000e-01	5.578065e-05	
19	9.500000e-01	5.643675e-05	
20	1.000000e+00	5.707654e-05	
21	1.050000e+00	5.770177e-05	
22	1.100000e+00	5.831394e-05	
23	1.150000e+00	5.891435e-05	
24	1.200000e+00	5.950410e-05	
25	1.250000e+00	6.008416e-05	
26	1.300000e+00	6.065537e-05	
27	1.350000e+00	6.121847e-05	
28	1.400000e+00	6.177413e-05	
29	1.450000e+00	6.232293e-05	
30	1.500000e+00	6.286540e-05	
31	1.550000e+00	6.340198e-05	
32	1.600000e+00	6.393312e-05	
33	1.650000e+00	6.445919e-05	
34	1.700000e+00	6.498052e-05	
35	1.750000e+00	6.549744e-05	
36	1.800000e+00	6.601022e-05	
37	1.850000e+00	6.651913e-05	
38	1.900000e+00	6.702440e-05	
39	1.950000e+00	6.752625e-05	
40	2.000000e+00	6.802488e-05	
41	2.050000e+00	6.852047e-05	
42	2.100000e+00	6.901320e-05	
43	2.150000e+00	6.950322e-05	
44	2.200000e+00	6.999068e-05	
45	2.250000e+00	7.047571e-05	
46	2.300000e+00	7.095845e-05	
47	2.350000e+00	7.143901e-05	
48	2.400000e+00	7.191751e-05	
49	2.450000e+00	7.239405e-05	
50	2.500000e+00	7.286874e-05	
51	2.550000e+00	7.334167e-05	
52	2.600000e+00	7.381295e-05	
53	2.650000e+00	7.428265e-05	
54	2.700000e+00	7.475088e-05	

Index   v-sweep         -i(vds)         
--------------------------------------------------------------------------------
55	2.750000e+00	7.521773e-05	
56	2.800000e+00	7.568329e-05	
57	2.850000e+00	7.614765e-05	
58	2.900000e+00	7.661093e-05	
59	2.950000e+00	7.707321e-05	
60	3.000000e+00	7.753463e-05	
61	3.050000e+00	7.799528e-05	
62	3.100000e+00	7.845531e-05	
63	3.150000e+00	7.891484e-05	
64	3.200000e+00	7.937405e-05	
65	3.250000e+00	7.983307e-05	
66	3.300000e+00	8.029211e-05	
67	3.350000e+00	8.075136e-05	
68	3.400000e+00	8.121103e-05	
69	3.450000e+00	8.167136e-05	
70	3.500000e+00	8.213261e-05	
71	3.550000e+00	8.259507e-05	
72	3.600000e+00	8.305904e-05	
73	3.650000e+00	8.352486e-05	
74	3.700000e+00	8.399290e-05	
75	3.750000e+00	8.446355e-05	
76	3.800000e+00	8.493724e-05	
77	3.850000e+00	8.541442e-05	
78	3.900000e+00	8.589561e-05	
79	3.950000e+00	8.638133e-05	
80	4.000000e+00	8.687214e-05	
81	4.050000e+00	8.736867e-05	
82	4.100000e+00	8.787155e-05	
83	4.150000e+00	8.838149e-05	
84	4.200000e+00	8.889921e-05	
85	4.250000e+00	8.942549e-05	
86	4.300000e+00	8.996116e-05	
87	4.350000e+00	9.050708e-05	
88	4.400000e+00	9.106417e-05	
89	4.450000e+00	9.163339e-05	
90	4.500000e+00	9.221575e-05	
91	4.550000e+00	9.281229e-05	
92	4.600000e+00	9.342414e-05	
93	4.650000e+00	9.405243e-05	
94	4.700000e+00	9.469838e-05	
95	4.750000e+00	9.536324e-05	
96	4.800000e+00	9.604831e-05	
97	4.850000e+00	9.675494e-05	
98	4.900000e+00	9.748454e-05	
99	4.950000e+00	9.823855e-05	
100	5.000000e+00	9.901848e-05	
101	5.050000e+00	9.982588e-05	
102	5.100000e+00	1.006623e-04	
103	5.150000e+00	1.015295e-04	
104	5.200000e+00	1.024291e-04	
105	5.250000e+00	1.033629e-04	
106	5.300000e+00	1.043326e-04	
107	5.350000e+00	1.053401e-04	
108	5.400000e+00	1.063873e-04	
109	5.450000e+00	1.074761e-04	
110	5.500000e+00	1.086085e-04	
111	5.550000e+00	1.097865e-04	
112	5.600000e+00	1.110122e-04	

Index   v-sweep         -i(vds)         
--------------------------------------------------------------------------------
113	5.650000e+00	1.122877e-04	
114	5.700000e+00	1.136151e-04	
115	5.750000e+00	1.149967e-04	
116	5.800000e+00	1.164347e-04	
117	5.850000e+00	1.179313e-04	
118	5.900000e+00	1.194889e-04	
119	5.950000e+00	1.211098e-04	
120	6.000000e+00	1.227964e-04	
121	6.050000e+00	1.245512e-04	
122	6.100000e+00	1.263766e-04	
123	6.150000e+00	1.282751e-04	
124	6.200000e+00	1.302492e-04	
125	6.250000e+00	1.323015e-04	
126	6.300000e+00	1.344347e-04	
127	6.350000e+00	1.366512e-04	
128	6.400000e+00	1.389539e-04	
129	6.450000e+00	1.413453e-04	
130	6.500000e+00	1.438282e-04	
131	6.550000e+00	1.464053e-04	
132	6.600000e+00	1.490794e-04	
133	0.000000e+00	-0.000000e+00	
134	5.000000e-02	4.489071e-05	
135	1.000000e-01	8.634367e-05	
136	1.500000e-01	1.245277e-04	
137	2.000000e-01	1.595652e-04	
138	2.500000e-01	1.915638e-04	
139	3.000000e-01	2.206246e-04	
140	3.500000e-01	2.468448e-04	
141	4.000000e-01	2.703190e-04	
142	4.500000e-01	2.911410e-04	
143	5.000000e-01	3.094062e-04	
144	5.500000e-01	3.252170e-04	
145	6.000000e-01	3.386932e-04	
146	6.500000e-01	3.499923e-04	
147	7.000000e-01	3.593393e-04	
148	7.500000e-01	3.670426e-04	
149	8.000000e-01	3.734553e-04	
150	8.500000e-01	3.788983e-04	
151	9.000000e-01	3.836174e-04	
152	9.500000e-01	3.877870e-04	
153	1.000000e+00	3.915290e-04	
154	1.050000e+00	3.949303e-04	
155	1.100000e+00	3.980544e-04	
156	1.150000e+00	4.009488e-04	
157	1.200000e+00	4.036500e-04	
158	1.250000e+00	4.061866e-04	
159	1.300000e+00	4.085811e-04	
160	1.350000e+00	4.108520e-04	
161	1.400000e+00	4.130142e-04	
162	1.450000e+00	4.150803e-04	
163	1.500000e+00	4.170607e-04	
164	1.550000e+00	4.189643e-04	
165	1.600000e+00	4.207986e-04	
166	1.650000e+00	4.225701e-04	
167	1.700000e+00	4.242845e-04	
168	1.750000e+00	4.259467e-04	
169	1.800000e+00	4.275609e-04	
170	1.850000e+00	4.291311e-04	

Index   v-sweep         -i(vds)         
--------------------------------------------------------------------------------
171	1.900000e+00	4.306605e-04	
172	1.950000e+00	4.321523e-04	
173	2.000000e+00	4.336089e-04	
174	2.050000e+00	4.350330e-04	
175	2.100000e+00	4.364266e-04	
176	2.150000e+00	4.377917e-04	
177	2.200000e+00	4.391301e-04	
178	2.250000e+00	4.404435e-04	
179	2.300000e+00	4.417332e-04	
180	2.350000e+00	4.430007e-04	
181	2.400000e+00	4.442472e-04	
182	2.450000e+00	4.454738e-04	
183	2.500000e+00	4.466816e-04	
184	2.550000e+00	4.478716e-04	
185	2.600000e+00	4.490447e-04	
186	2.650000e+00	4.502017e-04	
187	2.700000e+00	4.513434e-04	
188	2.750000e+00	4.524705e-04	
189	2.800000e+00	4.535838e-04	
190	2.850000e+00	4.546838e-04	
191	2.900000e+00	4.557712e-04	
192	2.950000e+00	4.568465e-04	
193	3.000000e+00	4.579105e-04	
194	3.050000e+00	4.589635e-04	
195	3.100000e+00	4.600061e-04	
196	3.150000e+00	4.610389e-04	
197	3.200000e+00	4.620624e-04	
198	3.250000e+00	4.630772e-04	
199	3.300000e+00	4.640838e-04	
200	3.350000e+00	4.650828e-04	
201	3.400000e+00	4.660747e-04	
202	3.450000e+00	4.670603e-04	
203	3.500000e+00	4.680402e-04	
204	3.550000e+00	4.690151e-04	
205	3.600000e+00	4.699859e-04	
206	3.650000e+00	4.709534e-04	
207	3.700000e+00	4.719185e-04	
208	3.750000e+00	4.728822e-04	
209	3.800000e+00	4.738456e-04	
210	3.850000e+00	4.748100e-04	
211	3.900000e+00	4.757766e-04	
212	3.950000e+00	4.767468e-04	
213	4.000000e+00	4.777222e-04	
214	4.050000e+00	4.787045e-04	
215	4.100000e+00	4.796954e-04	
216	4.150000e+00	4.806968e-04	
217	4.200000e+00	4.817110e-04	
218	4.250000e+00	4.827400e-04	
219	4.300000e+00	4.837864e-04	
220	4.350000e+00	4.848527e-04	
221	4.400000e+00	4.859416e-04	
222	4.450000e+00	4.870561e-04	
223	4.500000e+00	4.881993e-04	
224	4.550000e+00	4.893744e-04	
225	4.600000e+00	4.905850e-04	
226	4.650000e+00	4.918347e-04	
227	4.700000e+00	4.931275e-04	
228	4.750000e+00	4.944673e-04	

Index   v-sweep         -i(vds)         
--------------------------------------------------------------------------------
229	4.800000e+00	4.958584e-04	
230	4.850000e+00	4.973053e-04	
231	4.900000e+00	4.988128e-04	
232	4.950000e+00	5.003855e-04	
233	5.000000e+00	5.020287e-04	
234	5.050000e+00	5.037476e-04	
235	5.100000e+00	5.055477e-04	
236	5.150000e+00	5.074346e-04	
237	5.200000e+00	5.094143e-04	
238	5.250000e+00	5.114928e-04	
239	5.300000e+00	5.136763e-04	
240	5.350000e+00	5.159715e-04	
241	5.400000e+00	5.183848e-04	
242	5.450000e+00	5.209231e-04	
243	5.500000e+00	5.235935e-04	
244	5.550000e+00	5.264032e-04	
245	5.600000e+00	5.293595e-04	
246	5.650000e+00	5.324700e-04	
247	5.700000e+00	5.357424e-04	
248	5.750000e+00	5.391846e-04	
249	5.800000e+00	5.428046e-04	
250	5.850000e+00	5.466107e-04	
251	5.900000e+00	5.506111e-04	
252	5.950000e+00	5.548144e-04	
253	6.000000e+00	5.592291e-04	
254	6.050000e+00	5.638641e-04	
255	6.100000e+00	5.687283e-04	
256	6.150000e+00	5.738306e-04	
257	6.200000e+00	5.791801e-04	
258	6.250000e+00	5.847863e-04	
259	6.300000e+00	5.906583e-04	
260	6.350000e+00	5.968057e-04	
261	6.400000e+00	6.032380e-04	
262	6.450000e+00	6.099648e-04	
263	6.500000e+00	6.169960e-04	
264	6.550000e+00	6.243413e-04	
265	6.600000e+00	6.320106e-04	
266	0.000000e+00	-0.000000e+00	
267	5.000000e-02	6.791674e-05	
268	1.000000e-01	1.322106e-04	
269	1.500000e-01	1.930512e-04	
270	2.000000e-01	2.505617e-04	
271	2.500000e-01	3.048503e-04	
272	3.000000e-01	3.560181e-04	
273	3.500000e-01	4.041615e-04	
274	4.000000e-01	4.493727e-04	
275	4.500000e-01	4.917404e-04	
276	5.000000e-01	5.313497e-04	
277	5.500000e-01	5.682825e-04	
278	6.000000e-01	6.026178e-04	
279	6.500000e-01	6.344316e-04	
280	7.000000e-01	6.637976e-04	
281	7.500000e-01	6.907873e-04	
282	8.000000e-01	7.154700e-04	
283	8.500000e-01	7.379135e-04	
284	9.000000e-01	7.581845e-04	
285	9.500000e-01	7.763502e-04	
286	1.000000e+00	7.924821e-04	

Index   v-sweep         -i(vds)         
--------------------------------------------------------------------------------
287	1.050000e+00	8.066669e-04	
288	1.100000e+00	8.190262e-04	
289	1.150000e+00	8.297370e-04	
290	1.200000e+00	8.390259e-04	
291	1.250000e+00	8.471354e-04	
292	1.300000e+00	8.542875e-04	
293	1.350000e+00	8.606659e-04	
294	1.400000e+00	8.664160e-04	
295	1.450000e+00	8.716502e-04	
296	1.500000e+00	8.764556e-04	
297	1.550000e+00	8.809004e-04	
298	1.600000e+00	8.850383e-04	
299	1.650000e+00	8.889121e-04	
300	1.700000e+00	8.925568e-04	
301	1.750000e+00	8.960008e-04	
302	1.800000e+00	8.992676e-04	
303	1.850000e+00	9.023770e-04	
304	1.900000e+00	9.053456e-04	
305	1.950000e+00	9.081877e-04	
306	2.000000e+00	9.109152e-04	
307	2.050000e+00	9.135388e-04	
308	2.100000e+00	9.160676e-04	
309	2.150000e+00	9.185096e-04	
310	2.200000e+00	9.208718e-04	
311	2.250000e+00	9.231605e-04	
312	2.300000e+00	9.253810e-04	
313	2.350000e+00	9.275385e-04	
314	2.400000e+00	9.296372e-04	
315	2.450000e+00	9.316812e-04	
316	2.500000e+00	9.336741e-04	
317	2.550000e+00	9.356191e-04	
318	2.600000e+00	9.375191e-04	
319	2.650000e+00	9.393768e-04	
320	2.700000e+00	9.411947e-04	
321	2.750000e+00	9.429750e-04	
322	2.800000e+00	9.447199e-04	
323	2.850000e+00	9.464311e-04	
324	2.900000e+00	9.481105e-04	
325	2.950000e+00	9.497597e-04	
326	3.000000e+00	9.513801e-04	
327	3.050000e+00	9.529733e-04	
328	3.100000e+00	9.545405e-04	
329	3.150000e+00	9.560829e-04	
330	3.200000e+00	9.576017e-04	
331	3.250000e+00	9.590981e-04	
332	3.300000e+00	9.605730e-04	
333	3.350000e+00	9.620276e-04	
334	3.400000e+00	9.634627e-04	
335	3.450000e+00	9.648795e-04	
336	3.500000e+00	9.662787e-04	
337	3.550000e+00	9.676615e-04	
338	3.600000e+00	9.690288e-04	
339	3.650000e+00	9.703816e-04	
340	3.700000e+00	9.717211e-04	
341	3.750000e+00	9.730483e-04	
342	3.800000e+00	9.743644e-04	
343	3.850000e+00	9.756707e-04	
344	3.900000e+00	9.769687e-04	

Index   v-sweep         -i(vds)         
--------------------------------------------------------------------------------
345	3.950000e+00	9.782598e-04	
346	4.000000e+00	9.795456e-04	
347	4.050000e+00	9.808280e-04	
348	4.100000e+00	9.821088e-04	
349	4.150000e+00	9.833903e-04	
350	4.200000e+00	9.846747e-04	
351	4.250000e+00	9.859645e-04	
352	4.300000e+00	9.872625e-04	
353	4.350000e+00	9.885718e-04	
354	4.400000e+00	9.898955e-04	
355	4.450000e+00	9.912373e-04	
356	4.500000e+00	9.926008e-04	
357	4.550000e+00	9.939902e-04	
358	4.600000e+00	9.954099e-04	
359	4.650000e+00	9.968647e-04	
360	4.700000e+00	9.983595e-04	
361	4.750000e+00	9.998999e-04	
362	4.800000e+00	1.001491e-03	
363	4.850000e+00	1.003140e-03	
364	4.900000e+00	1.004853e-03	
365	4.950000e+00	1.006637e-03	
366	5.000000e+00	1.008498e-03	
367	5.050000e+00	1.010445e-03	
368	5.100000e+00	1.012486e-03	
369	5.150000e+00	1.014628e-03	
370	5.200000e+00	1.016881e-03	
371	5.250000e+00	1.019254e-03	
372	5.300000e+00	1.021757e-03	
373	5.350000e+00	1.024398e-03	
374	5.400000e+00	1.027190e-03	
375	5.450000e+00	1.030142e-03	
376	5.500000e+00	1.033265e-03	
377	5.550000e+00	1.036572e-03	
378	5.600000e+00	1.040073e-03	
379	5.650000e+00	1.043782e-03	
380	5.700000e+00	1.047710e-03	
381	5.750000e+00	1.051871e-03	
382	5.800000e+00	1.056278e-03	
383	5.850000e+00	1.060945e-03	
384	5.900000e+00	1.065886e-03	
385	5.950000e+00	1.071114e-03	
386	6.000000e+00	1.076646e-03	
387	6.050000e+00	1.082495e-03	
388	6.100000e+00	1.088676e-03	
389	6.150000e+00	1.095207e-03	
390	6.200000e+00	1.102101e-03	
391	6.250000e+00	1.109376e-03	
392	6.300000e+00	1.117048e-03	
393	6.350000e+00	1.125133e-03	
394	6.400000e+00	1.133648e-03	
395	6.450000e+00	1.142610e-03	
396	6.500000e+00	1.152037e-03	
397	6.550000e+00	1.161946e-03	
398	6.600000e+00	1.172354e-03	
399	0.000000e+00	-0.000000e+00	
400	5.000000e-02	8.462032e-05	
401	1.000000e-01	1.656524e-04	
402	1.500000e-01	2.432559e-04	

Index   v-sweep         -i(vds)         
--------------------------------------------------------------------------------
403	2.000000e-01	3.175446e-04	
404	2.500000e-01	3.886180e-04	
405	3.000000e-01	4.565694e-04	
406	3.500000e-01	5.214877e-04	
407	4.000000e-01	5.834582e-04	
408	4.500000e-01	6.425631e-04	
409	5.000000e-01	6.988814e-04	
410	5.500000e-01	7.524891e-04	
411	6.000000e-01	8.034594e-04	
412	6.500000e-01	8.518631e-04	
413	7.000000e-01	8.977680e-04	
414	7.500000e-01	9.412400e-04	
415	8.000000e-01	9.823425e-04	
416	8.500000e-01	1.021137e-03	
417	9.000000e-01	1.057681e-03	
418	9.500000e-01	1.092034e-03	
419	1.000000e+00	1.124248e-03	
420	1.050000e+00	1.154378e-03	
421	1.100000e+00	1.182470e-03	
422	1.150000e+00	1.208573e-03	
423	1.200000e+00	1.232725e-03	
424	1.250000e+00	1.254960e-03	
425	1.300000e+00	1.275304e-03	
426	1.350000e+00	1.293775e-03	
427	1.400000e+00	1.310394e-03	
428	1.450000e+00	1.325214e-03	
429	1.500000e+00	1.338341e-03	
430	1.550000e+00	1.349943e-03	
431	1.600000e+00	1.360225e-03	
432	1.650000e+00	1.369392e-03	
433	1.700000e+00	1.377628e-03	
434	1.750000e+00	1.385090e-03	
435	1.800000e+00	1.391903e-03	
436	1.850000e+00	1.398170e-03	
437	1.900000e+00	1.403971e-03	
438	1.950000e+00	1.409372e-03	
439	2.000000e+00	1.414427e-03	
440	2.050000e+00	1.419180e-03	
441	2.100000e+00	1.423667e-03	
442	2.150000e+00	1.427918e-03	
443	2.200000e+00	1.431960e-03	
444	2.250000e+00	1.435812e-03	
445	2.300000e+00	1.439495e-03	
446	2.350000e+00	1.443025e-03	
447	2.400000e+00	1.446414e-03	
448	2.450000e+00	1.449675e-03	
449	2.500000e+00	1.452819e-03	
450	2.550000e+00	1.455854e-03	
451	2.600000e+00	1.458790e-03	
452	2.650000e+00	1.461634e-03	
453	2.700000e+00	1.464392e-03	
454	2.750000e+00	1.467071e-03	
455	2.800000e+00	1.469675e-03	
456	2.850000e+00	1.472209e-03	
457	2.900000e+00	1.474678e-03	
458	2.950000e+00	1.477085e-03	
459	3.000000e+00	1.479435e-03	
460	3.050000e+00	1.481731e-03	

Index   v-sweep         -i(vds)         
--------------------------------------------------------------------------------
461	3.100000e+00	1.483975e-03	
462	3.150000e+00	1.486170e-03	
463	3.200000e+00	1.488320e-03	
464	3.250000e+00	1.490426e-03	
465	3.300000e+00	1.492491e-03	
466	3.350000e+00	1.494516e-03	
467	3.400000e+00	1.496504e-03	
468	3.450000e+00	1.498457e-03	
469	3.500000e+00	1.500375e-03	
470	3.550000e+00	1.502261e-03	
471	3.600000e+00	1.504117e-03	
472	3.650000e+00	1.505943e-03	
473	3.700000e+00	1.507741e-03	
474	3.750000e+00	1.509512e-03	
475	3.800000e+00	1.511259e-03	
476	3.850000e+00	1.512981e-03	
477	3.900000e+00	1.514682e-03	
478	3.950000e+00	1.516361e-03	
479	4.000000e+00	1.518021e-03	
480	4.050000e+00	1.519663e-03	
481	4.100000e+00	1.521289e-03	
482	4.150000e+00	1.522901e-03	
483	4.200000e+00	1.524501e-03	
484	4.250000e+00	1.526090e-03	
485	4.300000e+00	1.527671e-03	
486	4.350000e+00	1.529247e-03	
487	4.400000e+00	1.530820e-03	
488	4.450000e+00	1.532393e-03	
489	4.500000e+00	1.533970e-03	
490	4.550000e+00	1.535555e-03	
491	4.600000e+00	1.537150e-03	
492	4.650000e+00	1.538762e-03	
493	4.700000e+00	1.540393e-03	
494	4.750000e+00	1.542050e-03	
495	4.800000e+00	1.543738e-03	
496	4.850000e+00	1.545462e-03	
497	4.900000e+00	1.547230e-03	
498	4.950000e+00	1.549048e-03	
499	5.000000e+00	1.550923e-03	
500	5.050000e+00	1.552864e-03	
501	5.100000e+00	1.554879e-03	
502	5.150000e+00	1.556977e-03	
503	5.200000e+00	1.559167e-03	
504	5.250000e+00	1.561459e-03	
505	5.300000e+00	1.563865e-03	
506	5.350000e+00	1.566395e-03	
507	5.400000e+00	1.569062e-03	
508	5.450000e+00	1.571877e-03	
509	5.500000e+00	1.574854e-03	
510	5.550000e+00	1.578006e-03	
511	5.600000e+00	1.581348e-03	
512	5.650000e+00	1.584894e-03	
513	5.700000e+00	1.588659e-03	
514	5.750000e+00	1.592661e-03	
515	5.800000e+00	1.596915e-03	
516	5.850000e+00	1.601438e-03	
517	5.900000e+00	1.606249e-03	
518	5.950000e+00	1.611365e-03	

Index   v-sweep         -i(vds)         
--------------------------------------------------------------------------------
519	6.000000e+00	1.616805e-03	
520	6.050000e+00	1.622589e-03	
521	6.100000e+00	1.628738e-03	
522	6.150000e+00	1.635270e-03	
523	6.200000e+00	1.642207e-03	
524	6.250000e+00	1.649571e-03	
525	6.300000e+00	1.657384e-03	
526	6.350000e+00	1.665667e-03	
527	6.400000e+00	1.674445e-03	
528	6.450000e+00	1.683740e-03	
529	6.500000e+00	1.693576e-03	
530	6.550000e+00	1.703977e-03	
531	6.600000e+00	1.714968e-03	
532	0.000000e+00	-0.000000e+00	
533	5.000000e-02	9.604101e-05	
534	1.000000e-01	1.886790e-04	
535	1.500000e-01	2.780586e-04	
536	2.000000e-01	3.642796e-04	
537	2.500000e-01	4.474282e-04	
538	3.000000e-01	5.275852e-04	
539	3.500000e-01	6.048280e-04	
540	4.000000e-01	6.792310e-04	
541	4.500000e-01	7.508660e-04	
542	5.000000e-01	8.198025e-04	
543	5.500000e-01	8.861073e-04	
544	6.000000e-01	9.498453e-04	
545	6.500000e-01	1.011079e-03	
546	7.000000e-01	1.069868e-03	
547	7.500000e-01	1.126272e-03	
548	8.000000e-01	1.180348e-03	
549	8.500000e-01	1.232149e-03	
550	9.000000e-01	1.281728e-03	
551	9.500000e-01	1.329139e-03	
552	1.000000e+00	1.374429e-03	
553	1.050000e+00	1.417647e-03	
554	1.100000e+00	1.458840e-03	
555	1.150000e+00	1.498054e-03	
556	1.200000e+00	1.535331e-03	
557	1.250000e+00	1.570714e-03	
558	1.300000e+00	1.604242e-03	
559	1.350000e+00	1.635954e-03	
560	1.400000e+00	1.665884e-03	
561	1.450000e+00	1.694063e-03	
562	1.500000e+00	1.720516e-03	
563	1.550000e+00	1.745259e-03	
564	1.600000e+00	1.768299e-03	
565	1.650000e+00	1.789630e-03	
566	1.700000e+00	1.809236e-03	
567	1.750000e+00	1.827111e-03	
568	1.800000e+00	1.843277e-03	
569	1.850000e+00	1.857812e-03	
570	1.900000e+00	1.870852e-03	
571	1.950000e+00	1.882565e-03	
572	2.000000e+00	1.893131e-03	
573	2.050000e+00	1.902717e-03	
574	2.100000e+00	1.911468e-03	
575	2.150000e+00	1.919508e-03	
576	2.200000e+00	1.926939e-03	

Index   v-sweep         -i(vds)         
--------------------------------------------------------------------------------
577	2.250000e+00	1.933845e-03	
578	2.300000e+00	1.940294e-03	
579	2.350000e+00	1.946345e-03	
580	2.400000e+00	1.952045e-03	
581	2.450000e+00	1.957433e-03	
582	2.500000e+00	1.962545e-03	
583	2.550000e+00	1.967407e-03	
584	2.600000e+00	1.972046e-03	
585	2.650000e+00	1.976482e-03	
586	2.700000e+00	1.980734e-03	
587	2.750000e+00	1.984818e-03	
588	2.800000e+00	1.988747e-03	
589	2.850000e+00	1.992534e-03	
590	2.900000e+00	1.996191e-03	
591	2.950000e+00	1.999726e-03	
592	3.000000e+00	2.003149e-03	
593	3.050000e+00	2.006468e-03	
594	3.100000e+00	2.009689e-03	
595	3.150000e+00	2.012819e-03	
596	3.200000e+00	2.015863e-03	
597	3.250000e+00	2.018828e-03	
598	3.300000e+00	2.021717e-03	
599	3.350000e+00	2.024535e-03	
600	3.400000e+00	2.027286e-03	
601	3.450000e+00	2.029973e-03	
602	3.500000e+00	2.032601e-03	
603	3.550000e+00	2.035172e-03	
604	3.600000e+00	2.037689e-03	
605	3.650000e+00	2.040155e-03	
606	3.700000e+00	2.042571e-03	
607	3.750000e+00	2.044942e-03	
608	3.800000e+00	2.047268e-03	
609	3.850000e+00	2.049552e-03	
610	3.900000e+00	2.051797e-03	
611	3.950000e+00	2.054002e-03	
612	4.000000e+00	2.056172e-03	
613	4.050000e+00	2.058306e-03	
614	4.100000e+00	2.060408e-03	
615	4.150000e+00	2.062479e-03	
616	4.200000e+00	2.064521e-03	
617	4.250000e+00	2.066535e-03	
618	4.300000e+00	2.068523e-03	
619	4.350000e+00	2.070488e-03	
620	4.400000e+00	2.072431e-03	
621	4.450000e+00	2.074355e-03	
622	4.500000e+00	2.076262e-03	
623	4.550000e+00	2.078156e-03	
624	4.600000e+00	2.080038e-03	
625	4.650000e+00	2.081912e-03	
626	4.700000e+00	2.083781e-03	
627	4.750000e+00	2.085650e-03	
628	4.800000e+00	2.087522e-03	
629	4.850000e+00	2.089402e-03	
630	4.900000e+00	2.091295e-03	
631	4.950000e+00	2.093207e-03	
632	5.000000e+00	2.095143e-03	
633	5.050000e+00	2.097110e-03	
634	5.100000e+00	2.099116e-03	

Index   v-sweep         -i(vds)         
--------------------------------------------------------------------------------
635	5.150000e+00	2.101167e-03	
636	5.200000e+00	2.103272e-03	
637	5.250000e+00	2.105440e-03	
638	5.300000e+00	2.107680e-03	
639	5.350000e+00	2.110003e-03	
640	5.400000e+00	2.112420e-03	
641	5.450000e+00	2.114942e-03	
642	5.500000e+00	2.117581e-03	
643	5.550000e+00	2.120351e-03	
644	5.600000e+00	2.123266e-03	
645	5.650000e+00	2.126340e-03	
646	5.700000e+00	2.129589e-03	
647	5.750000e+00	2.133030e-03	
648	5.800000e+00	2.136678e-03	
649	5.850000e+00	2.140552e-03	
650	5.900000e+00	2.144671e-03	
651	5.950000e+00	2.149054e-03	
652	6.000000e+00	2.153722e-03	
653	6.050000e+00	2.158695e-03	
654	6.100000e+00	2.163995e-03	
655	6.150000e+00	2.169646e-03	
656	6.200000e+00	2.175670e-03	
657	6.250000e+00	2.182091e-03	
658	6.300000e+00	2.188935e-03	
659	6.350000e+00	2.196228e-03	
660	6.400000e+00	2.203995e-03	
661	6.450000e+00	2.212263e-03	
662	6.500000e+00	2.221062e-03	
663	6.550000e+00	2.230418e-03	
664	6.600000e+00	2.240362e-03	
665	0.000000e+00	-0.000000e+00	
666	5.000000e-02	1.032712e-04	
667	1.000000e-01	2.034073e-04	
668	1.500000e-01	3.005369e-04	
669	2.000000e-01	3.947450e-04	
670	2.500000e-01	4.861036e-04	
671	3.000000e-01	5.746801e-04	
672	3.500000e-01	6.605390e-04	
673	4.000000e-01	7.437428e-04	
674	4.500000e-01	8.243520e-04	
675	5.000000e-01	9.024250e-04	
676	5.500000e-01	9.780187e-04	
677	6.000000e-01	1.051188e-03	
678	6.500000e-01	1.121986e-03	
679	7.000000e-01	1.190465e-03	
680	7.500000e-01	1.256675e-03	
681	8.000000e-01	1.320665e-03	
682	8.500000e-01	1.382481e-03	
683	9.000000e-01	1.442170e-03	
684	9.500000e-01	1.499776e-03	
685	1.000000e+00	1.555342e-03	
686	1.050000e+00	1.608911e-03	
687	1.100000e+00	1.660524e-03	
688	1.150000e+00	1.710219e-03	
689	1.200000e+00	1.758037e-03	
690	1.250000e+00	1.804015e-03	
691	1.300000e+00	1.848188e-03	
692	1.350000e+00	1.890594e-03	

Index   v-sweep         -i(vds)         
--------------------------------------------------------------------------------
693	1.400000e+00	1.931267e-03	
694	1.450000e+00	1.970239e-03	
695	1.500000e+00	2.007544e-03	
696	1.550000e+00	2.043212e-03	
697	1.600000e+00	2.077274e-03	
698	1.650000e+00	2.109756e-03	
699	1.700000e+00	2.140684e-03	
700	1.750000e+00	2.170080e-03	
701	1.800000e+00	2.197960e-03	
702	1.850000e+00	2.224336e-03	
703	1.900000e+00	2.249208e-03	
704	1.950000e+00	2.272566e-03	
705	2.000000e+00	2.294387e-03	
706	2.050000e+00	2.314644e-03	
707	2.100000e+00	2.333313e-03	
708	2.150000e+00	2.350404e-03	
709	2.200000e+00	2.365970e-03	
710	2.250000e+00	2.380114e-03	
711	2.300000e+00	2.392972e-03	
712	2.350000e+00	2.404694e-03	
713	2.400000e+00	2.415423e-03	
714	2.450000e+00	2.425291e-03	
715	2.500000e+00	2.434414e-03	
716	2.550000e+00	2.442888e-03	
717	2.600000e+00	2.450797e-03	
718	2.650000e+00	2.458209e-03	
719	2.700000e+00	2.465183e-03	
720	2.750000e+00	2.471768e-03	
721	2.800000e+00	2.478007e-03	
722	2.850000e+00	2.483935e-03	
723	2.900000e+00	2.489582e-03	
724	2.950000e+00	2.494976e-03	
725	3.000000e+00	2.500139e-03	
726	3.050000e+00	2.505092e-03	
727	3.100000e+00	2.509852e-03	
728	3.150000e+00	2.514435e-03	
729	3.200000e+00	2.518854e-03	
730	3.250000e+00	2.523122e-03	
731	3.300000e+00	2.527249e-03	
732	3.350000e+00	2.531246e-03	
733	3.400000e+00	2.535122e-03	
734	3.450000e+00	2.538884e-03	
735	3.500000e+00	2.542539e-03	
736	3.550000e+00	2.546094e-03	
737	3.600000e+00	2.549556e-03	
738	3.650000e+00	2.552929e-03	
739	3.700000e+00	2.556218e-03	
740	3.750000e+00	2.559429e-03	
741	3.800000e+00	2.562565e-03	
742	3.850000e+00	2.565630e-03	
743	3.900000e+00	2.568629e-03	
744	3.950000e+00	2.571563e-03	
745	4.000000e+00	2.574437e-03	
746	4.050000e+00	2.577253e-03	
747	4.100000e+00	2.580014e-03	
748	4.150000e+00	2.582723e-03	
749	4.200000e+00	2.585382e-03	
750	4.250000e+00	2.587993e-03	

Index   v-sweep         -i(vds)         
--------------------------------------------------------------------------------
751	4.300000e+00	2.590558e-03	
752	4.350000e+00	2.593081e-03	
753	4.400000e+00	2.595562e-03	
754	4.450000e+00	2.598004e-03	
755	4.500000e+00	2.600410e-03	
756	4.550000e+00	2.602780e-03	
757	4.600000e+00	2.605119e-03	
758	4.650000e+00	2.607427e-03	
759	4.700000e+00	2.609707e-03	
760	4.750000e+00	2.611962e-03	
761	4.800000e+00	2.614195e-03	
762	4.850000e+00	2.616409e-03	
763	4.900000e+00	2.618607e-03	
764	4.950000e+00	2.620793e-03	
765	5.000000e+00	2.622971e-03	
766	5.050000e+00	2.625145e-03	
767	5.100000e+00	2.627320e-03	
768	5.150000e+00	2.629502e-03	
769	5.200000e+00	2.631696e-03	
770	5.250000e+00	2.633908e-03	
771	5.300000e+00	2.636146e-03	
772	5.350000e+00	2.638417e-03	
773	5.400000e+00	2.640729e-03	
774	5.450000e+00	2.643092e-03	
775	5.500000e+00	2.645515e-03	
776	5.550000e+00	2.648009e-03	
777	5.600000e+00	2.650584e-03	
778	5.650000e+00	2.653254e-03	
779	5.700000e+00	2.656030e-03	
780	5.750000e+00	2.658928e-03	
781	5.800000e+00	2.661961e-03	
782	5.850000e+00	2.665145e-03	
783	5.900000e+00	2.668497e-03	
784	5.950000e+00	2.672035e-03	
785	6.000000e+00	2.675778e-03	
786	6.050000e+00	2.679744e-03	
787	6.100000e+00	2.683954e-03	
788	6.150000e+00	2.688430e-03	
789	6.200000e+00	2.693195e-03	
790	6.250000e+00	2.698272e-03	
791	6.300000e+00	2.703686e-03	
792	6.350000e+00	2.709462e-03	
793	6.400000e+00	2.715627e-03	
794	6.450000e+00	2.722208e-03	
795	6.500000e+00	2.729234e-03	
796	6.550000e+00	2.736735e-03	
797	6.600000e+00	2.744741e-03	
Note: No ".plot", ".print", or ".fourier" lines; no simulations run
