
Note: Compatibility modes selected: hs

Warning: m=xx on .subckt line will override multiplier m hierarchy!


Circuit: ***************************

Doing analysis at TEMP = 125.000000 and TNOM = 125.000000


No. of Data Rows : 798
                          ***************************
                          DC transfer characteristic  Mon Jan  9 13:57:41  2023
--------------------------------------------------------------------------------
Index   v-sweep         -i(vds)         
--------------------------------------------------------------------------------
0	0.000000e+00	-0.000000e+00	
1	5.000000e-02	1.498137e-05	
2	1.000000e-01	2.705081e-05	
3	1.500000e-01	3.639669e-05	
4	2.000000e-01	4.315641e-05	
5	2.500000e-01	4.755120e-05	
6	3.000000e-01	5.006015e-05	
7	3.500000e-01	5.143581e-05	
8	4.000000e-01	5.229513e-05	
9	4.500000e-01	5.292514e-05	
10	5.000000e-01	5.343489e-05	
11	5.500000e-01	5.387003e-05	
12	6.000000e-01	5.425331e-05	
13	6.500000e-01	5.459788e-05	
14	7.000000e-01	5.491215e-05	
15	7.500000e-01	5.520194e-05	
16	8.000000e-01	5.547146e-05	
17	8.500000e-01	5.572390e-05	
18	9.000000e-01	5.596170e-05	
19	9.500000e-01	5.618684e-05	
20	1.000000e+00	5.640089e-05	
21	1.050000e+00	5.660516e-05	
22	1.100000e+00	5.680072e-05	
23	1.150000e+00	5.698848e-05	
24	1.200000e+00	5.716923e-05	
25	1.250000e+00	5.734361e-05	
26	1.300000e+00	5.751221e-05	
27	1.350000e+00	5.767553e-05	
28	1.400000e+00	5.783399e-05	
29	1.450000e+00	5.798800e-05	
30	1.500000e+00	5.813788e-05	
31	1.550000e+00	5.828394e-05	
32	1.600000e+00	5.842646e-05	
33	1.650000e+00	5.856567e-05	
34	1.700000e+00	5.870180e-05	
35	1.750000e+00	5.883504e-05	
36	1.800000e+00	5.896558e-05	
37	1.850000e+00	5.909357e-05	
38	1.900000e+00	5.921917e-05	
39	1.950000e+00	5.934251e-05	
40	2.000000e+00	5.946371e-05	
41	2.050000e+00	5.958291e-05	
42	2.100000e+00	5.970019e-05	
43	2.150000e+00	5.981566e-05	
44	2.200000e+00	5.992941e-05	
45	2.250000e+00	6.004152e-05	
46	2.300000e+00	6.015208e-05	
47	2.350000e+00	6.026116e-05	
48	2.400000e+00	6.036883e-05	
49	2.450000e+00	6.047515e-05	
50	2.500000e+00	6.058020e-05	
51	2.550000e+00	6.068402e-05	
52	2.600000e+00	6.078669e-05	
53	2.650000e+00	6.088825e-05	
54	2.700000e+00	6.098878e-05	

Index   v-sweep         -i(vds)         
--------------------------------------------------------------------------------
55	2.750000e+00	6.108832e-05	
56	2.800000e+00	6.118694e-05	
57	2.850000e+00	6.128470e-05	
58	2.900000e+00	6.138167e-05	
59	2.950000e+00	6.147791e-05	
60	3.000000e+00	6.157349e-05	
61	3.050000e+00	6.166851e-05	
62	3.100000e+00	6.176303e-05	
63	3.150000e+00	6.185715e-05	
64	3.200000e+00	6.195098e-05	
65	3.250000e+00	6.204462e-05	
66	3.300000e+00	6.213820e-05	
67	3.350000e+00	6.223184e-05	
68	3.400000e+00	6.232569e-05	
69	3.450000e+00	6.241991e-05	
70	3.500000e+00	6.251467e-05	
71	3.550000e+00	6.261015e-05	
72	3.600000e+00	6.270656e-05	
73	3.650000e+00	6.280413e-05	
74	3.700000e+00	6.290308e-05	
75	3.750000e+00	6.300368e-05	
76	3.800000e+00	6.310620e-05	
77	3.850000e+00	6.321095e-05	
78	3.900000e+00	6.331823e-05	
79	3.950000e+00	6.342840e-05	
80	4.000000e+00	6.354182e-05	
81	4.050000e+00	6.365886e-05	
82	4.100000e+00	6.377995e-05	
83	4.150000e+00	6.390552e-05	
84	4.200000e+00	6.403602e-05	
85	4.250000e+00	6.417194e-05	
86	4.300000e+00	6.431379e-05	
87	4.350000e+00	6.446210e-05	
88	4.400000e+00	6.461743e-05	
89	4.450000e+00	6.478036e-05	
90	4.500000e+00	6.495150e-05	
91	4.550000e+00	6.513150e-05	
92	4.600000e+00	6.532100e-05	
93	4.650000e+00	6.552070e-05	
94	4.700000e+00	6.573131e-05	
95	4.750000e+00	6.595356e-05	
96	4.800000e+00	6.618822e-05	
97	4.850000e+00	6.643606e-05	
98	4.900000e+00	6.669791e-05	
99	4.950000e+00	6.697458e-05	
100	5.000000e+00	6.726695e-05	
101	5.050000e+00	6.757588e-05	
102	5.100000e+00	6.790228e-05	
103	5.150000e+00	6.824707e-05	
104	5.200000e+00	6.861119e-05	
105	5.250000e+00	6.899562e-05	
106	5.300000e+00	6.940133e-05	
107	5.350000e+00	6.982933e-05	
108	5.400000e+00	7.028065e-05	
109	5.450000e+00	7.075631e-05	
110	5.500000e+00	7.125740e-05	
111	5.550000e+00	7.178497e-05	
112	5.600000e+00	7.234013e-05	

Index   v-sweep         -i(vds)         
--------------------------------------------------------------------------------
113	5.650000e+00	7.292397e-05	
114	5.700000e+00	7.353763e-05	
115	5.750000e+00	7.418224e-05	
116	5.800000e+00	7.485894e-05	
117	5.850000e+00	7.556892e-05	
118	5.900000e+00	7.631332e-05	
119	5.950000e+00	7.709336e-05	
120	6.000000e+00	7.791021e-05	
121	6.050000e+00	7.876509e-05	
122	6.100000e+00	7.965922e-05	
123	6.150000e+00	8.059382e-05	
124	6.200000e+00	8.157011e-05	
125	6.250000e+00	8.258935e-05	
126	6.300000e+00	8.365278e-05	
127	6.350000e+00	8.476165e-05	
128	6.400000e+00	8.591722e-05	
129	6.450000e+00	8.712075e-05	
130	6.500000e+00	8.837351e-05	
131	6.550000e+00	8.967677e-05	
132	6.600000e+00	9.103179e-05	
133	0.000000e+00	-0.000000e+00	
134	5.000000e-02	5.005333e-05	
135	1.000000e-01	9.673875e-05	
136	1.500000e-01	1.402381e-04	
137	2.000000e-01	1.806479e-04	
138	2.500000e-01	2.180420e-04	
139	3.000000e-01	2.524871e-04	
140	3.500000e-01	2.840472e-04	
141	4.000000e-01	3.127847e-04	
142	4.500000e-01	3.387610e-04	
143	5.000000e-01	3.620370e-04	
144	5.500000e-01	3.826744e-04	
145	6.000000e-01	4.007378e-04	
146	6.500000e-01	4.162987e-04	
147	7.000000e-01	4.294444e-04	
148	7.500000e-01	4.402962e-04	
149	8.000000e-01	4.490394e-04	
150	8.500000e-01	4.559547e-04	
151	9.000000e-01	4.614067e-04	
152	9.500000e-01	4.657693e-04	
153	1.000000e+00	4.693496e-04	
154	1.050000e+00	4.723665e-04	
155	1.100000e+00	4.749681e-04	
156	1.150000e+00	4.772541e-04	
157	1.200000e+00	4.792936e-04	
158	1.250000e+00	4.811356e-04	
159	1.300000e+00	4.828161e-04	
160	1.350000e+00	4.843620e-04	
161	1.400000e+00	4.857944e-04	
162	1.450000e+00	4.871295e-04	
163	1.500000e+00	4.883803e-04	
164	1.550000e+00	4.895576e-04	
165	1.600000e+00	4.906700e-04	
166	1.650000e+00	4.917248e-04	
167	1.700000e+00	4.927281e-04	
168	1.750000e+00	4.936852e-04	
169	1.800000e+00	4.946004e-04	
170	1.850000e+00	4.954776e-04	

Index   v-sweep         -i(vds)         
--------------------------------------------------------------------------------
171	1.900000e+00	4.963202e-04	
172	1.950000e+00	4.971309e-04	
173	2.000000e+00	4.979125e-04	
174	2.050000e+00	4.986672e-04	
175	2.100000e+00	4.993969e-04	
176	2.150000e+00	5.001035e-04	
177	2.200000e+00	5.007886e-04	
178	2.250000e+00	5.014536e-04	
179	2.300000e+00	5.020998e-04	
180	2.350000e+00	5.027285e-04	
181	2.400000e+00	5.033406e-04	
182	2.450000e+00	5.039372e-04	
183	2.500000e+00	5.045191e-04	
184	2.550000e+00	5.050873e-04	
185	2.600000e+00	5.056423e-04	
186	2.650000e+00	5.061850e-04	
187	2.700000e+00	5.067160e-04	
188	2.750000e+00	5.072359e-04	
189	2.800000e+00	5.077451e-04	
190	2.850000e+00	5.082443e-04	
191	2.900000e+00	5.087340e-04	
192	2.950000e+00	5.092145e-04	
193	3.000000e+00	5.096864e-04	
194	3.050000e+00	5.101500e-04	
195	3.100000e+00	5.106058e-04	
196	3.150000e+00	5.110542e-04	
197	3.200000e+00	5.114956e-04	
198	3.250000e+00	5.119303e-04	
199	3.300000e+00	5.123588e-04	
200	3.350000e+00	5.127816e-04	
201	3.400000e+00	5.131990e-04	
202	3.450000e+00	5.136116e-04	
203	3.500000e+00	5.140199e-04	
204	3.550000e+00	5.144243e-04	
205	3.600000e+00	5.148256e-04	
206	3.650000e+00	5.152244e-04	
207	3.700000e+00	5.156213e-04	
208	3.750000e+00	5.160173e-04	
209	3.800000e+00	5.164131e-04	
210	3.850000e+00	5.168097e-04	
211	3.900000e+00	5.172082e-04	
212	3.950000e+00	5.176097e-04	
213	4.000000e+00	5.180155e-04	
214	4.050000e+00	5.184269e-04	
215	4.100000e+00	5.188456e-04	
216	4.150000e+00	5.192731e-04	
217	4.200000e+00	5.197112e-04	
218	4.250000e+00	5.201619e-04	
219	4.300000e+00	5.206272e-04	
220	4.350000e+00	5.211094e-04	
221	4.400000e+00	5.216109e-04	
222	4.450000e+00	5.221343e-04	
223	4.500000e+00	5.226824e-04	
224	4.550000e+00	5.232580e-04	
225	4.600000e+00	5.238643e-04	
226	4.650000e+00	5.245047e-04	
227	4.700000e+00	5.251826e-04	
228	4.750000e+00	5.259017e-04	

Index   v-sweep         -i(vds)         
--------------------------------------------------------------------------------
229	4.800000e+00	5.266659e-04	
230	4.850000e+00	5.274793e-04	
231	4.900000e+00	5.283462e-04	
232	4.950000e+00	5.292710e-04	
233	5.000000e+00	5.302585e-04	
234	5.050000e+00	5.313135e-04	
235	5.100000e+00	5.324411e-04	
236	5.150000e+00	5.336466e-04	
237	5.200000e+00	5.349353e-04	
238	5.250000e+00	5.363131e-04	
239	5.300000e+00	5.377857e-04	
240	5.350000e+00	5.393592e-04	
241	5.400000e+00	5.410398e-04	
242	5.450000e+00	5.428338e-04	
243	5.500000e+00	5.447480e-04	
244	5.550000e+00	5.467889e-04	
245	5.600000e+00	5.489636e-04	
246	5.650000e+00	5.512792e-04	
247	5.700000e+00	5.537428e-04	
248	5.750000e+00	5.563619e-04	
249	5.800000e+00	5.591440e-04	
250	5.850000e+00	5.620968e-04	
251	5.900000e+00	5.652282e-04	
252	5.950000e+00	5.685461e-04	
253	6.000000e+00	5.720586e-04	
254	6.050000e+00	5.757740e-04	
255	6.100000e+00	5.797006e-04	
256	6.150000e+00	5.838468e-04	
257	6.200000e+00	5.882212e-04	
258	6.250000e+00	5.928324e-04	
259	6.300000e+00	5.976892e-04	
260	6.350000e+00	6.028004e-04	
261	6.400000e+00	6.081750e-04	
262	6.450000e+00	6.138220e-04	
263	6.500000e+00	6.197503e-04	
264	6.550000e+00	6.259691e-04	
265	6.600000e+00	6.324877e-04	
266	0.000000e+00	-0.000000e+00	
267	5.000000e-02	7.730507e-05	
268	1.000000e-01	1.511394e-04	
269	1.500000e-01	2.216845e-04	
270	2.000000e-01	2.890365e-04	
271	2.500000e-01	3.532688e-04	
272	3.000000e-01	4.144476e-04	
273	3.500000e-01	4.726360e-04	
274	4.000000e-01	5.278953e-04	
275	4.500000e-01	5.802848e-04	
276	5.000000e-01	6.298624e-04	
277	5.500000e-01	6.766844e-04	
278	6.000000e-01	7.208055e-04	
279	6.500000e-01	7.622793e-04	
280	7.000000e-01	8.011577e-04	
281	7.500000e-01	8.374914e-04	
282	8.000000e-01	8.713300e-04	
283	8.500000e-01	9.027216e-04	
284	9.000000e-01	9.317133e-04	
285	9.500000e-01	9.583512e-04	
286	1.000000e+00	9.826803e-04	

Index   v-sweep         -i(vds)         
--------------------------------------------------------------------------------
287	1.050000e+00	1.004745e-03	
288	1.100000e+00	1.024590e-03	
289	1.150000e+00	1.042261e-03	
290	1.200000e+00	1.057814e-03	
291	1.250000e+00	1.071322e-03	
292	1.300000e+00	1.082899e-03	
293	1.350000e+00	1.092719e-03	
294	1.400000e+00	1.101017e-03	
295	1.450000e+00	1.108055e-03	
296	1.500000e+00	1.114083e-03	
297	1.550000e+00	1.119310e-03	
298	1.600000e+00	1.123903e-03	
299	1.650000e+00	1.127987e-03	
300	1.700000e+00	1.131659e-03	
301	1.750000e+00	1.134992e-03	
302	1.800000e+00	1.138041e-03	
303	1.850000e+00	1.140852e-03	
304	1.900000e+00	1.143458e-03	
305	1.950000e+00	1.145888e-03	
306	2.000000e+00	1.148165e-03	
307	2.050000e+00	1.150306e-03	
308	2.100000e+00	1.152328e-03	
309	2.150000e+00	1.154244e-03	
310	2.200000e+00	1.156064e-03	
311	2.250000e+00	1.157798e-03	
312	2.300000e+00	1.159454e-03	
313	2.350000e+00	1.161040e-03	
314	2.400000e+00	1.162561e-03	
315	2.450000e+00	1.164022e-03	
316	2.500000e+00	1.165429e-03	
317	2.550000e+00	1.166785e-03	
318	2.600000e+00	1.168095e-03	
319	2.650000e+00	1.169361e-03	
320	2.700000e+00	1.170587e-03	
321	2.750000e+00	1.171775e-03	
322	2.800000e+00	1.172928e-03	
323	2.850000e+00	1.174047e-03	
324	2.900000e+00	1.175136e-03	
325	2.950000e+00	1.176196e-03	
326	3.000000e+00	1.177227e-03	
327	3.050000e+00	1.178233e-03	
328	3.100000e+00	1.179214e-03	
329	3.150000e+00	1.180172e-03	
330	3.200000e+00	1.181108e-03	
331	3.250000e+00	1.182023e-03	
332	3.300000e+00	1.182918e-03	
333	3.350000e+00	1.183794e-03	
334	3.400000e+00	1.184652e-03	
335	3.450000e+00	1.185493e-03	
336	3.500000e+00	1.186317e-03	
337	3.550000e+00	1.187126e-03	
338	3.600000e+00	1.187921e-03	
339	3.650000e+00	1.188702e-03	
340	3.700000e+00	1.189470e-03	
341	3.750000e+00	1.190225e-03	
342	3.800000e+00	1.190970e-03	
343	3.850000e+00	1.191704e-03	
344	3.900000e+00	1.192428e-03	

Index   v-sweep         -i(vds)         
--------------------------------------------------------------------------------
345	3.950000e+00	1.193145e-03	
346	4.000000e+00	1.193854e-03	
347	4.050000e+00	1.194558e-03	
348	4.100000e+00	1.195257e-03	
349	4.150000e+00	1.195953e-03	
350	4.200000e+00	1.196648e-03	
351	4.250000e+00	1.197344e-03	
352	4.300000e+00	1.198042e-03	
353	4.350000e+00	1.198746e-03	
354	4.400000e+00	1.199457e-03	
355	4.450000e+00	1.200178e-03	
356	4.500000e+00	1.200913e-03	
357	4.550000e+00	1.201665e-03	
358	4.600000e+00	1.202437e-03	
359	4.650000e+00	1.203233e-03	
360	4.700000e+00	1.204057e-03	
361	4.750000e+00	1.204915e-03	
362	4.800000e+00	1.205811e-03	
363	4.850000e+00	1.206751e-03	
364	4.900000e+00	1.207740e-03	
365	4.950000e+00	1.208784e-03	
366	5.000000e+00	1.209890e-03	
367	5.050000e+00	1.211066e-03	
368	5.100000e+00	1.212317e-03	
369	5.150000e+00	1.213654e-03	
370	5.200000e+00	1.215082e-03	
371	5.250000e+00	1.216612e-03	
372	5.300000e+00	1.218253e-03	
373	5.350000e+00	1.220014e-03	
374	5.400000e+00	1.221904e-03	
375	5.450000e+00	1.223936e-03	
376	5.500000e+00	1.226119e-03	
377	5.550000e+00	1.228466e-03	
378	5.600000e+00	1.230988e-03	
379	5.650000e+00	1.233697e-03	
380	5.700000e+00	1.236606e-03	
381	5.750000e+00	1.239729e-03	
382	5.800000e+00	1.243078e-03	
383	5.850000e+00	1.246669e-03	
384	5.900000e+00	1.250516e-03	
385	5.950000e+00	1.254633e-03	
386	6.000000e+00	1.259035e-03	
387	6.050000e+00	1.263740e-03	
388	6.100000e+00	1.268761e-03	
389	6.150000e+00	1.274117e-03	
390	6.200000e+00	1.279823e-03	
391	6.250000e+00	1.285897e-03	
392	6.300000e+00	1.292356e-03	
393	6.350000e+00	1.299218e-03	
394	6.400000e+00	1.306500e-03	
395	6.450000e+00	1.314223e-03	
396	6.500000e+00	1.322403e-03	
397	6.550000e+00	1.331060e-03	
398	6.600000e+00	1.340213e-03	
399	0.000000e+00	-0.000000e+00	
400	5.000000e-02	9.768189e-05	
401	1.000000e-01	1.919651e-04	
402	1.500000e-01	2.830247e-04	

Index   v-sweep         -i(vds)         
--------------------------------------------------------------------------------
403	2.000000e-01	3.709507e-04	
404	2.500000e-01	4.558105e-04	
405	3.000000e-01	5.376647e-04	
406	3.500000e-01	6.165712e-04	
407	4.000000e-01	6.925860e-04	
408	4.500000e-01	7.657636e-04	
409	5.000000e-01	8.361573e-04	
410	5.500000e-01	9.038188e-04	
411	6.000000e-01	9.687986e-04	
412	6.500000e-01	1.031146e-03	
413	7.000000e-01	1.090909e-03	
414	7.500000e-01	1.148135e-03	
415	8.000000e-01	1.202869e-03	
416	8.500000e-01	1.255156e-03	
417	9.000000e-01	1.305039e-03	
418	9.500000e-01	1.352561e-03	
419	1.000000e+00	1.397763e-03	
420	1.050000e+00	1.440686e-03	
421	1.100000e+00	1.481368e-03	
422	1.150000e+00	1.519848e-03	
423	1.200000e+00	1.556163e-03	
424	1.250000e+00	1.590348e-03	
425	1.300000e+00	1.622437e-03	
426	1.350000e+00	1.652462e-03	
427	1.400000e+00	1.680453e-03	
428	1.450000e+00	1.706436e-03	
429	1.500000e+00	1.730435e-03	
430	1.550000e+00	1.752465e-03	
431	1.600000e+00	1.772540e-03	
432	1.650000e+00	1.790670e-03	
433	1.700000e+00	1.806872e-03	
434	1.750000e+00	1.821193e-03	
435	1.800000e+00	1.833732e-03	
436	1.850000e+00	1.844646e-03	
437	1.900000e+00	1.854140e-03	
438	1.950000e+00	1.862432e-03	
439	2.000000e+00	1.869728e-03	
440	2.050000e+00	1.876203e-03	
441	2.100000e+00	1.882002e-03	
442	2.150000e+00	1.887240e-03	
443	2.200000e+00	1.892008e-03	
444	2.250000e+00	1.896381e-03	
445	2.300000e+00	1.900416e-03	
446	2.350000e+00	1.904161e-03	
447	2.400000e+00	1.907653e-03	
448	2.450000e+00	1.910925e-03	
449	2.500000e+00	1.914002e-03	
450	2.550000e+00	1.916907e-03	
451	2.600000e+00	1.919658e-03	
452	2.650000e+00	1.922271e-03	
453	2.700000e+00	1.924758e-03	
454	2.750000e+00	1.927133e-03	
455	2.800000e+00	1.929405e-03	
456	2.850000e+00	1.931582e-03	
457	2.900000e+00	1.933673e-03	
458	2.950000e+00	1.935684e-03	
459	3.000000e+00	1.937621e-03	
460	3.050000e+00	1.939491e-03	

Index   v-sweep         -i(vds)         
--------------------------------------------------------------------------------
461	3.100000e+00	1.941297e-03	
462	3.150000e+00	1.943044e-03	
463	3.200000e+00	1.944736e-03	
464	3.250000e+00	1.946376e-03	
465	3.300000e+00	1.947968e-03	
466	3.350000e+00	1.949515e-03	
467	3.400000e+00	1.951019e-03	
468	3.450000e+00	1.952483e-03	
469	3.500000e+00	1.953909e-03	
470	3.550000e+00	1.955299e-03	
471	3.600000e+00	1.956655e-03	
472	3.650000e+00	1.957978e-03	
473	3.700000e+00	1.959271e-03	
474	3.750000e+00	1.960535e-03	
475	3.800000e+00	1.961771e-03	
476	3.850000e+00	1.962981e-03	
477	3.900000e+00	1.964166e-03	
478	3.950000e+00	1.965327e-03	
479	4.000000e+00	1.966466e-03	
480	4.050000e+00	1.967583e-03	
481	4.100000e+00	1.968681e-03	
482	4.150000e+00	1.969760e-03	
483	4.200000e+00	1.970821e-03	
484	4.250000e+00	1.971867e-03	
485	4.300000e+00	1.972898e-03	
486	4.350000e+00	1.973916e-03	
487	4.400000e+00	1.974922e-03	
488	4.450000e+00	1.975920e-03	
489	4.500000e+00	1.976909e-03	
490	4.550000e+00	1.977894e-03	
491	4.600000e+00	1.978876e-03	
492	4.650000e+00	1.979859e-03	
493	4.700000e+00	1.980845e-03	
494	4.750000e+00	1.981837e-03	
495	4.800000e+00	1.982840e-03	
496	4.850000e+00	1.983858e-03	
497	4.900000e+00	1.984895e-03	
498	4.950000e+00	1.985957e-03	
499	5.000000e+00	1.987048e-03	
500	5.050000e+00	1.988175e-03	
501	5.100000e+00	1.989345e-03	
502	5.150000e+00	1.990564e-03	
503	5.200000e+00	1.991840e-03	
504	5.250000e+00	1.993182e-03	
505	5.300000e+00	1.994599e-03	
506	5.350000e+00	1.996099e-03	
507	5.400000e+00	1.997694e-03	
508	5.450000e+00	1.999394e-03	
509	5.500000e+00	2.001210e-03	
510	5.550000e+00	2.003156e-03	
511	5.600000e+00	2.005244e-03	
512	5.650000e+00	2.007487e-03	
513	5.700000e+00	2.009901e-03	
514	5.750000e+00	2.012500e-03	
515	5.800000e+00	2.015301e-03	
516	5.850000e+00	2.018320e-03	
517	5.900000e+00	2.021574e-03	
518	5.950000e+00	2.025082e-03	

Index   v-sweep         -i(vds)         
--------------------------------------------------------------------------------
519	6.000000e+00	2.028863e-03	
520	6.050000e+00	2.032937e-03	
521	6.100000e+00	2.037323e-03	
522	6.150000e+00	2.042043e-03	
523	6.200000e+00	2.047119e-03	
524	6.250000e+00	2.052573e-03	
525	6.300000e+00	2.058429e-03	
526	6.350000e+00	2.064710e-03	
527	6.400000e+00	2.071440e-03	
528	6.450000e+00	2.078647e-03	
529	6.500000e+00	2.086354e-03	
530	6.550000e+00	2.094588e-03	
531	6.600000e+00	2.103377e-03	
532	0.000000e+00	-0.000000e+00	
533	5.000000e-02	1.120676e-04	
534	1.000000e-01	2.209252e-04	
535	1.500000e-01	3.267387e-04	
536	2.000000e-01	4.295894e-04	
537	2.500000e-01	5.295363e-04	
538	3.000000e-01	6.266318e-04	
539	3.500000e-01	7.209262e-04	
540	4.000000e-01	8.124679e-04	
541	4.500000e-01	9.013044e-04	
542	5.000000e-01	9.874819e-04	
543	5.500000e-01	1.071046e-03	
544	6.000000e-01	1.152040e-03	
545	6.500000e-01	1.230507e-03	
546	7.000000e-01	1.306491e-03	
547	7.500000e-01	1.380031e-03	
548	8.000000e-01	1.451169e-03	
549	8.500000e-01	1.519944e-03	
550	9.000000e-01	1.586394e-03	
551	9.500000e-01	1.650557e-03	
552	1.000000e+00	1.712470e-03	
553	1.050000e+00	1.772170e-03	
554	1.100000e+00	1.829690e-03	
555	1.150000e+00	1.885067e-03	
556	1.200000e+00	1.938333e-03	
557	1.250000e+00	1.989521e-03	
558	1.300000e+00	2.038664e-03	
559	1.350000e+00	2.085794e-03	
560	1.400000e+00	2.130940e-03	
561	1.450000e+00	2.174132e-03	
562	1.500000e+00	2.215400e-03	
563	1.550000e+00	2.254771e-03	
564	1.600000e+00	2.292272e-03	
565	1.650000e+00	2.327929e-03	
566	1.700000e+00	2.361765e-03	
567	1.750000e+00	2.393802e-03	
568	1.800000e+00	2.424059e-03	
569	1.850000e+00	2.452550e-03	
570	1.900000e+00	2.479285e-03	
571	1.950000e+00	2.504267e-03	
572	2.000000e+00	2.527490e-03	
573	2.050000e+00	2.548940e-03	
574	2.100000e+00	2.568596e-03	
575	2.150000e+00	2.586447e-03	
576	2.200000e+00	2.602505e-03	

Index   v-sweep         -i(vds)         
--------------------------------------------------------------------------------
577	2.250000e+00	2.616829e-03	
578	2.300000e+00	2.629537e-03	
579	2.350000e+00	2.640790e-03	
580	2.400000e+00	2.650775e-03	
581	2.450000e+00	2.659674e-03	
582	2.500000e+00	2.667655e-03	
583	2.550000e+00	2.674862e-03	
584	2.600000e+00	2.681413e-03	
585	2.650000e+00	2.687408e-03	
586	2.700000e+00	2.692927e-03	
587	2.750000e+00	2.698036e-03	
588	2.800000e+00	2.702789e-03	
589	2.850000e+00	2.707231e-03	
590	2.900000e+00	2.711399e-03	
591	2.950000e+00	2.715324e-03	
592	3.000000e+00	2.719034e-03	
593	3.050000e+00	2.722549e-03	
594	3.100000e+00	2.725890e-03	
595	3.150000e+00	2.729074e-03	
596	3.200000e+00	2.732113e-03	
597	3.250000e+00	2.735022e-03	
598	3.300000e+00	2.737811e-03	
599	3.350000e+00	2.740489e-03	
600	3.400000e+00	2.743066e-03	
601	3.450000e+00	2.745548e-03	
602	3.500000e+00	2.747943e-03	
603	3.550000e+00	2.750257e-03	
604	3.600000e+00	2.752496e-03	
605	3.650000e+00	2.754663e-03	
606	3.700000e+00	2.756765e-03	
607	3.750000e+00	2.758804e-03	
608	3.800000e+00	2.760785e-03	
609	3.850000e+00	2.762710e-03	
610	3.900000e+00	2.764584e-03	
611	3.950000e+00	2.766409e-03	
612	4.000000e+00	2.768188e-03	
613	4.050000e+00	2.769922e-03	
614	4.100000e+00	2.771615e-03	
615	4.150000e+00	2.773268e-03	
616	4.200000e+00	2.774884e-03	
617	4.250000e+00	2.776464e-03	
618	4.300000e+00	2.778010e-03	
619	4.350000e+00	2.779523e-03	
620	4.400000e+00	2.781007e-03	
621	4.450000e+00	2.782461e-03	
622	4.500000e+00	2.783888e-03	
623	4.550000e+00	2.785289e-03	
624	4.600000e+00	2.786667e-03	
625	4.650000e+00	2.788022e-03	
626	4.700000e+00	2.789357e-03	
627	4.750000e+00	2.790674e-03	
628	4.800000e+00	2.791975e-03	
629	4.850000e+00	2.793262e-03	
630	4.900000e+00	2.794539e-03	
631	4.950000e+00	2.795807e-03	
632	5.000000e+00	2.797070e-03	
633	5.050000e+00	2.798332e-03	
634	5.100000e+00	2.799597e-03	

Index   v-sweep         -i(vds)         
--------------------------------------------------------------------------------
635	5.150000e+00	2.800869e-03	
636	5.200000e+00	2.802153e-03	
637	5.250000e+00	2.803454e-03	
638	5.300000e+00	2.804779e-03	
639	5.350000e+00	2.806133e-03	
640	5.400000e+00	2.807525e-03	
641	5.450000e+00	2.808962e-03	
642	5.500000e+00	2.810453e-03	
643	5.550000e+00	2.812007e-03	
644	5.600000e+00	2.813635e-03	
645	5.650000e+00	2.815346e-03	
646	5.700000e+00	2.817154e-03	
647	5.750000e+00	2.819071e-03	
648	5.800000e+00	2.821111e-03	
649	5.850000e+00	2.823288e-03	
650	5.900000e+00	2.825617e-03	
651	5.950000e+00	2.828116e-03	
652	6.000000e+00	2.830802e-03	
653	6.050000e+00	2.833693e-03	
654	6.100000e+00	2.836810e-03	
655	6.150000e+00	2.840172e-03	
656	6.200000e+00	2.843801e-03	
657	6.250000e+00	2.847720e-03	
658	6.300000e+00	2.851954e-03	
659	6.350000e+00	2.856526e-03	
660	6.400000e+00	2.861462e-03	
661	6.450000e+00	2.866790e-03	
662	6.500000e+00	2.872537e-03	
663	6.550000e+00	2.878732e-03	
664	6.600000e+00	2.885406e-03	
665	0.000000e+00	-0.000000e+00	
666	5.000000e-02	1.215574e-04	
667	1.000000e-01	2.401572e-04	
668	1.500000e-01	3.559558e-04	
669	2.000000e-01	4.690252e-04	
670	2.500000e-01	5.794155e-04	
671	3.000000e-01	6.871709e-04	
672	3.500000e-01	7.923330e-04	
673	4.000000e-01	8.949425e-04	
674	4.500000e-01	9.950390e-04	
675	5.000000e-01	1.092661e-03	
676	5.500000e-01	1.187848e-03	
677	6.000000e-01	1.280635e-03	
678	6.500000e-01	1.371060e-03	
679	7.000000e-01	1.459159e-03	
680	7.500000e-01	1.544965e-03	
681	8.000000e-01	1.628515e-03	
682	8.500000e-01	1.709841e-03	
683	9.000000e-01	1.788976e-03	
684	9.500000e-01	1.865952e-03	
685	1.000000e+00	1.940802e-03	
686	1.050000e+00	2.013556e-03	
687	1.100000e+00	2.084244e-03	
688	1.150000e+00	2.152897e-03	
689	1.200000e+00	2.219544e-03	
690	1.250000e+00	2.284212e-03	
691	1.300000e+00	2.346932e-03	
692	1.350000e+00	2.407729e-03	

Index   v-sweep         -i(vds)         
--------------------------------------------------------------------------------
693	1.400000e+00	2.466631e-03	
694	1.450000e+00	2.523664e-03	
695	1.500000e+00	2.578855e-03	
696	1.550000e+00	2.632229e-03	
697	1.600000e+00	2.683811e-03	
698	1.650000e+00	2.733624e-03	
699	1.700000e+00	2.781693e-03	
700	1.750000e+00	2.828042e-03	
701	1.800000e+00	2.872692e-03	
702	1.850000e+00	2.915666e-03	
703	1.900000e+00	2.956985e-03	
704	1.950000e+00	2.996670e-03	
705	2.000000e+00	3.034739e-03	
706	2.050000e+00	3.071212e-03	
707	2.100000e+00	3.106104e-03	
708	2.150000e+00	3.139432e-03	
709	2.200000e+00	3.171207e-03	
710	2.250000e+00	3.201438e-03	
711	2.300000e+00	3.230129e-03	
712	2.350000e+00	3.257278e-03	
713	2.400000e+00	3.282875e-03	
714	2.450000e+00	3.306900e-03	
715	2.500000e+00	3.329324e-03	
716	2.550000e+00	3.350112e-03	
717	2.600000e+00	3.369234e-03	
718	2.650000e+00	3.386680e-03	
719	2.700000e+00	3.402480e-03	
720	2.750000e+00	3.416710e-03	
721	2.800000e+00	3.429494e-03	
722	2.850000e+00	3.440981e-03	
723	2.900000e+00	3.451330e-03	
724	2.950000e+00	3.460693e-03	
725	3.000000e+00	3.469208e-03	
726	3.050000e+00	3.476993e-03	
727	3.100000e+00	3.484148e-03	
728	3.150000e+00	3.490760e-03	
729	3.200000e+00	3.496899e-03	
730	3.250000e+00	3.502623e-03	
731	3.300000e+00	3.507984e-03	
732	3.350000e+00	3.513022e-03	
733	3.400000e+00	3.517773e-03	
734	3.450000e+00	3.522268e-03	
735	3.500000e+00	3.526531e-03	
736	3.550000e+00	3.530587e-03	
737	3.600000e+00	3.534453e-03	
738	3.650000e+00	3.538147e-03	
739	3.700000e+00	3.541683e-03	
740	3.750000e+00	3.545074e-03	
741	3.800000e+00	3.548333e-03	
742	3.850000e+00	3.551468e-03	
743	3.900000e+00	3.554490e-03	
744	3.950000e+00	3.557406e-03	
745	4.000000e+00	3.560223e-03	
746	4.050000e+00	3.562949e-03	
747	4.100000e+00	3.565588e-03	
748	4.150000e+00	3.568147e-03	
749	4.200000e+00	3.570630e-03	
750	4.250000e+00	3.573043e-03	

Index   v-sweep         -i(vds)         
--------------------------------------------------------------------------------
751	4.300000e+00	3.575388e-03	
752	4.350000e+00	3.577670e-03	
753	4.400000e+00	3.579892e-03	
754	4.450000e+00	3.582057e-03	
755	4.500000e+00	3.584169e-03	
756	4.550000e+00	3.586230e-03	
757	4.600000e+00	3.588242e-03	
758	4.650000e+00	3.590208e-03	
759	4.700000e+00	3.592131e-03	
760	4.750000e+00	3.594013e-03	
761	4.800000e+00	3.595854e-03	
762	4.850000e+00	3.597659e-03	
763	4.900000e+00	3.599428e-03	
764	4.950000e+00	3.601164e-03	
765	5.000000e+00	3.602869e-03	
766	5.050000e+00	3.604544e-03	
767	5.100000e+00	3.606193e-03	
768	5.150000e+00	3.607817e-03	
769	5.200000e+00	3.609419e-03	
770	5.250000e+00	3.611002e-03	
771	5.300000e+00	3.612569e-03	
772	5.350000e+00	3.614123e-03	
773	5.400000e+00	3.615668e-03	
774	5.450000e+00	3.617207e-03	
775	5.500000e+00	3.618747e-03	
776	5.550000e+00	3.620291e-03	
777	5.600000e+00	3.621845e-03	
778	5.650000e+00	3.623416e-03	
779	5.700000e+00	3.625011e-03	
780	5.750000e+00	3.626637e-03	
781	5.800000e+00	3.628303e-03	
782	5.850000e+00	3.630018e-03	
783	5.900000e+00	3.631793e-03	
784	5.950000e+00	3.633637e-03	
785	6.000000e+00	3.635565e-03	
786	6.050000e+00	3.637588e-03	
787	6.100000e+00	3.639721e-03	
788	6.150000e+00	3.641979e-03	
789	6.200000e+00	3.644379e-03	
790	6.250000e+00	3.646937e-03	
791	6.300000e+00	3.649675e-03	
792	6.350000e+00	3.652610e-03	
793	6.400000e+00	3.655765e-03	
794	6.450000e+00	3.659162e-03	
795	6.500000e+00	3.662825e-03	
796	6.550000e+00	3.666780e-03	
797	6.600000e+00	3.671052e-03	
Note: No ".plot", ".print", or ".fourier" lines; no simulations run
