
Note: Compatibility modes selected: hs

Warning: m=xx on .subckt line will override multiplier m hierarchy!


Circuit: ***************************

Doing analysis at TEMP = -40.000000 and TNOM = -40.000000


No. of Data Rows : 798
                          ***************************
                          DC transfer characteristic  Mon Jan  9 13:57:40  2023
--------------------------------------------------------------------------------
Index   v-sweep         -i(vds)         
--------------------------------------------------------------------------------
0	0.000000e+00	-0.000000e+00	
1	5.000000e-02	1.530051e-06	
2	1.000000e-01	2.604688e-06	
3	1.500000e-01	3.246883e-06	
4	2.000000e-01	3.536291e-06	
5	2.500000e-01	3.633222e-06	
6	3.000000e-01	3.666056e-06	
7	3.500000e-01	3.680687e-06	
8	4.000000e-01	3.689289e-06	
9	4.500000e-01	3.695447e-06	
10	5.000000e-01	3.700440e-06	
11	5.500000e-01	3.704806e-06	
12	6.000000e-01	3.708800e-06	
13	6.500000e-01	3.712559e-06	
14	7.000000e-01	3.716159e-06	
15	7.500000e-01	3.719647e-06	
16	8.000000e-01	3.723054e-06	
17	8.500000e-01	3.726398e-06	
18	9.000000e-01	3.729695e-06	
19	9.500000e-01	3.732954e-06	
20	1.000000e+00	3.736183e-06	
21	1.050000e+00	3.739385e-06	
22	1.100000e+00	3.742567e-06	
23	1.150000e+00	3.745731e-06	
24	1.200000e+00	3.748880e-06	
25	1.250000e+00	3.752015e-06	
26	1.300000e+00	3.755139e-06	
27	1.350000e+00	3.758253e-06	
28	1.400000e+00	3.761358e-06	
29	1.450000e+00	3.764455e-06	
30	1.500000e+00	3.767544e-06	
31	1.550000e+00	3.770627e-06	
32	1.600000e+00	3.773705e-06	
33	1.650000e+00	3.776777e-06	
34	1.700000e+00	3.779844e-06	
35	1.750000e+00	3.782906e-06	
36	1.800000e+00	3.785965e-06	
37	1.850000e+00	3.789019e-06	
38	1.900000e+00	3.792071e-06	
39	1.950000e+00	3.795119e-06	
40	2.000000e+00	3.798163e-06	
41	2.050000e+00	3.801206e-06	
42	2.100000e+00	3.804245e-06	
43	2.150000e+00	3.807282e-06	
44	2.200000e+00	3.810317e-06	
45	2.250000e+00	3.813351e-06	
46	2.300000e+00	3.816382e-06	
47	2.350000e+00	3.819413e-06	
48	2.400000e+00	3.822442e-06	
49	2.450000e+00	3.825471e-06	
50	2.500000e+00	3.828501e-06	
51	2.550000e+00	3.831531e-06	
52	2.600000e+00	3.834563e-06	
53	2.650000e+00	3.837598e-06	
54	2.700000e+00	3.840637e-06	

Index   v-sweep         -i(vds)         
--------------------------------------------------------------------------------
55	2.750000e+00	3.843682e-06	
56	2.800000e+00	3.846734e-06	
57	2.850000e+00	3.849796e-06	
58	2.900000e+00	3.852871e-06	
59	2.950000e+00	3.855960e-06	
60	3.000000e+00	3.859069e-06	
61	3.050000e+00	3.862200e-06	
62	3.100000e+00	3.865359e-06	
63	3.150000e+00	3.868551e-06	
64	3.200000e+00	3.871782e-06	
65	3.250000e+00	3.875058e-06	
66	3.300000e+00	3.878388e-06	
67	3.350000e+00	3.881780e-06	
68	3.400000e+00	3.885244e-06	
69	3.450000e+00	3.888789e-06	
70	3.500000e+00	3.892427e-06	
71	3.550000e+00	3.896171e-06	
72	3.600000e+00	3.900035e-06	
73	3.650000e+00	3.904034e-06	
74	3.700000e+00	3.908184e-06	
75	3.750000e+00	3.912501e-06	
76	3.800000e+00	3.917007e-06	
77	3.850000e+00	3.921719e-06	
78	3.900000e+00	3.926661e-06	
79	3.950000e+00	3.931855e-06	
80	4.000000e+00	3.937325e-06	
81	4.050000e+00	3.943098e-06	
82	4.100000e+00	3.949201e-06	
83	4.150000e+00	3.955664e-06	
84	4.200000e+00	3.962516e-06	
85	4.250000e+00	3.969790e-06	
86	4.300000e+00	3.977520e-06	
87	4.350000e+00	3.985740e-06	
88	4.400000e+00	3.994488e-06	
89	4.450000e+00	4.003802e-06	
90	4.500000e+00	4.013722e-06	
91	4.550000e+00	4.024289e-06	
92	4.600000e+00	4.035546e-06	
93	4.650000e+00	4.047538e-06	
94	4.700000e+00	4.060311e-06	
95	4.750000e+00	4.073911e-06	
96	4.800000e+00	4.088389e-06	
97	4.850000e+00	4.103794e-06	
98	4.900000e+00	4.120178e-06	
99	4.950000e+00	4.137593e-06	
100	5.000000e+00	4.156096e-06	
101	5.050000e+00	4.175740e-06	
102	5.100000e+00	4.196584e-06	
103	5.150000e+00	4.218684e-06	
104	5.200000e+00	4.242102e-06	
105	5.250000e+00	4.266896e-06	
106	5.300000e+00	4.293130e-06	
107	5.350000e+00	4.320864e-06	
108	5.400000e+00	4.350165e-06	
109	5.450000e+00	4.381095e-06	
110	5.500000e+00	4.413721e-06	
111	5.550000e+00	4.448109e-06	
112	5.600000e+00	4.484328e-06	

Index   v-sweep         -i(vds)         
--------------------------------------------------------------------------------
113	5.650000e+00	4.522444e-06	
114	5.700000e+00	4.562528e-06	
115	5.750000e+00	4.604648e-06	
116	5.800000e+00	4.648876e-06	
117	5.850000e+00	4.695283e-06	
118	5.900000e+00	4.743940e-06	
119	5.950000e+00	4.794920e-06	
120	6.000000e+00	4.848295e-06	
121	6.050000e+00	4.904139e-06	
122	6.100000e+00	4.962526e-06	
123	6.150000e+00	5.023529e-06	
124	6.200000e+00	5.087224e-06	
125	6.250000e+00	5.153684e-06	
126	6.300000e+00	5.222986e-06	
127	6.350000e+00	5.295204e-06	
128	6.400000e+00	5.370414e-06	
129	6.450000e+00	5.448692e-06	
130	6.500000e+00	5.530114e-06	
131	6.550000e+00	5.614754e-06	
132	6.600000e+00	5.702690e-06	
133	0.000000e+00	-0.000000e+00	
134	5.000000e-02	8.947316e-06	
135	1.000000e-01	1.739735e-05	
136	1.500000e-01	2.535153e-05	
137	2.000000e-01	3.281131e-05	
138	2.500000e-01	3.977812e-05	
139	3.000000e-01	4.625344e-05	
140	3.500000e-01	5.223876e-05	
141	4.000000e-01	5.773562e-05	
142	4.500000e-01	6.274564e-05	
143	5.000000e-01	6.727057e-05	
144	5.500000e-01	7.131241e-05	
145	6.000000e-01	7.487356e-05	
146	6.500000e-01	7.795723e-05	
147	7.000000e-01	8.056817e-05	
148	7.500000e-01	8.271420e-05	
149	8.000000e-01	8.440938e-05	
150	8.500000e-01	8.567992e-05	
151	9.000000e-01	8.657257e-05	
152	9.500000e-01	8.715951e-05	
153	1.000000e+00	8.752838e-05	
154	1.050000e+00	8.775924e-05	
155	1.100000e+00	8.790900e-05	
156	1.150000e+00	8.801196e-05	
157	1.200000e+00	8.808734e-05	
158	1.250000e+00	8.814580e-05	
159	1.300000e+00	8.819340e-05	
160	1.350000e+00	8.823373e-05	
161	1.400000e+00	8.826898e-05	
162	1.450000e+00	8.830057e-05	
163	1.500000e+00	8.832944e-05	
164	1.550000e+00	8.835624e-05	
165	1.600000e+00	8.838141e-05	
166	1.650000e+00	8.840529e-05	
167	1.700000e+00	8.842813e-05	
168	1.750000e+00	8.845010e-05	
169	1.800000e+00	8.847136e-05	
170	1.850000e+00	8.849201e-05	

Index   v-sweep         -i(vds)         
--------------------------------------------------------------------------------
171	1.900000e+00	8.851215e-05	
172	1.950000e+00	8.853184e-05	
173	2.000000e+00	8.855114e-05	
174	2.050000e+00	8.857011e-05	
175	2.100000e+00	8.858877e-05	
176	2.150000e+00	8.860718e-05	
177	2.200000e+00	8.862534e-05	
178	2.250000e+00	8.864330e-05	
179	2.300000e+00	8.866106e-05	
180	2.350000e+00	8.867865e-05	
181	2.400000e+00	8.869608e-05	
182	2.450000e+00	8.871337e-05	
183	2.500000e+00	8.873053e-05	
184	2.550000e+00	8.874757e-05	
185	2.600000e+00	8.876449e-05	
186	2.650000e+00	8.878132e-05	
187	2.700000e+00	8.879804e-05	
188	2.750000e+00	8.881468e-05	
189	2.800000e+00	8.883124e-05	
190	2.850000e+00	8.884773e-05	
191	2.900000e+00	8.886414e-05	
192	2.950000e+00	8.888050e-05	
193	3.000000e+00	8.889680e-05	
194	3.050000e+00	8.891305e-05	
195	3.100000e+00	8.892926e-05	
196	3.150000e+00	8.894545e-05	
197	3.200000e+00	8.896162e-05	
198	3.250000e+00	8.897779e-05	
199	3.300000e+00	8.899398e-05	
200	3.350000e+00	8.901021e-05	
201	3.400000e+00	8.902650e-05	
202	3.450000e+00	8.904289e-05	
203	3.500000e+00	8.905941e-05	
204	3.550000e+00	8.907611e-05	
205	3.600000e+00	8.909305e-05	
206	3.650000e+00	8.911027e-05	
207	3.700000e+00	8.912787e-05	
208	3.750000e+00	8.914591e-05	
209	3.800000e+00	8.916451e-05	
210	3.850000e+00	8.918376e-05	
211	3.900000e+00	8.920379e-05	
212	3.950000e+00	8.922475e-05	
213	4.000000e+00	8.924679e-05	
214	4.050000e+00	8.927010e-05	
215	4.100000e+00	8.929487e-05	
216	4.150000e+00	8.932132e-05	
217	4.200000e+00	8.934970e-05	
218	4.250000e+00	8.938028e-05	
219	4.300000e+00	8.941333e-05	
220	4.350000e+00	8.944919e-05	
221	4.400000e+00	8.948820e-05	
222	4.450000e+00	8.953073e-05	
223	4.500000e+00	8.957718e-05	
224	4.550000e+00	8.962798e-05	
225	4.600000e+00	8.968360e-05	
226	4.650000e+00	8.974453e-05	
227	4.700000e+00	8.981128e-05	
228	4.750000e+00	8.988443e-05	

Index   v-sweep         -i(vds)         
--------------------------------------------------------------------------------
229	4.800000e+00	8.996456e-05	
230	4.850000e+00	9.005230e-05	
231	4.900000e+00	9.014829e-05	
232	4.950000e+00	9.025323e-05	
233	5.000000e+00	9.036784e-05	
234	5.050000e+00	9.049288e-05	
235	5.100000e+00	9.062913e-05	
236	5.150000e+00	9.077744e-05	
237	5.200000e+00	9.093864e-05	
238	5.250000e+00	9.111363e-05	
239	5.300000e+00	9.130333e-05	
240	5.350000e+00	9.150871e-05	
241	5.400000e+00	9.173074e-05	
242	5.450000e+00	9.197045e-05	
243	5.500000e+00	9.222888e-05	
244	5.550000e+00	9.250711e-05	
245	5.600000e+00	9.280625e-05	
246	5.650000e+00	9.312745e-05	
247	5.700000e+00	9.347186e-05	
248	5.750000e+00	9.384068e-05	
249	5.800000e+00	9.423512e-05	
250	5.850000e+00	9.465644e-05	
251	5.900000e+00	9.510590e-05	
252	5.950000e+00	9.558479e-05	
253	6.000000e+00	9.609443e-05	
254	6.050000e+00	9.663616e-05	
255	6.100000e+00	9.721134e-05	
256	6.150000e+00	9.782134e-05	
257	6.200000e+00	9.846756e-05	
258	6.250000e+00	9.915142e-05	
259	6.300000e+00	9.987435e-05	
260	6.350000e+00	1.006378e-04	
261	6.400000e+00	1.014432e-04	
262	6.450000e+00	1.022921e-04	
263	6.500000e+00	1.031859e-04	
264	6.550000e+00	1.041262e-04	
265	6.600000e+00	1.051144e-04	
266	0.000000e+00	-0.000000e+00	
267	5.000000e-02	1.533033e-05	
268	1.000000e-01	3.019145e-05	
269	1.500000e-01	4.458480e-05	
270	2.000000e-01	5.851179e-05	
271	2.500000e-01	7.197385e-05	
272	3.000000e-01	8.497237e-05	
273	3.500000e-01	9.750876e-05	
274	4.000000e-01	1.095844e-04	
275	4.500000e-01	1.212007e-04	
276	5.000000e-01	1.323591e-04	
277	5.500000e-01	1.430609e-04	
278	6.000000e-01	1.533075e-04	
279	6.500000e-01	1.631003e-04	
280	7.000000e-01	1.724406e-04	
281	7.500000e-01	1.813298e-04	
282	8.000000e-01	1.897693e-04	
283	8.500000e-01	1.977604e-04	
284	9.000000e-01	2.053045e-04	
285	9.500000e-01	2.124029e-04	
286	1.000000e+00	2.190571e-04	

Index   v-sweep         -i(vds)         
--------------------------------------------------------------------------------
287	1.050000e+00	2.252683e-04	
288	1.100000e+00	2.310382e-04	
289	1.150000e+00	2.363680e-04	
290	1.200000e+00	2.412595e-04	
291	1.250000e+00	2.457143e-04	
292	1.300000e+00	2.497347e-04	
293	1.350000e+00	2.533230e-04	
294	1.400000e+00	2.564830e-04	
295	1.450000e+00	2.592199e-04	
296	1.500000e+00	2.615418e-04	
297	1.550000e+00	2.634622e-04	
298	1.600000e+00	2.650032e-04	
299	1.650000e+00	2.661988e-04	
300	1.700000e+00	2.670966e-04	
301	1.750000e+00	2.677545e-04	
302	1.800000e+00	2.682321e-04	
303	1.850000e+00	2.685813e-04	
304	1.900000e+00	2.688419e-04	
305	1.950000e+00	2.690420e-04	
306	2.000000e+00	2.692004e-04	
307	2.050000e+00	2.693297e-04	
308	2.100000e+00	2.694382e-04	
309	2.150000e+00	2.695313e-04	
310	2.200000e+00	2.696131e-04	
311	2.250000e+00	2.696861e-04	
312	2.300000e+00	2.697522e-04	
313	2.350000e+00	2.698129e-04	
314	2.400000e+00	2.698693e-04	
315	2.450000e+00	2.699221e-04	
316	2.500000e+00	2.699718e-04	
317	2.550000e+00	2.700191e-04	
318	2.600000e+00	2.700643e-04	
319	2.650000e+00	2.701077e-04	
320	2.700000e+00	2.701494e-04	
321	2.750000e+00	2.701899e-04	
322	2.800000e+00	2.702291e-04	
323	2.850000e+00	2.702673e-04	
324	2.900000e+00	2.703046e-04	
325	2.950000e+00	2.703410e-04	
326	3.000000e+00	2.703767e-04	
327	3.050000e+00	2.704117e-04	
328	3.100000e+00	2.704460e-04	
329	3.150000e+00	2.704799e-04	
330	3.200000e+00	2.705132e-04	
331	3.250000e+00	2.705461e-04	
332	3.300000e+00	2.705785e-04	
333	3.350000e+00	2.706106e-04	
334	3.400000e+00	2.706423e-04	
335	3.450000e+00	2.706737e-04	
336	3.500000e+00	2.707047e-04	
337	3.550000e+00	2.707355e-04	
338	3.600000e+00	2.707660e-04	
339	3.650000e+00	2.707963e-04	
340	3.700000e+00	2.708264e-04	
341	3.750000e+00	2.708563e-04	
342	3.800000e+00	2.708860e-04	
343	3.850000e+00	2.709155e-04	
344	3.900000e+00	2.709450e-04	

Index   v-sweep         -i(vds)         
--------------------------------------------------------------------------------
345	3.950000e+00	2.709744e-04	
346	4.000000e+00	2.710037e-04	
347	4.050000e+00	2.710331e-04	
348	4.100000e+00	2.710626e-04	
349	4.150000e+00	2.710922e-04	
350	4.200000e+00	2.711221e-04	
351	4.250000e+00	2.711524e-04	
352	4.300000e+00	2.711832e-04	
353	4.350000e+00	2.712147e-04	
354	4.400000e+00	2.712470e-04	
355	4.450000e+00	2.712804e-04	
356	4.500000e+00	2.713151e-04	
357	4.550000e+00	2.713514e-04	
358	4.600000e+00	2.713897e-04	
359	4.650000e+00	2.714302e-04	
360	4.700000e+00	2.714735e-04	
361	4.750000e+00	2.715200e-04	
362	4.800000e+00	2.715702e-04	
363	4.850000e+00	2.716248e-04	
364	4.900000e+00	2.716844e-04	
365	4.950000e+00	2.717496e-04	
366	5.000000e+00	2.718214e-04	
367	5.050000e+00	2.719006e-04	
368	5.100000e+00	2.719881e-04	
369	5.150000e+00	2.720850e-04	
370	5.200000e+00	2.721923e-04	
371	5.250000e+00	2.723114e-04	
372	5.300000e+00	2.724434e-04	
373	5.350000e+00	2.725898e-04	
374	5.400000e+00	2.727520e-04	
375	5.450000e+00	2.729317e-04	
376	5.500000e+00	2.731304e-04	
377	5.550000e+00	2.733500e-04	
378	5.600000e+00	2.735923e-04	
379	5.650000e+00	2.738593e-04	
380	5.700000e+00	2.741531e-04	
381	5.750000e+00	2.744758e-04	
382	5.800000e+00	2.748297e-04	
383	5.850000e+00	2.752172e-04	
384	5.900000e+00	2.756408e-04	
385	5.950000e+00	2.761029e-04	
386	6.000000e+00	2.766064e-04	
387	6.050000e+00	2.771540e-04	
388	6.100000e+00	2.777486e-04	
389	6.150000e+00	2.783930e-04	
390	6.200000e+00	2.790905e-04	
391	6.250000e+00	2.798441e-04	
392	6.300000e+00	2.806571e-04	
393	6.350000e+00	2.815328e-04	
394	6.400000e+00	2.824746e-04	
395	6.450000e+00	2.834861e-04	
396	6.500000e+00	2.845709e-04	
397	6.550000e+00	2.857325e-04	
398	6.600000e+00	2.869748e-04	
399	0.000000e+00	-0.000000e+00	
400	5.000000e-02	2.045616e-05	
401	1.000000e-01	4.048214e-05	
402	1.500000e-01	6.007924e-05	

Index   v-sweep         -i(vds)         
--------------------------------------------------------------------------------
403	2.000000e-01	7.924872e-05	
404	2.500000e-01	9.799187e-05	
405	3.000000e-01	1.163100e-04	
406	3.500000e-01	1.342042e-04	
407	4.000000e-01	1.516760e-04	
408	4.500000e-01	1.687264e-04	
409	5.000000e-01	1.853568e-04	
410	5.500000e-01	2.015684e-04	
411	6.000000e-01	2.173624e-04	
412	6.500000e-01	2.327401e-04	
413	7.000000e-01	2.477027e-04	
414	7.500000e-01	2.622513e-04	
415	8.000000e-01	2.763874e-04	
416	8.500000e-01	2.901119e-04	
417	9.000000e-01	3.034262e-04	
418	9.500000e-01	3.163314e-04	
419	1.000000e+00	3.288288e-04	
420	1.050000e+00	3.409194e-04	
421	1.100000e+00	3.526046e-04	
422	1.150000e+00	3.638854e-04	
423	1.200000e+00	3.747631e-04	
424	1.250000e+00	3.852387e-04	
425	1.300000e+00	3.953135e-04	
426	1.350000e+00	4.049886e-04	
427	1.400000e+00	4.142651e-04	
428	1.450000e+00	4.231442e-04	
429	1.500000e+00	4.316269e-04	
430	1.550000e+00	4.397144e-04	
431	1.600000e+00	4.474078e-04	
432	1.650000e+00	4.547082e-04	
433	1.700000e+00	4.616165e-04	
434	1.750000e+00	4.681341e-04	
435	1.800000e+00	4.742618e-04	
436	1.850000e+00	4.800007e-04	
437	1.900000e+00	4.853520e-04	
438	1.950000e+00	4.903168e-04	
439	2.000000e+00	4.948963e-04	
440	2.050000e+00	4.990920e-04	
441	2.100000e+00	5.029054e-04	
442	2.150000e+00	5.063388e-04	
443	2.200000e+00	5.093956e-04	
444	2.250000e+00	5.120805e-04	
445	2.300000e+00	5.144014e-04	
446	2.350000e+00	5.163706e-04	
447	2.400000e+00	5.180071e-04	
448	2.450000e+00	5.193380e-04	
449	2.500000e+00	5.203997e-04	
450	2.550000e+00	5.212345e-04	
451	2.600000e+00	5.218868e-04	
452	2.650000e+00	5.223978e-04	
453	2.700000e+00	5.228022e-04	
454	2.750000e+00	5.231272e-04	
455	2.800000e+00	5.233932e-04	
456	2.850000e+00	5.236152e-04	
457	2.900000e+00	5.238038e-04	
458	2.950000e+00	5.239669e-04	
459	3.000000e+00	5.241101e-04	
460	3.050000e+00	5.242377e-04	

Index   v-sweep         -i(vds)         
--------------------------------------------------------------------------------
461	3.100000e+00	5.243528e-04	
462	3.150000e+00	5.244577e-04	
463	3.200000e+00	5.245543e-04	
464	3.250000e+00	5.246440e-04	
465	3.300000e+00	5.247279e-04	
466	3.350000e+00	5.248068e-04	
467	3.400000e+00	5.248816e-04	
468	3.450000e+00	5.249527e-04	
469	3.500000e+00	5.250207e-04	
470	3.550000e+00	5.250859e-04	
471	3.600000e+00	5.251487e-04	
472	3.650000e+00	5.252094e-04	
473	3.700000e+00	5.252681e-04	
474	3.750000e+00	5.253251e-04	
475	3.800000e+00	5.253807e-04	
476	3.850000e+00	5.254348e-04	
477	3.900000e+00	5.254876e-04	
478	3.950000e+00	5.255394e-04	
479	4.000000e+00	5.255901e-04	
480	4.050000e+00	5.256398e-04	
481	4.100000e+00	5.256887e-04	
482	4.150000e+00	5.257367e-04	
483	4.200000e+00	5.257840e-04	
484	4.250000e+00	5.258307e-04	
485	4.300000e+00	5.258767e-04	
486	4.350000e+00	5.259221e-04	
487	4.400000e+00	5.259670e-04	
488	4.450000e+00	5.260113e-04	
489	4.500000e+00	5.260553e-04	
490	4.550000e+00	5.260988e-04	
491	4.600000e+00	5.261420e-04	
492	4.650000e+00	5.261849e-04	
493	4.700000e+00	5.262276e-04	
494	4.750000e+00	5.262701e-04	
495	4.800000e+00	5.263126e-04	
496	4.850000e+00	5.263552e-04	
497	4.900000e+00	5.263979e-04	
498	4.950000e+00	5.264410e-04	
499	5.000000e+00	5.264846e-04	
500	5.050000e+00	5.265290e-04	
501	5.100000e+00	5.265745e-04	
502	5.150000e+00	5.266212e-04	
503	5.200000e+00	5.266698e-04	
504	5.250000e+00	5.267204e-04	
505	5.300000e+00	5.267738e-04	
506	5.350000e+00	5.268303e-04	
507	5.400000e+00	5.268908e-04	
508	5.450000e+00	5.269559e-04	
509	5.500000e+00	5.270264e-04	
510	5.550000e+00	5.271034e-04	
511	5.600000e+00	5.271879e-04	
512	5.650000e+00	5.272810e-04	
513	5.700000e+00	5.273840e-04	
514	5.750000e+00	5.274985e-04	
515	5.800000e+00	5.276259e-04	
516	5.850000e+00	5.277680e-04	
517	5.900000e+00	5.279267e-04	
518	5.950000e+00	5.281040e-04	

Index   v-sweep         -i(vds)         
--------------------------------------------------------------------------------
519	6.000000e+00	5.283020e-04	
520	6.050000e+00	5.285233e-04	
521	6.100000e+00	5.287702e-04	
522	6.150000e+00	5.290455e-04	
523	6.200000e+00	5.293521e-04	
524	6.250000e+00	5.296932e-04	
525	6.300000e+00	5.300719e-04	
526	6.350000e+00	5.304918e-04	
527	6.400000e+00	5.309564e-04	
528	6.450000e+00	5.314697e-04	
529	6.500000e+00	5.320358e-04	
530	6.550000e+00	5.326587e-04	
531	6.600000e+00	5.333431e-04	
532	0.000000e+00	-0.000000e+00	
533	5.000000e-02	2.431495e-05	
534	1.000000e-01	4.824351e-05	
535	1.500000e-01	7.178677e-05	
536	2.000000e-01	9.494582e-05	
537	2.500000e-01	1.177217e-04	
538	3.000000e-01	1.401156e-04	
539	3.500000e-01	1.621285e-04	
540	4.000000e-01	1.837614e-04	
541	4.500000e-01	2.050155e-04	
542	5.000000e-01	2.258918e-04	
543	5.500000e-01	2.463914e-04	
544	6.000000e-01	2.665153e-04	
545	6.500000e-01	2.862645e-04	
546	7.000000e-01	3.056401e-04	
547	7.500000e-01	3.246432e-04	
548	8.000000e-01	3.432748e-04	
549	8.500000e-01	3.615359e-04	
550	9.000000e-01	3.794275e-04	
551	9.500000e-01	3.969506e-04	
552	1.000000e+00	4.141064e-04	
553	1.050000e+00	4.308957e-04	
554	1.100000e+00	4.473196e-04	
555	1.150000e+00	4.633792e-04	
556	1.200000e+00	4.790753e-04	
557	1.250000e+00	4.944091e-04	
558	1.300000e+00	5.093814e-04	
559	1.350000e+00	5.239933e-04	
560	1.400000e+00	5.382458e-04	
561	1.450000e+00	5.521399e-04	
562	1.500000e+00	5.656764e-04	
563	1.550000e+00	5.788564e-04	
564	1.600000e+00	5.916809e-04	
565	1.650000e+00	6.041508e-04	
566	1.700000e+00	6.162671e-04	
567	1.750000e+00	6.280306e-04	
568	1.800000e+00	6.394424e-04	
569	1.850000e+00	6.505034e-04	
570	1.900000e+00	6.612145e-04	
571	1.950000e+00	6.715766e-04	
572	2.000000e+00	6.815906e-04	
573	2.050000e+00	6.912574e-04	
574	2.100000e+00	7.005780e-04	
575	2.150000e+00	7.095531e-04	
576	2.200000e+00	7.181838e-04	

Index   v-sweep         -i(vds)         
--------------------------------------------------------------------------------
577	2.250000e+00	7.264707e-04	
578	2.300000e+00	7.344147e-04	
579	2.350000e+00	7.420168e-04	
580	2.400000e+00	7.492775e-04	
581	2.450000e+00	7.561979e-04	
582	2.500000e+00	7.627784e-04	
583	2.550000e+00	7.690200e-04	
584	2.600000e+00	7.749233e-04	
585	2.650000e+00	7.804890e-04	
586	2.700000e+00	7.857176e-04	
587	2.750000e+00	7.906099e-04	
588	2.800000e+00	7.951664e-04	
589	2.850000e+00	7.993879e-04	
590	2.900000e+00	8.032752e-04	
591	2.950000e+00	8.068293e-04	
592	3.000000e+00	8.100520e-04	
593	3.050000e+00	8.129459e-04	
594	3.100000e+00	8.155154e-04	
595	3.150000e+00	8.177674e-04	
596	3.200000e+00	8.197128e-04	
597	3.250000e+00	8.213680e-04	
598	3.300000e+00	8.227553e-04	
599	3.350000e+00	8.239033e-04	
600	3.400000e+00	8.248446e-04	
601	3.450000e+00	8.256133e-04	
602	3.500000e+00	8.262420e-04	
603	3.550000e+00	8.267594e-04	
604	3.600000e+00	8.271893e-04	
605	3.650000e+00	8.275508e-04	
606	3.700000e+00	8.278588e-04	
607	3.750000e+00	8.281247e-04	
608	3.800000e+00	8.283571e-04	
609	3.850000e+00	8.285627e-04	
610	3.900000e+00	8.287467e-04	
611	3.950000e+00	8.289129e-04	
612	4.000000e+00	8.290645e-04	
613	4.050000e+00	8.292038e-04	
614	4.100000e+00	8.293329e-04	
615	4.150000e+00	8.294533e-04	
616	4.200000e+00	8.295662e-04	
617	4.250000e+00	8.296726e-04	
618	4.300000e+00	8.297734e-04	
619	4.350000e+00	8.298694e-04	
620	4.400000e+00	8.299610e-04	
621	4.450000e+00	8.300489e-04	
622	4.500000e+00	8.301333e-04	
623	4.550000e+00	8.302147e-04	
624	4.600000e+00	8.302935e-04	
625	4.650000e+00	8.303697e-04	
626	4.700000e+00	8.304438e-04	
627	4.750000e+00	8.305158e-04	
628	4.800000e+00	8.305861e-04	
629	4.850000e+00	8.306546e-04	
630	4.900000e+00	8.307216e-04	
631	4.950000e+00	8.307872e-04	
632	5.000000e+00	8.308515e-04	
633	5.050000e+00	8.309146e-04	
634	5.100000e+00	8.309766e-04	

Index   v-sweep         -i(vds)         
--------------------------------------------------------------------------------
635	5.150000e+00	8.310376e-04	
636	5.200000e+00	8.310977e-04	
637	5.250000e+00	8.311568e-04	
638	5.300000e+00	8.312152e-04	
639	5.350000e+00	8.312729e-04	
640	5.400000e+00	8.313299e-04	
641	5.450000e+00	8.313864e-04	
642	5.500000e+00	8.314424e-04	
643	5.550000e+00	8.314981e-04	
644	5.600000e+00	8.315536e-04	
645	5.650000e+00	8.316090e-04	
646	5.700000e+00	8.316646e-04	
647	5.750000e+00	8.317205e-04	
648	5.800000e+00	8.317771e-04	
649	5.850000e+00	8.318347e-04	
650	5.900000e+00	8.318936e-04	
651	5.950000e+00	8.319543e-04	
652	6.000000e+00	8.320173e-04	
653	6.050000e+00	8.320833e-04	
654	6.100000e+00	8.321530e-04	
655	6.150000e+00	8.322271e-04	
656	6.200000e+00	8.323067e-04	
657	6.250000e+00	8.323929e-04	
658	6.300000e+00	8.324868e-04	
659	6.350000e+00	8.325899e-04	
660	6.400000e+00	8.327037e-04	
661	6.450000e+00	8.328300e-04	
662	6.500000e+00	8.329706e-04	
663	6.550000e+00	8.331278e-04	
664	6.600000e+00	8.333038e-04	
665	0.000000e+00	-0.000000e+00	
666	5.000000e-02	2.703178e-05	
667	1.000000e-01	5.372178e-05	
668	1.500000e-01	8.007088e-05	
669	2.000000e-01	1.060800e-04	
670	2.500000e-01	1.317500e-04	
671	3.000000e-01	1.570817e-04	
672	3.500000e-01	1.820761e-04	
673	4.000000e-01	2.067339e-04	
674	4.500000e-01	2.310562e-04	
675	5.000000e-01	2.550437e-04	
676	5.500000e-01	2.786973e-04	
677	6.000000e-01	3.020178e-04	
678	6.500000e-01	3.250062e-04	
679	7.000000e-01	3.476633e-04	
680	7.500000e-01	3.699899e-04	
681	8.000000e-01	3.919869e-04	
682	8.500000e-01	4.136551e-04	
683	9.000000e-01	4.349954e-04	
684	9.500000e-01	4.560086e-04	
685	1.000000e+00	4.766955e-04	
686	1.050000e+00	4.970571e-04	
687	1.100000e+00	5.170940e-04	
688	1.150000e+00	5.368072e-04	
689	1.200000e+00	5.561975e-04	
690	1.250000e+00	5.752656e-04	
691	1.300000e+00	5.940124e-04	
692	1.350000e+00	6.124388e-04	

Index   v-sweep         -i(vds)         
--------------------------------------------------------------------------------
693	1.400000e+00	6.305455e-04	
694	1.450000e+00	6.483334e-04	
695	1.500000e+00	6.658031e-04	
696	1.550000e+00	6.829557e-04	
697	1.600000e+00	6.997918e-04	
698	1.650000e+00	7.163123e-04	
699	1.700000e+00	7.325179e-04	
700	1.750000e+00	7.484094e-04	
701	1.800000e+00	7.639876e-04	
702	1.850000e+00	7.792534e-04	
703	1.900000e+00	7.942075e-04	
704	1.950000e+00	8.088506e-04	
705	2.000000e+00	8.231835e-04	
706	2.050000e+00	8.372071e-04	
707	2.100000e+00	8.509220e-04	
708	2.150000e+00	8.643291e-04	
709	2.200000e+00	8.774291e-04	
710	2.250000e+00	8.902227e-04	
711	2.300000e+00	9.027107e-04	
712	2.350000e+00	9.148938e-04	
713	2.400000e+00	9.267729e-04	
714	2.450000e+00	9.383485e-04	
715	2.500000e+00	9.496215e-04	
716	2.550000e+00	9.605926e-04	
717	2.600000e+00	9.712624e-04	
718	2.650000e+00	9.816317e-04	
719	2.700000e+00	9.917013e-04	
720	2.750000e+00	1.001472e-03	
721	2.800000e+00	1.010944e-03	
722	2.850000e+00	1.020118e-03	
723	2.900000e+00	1.028995e-03	
724	2.950000e+00	1.037576e-03	
725	3.000000e+00	1.045861e-03	
726	3.050000e+00	1.053850e-03	
727	3.100000e+00	1.061546e-03	
728	3.150000e+00	1.068947e-03	
729	3.200000e+00	1.076054e-03	
730	3.250000e+00	1.082869e-03	
731	3.300000e+00	1.089391e-03	
732	3.350000e+00	1.095621e-03	
733	3.400000e+00	1.101560e-03	
734	3.450000e+00	1.107207e-03	
735	3.500000e+00	1.112563e-03	
736	3.550000e+00	1.117629e-03	
737	3.600000e+00	1.122404e-03	
738	3.650000e+00	1.126889e-03	
739	3.700000e+00	1.131083e-03	
740	3.750000e+00	1.134987e-03	
741	3.800000e+00	1.138602e-03	
742	3.850000e+00	1.141926e-03	
743	3.900000e+00	1.144963e-03	
744	3.950000e+00	1.147712e-03	
745	4.000000e+00	1.150179e-03	
746	4.050000e+00	1.152368e-03	
747	4.100000e+00	1.154290e-03	
748	4.150000e+00	1.155956e-03	
749	4.200000e+00	1.157385e-03	
750	4.250000e+00	1.158599e-03	

Index   v-sweep         -i(vds)         
--------------------------------------------------------------------------------
751	4.300000e+00	1.159625e-03	
752	4.350000e+00	1.160488e-03	
753	4.400000e+00	1.161214e-03	
754	4.450000e+00	1.161829e-03	
755	4.500000e+00	1.162351e-03	
756	4.550000e+00	1.162799e-03	
757	4.600000e+00	1.163187e-03	
758	4.650000e+00	1.163526e-03	
759	4.700000e+00	1.163826e-03	
760	4.750000e+00	1.164093e-03	
761	4.800000e+00	1.164332e-03	
762	4.850000e+00	1.164550e-03	
763	4.900000e+00	1.164749e-03	
764	4.950000e+00	1.164931e-03	
765	5.000000e+00	1.165101e-03	
766	5.050000e+00	1.165258e-03	
767	5.100000e+00	1.165406e-03	
768	5.150000e+00	1.165545e-03	
769	5.200000e+00	1.165676e-03	
770	5.250000e+00	1.165801e-03	
771	5.300000e+00	1.165920e-03	
772	5.350000e+00	1.166033e-03	
773	5.400000e+00	1.166142e-03	
774	5.450000e+00	1.166247e-03	
775	5.500000e+00	1.166347e-03	
776	5.550000e+00	1.166445e-03	
777	5.600000e+00	1.166539e-03	
778	5.650000e+00	1.166630e-03	
779	5.700000e+00	1.166719e-03	
780	5.750000e+00	1.166806e-03	
781	5.800000e+00	1.166890e-03	
782	5.850000e+00	1.166973e-03	
783	5.900000e+00	1.167053e-03	
784	5.950000e+00	1.167132e-03	
785	6.000000e+00	1.167209e-03	
786	6.050000e+00	1.167285e-03	
787	6.100000e+00	1.167359e-03	
788	6.150000e+00	1.167433e-03	
789	6.200000e+00	1.167505e-03	
790	6.250000e+00	1.167576e-03	
791	6.300000e+00	1.167646e-03	
792	6.350000e+00	1.167716e-03	
793	6.400000e+00	1.167784e-03	
794	6.450000e+00	1.167853e-03	
795	6.500000e+00	1.167921e-03	
796	6.550000e+00	1.167989e-03	
797	6.600000e+00	1.168058e-03	
Note: No ".plot", ".print", or ".fourier" lines; no simulations run
