
Note: Compatibility modes selected: hs

Warning: m=xx on .subckt line will override multiplier m hierarchy!


Circuit: ***************************

Doing analysis at TEMP = 25.000000 and TNOM = 25.000000


No. of Data Rows : 798
                          ***************************
                          DC transfer characteristic  Mon Jan  9 13:57:40  2023
--------------------------------------------------------------------------------
Index   v-sweep         -i(vds)         
--------------------------------------------------------------------------------
0	0.000000e+00	-0.000000e+00	
1	5.000000e-02	2.433239e-06	
2	1.000000e-01	4.211898e-06	
3	1.500000e-01	5.381857e-06	
4	2.000000e-01	6.045160e-06	
5	2.500000e-01	6.398081e-06	
6	3.000000e-01	6.620219e-06	
7	3.500000e-01	6.788952e-06	
8	4.000000e-01	6.929993e-06	
9	4.500000e-01	7.053590e-06	
10	5.000000e-01	7.164913e-06	
11	5.500000e-01	7.267025e-06	
12	6.000000e-01	7.361931e-06	
13	6.500000e-01	7.451031e-06	
14	7.000000e-01	7.535346e-06	
15	7.500000e-01	7.615650e-06	
16	8.000000e-01	7.692542e-06	
17	8.500000e-01	7.766496e-06	
18	9.000000e-01	7.837896e-06	
19	9.500000e-01	7.907054e-06	
20	1.000000e+00	7.974230e-06	
21	1.050000e+00	8.039643e-06	
22	1.100000e+00	8.103475e-06	
23	1.150000e+00	8.165886e-06	
24	1.200000e+00	8.227009e-06	
25	1.250000e+00	8.286963e-06	
26	1.300000e+00	8.345850e-06	
27	1.350000e+00	8.403759e-06	
28	1.400000e+00	8.460771e-06	
29	1.450000e+00	8.516955e-06	
30	1.500000e+00	8.572375e-06	
31	1.550000e+00	8.627085e-06	
32	1.600000e+00	8.681137e-06	
33	1.650000e+00	8.734575e-06	
34	1.700000e+00	8.787441e-06	
35	1.750000e+00	8.839771e-06	
36	1.800000e+00	8.891600e-06	
37	1.850000e+00	8.942958e-06	
38	1.900000e+00	8.993874e-06	
39	1.950000e+00	9.044373e-06	
40	2.000000e+00	9.094480e-06	
41	2.050000e+00	9.144215e-06	
42	2.100000e+00	9.193600e-06	
43	2.150000e+00	9.242653e-06	
44	2.200000e+00	9.291391e-06	
45	2.250000e+00	9.339831e-06	
46	2.300000e+00	9.387989e-06	
47	2.350000e+00	9.435878e-06	
48	2.400000e+00	9.483513e-06	
49	2.450000e+00	9.530906e-06	
50	2.500000e+00	9.578070e-06	
51	2.550000e+00	9.625017e-06	
52	2.600000e+00	9.671758e-06	
53	2.650000e+00	9.718307e-06	
54	2.700000e+00	9.764674e-06	

Index   v-sweep         -i(vds)         
--------------------------------------------------------------------------------
55	2.750000e+00	9.810872e-06	
56	2.800000e+00	9.856913e-06	
57	2.850000e+00	9.902809e-06	
58	2.900000e+00	9.948575e-06	
59	2.950000e+00	9.994225e-06	
60	3.000000e+00	1.003977e-05	
61	3.050000e+00	1.008524e-05	
62	3.100000e+00	1.013064e-05	
63	3.150000e+00	1.017599e-05	
64	3.200000e+00	1.022131e-05	
65	3.250000e+00	1.026664e-05	
66	3.300000e+00	1.031198e-05	
67	3.350000e+00	1.035738e-05	
68	3.400000e+00	1.040285e-05	
69	3.450000e+00	1.044844e-05	
70	3.500000e+00	1.049418e-05	
71	3.550000e+00	1.054011e-05	
72	3.600000e+00	1.058627e-05	
73	3.650000e+00	1.063271e-05	
74	3.700000e+00	1.067947e-05	
75	3.750000e+00	1.072662e-05	
76	3.800000e+00	1.077420e-05	
77	3.850000e+00	1.082228e-05	
78	3.900000e+00	1.087093e-05	
79	3.950000e+00	1.092021e-05	
80	4.000000e+00	1.097021e-05	
81	4.050000e+00	1.102100e-05	
82	4.100000e+00	1.107267e-05	
83	4.150000e+00	1.112531e-05	
84	4.200000e+00	1.117900e-05	
85	4.250000e+00	1.123387e-05	
86	4.300000e+00	1.129000e-05	
87	4.350000e+00	1.134752e-05	
88	4.400000e+00	1.140653e-05	
89	4.450000e+00	1.146717e-05	
90	4.500000e+00	1.152955e-05	
91	4.550000e+00	1.159381e-05	
92	4.600000e+00	1.166010e-05	
93	4.650000e+00	1.172855e-05	
94	4.700000e+00	1.179931e-05	
95	4.750000e+00	1.187255e-05	
96	4.800000e+00	1.194842e-05	
97	4.850000e+00	1.202709e-05	
98	4.900000e+00	1.210873e-05	
99	4.950000e+00	1.219353e-05	
100	5.000000e+00	1.228166e-05	
101	5.050000e+00	1.237331e-05	
102	5.100000e+00	1.246869e-05	
103	5.150000e+00	1.256798e-05	
104	5.200000e+00	1.267140e-05	
105	5.250000e+00	1.277915e-05	
106	5.300000e+00	1.289145e-05	
107	5.350000e+00	1.300852e-05	
108	5.400000e+00	1.313059e-05	
109	5.450000e+00	1.325788e-05	
110	5.500000e+00	1.339064e-05	
111	5.550000e+00	1.352910e-05	
112	5.600000e+00	1.367350e-05	

Index   v-sweep         -i(vds)         
--------------------------------------------------------------------------------
113	5.650000e+00	1.382410e-05	
114	5.700000e+00	1.398114e-05	
115	5.750000e+00	1.414490e-05	
116	5.800000e+00	1.431561e-05	
117	5.850000e+00	1.449356e-05	
118	5.900000e+00	1.467901e-05	
119	5.950000e+00	1.487224e-05	
120	6.000000e+00	1.507352e-05	
121	6.050000e+00	1.528313e-05	
122	6.100000e+00	1.550135e-05	
123	6.150000e+00	1.572848e-05	
124	6.200000e+00	1.596481e-05	
125	6.250000e+00	1.621062e-05	
126	6.300000e+00	1.646621e-05	
127	6.350000e+00	1.673189e-05	
128	6.400000e+00	1.700795e-05	
129	6.450000e+00	1.729470e-05	
130	6.500000e+00	1.759245e-05	
131	6.550000e+00	1.790150e-05	
132	6.600000e+00	1.822217e-05	
133	0.000000e+00	-0.000000e+00	
134	5.000000e-02	9.928044e-06	
135	1.000000e-01	1.905972e-05	
136	1.500000e-01	2.742386e-05	
137	2.000000e-01	3.504797e-05	
138	2.500000e-01	4.195829e-05	
139	3.000000e-01	4.817996e-05	
140	3.500000e-01	5.373715e-05	
141	4.000000e-01	5.865321e-05	
142	4.500000e-01	6.295102e-05	
143	5.000000e-01	6.665356e-05	
144	5.500000e-01	6.978532e-05	
145	6.000000e-01	7.237573e-05	
146	6.500000e-01	7.446704e-05	
147	7.000000e-01	7.612474e-05	
148	7.500000e-01	7.743656e-05	
149	8.000000e-01	7.849207e-05	
150	8.500000e-01	7.936342e-05	
151	9.000000e-01	8.010163e-05	
152	9.500000e-01	8.074128e-05	
153	1.000000e+00	8.130585e-05	
154	1.050000e+00	8.181174e-05	
155	1.100000e+00	8.227063e-05	
156	1.150000e+00	8.269115e-05	
157	1.200000e+00	8.307978e-05	
158	1.250000e+00	8.344152e-05	
159	1.300000e+00	8.378028e-05	
160	1.350000e+00	8.409921e-05	
161	1.400000e+00	8.440084e-05	
162	1.450000e+00	8.468725e-05	
163	1.500000e+00	8.496018e-05	
164	1.550000e+00	8.522109e-05	
165	1.600000e+00	8.547120e-05	
166	1.650000e+00	8.571158e-05	
167	1.700000e+00	8.594312e-05	
168	1.750000e+00	8.616662e-05	
169	1.800000e+00	8.638276e-05	
170	1.850000e+00	8.659216e-05	

Index   v-sweep         -i(vds)         
--------------------------------------------------------------------------------
171	1.900000e+00	8.679533e-05	
172	1.950000e+00	8.699275e-05	
173	2.000000e+00	8.718485e-05	
174	2.050000e+00	8.737200e-05	
175	2.100000e+00	8.755453e-05	
176	2.150000e+00	8.773276e-05	
177	2.200000e+00	8.790696e-05	
178	2.250000e+00	8.807737e-05	
179	2.300000e+00	8.824423e-05	
180	2.350000e+00	8.840775e-05	
181	2.400000e+00	8.856811e-05	
182	2.450000e+00	8.872549e-05	
183	2.500000e+00	8.888006e-05	
184	2.550000e+00	8.903195e-05	
185	2.600000e+00	8.918132e-05	
186	2.650000e+00	8.932828e-05	
187	2.700000e+00	8.947295e-05	
188	2.750000e+00	8.961546e-05	
189	2.800000e+00	8.975590e-05	
190	2.850000e+00	8.989438e-05	
191	2.900000e+00	9.003099e-05	
192	2.950000e+00	9.016582e-05	
193	3.000000e+00	9.029898e-05	
194	3.050000e+00	9.043053e-05	
195	3.100000e+00	9.056059e-05	
196	3.150000e+00	9.068923e-05	
197	3.200000e+00	9.081655e-05	
198	3.250000e+00	9.094264e-05	
199	3.300000e+00	9.106761e-05	
200	3.350000e+00	9.119156e-05	
201	3.400000e+00	9.131461e-05	
202	3.450000e+00	9.143688e-05	
203	3.500000e+00	9.155850e-05	
204	3.550000e+00	9.167962e-05	
205	3.600000e+00	9.180039e-05	
206	3.650000e+00	9.192099e-05	
207	3.700000e+00	9.204160e-05	
208	3.750000e+00	9.216243e-05	
209	3.800000e+00	9.228370e-05	
210	3.850000e+00	9.240566e-05	
211	3.900000e+00	9.252857e-05	
212	3.950000e+00	9.265273e-05	
213	4.000000e+00	9.277845e-05	
214	4.050000e+00	9.290607e-05	
215	4.100000e+00	9.303595e-05	
216	4.150000e+00	9.316849e-05	
217	4.200000e+00	9.330413e-05	
218	4.250000e+00	9.344330e-05	
219	4.300000e+00	9.358651e-05	
220	4.350000e+00	9.373427e-05	
221	4.400000e+00	9.388713e-05	
222	4.450000e+00	9.404568e-05	
223	4.500000e+00	9.421055e-05	
224	4.550000e+00	9.438238e-05	
225	4.600000e+00	9.456188e-05	
226	4.650000e+00	9.474977e-05	
227	4.700000e+00	9.494682e-05	
228	4.750000e+00	9.515384e-05	

Index   v-sweep         -i(vds)         
--------------------------------------------------------------------------------
229	4.800000e+00	9.537165e-05	
230	4.850000e+00	9.560114e-05	
231	4.900000e+00	9.584322e-05	
232	4.950000e+00	9.609884e-05	
233	5.000000e+00	9.636898e-05	
234	5.050000e+00	9.665468e-05	
235	5.100000e+00	9.695698e-05	
236	5.150000e+00	9.727700e-05	
237	5.200000e+00	9.761584e-05	
238	5.250000e+00	9.797469e-05	
239	5.300000e+00	9.835474e-05	
240	5.350000e+00	9.875722e-05	
241	5.400000e+00	9.918340e-05	
242	5.450000e+00	9.963458e-05	
243	5.500000e+00	1.001121e-04	
244	5.550000e+00	1.006173e-04	
245	5.600000e+00	1.011515e-04	
246	5.650000e+00	1.017163e-04	
247	5.700000e+00	1.023130e-04	
248	5.750000e+00	1.029431e-04	
249	5.800000e+00	1.036082e-04	
250	5.850000e+00	1.043097e-04	
251	5.900000e+00	1.050492e-04	
252	5.950000e+00	1.058282e-04	
253	6.000000e+00	1.066485e-04	
254	6.050000e+00	1.075115e-04	
255	6.100000e+00	1.084189e-04	
256	6.150000e+00	1.093724e-04	
257	6.200000e+00	1.103736e-04	
258	6.250000e+00	1.114243e-04	
259	6.300000e+00	1.125261e-04	
260	6.350000e+00	1.136808e-04	
261	6.400000e+00	1.148901e-04	
262	6.450000e+00	1.161557e-04	
263	6.500000e+00	1.174795e-04	
264	6.550000e+00	1.188631e-04	
265	6.600000e+00	1.203084e-04	
266	0.000000e+00	-0.000000e+00	
267	5.000000e-02	1.558123e-05	
268	1.000000e-01	3.030383e-05	
269	1.500000e-01	4.419809e-05	
270	2.000000e-01	5.729290e-05	
271	2.500000e-01	6.961576e-05	
272	3.000000e-01	8.119289e-05	
273	3.500000e-01	9.204928e-05	
274	4.000000e-01	1.022088e-04	
275	4.500000e-01	1.116940e-04	
276	5.000000e-01	1.205267e-04	
277	5.500000e-01	1.287274e-04	
278	6.000000e-01	1.363159e-04	
279	6.500000e-01	1.433106e-04	
280	7.000000e-01	1.497291e-04	
281	7.500000e-01	1.555873e-04	
282	8.000000e-01	1.608992e-04	
283	8.500000e-01	1.656762e-04	
284	9.000000e-01	1.699257e-04	
285	9.500000e-01	1.736516e-04	
286	1.000000e+00	1.768587e-04	

Index   v-sweep         -i(vds)         
--------------------------------------------------------------------------------
287	1.050000e+00	1.795655e-04	
288	1.100000e+00	1.818172e-04	
289	1.150000e+00	1.836844e-04	
290	1.200000e+00	1.852452e-04	
291	1.250000e+00	1.865687e-04	
292	1.300000e+00	1.877094e-04	
293	1.350000e+00	1.887080e-04	
294	1.400000e+00	1.895945e-04	
295	1.450000e+00	1.903909e-04	
296	1.500000e+00	1.911138e-04	
297	1.550000e+00	1.917758e-04	
298	1.600000e+00	1.923866e-04	
299	1.650000e+00	1.929538e-04	
300	1.700000e+00	1.934836e-04	
301	1.750000e+00	1.939809e-04	
302	1.800000e+00	1.944497e-04	
303	1.850000e+00	1.948933e-04	
304	1.900000e+00	1.953146e-04	
305	1.950000e+00	1.957159e-04	
306	2.000000e+00	1.960992e-04	
307	2.050000e+00	1.964663e-04	
308	2.100000e+00	1.968186e-04	
309	2.150000e+00	1.971575e-04	
310	2.200000e+00	1.974840e-04	
311	2.250000e+00	1.977991e-04	
312	2.300000e+00	1.981039e-04	
313	2.350000e+00	1.983989e-04	
314	2.400000e+00	1.986850e-04	
315	2.450000e+00	1.989628e-04	
316	2.500000e+00	1.992327e-04	
317	2.550000e+00	1.994954e-04	
318	2.600000e+00	1.997513e-04	
319	2.650000e+00	2.000008e-04	
320	2.700000e+00	2.002443e-04	
321	2.750000e+00	2.004822e-04	
322	2.800000e+00	2.007147e-04	
323	2.850000e+00	2.009421e-04	
324	2.900000e+00	2.011648e-04	
325	2.950000e+00	2.013830e-04	
326	3.000000e+00	2.015968e-04	
327	3.050000e+00	2.018066e-04	
328	3.100000e+00	2.020126e-04	
329	3.150000e+00	2.022149e-04	
330	3.200000e+00	2.024136e-04	
331	3.250000e+00	2.026091e-04	
332	3.300000e+00	2.028014e-04	
333	3.350000e+00	2.029908e-04	
334	3.400000e+00	2.031773e-04	
335	3.450000e+00	2.033612e-04	
336	3.500000e+00	2.035427e-04	
337	3.550000e+00	2.037219e-04	
338	3.600000e+00	2.038989e-04	
339	3.650000e+00	2.040741e-04	
340	3.700000e+00	2.042475e-04	
341	3.750000e+00	2.044195e-04	
342	3.800000e+00	2.045903e-04	
343	3.850000e+00	2.047601e-04	
344	3.900000e+00	2.049293e-04	

Index   v-sweep         -i(vds)         
--------------------------------------------------------------------------------
345	3.950000e+00	2.050982e-04	
346	4.000000e+00	2.052671e-04	
347	4.050000e+00	2.054364e-04	
348	4.100000e+00	2.056066e-04	
349	4.150000e+00	2.057781e-04	
350	4.200000e+00	2.059514e-04	
351	4.250000e+00	2.061272e-04	
352	4.300000e+00	2.063060e-04	
353	4.350000e+00	2.064885e-04	
354	4.400000e+00	2.066755e-04	
355	4.450000e+00	2.068676e-04	
356	4.500000e+00	2.070658e-04	
357	4.550000e+00	2.072710e-04	
358	4.600000e+00	2.074842e-04	
359	4.650000e+00	2.077063e-04	
360	4.700000e+00	2.079386e-04	
361	4.750000e+00	2.081821e-04	
362	4.800000e+00	2.084383e-04	
363	4.850000e+00	2.087083e-04	
364	4.900000e+00	2.089937e-04	
365	4.950000e+00	2.092959e-04	
366	5.000000e+00	2.096164e-04	
367	5.050000e+00	2.099570e-04	
368	5.100000e+00	2.103194e-04	
369	5.150000e+00	2.107053e-04	
370	5.200000e+00	2.111167e-04	
371	5.250000e+00	2.115554e-04	
372	5.300000e+00	2.120236e-04	
373	5.350000e+00	2.125234e-04	
374	5.400000e+00	2.130570e-04	
375	5.450000e+00	2.136266e-04	
376	5.500000e+00	2.142346e-04	
377	5.550000e+00	2.148834e-04	
378	5.600000e+00	2.155755e-04	
379	5.650000e+00	2.163135e-04	
380	5.700000e+00	2.171000e-04	
381	5.750000e+00	2.179378e-04	
382	5.800000e+00	2.188295e-04	
383	5.850000e+00	2.197781e-04	
384	5.900000e+00	2.207865e-04	
385	5.950000e+00	2.218576e-04	
386	6.000000e+00	2.229944e-04	
387	6.050000e+00	2.242001e-04	
388	6.100000e+00	2.254778e-04	
389	6.150000e+00	2.268306e-04	
390	6.200000e+00	2.282618e-04	
391	6.250000e+00	2.297748e-04	
392	6.300000e+00	2.313728e-04	
393	6.350000e+00	2.330592e-04	
394	6.400000e+00	2.348375e-04	
395	6.450000e+00	2.367111e-04	
396	6.500000e+00	2.386836e-04	
397	6.550000e+00	2.407584e-04	
398	6.600000e+00	2.429391e-04	
399	0.000000e+00	-0.000000e+00	
400	5.000000e-02	1.982663e-05	
401	1.000000e-01	3.878339e-05	
402	1.500000e-01	5.689897e-05	

Index   v-sweep         -i(vds)         
--------------------------------------------------------------------------------
403	2.000000e-01	7.420077e-05	
404	2.500000e-01	9.071499e-05	
405	3.000000e-01	1.064667e-04	
406	3.500000e-01	1.214799e-04	
407	4.000000e-01	1.357773e-04	
408	4.500000e-01	1.493810e-04	
409	5.000000e-01	1.623118e-04	
410	5.500000e-01	1.745896e-04	
411	6.000000e-01	1.862337e-04	
412	6.500000e-01	1.972624e-04	
413	7.000000e-01	2.076932e-04	
414	7.500000e-01	2.175428e-04	
415	8.000000e-01	2.268274e-04	
416	8.500000e-01	2.355620e-04	
417	9.000000e-01	2.437610e-04	
418	9.500000e-01	2.514379e-04	
419	1.000000e+00	2.586043e-04	
420	1.050000e+00	2.652706e-04	
421	1.100000e+00	2.714440e-04	
422	1.150000e+00	2.771278e-04	
423	1.200000e+00	2.823197e-04	
424	1.250000e+00	2.870108e-04	
425	1.300000e+00	2.911878e-04	
426	1.350000e+00	2.948421e-04	
427	1.400000e+00	2.979853e-04	
428	1.450000e+00	3.006586e-04	
429	1.500000e+00	3.029268e-04	
430	1.550000e+00	3.048619e-04	
431	1.600000e+00	3.065300e-04	
432	1.650000e+00	3.079855e-04	
433	1.700000e+00	3.092709e-04	
434	1.750000e+00	3.104191e-04	
435	1.800000e+00	3.114551e-04	
436	1.850000e+00	3.123980e-04	
437	1.900000e+00	3.132631e-04	
438	1.950000e+00	3.140621e-04	
439	2.000000e+00	3.148045e-04	
440	2.050000e+00	3.154979e-04	
441	2.100000e+00	3.161485e-04	
442	2.150000e+00	3.167615e-04	
443	2.200000e+00	3.173411e-04	
444	2.250000e+00	3.178911e-04	
445	2.300000e+00	3.184144e-04	
446	2.350000e+00	3.189137e-04	
447	2.400000e+00	3.193912e-04	
448	2.450000e+00	3.198489e-04	
449	2.500000e+00	3.202886e-04	
450	2.550000e+00	3.207117e-04	
451	2.600000e+00	3.211195e-04	
452	2.650000e+00	3.215132e-04	
453	2.700000e+00	3.218939e-04	
454	2.750000e+00	3.222624e-04	
455	2.800000e+00	3.226197e-04	
456	2.850000e+00	3.229665e-04	
457	2.900000e+00	3.233035e-04	
458	2.950000e+00	3.236312e-04	
459	3.000000e+00	3.239503e-04	
460	3.050000e+00	3.242612e-04	

Index   v-sweep         -i(vds)         
--------------------------------------------------------------------------------
461	3.100000e+00	3.245644e-04	
462	3.150000e+00	3.248605e-04	
463	3.200000e+00	3.251496e-04	
464	3.250000e+00	3.254323e-04	
465	3.300000e+00	3.257088e-04	
466	3.350000e+00	3.259796e-04	
467	3.400000e+00	3.262448e-04	
468	3.450000e+00	3.265047e-04	
469	3.500000e+00	3.267597e-04	
470	3.550000e+00	3.270099e-04	
471	3.600000e+00	3.272557e-04	
472	3.650000e+00	3.274973e-04	
473	3.700000e+00	3.277348e-04	
474	3.750000e+00	3.279686e-04	
475	3.800000e+00	3.281989e-04	
476	3.850000e+00	3.284260e-04	
477	3.900000e+00	3.286501e-04	
478	3.950000e+00	3.288715e-04	
479	4.000000e+00	3.290905e-04	
480	4.050000e+00	3.293075e-04	
481	4.100000e+00	3.295228e-04	
482	4.150000e+00	3.297368e-04	
483	4.200000e+00	3.299500e-04	
484	4.250000e+00	3.301629e-04	
485	4.300000e+00	3.303759e-04	
486	4.350000e+00	3.305897e-04	
487	4.400000e+00	3.308049e-04	
488	4.450000e+00	3.310223e-04	
489	4.500000e+00	3.312426e-04	
490	4.550000e+00	3.314666e-04	
491	4.600000e+00	3.316954e-04	
492	4.650000e+00	3.319299e-04	
493	4.700000e+00	3.321713e-04	
494	4.750000e+00	3.324207e-04	
495	4.800000e+00	3.326795e-04	
496	4.850000e+00	3.329490e-04	
497	4.900000e+00	3.332308e-04	
498	4.950000e+00	3.335265e-04	
499	5.000000e+00	3.338378e-04	
500	5.050000e+00	3.341665e-04	
501	5.100000e+00	3.345147e-04	
502	5.150000e+00	3.348843e-04	
503	5.200000e+00	3.352775e-04	
504	5.250000e+00	3.356968e-04	
505	5.300000e+00	3.361444e-04	
506	5.350000e+00	3.366231e-04	
507	5.400000e+00	3.371354e-04	
508	5.450000e+00	3.376843e-04	
509	5.500000e+00	3.382725e-04	
510	5.550000e+00	3.389033e-04	
511	5.600000e+00	3.395798e-04	
512	5.650000e+00	3.403053e-04	
513	5.700000e+00	3.410832e-04	
514	5.750000e+00	3.419171e-04	
515	5.800000e+00	3.428107e-04	
516	5.850000e+00	3.437678e-04	
517	5.900000e+00	3.447923e-04	
518	5.950000e+00	3.458882e-04	

Index   v-sweep         -i(vds)         
--------------------------------------------------------------------------------
519	6.000000e+00	3.470597e-04	
520	6.050000e+00	3.483110e-04	
521	6.100000e+00	3.496466e-04	
522	6.150000e+00	3.510707e-04	
523	6.200000e+00	3.525881e-04	
524	6.250000e+00	3.542034e-04	
525	6.300000e+00	3.559213e-04	
526	6.350000e+00	3.577467e-04	
527	6.400000e+00	3.596845e-04	
528	6.450000e+00	3.617398e-04	
529	6.500000e+00	3.639177e-04	
530	6.550000e+00	3.662232e-04	
531	6.600000e+00	3.686618e-04	
532	0.000000e+00	-0.000000e+00	
533	5.000000e-02	2.286548e-05	
534	1.000000e-01	4.488983e-05	
535	1.500000e-01	6.609839e-05	
536	2.000000e-01	8.651548e-05	
537	2.500000e-01	1.061645e-04	
538	3.000000e-01	1.250677e-04	
539	3.500000e-01	1.432468e-04	
540	4.000000e-01	1.607224e-04	
541	4.500000e-01	1.775142e-04	
542	5.000000e-01	1.936413e-04	
543	5.500000e-01	2.091219e-04	
544	6.000000e-01	2.239735e-04	
545	6.500000e-01	2.382129e-04	
546	7.000000e-01	2.518562e-04	
547	7.500000e-01	2.649191e-04	
548	8.000000e-01	2.774163e-04	
549	8.500000e-01	2.893624e-04	
550	9.000000e-01	3.007710e-04	
551	9.500000e-01	3.116557e-04	
552	1.000000e+00	3.220290e-04	
553	1.050000e+00	3.319033e-04	
554	1.100000e+00	3.412902e-04	
555	1.150000e+00	3.502007e-04	
556	1.200000e+00	3.586449e-04	
557	1.250000e+00	3.666320e-04	
558	1.300000e+00	3.741696e-04	
559	1.350000e+00	3.812633e-04	
560	1.400000e+00	3.879158e-04	
561	1.450000e+00	3.941252e-04	
562	1.500000e+00	3.998840e-04	
563	1.550000e+00	4.051774e-04	
564	1.600000e+00	4.099852e-04	
565	1.650000e+00	4.142877e-04	
566	1.700000e+00	4.180788e-04	
567	1.750000e+00	4.213769e-04	
568	1.800000e+00	4.242269e-04	
569	1.850000e+00	4.266898e-04	
570	1.900000e+00	4.288297e-04	
571	1.950000e+00	4.307046e-04	
572	2.000000e+00	4.323634e-04	
573	2.050000e+00	4.338452e-04	
574	2.100000e+00	4.351810e-04	
575	2.150000e+00	4.363952e-04	
576	2.200000e+00	4.375071e-04	

Index   v-sweep         -i(vds)         
--------------------------------------------------------------------------------
577	2.250000e+00	4.385321e-04	
578	2.300000e+00	4.394825e-04	
579	2.350000e+00	4.403684e-04	
580	2.400000e+00	4.411980e-04	
581	2.450000e+00	4.419780e-04	
582	2.500000e+00	4.427142e-04	
583	2.550000e+00	4.434113e-04	
584	2.600000e+00	4.440734e-04	
585	2.650000e+00	4.447040e-04	
586	2.700000e+00	4.453060e-04	
587	2.750000e+00	4.458821e-04	
588	2.800000e+00	4.464345e-04	
589	2.850000e+00	4.469652e-04	
590	2.900000e+00	4.474760e-04	
591	2.950000e+00	4.479683e-04	
592	3.000000e+00	4.484436e-04	
593	3.050000e+00	4.489031e-04	
594	3.100000e+00	4.493479e-04	
595	3.150000e+00	4.497790e-04	
596	3.200000e+00	4.501973e-04	
597	3.250000e+00	4.506036e-04	
598	3.300000e+00	4.509987e-04	
599	3.350000e+00	4.513831e-04	
600	3.400000e+00	4.517576e-04	
601	3.450000e+00	4.521227e-04	
602	3.500000e+00	4.524789e-04	
603	3.550000e+00	4.528266e-04	
604	3.600000e+00	4.531665e-04	
605	3.650000e+00	4.534987e-04	
606	3.700000e+00	4.538238e-04	
607	3.750000e+00	4.541422e-04	
608	3.800000e+00	4.544540e-04	
609	3.850000e+00	4.547598e-04	
610	3.900000e+00	4.550597e-04	
611	3.950000e+00	4.553542e-04	
612	4.000000e+00	4.556435e-04	
613	4.050000e+00	4.559279e-04	
614	4.100000e+00	4.562079e-04	
615	4.150000e+00	4.564836e-04	
616	4.200000e+00	4.567555e-04	
617	4.250000e+00	4.570239e-04	
618	4.300000e+00	4.572893e-04	
619	4.350000e+00	4.575520e-04	
620	4.400000e+00	4.578126e-04	
621	4.450000e+00	4.580716e-04	
622	4.500000e+00	4.583295e-04	
623	4.550000e+00	4.585870e-04	
624	4.600000e+00	4.588448e-04	
625	4.650000e+00	4.591038e-04	
626	4.700000e+00	4.593646e-04	
627	4.750000e+00	4.596284e-04	
628	4.800000e+00	4.598961e-04	
629	4.850000e+00	4.601689e-04	
630	4.900000e+00	4.604481e-04	
631	4.950000e+00	4.607349e-04	
632	5.000000e+00	4.610310e-04	
633	5.050000e+00	4.613379e-04	
634	5.100000e+00	4.616574e-04	

Index   v-sweep         -i(vds)         
--------------------------------------------------------------------------------
635	5.150000e+00	4.619914e-04	
636	5.200000e+00	4.623419e-04	
637	5.250000e+00	4.627110e-04	
638	5.300000e+00	4.631012e-04	
639	5.350000e+00	4.635149e-04	
640	5.400000e+00	4.639547e-04	
641	5.450000e+00	4.644235e-04	
642	5.500000e+00	4.649243e-04	
643	5.550000e+00	4.654601e-04	
644	5.600000e+00	4.660344e-04	
645	5.650000e+00	4.666505e-04	
646	5.700000e+00	4.673122e-04	
647	5.750000e+00	4.680233e-04	
648	5.800000e+00	4.687878e-04	
649	5.850000e+00	4.696099e-04	
650	5.900000e+00	4.704940e-04	
651	5.950000e+00	4.714444e-04	
652	6.000000e+00	4.724661e-04	
653	6.050000e+00	4.735638e-04	
654	6.100000e+00	4.747425e-04	
655	6.150000e+00	4.760075e-04	
656	6.200000e+00	4.773640e-04	
657	6.250000e+00	4.788177e-04	
658	6.300000e+00	4.803742e-04	
659	6.350000e+00	4.820393e-04	
660	6.400000e+00	4.838190e-04	
661	6.450000e+00	4.857195e-04	
662	6.500000e+00	4.877468e-04	
663	6.550000e+00	4.899076e-04	
664	6.600000e+00	4.922082e-04	
665	0.000000e+00	-0.000000e+00	
666	5.000000e-02	2.491230e-05	
667	1.000000e-01	4.903737e-05	
668	1.500000e-01	7.239664e-05	
669	2.000000e-01	9.501076e-05	
670	2.500000e-01	1.168996e-04	
671	3.000000e-01	1.380825e-04	
672	3.500000e-01	1.585777e-04	
673	4.000000e-01	1.784033e-04	
674	4.500000e-01	1.975763e-04	
675	5.000000e-01	2.161132e-04	
676	5.500000e-01	2.340301e-04	
677	6.000000e-01	2.513423e-04	
678	6.500000e-01	2.680645e-04	
679	7.000000e-01	2.842111e-04	
680	7.500000e-01	2.997957e-04	
681	8.000000e-01	3.148317e-04	
682	8.500000e-01	3.293317e-04	
683	9.000000e-01	3.433083e-04	
684	9.500000e-01	3.567734e-04	
685	1.000000e+00	3.697384e-04	
686	1.050000e+00	3.822147e-04	
687	1.100000e+00	3.942130e-04	
688	1.150000e+00	4.057438e-04	
689	1.200000e+00	4.168172e-04	
690	1.250000e+00	4.274430e-04	
691	1.300000e+00	4.376306e-04	
692	1.350000e+00	4.473890e-04	

Index   v-sweep         -i(vds)         
--------------------------------------------------------------------------------
693	1.400000e+00	4.567265e-04	
694	1.450000e+00	4.656513e-04	
695	1.500000e+00	4.741703e-04	
696	1.550000e+00	4.822899e-04	
697	1.600000e+00	4.900148e-04	
698	1.650000e+00	4.973479e-04	
699	1.700000e+00	5.042894e-04	
700	1.750000e+00	5.108355e-04	
701	1.800000e+00	5.169773e-04	
702	1.850000e+00	5.226993e-04	
703	1.900000e+00	5.279801e-04	
704	1.950000e+00	5.327961e-04	
705	2.000000e+00	5.371298e-04	
706	2.050000e+00	5.409807e-04	
707	2.100000e+00	5.443714e-04	
708	2.150000e+00	5.473450e-04	
709	2.200000e+00	5.499555e-04	
710	2.250000e+00	5.522580e-04	
711	2.300000e+00	5.543030e-04	
712	2.350000e+00	5.561334e-04	
713	2.400000e+00	5.577847e-04	
714	2.450000e+00	5.592856e-04	
715	2.500000e+00	5.606593e-04	
716	2.550000e+00	5.619245e-04	
717	2.600000e+00	5.630964e-04	
718	2.650000e+00	5.641874e-04	
719	2.700000e+00	5.652078e-04	
720	2.750000e+00	5.661661e-04	
721	2.800000e+00	5.670694e-04	
722	2.850000e+00	5.679237e-04	
723	2.900000e+00	5.687341e-04	
724	2.950000e+00	5.695050e-04	
725	3.000000e+00	5.702401e-04	
726	3.050000e+00	5.709428e-04	
727	3.100000e+00	5.716157e-04	
728	3.150000e+00	5.722616e-04	
729	3.200000e+00	5.728825e-04	
730	3.250000e+00	5.734804e-04	
731	3.300000e+00	5.740570e-04	
732	3.350000e+00	5.746139e-04	
733	3.400000e+00	5.751524e-04	
734	3.450000e+00	5.756738e-04	
735	3.500000e+00	5.761793e-04	
736	3.550000e+00	5.766699e-04	
737	3.600000e+00	5.771464e-04	
738	3.650000e+00	5.776097e-04	
739	3.700000e+00	5.780606e-04	
740	3.750000e+00	5.784998e-04	
741	3.800000e+00	5.789279e-04	
742	3.850000e+00	5.793456e-04	
743	3.900000e+00	5.797534e-04	
744	3.950000e+00	5.801518e-04	
745	4.000000e+00	5.805413e-04	
746	4.050000e+00	5.809224e-04	
747	4.100000e+00	5.812955e-04	
748	4.150000e+00	5.816609e-04	
749	4.200000e+00	5.820191e-04	
750	4.250000e+00	5.823705e-04	

Index   v-sweep         -i(vds)         
--------------------------------------------------------------------------------
751	4.300000e+00	5.827155e-04	
752	4.350000e+00	5.830544e-04	
753	4.400000e+00	5.833876e-04	
754	4.450000e+00	5.837156e-04	
755	4.500000e+00	5.840388e-04	
756	4.550000e+00	5.843576e-04	
757	4.600000e+00	5.846725e-04	
758	4.650000e+00	5.849840e-04	
759	4.700000e+00	5.852927e-04	
760	4.750000e+00	5.855993e-04	
761	4.800000e+00	5.859045e-04	
762	4.850000e+00	5.862090e-04	
763	4.900000e+00	5.865136e-04	
764	4.950000e+00	5.868194e-04	
765	5.000000e+00	5.871273e-04	
766	5.050000e+00	5.874386e-04	
767	5.100000e+00	5.877544e-04	
768	5.150000e+00	5.880763e-04	
769	5.200000e+00	5.884056e-04	
770	5.250000e+00	5.887442e-04	
771	5.300000e+00	5.890939e-04	
772	5.350000e+00	5.894565e-04	
773	5.400000e+00	5.898343e-04	
774	5.450000e+00	5.902296e-04	
775	5.500000e+00	5.906449e-04	
776	5.550000e+00	5.910829e-04	
777	5.600000e+00	5.915465e-04	
778	5.650000e+00	5.920388e-04	
779	5.700000e+00	5.925630e-04	
780	5.750000e+00	5.931227e-04	
781	5.800000e+00	5.937215e-04	
782	5.850000e+00	5.943633e-04	
783	5.900000e+00	5.950524e-04	
784	5.950000e+00	5.957929e-04	
785	6.000000e+00	5.965896e-04	
786	6.050000e+00	5.974472e-04	
787	6.100000e+00	5.983707e-04	
788	6.150000e+00	5.993653e-04	
789	6.200000e+00	6.004365e-04	
790	6.250000e+00	6.015899e-04	
791	6.300000e+00	6.028315e-04	
792	6.350000e+00	6.041673e-04	
793	6.400000e+00	6.056038e-04	
794	6.450000e+00	6.071473e-04	
795	6.500000e+00	6.088046e-04	
796	6.550000e+00	6.105827e-04	
797	6.600000e+00	6.124887e-04	
Note: No ".plot", ".print", or ".fourier" lines; no simulations run
