
Note: Compatibility modes selected: hs

Warning: m=xx on .subckt line will override multiplier m hierarchy!


Circuit: ***************************

Doing analysis at TEMP = 25.000000 and TNOM = 25.000000


No. of Data Rows : 798
                          ***************************
                          DC transfer characteristic  Mon Jan  9 13:57:40  2023
--------------------------------------------------------------------------------
Index   v-sweep         -i(vds)         
--------------------------------------------------------------------------------
0	0.000000e+00	-0.000000e+00	
1	5.000000e-02	1.059403e-06	
2	1.000000e-01	1.914246e-06	
3	1.500000e-01	2.571788e-06	
4	2.000000e-01	3.042766e-06	
5	2.500000e-01	3.348947e-06	
6	3.000000e-01	3.534597e-06	
7	3.500000e-01	3.654544e-06	
8	4.000000e-01	3.743630e-06	
9	4.500000e-01	3.816538e-06	
10	5.000000e-01	3.879428e-06	
11	5.500000e-01	3.935368e-06	
12	6.000000e-01	3.986139e-06	
13	6.500000e-01	4.032890e-06	
14	7.000000e-01	4.076415e-06	
15	7.500000e-01	4.117290e-06	
16	8.000000e-01	4.155947e-06	
17	8.500000e-01	4.192720e-06	
18	9.000000e-01	4.227873e-06	
19	9.500000e-01	4.261618e-06	
20	1.000000e+00	4.294129e-06	
21	1.050000e+00	4.325548e-06	
22	1.100000e+00	4.355996e-06	
23	1.150000e+00	4.385574e-06	
24	1.200000e+00	4.414369e-06	
25	1.250000e+00	4.442454e-06	
26	1.300000e+00	4.469895e-06	
27	1.350000e+00	4.496747e-06	
28	1.400000e+00	4.523060e-06	
29	1.450000e+00	4.548878e-06	
30	1.500000e+00	4.574238e-06	
31	1.550000e+00	4.599175e-06	
32	1.600000e+00	4.623720e-06	
33	1.650000e+00	4.647900e-06	
34	1.700000e+00	4.671740e-06	
35	1.750000e+00	4.695263e-06	
36	1.800000e+00	4.718488e-06	
37	1.850000e+00	4.741434e-06	
38	1.900000e+00	4.764118e-06	
39	1.950000e+00	4.786556e-06	
40	2.000000e+00	4.808761e-06	
41	2.050000e+00	4.830747e-06	
42	2.100000e+00	4.852526e-06	
43	2.150000e+00	4.874108e-06	
44	2.200000e+00	4.895505e-06	
45	2.250000e+00	4.916725e-06	
46	2.300000e+00	4.937777e-06	
47	2.350000e+00	4.958670e-06	
48	2.400000e+00	4.979412e-06	
49	2.450000e+00	5.000010e-06	
50	2.500000e+00	5.020471e-06	
51	2.550000e+00	5.040803e-06	
52	2.600000e+00	5.061010e-06	
53	2.650000e+00	5.081101e-06	
54	2.700000e+00	5.101081e-06	

Index   v-sweep         -i(vds)         
--------------------------------------------------------------------------------
55	2.750000e+00	5.120956e-06	
56	2.800000e+00	5.140733e-06	
57	2.850000e+00	5.160419e-06	
58	2.900000e+00	5.180020e-06	
59	2.950000e+00	5.199543e-06	
60	3.000000e+00	5.218995e-06	
61	3.050000e+00	5.238385e-06	
62	3.100000e+00	5.257720e-06	
63	3.150000e+00	5.277010e-06	
64	3.200000e+00	5.296265e-06	
65	3.250000e+00	5.315495e-06	
66	3.300000e+00	5.334713e-06	
67	3.350000e+00	5.353929e-06	
68	3.400000e+00	5.373160e-06	
69	3.450000e+00	5.392419e-06	
70	3.500000e+00	5.411723e-06	
71	3.550000e+00	5.431089e-06	
72	3.600000e+00	5.450538e-06	
73	3.650000e+00	5.470091e-06	
74	3.700000e+00	5.489769e-06	
75	3.750000e+00	5.509598e-06	
76	3.800000e+00	5.529604e-06	
77	3.850000e+00	5.549815e-06	
78	3.900000e+00	5.570263e-06	
79	3.950000e+00	5.590980e-06	
80	4.000000e+00	5.612000e-06	
81	4.050000e+00	5.633361e-06	
82	4.100000e+00	5.655103e-06	
83	4.150000e+00	5.677267e-06	
84	4.200000e+00	5.699897e-06	
85	4.250000e+00	5.723042e-06	
86	4.300000e+00	5.746749e-06	
87	4.350000e+00	5.771071e-06	
88	4.400000e+00	5.796063e-06	
89	4.450000e+00	5.821782e-06	
90	4.500000e+00	5.848287e-06	
91	4.550000e+00	5.875642e-06	
92	4.600000e+00	5.903911e-06	
93	4.650000e+00	5.933163e-06	
94	4.700000e+00	5.963468e-06	
95	4.750000e+00	5.994899e-06	
96	4.800000e+00	6.027532e-06	
97	4.850000e+00	6.061447e-06	
98	4.900000e+00	6.096724e-06	
99	4.950000e+00	6.133448e-06	
100	5.000000e+00	6.171705e-06	
101	5.050000e+00	6.211584e-06	
102	5.100000e+00	6.253177e-06	
103	5.150000e+00	6.296579e-06	
104	5.200000e+00	6.341885e-06	
105	5.250000e+00	6.389196e-06	
106	5.300000e+00	6.438614e-06	
107	5.350000e+00	6.490241e-06	
108	5.400000e+00	6.544184e-06	
109	5.450000e+00	6.600553e-06	
110	5.500000e+00	6.659458e-06	
111	5.550000e+00	6.721012e-06	
112	5.600000e+00	6.785329e-06	

Index   v-sweep         -i(vds)         
--------------------------------------------------------------------------------
113	5.650000e+00	6.852528e-06	
114	5.700000e+00	6.922728e-06	
115	5.750000e+00	6.996050e-06	
116	5.800000e+00	7.072616e-06	
117	5.850000e+00	7.152553e-06	
118	5.900000e+00	7.235985e-06	
119	5.950000e+00	7.323043e-06	
120	6.000000e+00	7.413856e-06	
121	6.050000e+00	7.508556e-06	
122	6.100000e+00	7.607276e-06	
123	6.150000e+00	7.710150e-06	
124	6.200000e+00	7.817315e-06	
125	6.250000e+00	7.928909e-06	
126	6.300000e+00	8.045070e-06	
127	6.350000e+00	8.165938e-06	
128	6.400000e+00	8.291654e-06	
129	6.450000e+00	8.422361e-06	
130	6.500000e+00	8.558202e-06	
131	6.550000e+00	8.699321e-06	
132	6.600000e+00	8.845864e-06	
133	0.000000e+00	-0.000000e+00	
134	5.000000e-02	3.282573e-06	
135	1.000000e-01	6.335010e-06	
136	1.500000e-01	9.164110e-06	
137	2.000000e-01	1.177641e-05	
138	2.500000e-01	1.417821e-05	
139	3.000000e-01	1.637558e-05	
140	3.500000e-01	1.837436e-05	
141	4.000000e-01	2.018025e-05	
142	4.500000e-01	2.179881e-05	
143	5.000000e-01	2.323555e-05	
144	5.500000e-01	2.449605e-05	
145	6.000000e-01	2.558622e-05	
146	6.500000e-01	2.651292e-05	
147	7.000000e-01	2.728529e-05	
148	7.500000e-01	2.791710e-05	
149	8.000000e-01	2.842867e-05	
150	8.500000e-01	2.884473e-05	
151	9.000000e-01	2.918891e-05	
152	9.500000e-01	2.947991e-05	
153	1.000000e+00	2.973119e-05	
154	1.050000e+00	2.995221e-05	
155	1.100000e+00	3.014958e-05	
156	1.150000e+00	3.032809e-05	
157	1.200000e+00	3.049122e-05	
158	1.250000e+00	3.064163e-05	
159	1.300000e+00	3.078131e-05	
160	1.350000e+00	3.091188e-05	
161	1.400000e+00	3.103457e-05	
162	1.450000e+00	3.115042e-05	
163	1.500000e+00	3.126025e-05	
164	1.550000e+00	3.136477e-05	
165	1.600000e+00	3.146455e-05	
166	1.650000e+00	3.156008e-05	
167	1.700000e+00	3.165178e-05	
168	1.750000e+00	3.174002e-05	
169	1.800000e+00	3.182509e-05	
170	1.850000e+00	3.190729e-05	

Index   v-sweep         -i(vds)         
--------------------------------------------------------------------------------
171	1.900000e+00	3.198684e-05	
172	1.950000e+00	3.206396e-05	
173	2.000000e+00	3.213883e-05	
174	2.050000e+00	3.221161e-05	
175	2.100000e+00	3.228246e-05	
176	2.150000e+00	3.235151e-05	
177	2.200000e+00	3.241888e-05	
178	2.250000e+00	3.248468e-05	
179	2.300000e+00	3.254900e-05	
180	2.350000e+00	3.261193e-05	
181	2.400000e+00	3.267357e-05	
182	2.450000e+00	3.273397e-05	
183	2.500000e+00	3.279321e-05	
184	2.550000e+00	3.285136e-05	
185	2.600000e+00	3.290847e-05	
186	2.650000e+00	3.296459e-05	
187	2.700000e+00	3.301977e-05	
188	2.750000e+00	3.307407e-05	
189	2.800000e+00	3.312752e-05	
190	2.850000e+00	3.318017e-05	
191	2.900000e+00	3.323206e-05	
192	2.950000e+00	3.328321e-05	
193	3.000000e+00	3.333367e-05	
194	3.050000e+00	3.338347e-05	
195	3.100000e+00	3.343265e-05	
196	3.150000e+00	3.348124e-05	
197	3.200000e+00	3.352927e-05	
198	3.250000e+00	3.357677e-05	
199	3.300000e+00	3.362379e-05	
200	3.350000e+00	3.367035e-05	
201	3.400000e+00	3.371650e-05	
202	3.450000e+00	3.376228e-05	
203	3.500000e+00	3.380772e-05	
204	3.550000e+00	3.385288e-05	
205	3.600000e+00	3.389781e-05	
206	3.650000e+00	3.394256e-05	
207	3.700000e+00	3.398720e-05	
208	3.750000e+00	3.403178e-05	
209	3.800000e+00	3.407638e-05	
210	3.850000e+00	3.412107e-05	
211	3.900000e+00	3.416596e-05	
212	3.950000e+00	3.421112e-05	
213	4.000000e+00	3.425665e-05	
214	4.050000e+00	3.430268e-05	
215	4.100000e+00	3.434932e-05	
216	4.150000e+00	3.439669e-05	
217	4.200000e+00	3.444494e-05	
218	4.250000e+00	3.449422e-05	
219	4.300000e+00	3.454469e-05	
220	4.350000e+00	3.459652e-05	
221	4.400000e+00	3.464989e-05	
222	4.450000e+00	3.470501e-05	
223	4.500000e+00	3.476208e-05	
224	4.550000e+00	3.482132e-05	
225	4.600000e+00	3.488296e-05	
226	4.650000e+00	3.494727e-05	
227	4.700000e+00	3.501449e-05	
228	4.750000e+00	3.508490e-05	

Index   v-sweep         -i(vds)         
--------------------------------------------------------------------------------
229	4.800000e+00	3.515879e-05	
230	4.850000e+00	3.523645e-05	
231	4.900000e+00	3.531822e-05	
232	4.950000e+00	3.540441e-05	
233	5.000000e+00	3.549536e-05	
234	5.050000e+00	3.559144e-05	
235	5.100000e+00	3.569300e-05	
236	5.150000e+00	3.580045e-05	
237	5.200000e+00	3.591416e-05	
238	5.250000e+00	3.603456e-05	
239	5.300000e+00	3.616206e-05	
240	5.350000e+00	3.629710e-05	
241	5.400000e+00	3.644013e-05	
242	5.450000e+00	3.659160e-05	
243	5.500000e+00	3.675200e-05	
244	5.550000e+00	3.692180e-05	
245	5.600000e+00	3.710150e-05	
246	5.650000e+00	3.729160e-05	
247	5.700000e+00	3.749264e-05	
248	5.750000e+00	3.770512e-05	
249	5.800000e+00	3.792960e-05	
250	5.850000e+00	3.816662e-05	
251	5.900000e+00	3.841673e-05	
252	5.950000e+00	3.868052e-05	
253	6.000000e+00	3.895855e-05	
254	6.050000e+00	3.925140e-05	
255	6.100000e+00	3.955968e-05	
256	6.150000e+00	3.988397e-05	
257	6.200000e+00	4.022490e-05	
258	6.250000e+00	4.058307e-05	
259	6.300000e+00	4.095910e-05	
260	6.350000e+00	4.135363e-05	
261	6.400000e+00	4.176728e-05	
262	6.450000e+00	4.220069e-05	
263	6.500000e+00	4.265452e-05	
264	6.550000e+00	4.312939e-05	
265	6.600000e+00	4.362598e-05	
266	0.000000e+00	-0.000000e+00	
267	5.000000e-02	4.988247e-06	
268	1.000000e-01	9.733251e-06	
269	1.500000e-01	1.424214e-05	
270	2.000000e-01	1.852175e-05	
271	2.500000e-01	2.257866e-05	
272	3.000000e-01	2.641917e-05	
273	3.500000e-01	3.004932e-05	
274	4.000000e-01	3.347492e-05	
275	4.500000e-01	3.670151e-05	
276	5.000000e-01	3.973444e-05	
277	5.500000e-01	4.257884e-05	
278	6.000000e-01	4.523964e-05	
279	6.500000e-01	4.772161e-05	
280	7.000000e-01	5.002933e-05	
281	7.500000e-01	5.216720e-05	
282	8.000000e-01	5.413941e-05	
283	8.500000e-01	5.594988e-05	
284	9.000000e-01	5.760215e-05	
285	9.500000e-01	5.909923e-05	
286	1.000000e+00	6.044339e-05	

Index   v-sweep         -i(vds)         
--------------------------------------------------------------------------------
287	1.050000e+00	6.163615e-05	
288	1.100000e+00	6.267923e-05	
289	1.150000e+00	6.357702e-05	
290	1.200000e+00	6.433991e-05	
291	1.250000e+00	6.498503e-05	
292	1.300000e+00	6.553287e-05	
293	1.350000e+00	6.600307e-05	
294	1.400000e+00	6.641200e-05	
295	1.450000e+00	6.677243e-05	
296	1.500000e+00	6.709404e-05	
297	1.550000e+00	6.738417e-05	
298	1.600000e+00	6.764838e-05	
299	1.650000e+00	6.789097e-05	
300	1.700000e+00	6.811528e-05	
301	1.750000e+00	6.832399e-05	
302	1.800000e+00	6.851922e-05	
303	1.850000e+00	6.870270e-05	
304	1.900000e+00	6.887586e-05	
305	1.950000e+00	6.903989e-05	
306	2.000000e+00	6.919579e-05	
307	2.050000e+00	6.934439e-05	
308	2.100000e+00	6.948643e-05	
309	2.150000e+00	6.962251e-05	
310	2.200000e+00	6.975319e-05	
311	2.250000e+00	6.987892e-05	
312	2.300000e+00	7.000011e-05	
313	2.350000e+00	7.011714e-05	
314	2.400000e+00	7.023031e-05	
315	2.450000e+00	7.033992e-05	
316	2.500000e+00	7.044622e-05	
317	2.550000e+00	7.054944e-05	
318	2.600000e+00	7.064978e-05	
319	2.650000e+00	7.074744e-05	
320	2.700000e+00	7.084257e-05	
321	2.750000e+00	7.093533e-05	
322	2.800000e+00	7.102587e-05	
323	2.850000e+00	7.111431e-05	
324	2.900000e+00	7.120077e-05	
325	2.950000e+00	7.128535e-05	
326	3.000000e+00	7.136816e-05	
327	3.050000e+00	7.144929e-05	
328	3.100000e+00	7.152882e-05	
329	3.150000e+00	7.160684e-05	
330	3.200000e+00	7.168342e-05	
331	3.250000e+00	7.175863e-05	
332	3.300000e+00	7.183253e-05	
333	3.350000e+00	7.190520e-05	
334	3.400000e+00	7.197670e-05	
335	3.450000e+00	7.204708e-05	
336	3.500000e+00	7.211641e-05	
337	3.550000e+00	7.218475e-05	
338	3.600000e+00	7.225216e-05	
339	3.650000e+00	7.231870e-05	
340	3.700000e+00	7.238444e-05	
341	3.750000e+00	7.244945e-05	
342	3.800000e+00	7.251381e-05	
343	3.850000e+00	7.257759e-05	
344	3.900000e+00	7.264088e-05	

Index   v-sweep         -i(vds)         
--------------------------------------------------------------------------------
345	3.950000e+00	7.270379e-05	
346	4.000000e+00	7.276640e-05	
347	4.050000e+00	7.282884e-05	
348	4.100000e+00	7.289123e-05	
349	4.150000e+00	7.295372e-05	
350	4.200000e+00	7.301644e-05	
351	4.250000e+00	7.307956e-05	
352	4.300000e+00	7.314328e-05	
353	4.350000e+00	7.320777e-05	
354	4.400000e+00	7.327327e-05	
355	4.450000e+00	7.334000e-05	
356	4.500000e+00	7.340821e-05	
357	4.550000e+00	7.347820e-05	
358	4.600000e+00	7.355024e-05	
359	4.650000e+00	7.362466e-05	
360	4.700000e+00	7.370181e-05	
361	4.750000e+00	7.378205e-05	
362	4.800000e+00	7.386577e-05	
363	4.850000e+00	7.395339e-05	
364	4.900000e+00	7.404536e-05	
365	4.950000e+00	7.414214e-05	
366	5.000000e+00	7.424424e-05	
367	5.050000e+00	7.435217e-05	
368	5.100000e+00	7.446650e-05	
369	5.150000e+00	7.458779e-05	
370	5.200000e+00	7.471667e-05	
371	5.250000e+00	7.485376e-05	
372	5.300000e+00	7.499973e-05	
373	5.350000e+00	7.515527e-05	
374	5.400000e+00	7.532111e-05	
375	5.450000e+00	7.549800e-05	
376	5.500000e+00	7.568671e-05	
377	5.550000e+00	7.588804e-05	
378	5.600000e+00	7.610283e-05	
379	5.650000e+00	7.633193e-05	
380	5.700000e+00	7.657624e-05	
381	5.750000e+00	7.683665e-05	
382	5.800000e+00	7.711411e-05	
383	5.850000e+00	7.740957e-05	
384	5.900000e+00	7.772402e-05	
385	5.950000e+00	7.805847e-05	
386	6.000000e+00	7.841395e-05	
387	6.050000e+00	7.879150e-05	
388	6.100000e+00	7.919222e-05	
389	6.150000e+00	7.961718e-05	
390	6.200000e+00	8.006752e-05	
391	6.250000e+00	8.054435e-05	
392	6.300000e+00	8.104884e-05	
393	6.350000e+00	8.158215e-05	
394	6.400000e+00	8.214548e-05	
395	6.450000e+00	8.274003e-05	
396	6.500000e+00	8.336701e-05	
397	6.550000e+00	8.402767e-05	
398	6.600000e+00	8.472324e-05	
399	0.000000e+00	-0.000000e+00	
400	5.000000e-02	6.300655e-06	
401	1.000000e-01	1.235614e-05	
402	1.500000e-01	1.817325e-05	

Index   v-sweep         -i(vds)         
--------------------------------------------------------------------------------
403	2.000000e-01	2.375851e-05	
404	2.500000e-01	2.911821e-05	
405	3.000000e-01	3.425840e-05	
406	3.500000e-01	3.918488e-05	
407	4.000000e-01	4.390325e-05	
408	4.500000e-01	4.841884e-05	
409	5.000000e-01	5.273679e-05	
410	5.500000e-01	5.686203e-05	
411	6.000000e-01	6.079929e-05	
412	6.500000e-01	6.455313e-05	
413	7.000000e-01	6.812793e-05	
414	7.500000e-01	7.152793e-05	
415	8.000000e-01	7.475721e-05	
416	8.500000e-01	7.781975e-05	
417	9.000000e-01	8.071936e-05	
418	9.500000e-01	8.345974e-05	
419	1.000000e+00	8.604445e-05	
420	1.050000e+00	8.847686e-05	
421	1.100000e+00	9.076012e-05	
422	1.150000e+00	9.289708e-05	
423	1.200000e+00	9.489009e-05	
424	1.250000e+00	9.674084e-05	
425	1.300000e+00	9.844997e-05	
426	1.350000e+00	1.000167e-04	
427	1.400000e+00	1.014390e-04	
428	1.450000e+00	1.027137e-04	
429	1.500000e+00	1.038399e-04	
430	1.550000e+00	1.048218e-04	
431	1.600000e+00	1.056708e-04	
432	1.650000e+00	1.064039e-04	
433	1.700000e+00	1.070400e-04	
434	1.750000e+00	1.075967e-04	
435	1.800000e+00	1.080887e-04	
436	1.850000e+00	1.085280e-04	
437	1.900000e+00	1.089240e-04	
438	1.950000e+00	1.092840e-04	
439	2.000000e+00	1.096139e-04	
440	2.050000e+00	1.099183e-04	
441	2.100000e+00	1.102007e-04	
442	2.150000e+00	1.104642e-04	
443	2.200000e+00	1.107113e-04	
444	2.250000e+00	1.109438e-04	
445	2.300000e+00	1.111635e-04	
446	2.350000e+00	1.113718e-04	
447	2.400000e+00	1.115698e-04	
448	2.450000e+00	1.117586e-04	
449	2.500000e+00	1.119391e-04	
450	2.550000e+00	1.121120e-04	
451	2.600000e+00	1.122779e-04	
452	2.650000e+00	1.124376e-04	
453	2.700000e+00	1.125913e-04	
454	2.750000e+00	1.127397e-04	
455	2.800000e+00	1.128832e-04	
456	2.850000e+00	1.130219e-04	
457	2.900000e+00	1.131564e-04	
458	2.950000e+00	1.132869e-04	
459	3.000000e+00	1.134137e-04	
460	3.050000e+00	1.135369e-04	

Index   v-sweep         -i(vds)         
--------------------------------------------------------------------------------
461	3.100000e+00	1.136568e-04	
462	3.150000e+00	1.137736e-04	
463	3.200000e+00	1.138875e-04	
464	3.250000e+00	1.139987e-04	
465	3.300000e+00	1.141072e-04	
466	3.350000e+00	1.142133e-04	
467	3.400000e+00	1.143170e-04	
468	3.450000e+00	1.144186e-04	
469	3.500000e+00	1.145180e-04	
470	3.550000e+00	1.146154e-04	
471	3.600000e+00	1.147109e-04	
472	3.650000e+00	1.148046e-04	
473	3.700000e+00	1.148967e-04	
474	3.750000e+00	1.149871e-04	
475	3.800000e+00	1.150759e-04	
476	3.850000e+00	1.151633e-04	
477	3.900000e+00	1.152493e-04	
478	3.950000e+00	1.153341e-04	
479	4.000000e+00	1.154177e-04	
480	4.050000e+00	1.155002e-04	
481	4.100000e+00	1.155817e-04	
482	4.150000e+00	1.156624e-04	
483	4.200000e+00	1.157423e-04	
484	4.250000e+00	1.158216e-04	
485	4.300000e+00	1.159004e-04	
486	4.350000e+00	1.159789e-04	
487	4.400000e+00	1.160573e-04	
488	4.450000e+00	1.161357e-04	
489	4.500000e+00	1.162144e-04	
490	4.550000e+00	1.162936e-04	
491	4.600000e+00	1.163736e-04	
492	4.650000e+00	1.164545e-04	
493	4.700000e+00	1.165369e-04	
494	4.750000e+00	1.166209e-04	
495	4.800000e+00	1.167069e-04	
496	4.850000e+00	1.167954e-04	
497	4.900000e+00	1.168868e-04	
498	4.950000e+00	1.169815e-04	
499	5.000000e+00	1.170801e-04	
500	5.050000e+00	1.171830e-04	
501	5.100000e+00	1.172909e-04	
502	5.150000e+00	1.174043e-04	
503	5.200000e+00	1.175240e-04	
504	5.250000e+00	1.176506e-04	
505	5.300000e+00	1.177849e-04	
506	5.350000e+00	1.179276e-04	
507	5.400000e+00	1.180795e-04	
508	5.450000e+00	1.182417e-04	
509	5.500000e+00	1.184148e-04	
510	5.550000e+00	1.186000e-04	
511	5.600000e+00	1.187981e-04	
512	5.650000e+00	1.190103e-04	
513	5.700000e+00	1.192377e-04	
514	5.750000e+00	1.194813e-04	
515	5.800000e+00	1.197424e-04	
516	5.850000e+00	1.200222e-04	
517	5.900000e+00	1.203218e-04	
518	5.950000e+00	1.206428e-04	

Index   v-sweep         -i(vds)         
--------------------------------------------------------------------------------
519	6.000000e+00	1.209863e-04	
520	6.050000e+00	1.213538e-04	
521	6.100000e+00	1.217467e-04	
522	6.150000e+00	1.221665e-04	
523	6.200000e+00	1.226147e-04	
524	6.250000e+00	1.230929e-04	
525	6.300000e+00	1.236025e-04	
526	6.350000e+00	1.241453e-04	
527	6.400000e+00	1.247229e-04	
528	6.450000e+00	1.253370e-04	
529	6.500000e+00	1.259892e-04	
530	6.550000e+00	1.266814e-04	
531	6.600000e+00	1.274154e-04	
532	0.000000e+00	-0.000000e+00	
533	5.000000e-02	7.278861e-06	
534	1.000000e-01	1.431969e-05	
535	1.500000e-01	2.112858e-05	
536	2.000000e-01	2.771142e-05	
537	2.500000e-01	3.407387e-05	
538	3.000000e-01	4.022142e-05	
539	3.500000e-01	4.615934e-05	
540	4.000000e-01	5.189274e-05	
541	4.500000e-01	5.742649e-05	
542	5.000000e-01	6.276532e-05	
543	5.500000e-01	6.791374e-05	
544	6.000000e-01	7.287612e-05	
545	6.500000e-01	7.765663e-05	
546	7.000000e-01	8.225932e-05	
547	7.500000e-01	8.668806e-05	
548	8.000000e-01	9.094660e-05	
549	8.500000e-01	9.503857e-05	
550	9.000000e-01	9.896748e-05	
551	9.500000e-01	1.027367e-04	
552	1.000000e+00	1.063496e-04	
553	1.050000e+00	1.098094e-04	
554	1.100000e+00	1.131192e-04	
555	1.150000e+00	1.162820e-04	
556	1.200000e+00	1.193009e-04	
557	1.250000e+00	1.221787e-04	
558	1.300000e+00	1.249180e-04	
559	1.350000e+00	1.275216e-04	
560	1.400000e+00	1.299918e-04	
561	1.450000e+00	1.323307e-04	
562	1.500000e+00	1.345399e-04	
563	1.550000e+00	1.366204e-04	
564	1.600000e+00	1.385723e-04	
565	1.650000e+00	1.403944e-04	
566	1.700000e+00	1.420838e-04	
567	1.750000e+00	1.436362e-04	
568	1.800000e+00	1.450464e-04	
569	1.850000e+00	1.463113e-04	
570	1.900000e+00	1.474325e-04	
571	1.950000e+00	1.484183e-04	
572	2.000000e+00	1.492825e-04	
573	2.050000e+00	1.500417e-04	
574	2.100000e+00	1.507125e-04	
575	2.150000e+00	1.513097e-04	
576	2.200000e+00	1.518456e-04	

Index   v-sweep         -i(vds)         
--------------------------------------------------------------------------------
577	2.250000e+00	1.523303e-04	
578	2.300000e+00	1.527722e-04	
579	2.350000e+00	1.531777e-04	
580	2.400000e+00	1.535521e-04	
581	2.450000e+00	1.538998e-04	
582	2.500000e+00	1.542243e-04	
583	2.550000e+00	1.545284e-04	
584	2.600000e+00	1.548147e-04	
585	2.650000e+00	1.550850e-04	
586	2.700000e+00	1.553411e-04	
587	2.750000e+00	1.555845e-04	
588	2.800000e+00	1.558164e-04	
589	2.850000e+00	1.560379e-04	
590	2.900000e+00	1.562500e-04	
591	2.950000e+00	1.564533e-04	
592	3.000000e+00	1.566488e-04	
593	3.050000e+00	1.568369e-04	
594	3.100000e+00	1.570183e-04	
595	3.150000e+00	1.571935e-04	
596	3.200000e+00	1.573628e-04	
597	3.250000e+00	1.575268e-04	
598	3.300000e+00	1.576858e-04	
599	3.350000e+00	1.578400e-04	
600	3.400000e+00	1.579898e-04	
601	3.450000e+00	1.581355e-04	
602	3.500000e+00	1.582773e-04	
603	3.550000e+00	1.584154e-04	
604	3.600000e+00	1.585500e-04	
605	3.650000e+00	1.586814e-04	
606	3.700000e+00	1.588097e-04	
607	3.750000e+00	1.589351e-04	
608	3.800000e+00	1.590576e-04	
609	3.850000e+00	1.591775e-04	
610	3.900000e+00	1.592950e-04	
611	3.950000e+00	1.594100e-04	
612	4.000000e+00	1.595227e-04	
613	4.050000e+00	1.596334e-04	
614	4.100000e+00	1.597419e-04	
615	4.150000e+00	1.598486e-04	
616	4.200000e+00	1.599534e-04	
617	4.250000e+00	1.600566e-04	
618	4.300000e+00	1.601581e-04	
619	4.350000e+00	1.602582e-04	
620	4.400000e+00	1.603570e-04	
621	4.450000e+00	1.604546e-04	
622	4.500000e+00	1.605511e-04	
623	4.550000e+00	1.606468e-04	
624	4.600000e+00	1.607418e-04	
625	4.650000e+00	1.608362e-04	
626	4.700000e+00	1.609304e-04	
627	4.750000e+00	1.610245e-04	
628	4.800000e+00	1.611188e-04	
629	4.850000e+00	1.612137e-04	
630	4.900000e+00	1.613094e-04	
631	4.950000e+00	1.614062e-04	
632	5.000000e+00	1.615047e-04	
633	5.050000e+00	1.616051e-04	
634	5.100000e+00	1.617080e-04	

Index   v-sweep         -i(vds)         
--------------------------------------------------------------------------------
635	5.150000e+00	1.618139e-04	
636	5.200000e+00	1.619233e-04	
637	5.250000e+00	1.620368e-04	
638	5.300000e+00	1.621551e-04	
639	5.350000e+00	1.622788e-04	
640	5.400000e+00	1.624088e-04	
641	5.450000e+00	1.625457e-04	
642	5.500000e+00	1.626906e-04	
643	5.550000e+00	1.628442e-04	
644	5.600000e+00	1.630075e-04	
645	5.650000e+00	1.631816e-04	
646	5.700000e+00	1.633675e-04	
647	5.750000e+00	1.635664e-04	
648	5.800000e+00	1.637796e-04	
649	5.850000e+00	1.640082e-04	
650	5.900000e+00	1.642535e-04	
651	5.950000e+00	1.645171e-04	
652	6.000000e+00	1.648002e-04	
653	6.050000e+00	1.651046e-04	
654	6.100000e+00	1.654316e-04	
655	6.150000e+00	1.657829e-04	
656	6.200000e+00	1.661603e-04	
657	6.250000e+00	1.665654e-04	
658	6.300000e+00	1.670002e-04	
659	6.350000e+00	1.674664e-04	
660	6.400000e+00	1.679659e-04	
661	6.450000e+00	1.685009e-04	
662	6.500000e+00	1.690732e-04	
663	6.550000e+00	1.696850e-04	
664	6.600000e+00	1.703384e-04	
665	0.000000e+00	-0.000000e+00	
666	5.000000e-02	7.979650e-06	
667	1.000000e-01	1.573438e-05	
668	1.500000e-01	2.326944e-05	
669	2.000000e-01	3.058992e-05	
670	2.500000e-01	3.770077e-05	
671	3.000000e-01	4.460676e-05	
672	3.500000e-01	5.131250e-05	
673	4.000000e-01	5.782247e-05	
674	4.500000e-01	6.414098e-05	
675	5.000000e-01	7.027221e-05	
676	5.500000e-01	7.622017e-05	
677	6.000000e-01	8.198873e-05	
678	6.500000e-01	8.758165e-05	
679	7.000000e-01	9.300252e-05	
680	7.500000e-01	9.825483e-05	
681	8.000000e-01	1.033419e-04	
682	8.500000e-01	1.082670e-04	
683	9.000000e-01	1.130333e-04	
684	9.500000e-01	1.176438e-04	
685	1.000000e+00	1.221014e-04	
686	1.050000e+00	1.264090e-04	
687	1.100000e+00	1.305694e-04	
688	1.150000e+00	1.345854e-04	
689	1.200000e+00	1.384595e-04	
690	1.250000e+00	1.421943e-04	
691	1.300000e+00	1.457925e-04	
692	1.350000e+00	1.492564e-04	

Index   v-sweep         -i(vds)         
--------------------------------------------------------------------------------
693	1.400000e+00	1.525886e-04	
694	1.450000e+00	1.557914e-04	
695	1.500000e+00	1.588672e-04	
696	1.550000e+00	1.618180e-04	
697	1.600000e+00	1.646462e-04	
698	1.650000e+00	1.673537e-04	
699	1.700000e+00	1.699424e-04	
700	1.750000e+00	1.724138e-04	
701	1.800000e+00	1.747692e-04	
702	1.850000e+00	1.770093e-04	
703	1.900000e+00	1.791343e-04	
704	1.950000e+00	1.811430e-04	
705	2.000000e+00	1.830333e-04	
706	2.050000e+00	1.848012e-04	
707	2.100000e+00	1.864414e-04	
708	2.150000e+00	1.879481e-04	
709	2.200000e+00	1.893168e-04	
710	2.250000e+00	1.905473e-04	
711	2.300000e+00	1.916449e-04	
712	2.350000e+00	1.926203e-04	
713	2.400000e+00	1.934872e-04	
714	2.450000e+00	1.942604e-04	
715	2.500000e+00	1.949538e-04	
716	2.550000e+00	1.955796e-04	
717	2.600000e+00	1.961481e-04	
718	2.650000e+00	1.966680e-04	
719	2.700000e+00	1.971462e-04	
720	2.750000e+00	1.975886e-04	
721	2.800000e+00	1.980000e-04	
722	2.850000e+00	1.983842e-04	
723	2.900000e+00	1.987446e-04	
724	2.950000e+00	1.990839e-04	
725	3.000000e+00	1.994045e-04	
726	3.050000e+00	1.997083e-04	
727	3.100000e+00	1.999970e-04	
728	3.150000e+00	2.002720e-04	
729	3.200000e+00	2.005347e-04	
730	3.250000e+00	2.007861e-04	
731	3.300000e+00	2.010272e-04	
732	3.350000e+00	2.012588e-04	
733	3.400000e+00	2.014816e-04	
734	3.450000e+00	2.016964e-04	
735	3.500000e+00	2.019038e-04	
736	3.550000e+00	2.021042e-04	
737	3.600000e+00	2.022981e-04	
738	3.650000e+00	2.024860e-04	
739	3.700000e+00	2.026682e-04	
740	3.750000e+00	2.028452e-04	
741	3.800000e+00	2.030172e-04	
742	3.850000e+00	2.031845e-04	
743	3.900000e+00	2.033474e-04	
744	3.950000e+00	2.035061e-04	
745	4.000000e+00	2.036609e-04	
746	4.050000e+00	2.038120e-04	
747	4.100000e+00	2.039595e-04	
748	4.150000e+00	2.041037e-04	
749	4.200000e+00	2.042447e-04	
750	4.250000e+00	2.043827e-04	

Index   v-sweep         -i(vds)         
--------------------------------------------------------------------------------
751	4.300000e+00	2.045178e-04	
752	4.350000e+00	2.046502e-04	
753	4.400000e+00	2.047800e-04	
754	4.450000e+00	2.049073e-04	
755	4.500000e+00	2.050323e-04	
756	4.550000e+00	2.051552e-04	
757	4.600000e+00	2.052760e-04	
758	4.650000e+00	2.053950e-04	
759	4.700000e+00	2.055121e-04	
760	4.750000e+00	2.056277e-04	
761	4.800000e+00	2.057419e-04	
762	4.850000e+00	2.058549e-04	
763	4.900000e+00	2.059669e-04	
764	4.950000e+00	2.060780e-04	
765	5.000000e+00	2.061886e-04	
766	5.050000e+00	2.062989e-04	
767	5.100000e+00	2.064093e-04	
768	5.150000e+00	2.065200e-04	
769	5.200000e+00	2.066315e-04	
770	5.250000e+00	2.067441e-04	
771	5.300000e+00	2.068582e-04	
772	5.350000e+00	2.069745e-04	
773	5.400000e+00	2.070934e-04	
774	5.450000e+00	2.072155e-04	
775	5.500000e+00	2.073415e-04	
776	5.550000e+00	2.074720e-04	
777	5.600000e+00	2.076079e-04	
778	5.650000e+00	2.077500e-04	
779	5.700000e+00	2.078990e-04	
780	5.750000e+00	2.080561e-04	
781	5.800000e+00	2.082222e-04	
782	5.850000e+00	2.083984e-04	
783	5.900000e+00	2.085859e-04	
784	5.950000e+00	2.087858e-04	
785	6.000000e+00	2.089996e-04	
786	6.050000e+00	2.092285e-04	
787	6.100000e+00	2.094742e-04	
788	6.150000e+00	2.097380e-04	
789	6.200000e+00	2.100216e-04	
790	6.250000e+00	2.103268e-04	
791	6.300000e+00	2.106552e-04	
792	6.350000e+00	2.110088e-04	
793	6.400000e+00	2.113894e-04	
794	6.450000e+00	2.117991e-04	
795	6.500000e+00	2.122400e-04	
796	6.550000e+00	2.127142e-04	
797	6.600000e+00	2.132239e-04	
Note: No ".plot", ".print", or ".fourier" lines; no simulations run
