
Note: Compatibility modes selected: hs

Warning: m=xx on .subckt line will override multiplier m hierarchy!


Circuit: ***************************

Doing analysis at TEMP = -40.000000 and TNOM = -40.000000


No. of Data Rows : 798
                          ***************************
                          DC transfer characteristic  Mon Jan  9 13:57:41  2023
--------------------------------------------------------------------------------
Index   v-sweep         -i(vds)         
--------------------------------------------------------------------------------
0	0.000000e+00	-0.000000e+00	
1	5.000000e-02	1.462430e-06	
2	1.000000e-01	2.376647e-06	
3	1.500000e-01	2.828081e-06	
4	2.000000e-01	3.010407e-06	
5	2.500000e-01	3.098431e-06	
6	3.000000e-01	3.155496e-06	
7	3.500000e-01	3.198898e-06	
8	4.000000e-01	3.234609e-06	
9	4.500000e-01	3.265320e-06	
10	5.000000e-01	3.292491e-06	
11	5.500000e-01	3.317008e-06	
12	6.000000e-01	3.339455e-06	
13	6.500000e-01	3.360241e-06	
14	7.000000e-01	3.379662e-06	
15	7.500000e-01	3.397940e-06	
16	8.000000e-01	3.415249e-06	
17	8.500000e-01	3.431724e-06	
18	9.000000e-01	3.447473e-06	
19	9.500000e-01	3.462587e-06	
20	1.000000e+00	3.477138e-06	
21	1.050000e+00	3.491188e-06	
22	1.100000e+00	3.504789e-06	
23	1.150000e+00	3.517985e-06	
24	1.200000e+00	3.530814e-06	
25	1.250000e+00	3.543310e-06	
26	1.300000e+00	3.555501e-06	
27	1.350000e+00	3.567412e-06	
28	1.400000e+00	3.579066e-06	
29	1.450000e+00	3.590482e-06	
30	1.500000e+00	3.601678e-06	
31	1.550000e+00	3.612669e-06	
32	1.600000e+00	3.623470e-06	
33	1.650000e+00	3.634093e-06	
34	1.700000e+00	3.644550e-06	
35	1.750000e+00	3.654851e-06	
36	1.800000e+00	3.665005e-06	
37	1.850000e+00	3.675022e-06	
38	1.900000e+00	3.684910e-06	
39	1.950000e+00	3.694674e-06	
40	2.000000e+00	3.704323e-06	
41	2.050000e+00	3.713863e-06	
42	2.100000e+00	3.723298e-06	
43	2.150000e+00	3.732636e-06	
44	2.200000e+00	3.741879e-06	
45	2.250000e+00	3.751034e-06	
46	2.300000e+00	3.760104e-06	
47	2.350000e+00	3.769094e-06	
48	2.400000e+00	3.778008e-06	
49	2.450000e+00	3.786850e-06	
50	2.500000e+00	3.795623e-06	
51	2.550000e+00	3.804332e-06	
52	2.600000e+00	3.812980e-06	
53	2.650000e+00	3.821570e-06	
54	2.700000e+00	3.830108e-06	

Index   v-sweep         -i(vds)         
--------------------------------------------------------------------------------
55	2.750000e+00	3.838596e-06	
56	2.800000e+00	3.847040e-06	
57	2.850000e+00	3.855444e-06	
58	2.900000e+00	3.863813e-06	
59	2.950000e+00	3.872151e-06	
60	3.000000e+00	3.880466e-06	
61	3.050000e+00	3.888763e-06	
62	3.100000e+00	3.897049e-06	
63	3.150000e+00	3.905332e-06	
64	3.200000e+00	3.913620e-06	
65	3.250000e+00	3.921922e-06	
66	3.300000e+00	3.930247e-06	
67	3.350000e+00	3.938608e-06	
68	3.400000e+00	3.947014e-06	
69	3.450000e+00	3.955480e-06	
70	3.500000e+00	3.964019e-06	
71	3.550000e+00	3.972647e-06	
72	3.600000e+00	3.981379e-06	
73	3.650000e+00	3.990233e-06	
74	3.700000e+00	3.999229e-06	
75	3.750000e+00	4.008385e-06	
76	3.800000e+00	4.017725e-06	
77	3.850000e+00	4.027272e-06	
78	3.900000e+00	4.037050e-06	
79	3.950000e+00	4.047085e-06	
80	4.000000e+00	4.057405e-06	
81	4.050000e+00	4.068041e-06	
82	4.100000e+00	4.079022e-06	
83	4.150000e+00	4.090382e-06	
84	4.200000e+00	4.102155e-06	
85	4.250000e+00	4.114377e-06	
86	4.300000e+00	4.127087e-06	
87	4.350000e+00	4.140323e-06	
88	4.400000e+00	4.154128e-06	
89	4.450000e+00	4.168543e-06	
90	4.500000e+00	4.183615e-06	
91	4.550000e+00	4.199389e-06	
92	4.600000e+00	4.215913e-06	
93	4.650000e+00	4.233238e-06	
94	4.700000e+00	4.251414e-06	
95	4.750000e+00	4.270496e-06	
96	4.800000e+00	4.290537e-06	
97	4.850000e+00	4.311595e-06	
98	4.900000e+00	4.333727e-06	
99	4.950000e+00	4.356993e-06	
100	5.000000e+00	4.381455e-06	
101	5.050000e+00	4.407174e-06	
102	5.100000e+00	4.434215e-06	
103	5.150000e+00	4.462643e-06	
104	5.200000e+00	4.492526e-06	
105	5.250000e+00	4.523931e-06	
106	5.300000e+00	4.556929e-06	
107	5.350000e+00	4.591590e-06	
108	5.400000e+00	4.627986e-06	
109	5.450000e+00	4.666192e-06	
110	5.500000e+00	4.706280e-06	
111	5.550000e+00	4.748328e-06	
112	5.600000e+00	4.792412e-06	

Index   v-sweep         -i(vds)         
--------------------------------------------------------------------------------
113	5.650000e+00	4.838609e-06	
114	5.700000e+00	4.886999e-06	
115	5.750000e+00	4.937661e-06	
116	5.800000e+00	4.990676e-06	
117	5.850000e+00	5.046125e-06	
118	5.900000e+00	5.104090e-06	
119	5.950000e+00	5.164655e-06	
120	6.000000e+00	5.227904e-06	
121	6.050000e+00	5.293920e-06	
122	6.100000e+00	5.362790e-06	
123	6.150000e+00	5.434598e-06	
124	6.200000e+00	5.509431e-06	
125	6.250000e+00	5.587377e-06	
126	6.300000e+00	5.668521e-06	
127	6.350000e+00	5.752952e-06	
128	6.400000e+00	5.840758e-06	
129	6.450000e+00	5.932028e-06	
130	6.500000e+00	6.026850e-06	
131	6.550000e+00	6.125313e-06	
132	6.600000e+00	6.227506e-06	
133	0.000000e+00	-0.000000e+00	
134	5.000000e-02	8.604944e-06	
135	1.000000e-01	1.652256e-05	
136	1.500000e-01	2.377422e-05	
137	2.000000e-01	3.038042e-05	
138	2.500000e-01	3.636082e-05	
139	3.000000e-01	4.173427e-05	
140	3.500000e-01	4.651889e-05	
141	4.000000e-01	5.073206e-05	
142	4.500000e-01	5.439050e-05	
143	5.000000e-01	5.751047e-05	
144	5.500000e-01	6.010867e-05	
145	6.000000e-01	6.220563e-05	
146	6.500000e-01	6.383556e-05	
147	7.000000e-01	6.506109e-05	
148	7.500000e-01	6.597275e-05	
149	8.000000e-01	6.666287e-05	
150	8.500000e-01	6.720278e-05	
151	9.000000e-01	6.764005e-05	
152	9.500000e-01	6.800508e-05	
153	1.000000e+00	6.831741e-05	
154	1.050000e+00	6.859001e-05	
155	1.100000e+00	6.883178e-05	
156	1.150000e+00	6.904902e-05	
157	1.200000e+00	6.924632e-05	
158	1.250000e+00	6.942713e-05	
159	1.300000e+00	6.959408e-05	
160	1.350000e+00	6.974924e-05	
161	1.400000e+00	6.989425e-05	
162	1.450000e+00	7.003043e-05	
163	1.500000e+00	7.015886e-05	
164	1.550000e+00	7.028045e-05	
165	1.600000e+00	7.039595e-05	
166	1.650000e+00	7.050599e-05	
167	1.700000e+00	7.061111e-05	
168	1.750000e+00	7.071177e-05	
169	1.800000e+00	7.080839e-05	
170	1.850000e+00	7.090131e-05	

Index   v-sweep         -i(vds)         
--------------------------------------------------------------------------------
171	1.900000e+00	7.099084e-05	
172	1.950000e+00	7.107724e-05	
173	2.000000e+00	7.116077e-05	
174	2.050000e+00	7.124163e-05	
175	2.100000e+00	7.132001e-05	
176	2.150000e+00	7.139609e-05	
177	2.200000e+00	7.147001e-05	
178	2.250000e+00	7.154192e-05	
179	2.300000e+00	7.161194e-05	
180	2.350000e+00	7.168020e-05	
181	2.400000e+00	7.174678e-05	
182	2.450000e+00	7.181179e-05	
183	2.500000e+00	7.187532e-05	
184	2.550000e+00	7.193745e-05	
185	2.600000e+00	7.199825e-05	
186	2.650000e+00	7.205779e-05	
187	2.700000e+00	7.211614e-05	
188	2.750000e+00	7.217336e-05	
189	2.800000e+00	7.222951e-05	
190	2.850000e+00	7.228464e-05	
191	2.900000e+00	7.233881e-05	
192	2.950000e+00	7.239206e-05	
193	3.000000e+00	7.244446e-05	
194	3.050000e+00	7.249606e-05	
195	3.100000e+00	7.254690e-05	
196	3.150000e+00	7.259704e-05	
197	3.200000e+00	7.264654e-05	
198	3.250000e+00	7.269547e-05	
199	3.300000e+00	7.274388e-05	
200	3.350000e+00	7.279186e-05	
201	3.400000e+00	7.283947e-05	
202	3.450000e+00	7.288681e-05	
203	3.500000e+00	7.293397e-05	
204	3.550000e+00	7.298105e-05	
205	3.600000e+00	7.302817e-05	
206	3.650000e+00	7.307545e-05	
207	3.700000e+00	7.312303e-05	
208	3.750000e+00	7.317108e-05	
209	3.800000e+00	7.321975e-05	
210	3.850000e+00	7.326923e-05	
211	3.900000e+00	7.331973e-05	
212	3.950000e+00	7.337147e-05	
213	4.000000e+00	7.342468e-05	
214	4.050000e+00	7.347963e-05	
215	4.100000e+00	7.353661e-05	
216	4.150000e+00	7.359591e-05	
217	4.200000e+00	7.365787e-05	
218	4.250000e+00	7.372283e-05	
219	4.300000e+00	7.379117e-05	
220	4.350000e+00	7.386330e-05	
221	4.400000e+00	7.393963e-05	
222	4.450000e+00	7.402063e-05	
223	4.500000e+00	7.410678e-05	
224	4.550000e+00	7.419857e-05	
225	4.600000e+00	7.429654e-05	
226	4.650000e+00	7.440127e-05	
227	4.700000e+00	7.451332e-05	
228	4.750000e+00	7.463333e-05	

Index   v-sweep         -i(vds)         
--------------------------------------------------------------------------------
229	4.800000e+00	7.476193e-05	
230	4.850000e+00	7.489981e-05	
231	4.900000e+00	7.504765e-05	
232	4.950000e+00	7.520619e-05	
233	5.000000e+00	7.537619e-05	
234	5.050000e+00	7.555843e-05	
235	5.100000e+00	7.575371e-05	
236	5.150000e+00	7.596287e-05	
237	5.200000e+00	7.618678e-05	
238	5.250000e+00	7.642632e-05	
239	5.300000e+00	7.668240e-05	
240	5.350000e+00	7.695597e-05	
241	5.400000e+00	7.724798e-05	
242	5.450000e+00	7.755942e-05	
243	5.500000e+00	7.789129e-05	
244	5.550000e+00	7.824462e-05	
245	5.600000e+00	7.862047e-05	
246	5.650000e+00	7.901990e-05	
247	5.700000e+00	7.944401e-05	
248	5.750000e+00	7.989390e-05	
249	5.800000e+00	8.037070e-05	
250	5.850000e+00	8.087556e-05	
251	5.900000e+00	8.140963e-05	
252	5.950000e+00	8.197411e-05	
253	6.000000e+00	8.257017e-05	
254	6.050000e+00	8.319903e-05	
255	6.100000e+00	8.386191e-05	
256	6.150000e+00	8.456003e-05	
257	6.200000e+00	8.529465e-05	
258	6.250000e+00	8.606702e-05	
259	6.300000e+00	8.687840e-05	
260	6.350000e+00	8.773008e-05	
261	6.400000e+00	8.862332e-05	
262	6.450000e+00	8.955943e-05	
263	6.500000e+00	9.053969e-05	
264	6.550000e+00	9.156542e-05	
265	6.600000e+00	9.263792e-05	
266	0.000000e+00	-0.000000e+00	
267	5.000000e-02	1.412214e-05	
268	1.000000e-01	2.750046e-05	
269	1.500000e-01	4.015818e-05	
270	2.000000e-01	5.211755e-05	
271	2.500000e-01	6.339985e-05	
272	3.000000e-01	7.402549e-05	
273	3.500000e-01	8.401397e-05	
274	4.000000e-01	9.338398e-05	
275	4.500000e-01	1.021533e-04	
276	5.000000e-01	1.103391e-04	
277	5.500000e-01	1.179575e-04	
278	6.000000e-01	1.250238e-04	
279	6.500000e-01	1.315527e-04	
280	7.000000e-01	1.375574e-04	
281	7.500000e-01	1.430498e-04	
282	8.000000e-01	1.480398e-04	
283	8.500000e-01	1.525345e-04	
284	9.000000e-01	1.565368e-04	
285	9.500000e-01	1.600445e-04	
286	1.000000e+00	1.630529e-04	

Index   v-sweep         -i(vds)         
--------------------------------------------------------------------------------
287	1.050000e+00	1.655638e-04	
288	1.100000e+00	1.676030e-04	
289	1.150000e+00	1.692300e-04	
290	1.200000e+00	1.705256e-04	
291	1.250000e+00	1.715694e-04	
292	1.300000e+00	1.724264e-04	
293	1.350000e+00	1.731445e-04	
294	1.400000e+00	1.737581e-04	
295	1.450000e+00	1.742913e-04	
296	1.500000e+00	1.747613e-04	
297	1.550000e+00	1.751810e-04	
298	1.600000e+00	1.755597e-04	
299	1.650000e+00	1.759044e-04	
300	1.700000e+00	1.762207e-04	
301	1.750000e+00	1.765128e-04	
302	1.800000e+00	1.767842e-04	
303	1.850000e+00	1.770376e-04	
304	1.900000e+00	1.772753e-04	
305	1.950000e+00	1.774992e-04	
306	2.000000e+00	1.777108e-04	
307	2.050000e+00	1.779114e-04	
308	2.100000e+00	1.781022e-04	
309	2.150000e+00	1.782841e-04	
310	2.200000e+00	1.784580e-04	
311	2.250000e+00	1.786245e-04	
312	2.300000e+00	1.787842e-04	
313	2.350000e+00	1.789378e-04	
314	2.400000e+00	1.790858e-04	
315	2.450000e+00	1.792284e-04	
316	2.500000e+00	1.793663e-04	
317	2.550000e+00	1.794996e-04	
318	2.600000e+00	1.796287e-04	
319	2.650000e+00	1.797538e-04	
320	2.700000e+00	1.798753e-04	
321	2.750000e+00	1.799934e-04	
322	2.800000e+00	1.801082e-04	
323	2.850000e+00	1.802200e-04	
324	2.900000e+00	1.803289e-04	
325	2.950000e+00	1.804350e-04	
326	3.000000e+00	1.805387e-04	
327	3.050000e+00	1.806399e-04	
328	3.100000e+00	1.807388e-04	
329	3.150000e+00	1.808355e-04	
330	3.200000e+00	1.809302e-04	
331	3.250000e+00	1.810230e-04	
332	3.300000e+00	1.811139e-04	
333	3.350000e+00	1.812031e-04	
334	3.400000e+00	1.812906e-04	
335	3.450000e+00	1.813767e-04	
336	3.500000e+00	1.814614e-04	
337	3.550000e+00	1.815448e-04	
338	3.600000e+00	1.816270e-04	
339	3.650000e+00	1.817083e-04	
340	3.700000e+00	1.817887e-04	
341	3.750000e+00	1.818684e-04	
342	3.800000e+00	1.819476e-04	
343	3.850000e+00	1.820264e-04	
344	3.900000e+00	1.821052e-04	

Index   v-sweep         -i(vds)         
--------------------------------------------------------------------------------
345	3.950000e+00	1.821842e-04	
346	4.000000e+00	1.822636e-04	
347	4.050000e+00	1.823437e-04	
348	4.100000e+00	1.824249e-04	
349	4.150000e+00	1.825075e-04	
350	4.200000e+00	1.825921e-04	
351	4.250000e+00	1.826789e-04	
352	4.300000e+00	1.827686e-04	
353	4.350000e+00	1.828616e-04	
354	4.400000e+00	1.829585e-04	
355	4.450000e+00	1.830601e-04	
356	4.500000e+00	1.831669e-04	
357	4.550000e+00	1.832798e-04	
358	4.600000e+00	1.833995e-04	
359	4.650000e+00	1.835269e-04	
360	4.700000e+00	1.836630e-04	
361	4.750000e+00	1.838087e-04	
362	4.800000e+00	1.839650e-04	
363	4.850000e+00	1.841332e-04	
364	4.900000e+00	1.843143e-04	
365	4.950000e+00	1.845097e-04	
366	5.000000e+00	1.847206e-04	
367	5.050000e+00	1.849485e-04	
368	5.100000e+00	1.851947e-04	
369	5.150000e+00	1.854608e-04	
370	5.200000e+00	1.857485e-04	
371	5.250000e+00	1.860593e-04	
372	5.300000e+00	1.863949e-04	
373	5.350000e+00	1.867573e-04	
374	5.400000e+00	1.871481e-04	
375	5.450000e+00	1.875695e-04	
376	5.500000e+00	1.880233e-04	
377	5.550000e+00	1.885116e-04	
378	5.600000e+00	1.890365e-04	
379	5.650000e+00	1.896003e-04	
380	5.700000e+00	1.902051e-04	
381	5.750000e+00	1.908533e-04	
382	5.800000e+00	1.915472e-04	
383	5.850000e+00	1.922893e-04	
384	5.900000e+00	1.930820e-04	
385	5.950000e+00	1.939278e-04	
386	6.000000e+00	1.948293e-04	
387	6.050000e+00	1.957892e-04	
388	6.100000e+00	1.968101e-04	
389	6.150000e+00	1.978948e-04	
390	6.200000e+00	1.990459e-04	
391	6.250000e+00	2.002664e-04	
392	6.300000e+00	2.015591e-04	
393	6.350000e+00	2.029267e-04	
394	6.400000e+00	2.043724e-04	
395	6.450000e+00	2.058989e-04	
396	6.500000e+00	2.075093e-04	
397	6.550000e+00	2.092067e-04	
398	6.600000e+00	2.109940e-04	
399	0.000000e+00	-0.000000e+00	
400	5.000000e-02	1.836243e-05	
401	1.000000e-01	3.596524e-05	
402	1.500000e-01	5.283093e-05	

Index   v-sweep         -i(vds)         
--------------------------------------------------------------------------------
403	2.000000e-01	6.898110e-05	
404	2.500000e-01	8.443650e-05	
405	3.000000e-01	9.921706e-05	
406	3.500000e-01	1.133419e-04	
407	4.000000e-01	1.268293e-04	
408	4.500000e-01	1.396969e-04	
409	5.000000e-01	1.519616e-04	
410	5.500000e-01	1.636395e-04	
411	6.000000e-01	1.747461e-04	
412	6.500000e-01	1.852964e-04	
413	7.000000e-01	1.953046e-04	
414	7.500000e-01	2.047842e-04	
415	8.000000e-01	2.137484e-04	
416	8.500000e-01	2.222095e-04	
417	9.000000e-01	2.301791e-04	
418	9.500000e-01	2.376679e-04	
419	1.000000e+00	2.446854e-04	
420	1.050000e+00	2.512399e-04	
421	1.100000e+00	2.573373e-04	
422	1.150000e+00	2.629803e-04	
423	1.200000e+00	2.681675e-04	
424	1.250000e+00	2.728912e-04	
425	1.300000e+00	2.771369e-04	
426	1.350000e+00	2.808850e-04	
427	1.400000e+00	2.841206e-04	
428	1.450000e+00	2.868484e-04	
429	1.500000e+00	2.891056e-04	
430	1.550000e+00	2.909578e-04	
431	1.600000e+00	2.924814e-04	
432	1.650000e+00	2.937479e-04	
433	1.700000e+00	2.948156e-04	
434	1.750000e+00	2.957295e-04	
435	1.800000e+00	2.965232e-04	
436	1.850000e+00	2.972216e-04	
437	1.900000e+00	2.978432e-04	
438	1.950000e+00	2.984022e-04	
439	2.000000e+00	2.989093e-04	
440	2.050000e+00	2.993729e-04	
441	2.100000e+00	2.997996e-04	
442	2.150000e+00	3.001947e-04	
443	2.200000e+00	3.005624e-04	
444	2.250000e+00	3.009062e-04	
445	2.300000e+00	3.012290e-04	
446	2.350000e+00	3.015332e-04	
447	2.400000e+00	3.018209e-04	
448	2.450000e+00	3.020937e-04	
449	2.500000e+00	3.023531e-04	
450	2.550000e+00	3.026004e-04	
451	2.600000e+00	3.028367e-04	
452	2.650000e+00	3.030629e-04	
453	2.700000e+00	3.032799e-04	
454	2.750000e+00	3.034885e-04	
455	2.800000e+00	3.036892e-04	
456	2.850000e+00	3.038827e-04	
457	2.900000e+00	3.040695e-04	
458	2.950000e+00	3.042501e-04	
459	3.000000e+00	3.044248e-04	
460	3.050000e+00	3.045941e-04	

Index   v-sweep         -i(vds)         
--------------------------------------------------------------------------------
461	3.100000e+00	3.047584e-04	
462	3.150000e+00	3.049178e-04	
463	3.200000e+00	3.050728e-04	
464	3.250000e+00	3.052235e-04	
465	3.300000e+00	3.053703e-04	
466	3.350000e+00	3.055133e-04	
467	3.400000e+00	3.056527e-04	
468	3.450000e+00	3.057888e-04	
469	3.500000e+00	3.059217e-04	
470	3.550000e+00	3.060517e-04	
471	3.600000e+00	3.061787e-04	
472	3.650000e+00	3.063032e-04	
473	3.700000e+00	3.064251e-04	
474	3.750000e+00	3.065447e-04	
475	3.800000e+00	3.066621e-04	
476	3.850000e+00	3.067775e-04	
477	3.900000e+00	3.068911e-04	
478	3.950000e+00	3.070031e-04	
479	4.000000e+00	3.071137e-04	
480	4.050000e+00	3.072232e-04	
481	4.100000e+00	3.073317e-04	
482	4.150000e+00	3.074397e-04	
483	4.200000e+00	3.075474e-04	
484	4.250000e+00	3.076551e-04	
485	4.300000e+00	3.077634e-04	
486	4.350000e+00	3.078725e-04	
487	4.400000e+00	3.079832e-04	
488	4.450000e+00	3.080958e-04	
489	4.500000e+00	3.082110e-04	
490	4.550000e+00	3.083294e-04	
491	4.600000e+00	3.084520e-04	
492	4.650000e+00	3.085793e-04	
493	4.700000e+00	3.087124e-04	
494	4.750000e+00	3.088522e-04	
495	4.800000e+00	3.089998e-04	
496	4.850000e+00	3.091564e-04	
497	4.900000e+00	3.093231e-04	
498	4.950000e+00	3.095014e-04	
499	5.000000e+00	3.096926e-04	
500	5.050000e+00	3.098984e-04	
501	5.100000e+00	3.101203e-04	
502	5.150000e+00	3.103601e-04	
503	5.200000e+00	3.106196e-04	
504	5.250000e+00	3.109010e-04	
505	5.300000e+00	3.112061e-04	
506	5.350000e+00	3.115373e-04	
507	5.400000e+00	3.118968e-04	
508	5.450000e+00	3.122871e-04	
509	5.500000e+00	3.127107e-04	
510	5.550000e+00	3.131703e-04	
511	5.600000e+00	3.136686e-04	
512	5.650000e+00	3.142085e-04	
513	5.700000e+00	3.147930e-04	
514	5.750000e+00	3.154253e-04	
515	5.800000e+00	3.161085e-04	
516	5.850000e+00	3.168460e-04	
517	5.900000e+00	3.176413e-04	
518	5.950000e+00	3.184978e-04	

Index   v-sweep         -i(vds)         
--------------------------------------------------------------------------------
519	6.000000e+00	3.194193e-04	
520	6.050000e+00	3.204095e-04	
521	6.100000e+00	3.214722e-04	
522	6.150000e+00	3.226114e-04	
523	6.200000e+00	3.238312e-04	
524	6.250000e+00	3.251357e-04	
525	6.300000e+00	3.265291e-04	
526	6.350000e+00	3.280157e-04	
527	6.400000e+00	3.296000e-04	
528	6.450000e+00	3.312864e-04	
529	6.500000e+00	3.330794e-04	
530	6.550000e+00	3.349838e-04	
531	6.600000e+00	3.370042e-04	
532	0.000000e+00	-0.000000e+00	
533	5.000000e-02	2.146823e-05	
534	1.000000e-01	4.219617e-05	
535	1.500000e-01	6.220407e-05	
536	2.000000e-01	8.151143e-05	
537	2.500000e-01	1.001371e-04	
538	3.000000e-01	1.180991e-04	
539	3.500000e-01	1.354149e-04	
540	4.000000e-01	1.521013e-04	
541	4.500000e-01	1.681745e-04	
542	5.000000e-01	1.836501e-04	
543	5.500000e-01	1.985429e-04	
544	6.000000e-01	2.128674e-04	
545	6.500000e-01	2.266374e-04	
546	7.000000e-01	2.398663e-04	
547	7.500000e-01	2.525669e-04	
548	8.000000e-01	2.647516e-04	
549	8.500000e-01	2.764323e-04	
550	9.000000e-01	2.876206e-04	
551	9.500000e-01	2.983274e-04	
552	1.000000e+00	3.085635e-04	
553	1.050000e+00	3.183389e-04	
554	1.100000e+00	3.276635e-04	
555	1.150000e+00	3.365463e-04	
556	1.200000e+00	3.449959e-04	
557	1.250000e+00	3.530201e-04	
558	1.300000e+00	3.606255e-04	
559	1.350000e+00	3.678175e-04	
560	1.400000e+00	3.745995e-04	
561	1.450000e+00	3.809721e-04	
562	1.500000e+00	3.869321e-04	
563	1.550000e+00	3.924708e-04	
564	1.600000e+00	3.975728e-04	
565	1.650000e+00	4.022158e-04	
566	1.700000e+00	4.063734e-04	
567	1.750000e+00	4.100248e-04	
568	1.800000e+00	4.131679e-04	
569	1.850000e+00	4.158296e-04	
570	1.900000e+00	4.180639e-04	
571	1.950000e+00	4.199385e-04	
572	2.000000e+00	4.215209e-04	
573	2.050000e+00	4.228703e-04	
574	2.100000e+00	4.240345e-04	
575	2.150000e+00	4.250510e-04	
576	2.200000e+00	4.259487e-04	

Index   v-sweep         -i(vds)         
--------------------------------------------------------------------------------
577	2.250000e+00	4.267495e-04	
578	2.300000e+00	4.274705e-04	
579	2.350000e+00	4.281250e-04	
580	2.400000e+00	4.287236e-04	
581	2.450000e+00	4.292744e-04	
582	2.500000e+00	4.297841e-04	
583	2.550000e+00	4.302583e-04	
584	2.600000e+00	4.307015e-04	
585	2.650000e+00	4.311172e-04	
586	2.700000e+00	4.315087e-04	
587	2.750000e+00	4.318785e-04	
588	2.800000e+00	4.322290e-04	
589	2.850000e+00	4.325619e-04	
590	2.900000e+00	4.328791e-04	
591	2.950000e+00	4.331818e-04	
592	3.000000e+00	4.334715e-04	
593	3.050000e+00	4.337490e-04	
594	3.100000e+00	4.340156e-04	
595	3.150000e+00	4.342719e-04	
596	3.200000e+00	4.345188e-04	
597	3.250000e+00	4.347569e-04	
598	3.300000e+00	4.349869e-04	
599	3.350000e+00	4.352093e-04	
600	3.400000e+00	4.354246e-04	
601	3.450000e+00	4.356333e-04	
602	3.500000e+00	4.358357e-04	
603	3.550000e+00	4.360323e-04	
604	3.600000e+00	4.362234e-04	
605	3.650000e+00	4.364093e-04	
606	3.700000e+00	4.365903e-04	
607	3.750000e+00	4.367667e-04	
608	3.800000e+00	4.369387e-04	
609	3.850000e+00	4.371066e-04	
610	3.900000e+00	4.372706e-04	
611	3.950000e+00	4.374310e-04	
612	4.000000e+00	4.375878e-04	
613	4.050000e+00	4.377415e-04	
614	4.100000e+00	4.378921e-04	
615	4.150000e+00	4.380400e-04	
616	4.200000e+00	4.381853e-04	
617	4.250000e+00	4.383283e-04	
618	4.300000e+00	4.384693e-04	
619	4.350000e+00	4.386086e-04	
620	4.400000e+00	4.387465e-04	
621	4.450000e+00	4.388834e-04	
622	4.500000e+00	4.390197e-04	
623	4.550000e+00	4.391559e-04	
624	4.600000e+00	4.392924e-04	
625	4.650000e+00	4.394298e-04	
626	4.700000e+00	4.395688e-04	
627	4.750000e+00	4.397101e-04	
628	4.800000e+00	4.398545e-04	
629	4.850000e+00	4.400028e-04	
630	4.900000e+00	4.401561e-04	
631	4.950000e+00	4.403153e-04	
632	5.000000e+00	4.404817e-04	
633	5.050000e+00	4.406565e-04	
634	5.100000e+00	4.408411e-04	

Index   v-sweep         -i(vds)         
--------------------------------------------------------------------------------
635	5.150000e+00	4.410372e-04	
636	5.200000e+00	4.412462e-04	
637	5.250000e+00	4.414700e-04	
638	5.300000e+00	4.417105e-04	
639	5.350000e+00	4.419697e-04	
640	5.400000e+00	4.422500e-04	
641	5.450000e+00	4.425535e-04	
642	5.500000e+00	4.428829e-04	
643	5.550000e+00	4.432408e-04	
644	5.600000e+00	4.436299e-04	
645	5.650000e+00	4.440534e-04	
646	5.700000e+00	4.445143e-04	
647	5.750000e+00	4.450160e-04	
648	5.800000e+00	4.455618e-04	
649	5.850000e+00	4.461555e-04	
650	5.900000e+00	4.468008e-04	
651	5.950000e+00	4.475017e-04	
652	6.000000e+00	4.482623e-04	
653	6.050000e+00	4.490868e-04	
654	6.100000e+00	4.499799e-04	
655	6.150000e+00	4.509459e-04	
656	6.200000e+00	4.519898e-04	
657	6.250000e+00	4.531164e-04	
658	6.300000e+00	4.543307e-04	
659	6.350000e+00	4.556380e-04	
660	6.400000e+00	4.570437e-04	
661	6.450000e+00	4.585532e-04	
662	6.500000e+00	4.601723e-04	
663	6.550000e+00	4.619066e-04	
664	6.600000e+00	4.637621e-04	
665	0.000000e+00	-0.000000e+00	
666	5.000000e-02	2.361235e-05	
667	1.000000e-01	4.652748e-05	
668	1.500000e-01	6.876275e-05	
669	2.000000e-01	9.033494e-05	
670	2.500000e-01	1.112603e-04	
671	3.000000e-01	1.315544e-04	
672	3.500000e-01	1.512326e-04	
673	4.000000e-01	1.703095e-04	
674	4.500000e-01	1.887991e-04	
675	5.000000e-01	2.067152e-04	
676	5.500000e-01	2.240711e-04	
677	6.000000e-01	2.408793e-04	
678	6.500000e-01	2.571524e-04	
679	7.000000e-01	2.729020e-04	
680	7.500000e-01	2.881398e-04	
681	8.000000e-01	3.028768e-04	
682	8.500000e-01	3.171237e-04	
683	9.000000e-01	3.308910e-04	
684	9.500000e-01	3.441886e-04	
685	1.000000e+00	3.570263e-04	
686	1.050000e+00	3.694135e-04	
687	1.100000e+00	3.813593e-04	
688	1.150000e+00	3.928725e-04	
689	1.200000e+00	4.039617e-04	
690	1.250000e+00	4.146350e-04	
691	1.300000e+00	4.249006e-04	
692	1.350000e+00	4.347659e-04	

Index   v-sweep         -i(vds)         
--------------------------------------------------------------------------------
693	1.400000e+00	4.442383e-04	
694	1.450000e+00	4.533245e-04	
695	1.500000e+00	4.620310e-04	
696	1.550000e+00	4.703633e-04	
697	1.600000e+00	4.783263e-04	
698	1.650000e+00	4.859238e-04	
699	1.700000e+00	4.931578e-04	
700	1.750000e+00	5.000284e-04	
701	1.800000e+00	5.065328e-04	
702	1.850000e+00	5.126637e-04	
703	1.900000e+00	5.184089e-04	
704	1.950000e+00	5.237494e-04	
705	2.000000e+00	5.286600e-04	
706	2.050000e+00	5.331126e-04	
707	2.100000e+00	5.370833e-04	
708	2.150000e+00	5.405638e-04	
709	2.200000e+00	5.435703e-04	
710	2.250000e+00	5.461433e-04	
711	2.300000e+00	5.483391e-04	
712	2.350000e+00	5.502186e-04	
713	2.400000e+00	5.518382e-04	
714	2.450000e+00	5.532466e-04	
715	2.500000e+00	5.544831e-04	
716	2.550000e+00	5.555793e-04	
717	2.600000e+00	5.565599e-04	
718	2.650000e+00	5.574445e-04	
719	2.700000e+00	5.582485e-04	
720	2.750000e+00	5.589843e-04	
721	2.800000e+00	5.596616e-04	
722	2.850000e+00	5.602887e-04	
723	2.900000e+00	5.608719e-04	
724	2.950000e+00	5.614169e-04	
725	3.000000e+00	5.619281e-04	
726	3.050000e+00	5.624093e-04	
727	3.100000e+00	5.628638e-04	
728	3.150000e+00	5.632942e-04	
729	3.200000e+00	5.637030e-04	
730	3.250000e+00	5.640922e-04	
731	3.300000e+00	5.644636e-04	
732	3.350000e+00	5.648187e-04	
733	3.400000e+00	5.651588e-04	
734	3.450000e+00	5.654853e-04	
735	3.500000e+00	5.657991e-04	
736	3.550000e+00	5.661012e-04	
737	3.600000e+00	5.663924e-04	
738	3.650000e+00	5.666736e-04	
739	3.700000e+00	5.669453e-04	
740	3.750000e+00	5.672083e-04	
741	3.800000e+00	5.674630e-04	
742	3.850000e+00	5.677100e-04	
743	3.900000e+00	5.679498e-04	
744	3.950000e+00	5.681828e-04	
745	4.000000e+00	5.684093e-04	
746	4.050000e+00	5.686297e-04	
747	4.100000e+00	5.688444e-04	
748	4.150000e+00	5.690538e-04	
749	4.200000e+00	5.692580e-04	
750	4.250000e+00	5.694574e-04	

Index   v-sweep         -i(vds)         
--------------------------------------------------------------------------------
751	4.300000e+00	5.696522e-04	
752	4.350000e+00	5.698428e-04	
753	4.400000e+00	5.700294e-04	
754	4.450000e+00	5.702122e-04	
755	4.500000e+00	5.703917e-04	
756	4.550000e+00	5.705680e-04	
757	4.600000e+00	5.707415e-04	
758	4.650000e+00	5.709125e-04	
759	4.700000e+00	5.710815e-04	
760	4.750000e+00	5.712488e-04	
761	4.800000e+00	5.714150e-04	
762	4.850000e+00	5.715804e-04	
763	4.900000e+00	5.717458e-04	
764	4.950000e+00	5.719118e-04	
765	5.000000e+00	5.720790e-04	
766	5.050000e+00	5.722484e-04	
767	5.100000e+00	5.724208e-04	
768	5.150000e+00	5.725973e-04	
769	5.200000e+00	5.727790e-04	
770	5.250000e+00	5.729671e-04	
771	5.300000e+00	5.731630e-04	
772	5.350000e+00	5.733682e-04	
773	5.400000e+00	5.735844e-04	
774	5.450000e+00	5.738134e-04	
775	5.500000e+00	5.740571e-04	
776	5.550000e+00	5.743177e-04	
777	5.600000e+00	5.745974e-04	
778	5.650000e+00	5.748988e-04	
779	5.700000e+00	5.752246e-04	
780	5.750000e+00	5.755775e-04	
781	5.800000e+00	5.759606e-04	
782	5.850000e+00	5.763772e-04	
783	5.900000e+00	5.768307e-04	
784	5.950000e+00	5.773247e-04	
785	6.000000e+00	5.778632e-04	
786	6.050000e+00	5.784502e-04	
787	6.100000e+00	5.790899e-04	
788	6.150000e+00	5.797870e-04	
789	6.200000e+00	5.805460e-04	
790	6.250000e+00	5.813719e-04	
791	6.300000e+00	5.822698e-04	
792	6.350000e+00	5.832451e-04	
793	6.400000e+00	5.843033e-04	
794	6.450000e+00	5.854502e-04	
795	6.500000e+00	5.866919e-04	
796	6.550000e+00	5.880343e-04	
797	6.600000e+00	5.894840e-04	
Note: No ".plot", ".print", or ".fourier" lines; no simulations run
