
Note: Compatibility modes selected: hs

Warning: m=xx on .subckt line will override multiplier m hierarchy!


Circuit: ***************************

Doing analysis at TEMP = -40.000000 and TNOM = -40.000000


No. of Data Rows : 798
                          ***************************
                          DC transfer characteristic  Mon Jan  9 13:57:41  2023
--------------------------------------------------------------------------------
Index   v-sweep         -i(vds)         
--------------------------------------------------------------------------------
0	0.000000e+00	-0.000000e+00	
1	5.000000e-02	1.398103e-05	
2	1.000000e-01	2.252602e-05	
3	1.500000e-01	2.683112e-05	
4	2.000000e-01	2.900959e-05	
5	2.500000e-01	3.046895e-05	
6	3.000000e-01	3.164032e-05	
7	3.500000e-01	3.265508e-05	
8	4.000000e-01	3.356892e-05	
9	4.500000e-01	3.441153e-05	
10	5.000000e-01	3.520102e-05	
11	5.500000e-01	3.594934e-05	
12	6.000000e-01	3.666487e-05	
13	6.500000e-01	3.735368e-05	
14	7.000000e-01	3.802036e-05	
15	7.500000e-01	3.866841e-05	
16	8.000000e-01	3.930060e-05	
17	8.500000e-01	3.991916e-05	
18	9.000000e-01	4.052589e-05	
19	9.500000e-01	4.112227e-05	
20	1.000000e+00	4.170953e-05	
21	1.050000e+00	4.228870e-05	
22	1.100000e+00	4.286068e-05	
23	1.150000e+00	4.342621e-05	
24	1.200000e+00	4.398595e-05	
25	1.250000e+00	4.454045e-05	
26	1.300000e+00	4.509021e-05	
27	1.350000e+00	4.563565e-05	
28	1.400000e+00	4.617716e-05	
29	1.450000e+00	4.671508e-05	
30	1.500000e+00	4.724969e-05	
31	1.550000e+00	4.778127e-05	
32	1.600000e+00	4.831006e-05	
33	1.650000e+00	4.883628e-05	
34	1.700000e+00	4.936011e-05	
35	1.750000e+00	4.988173e-05	
36	1.800000e+00	5.040130e-05	
37	1.850000e+00	5.091897e-05	
38	1.900000e+00	5.143487e-05	
39	1.950000e+00	5.194911e-05	
40	2.000000e+00	5.246182e-05	
41	2.050000e+00	5.297309e-05	
42	2.100000e+00	5.348302e-05	
43	2.150000e+00	5.399169e-05	
44	2.200000e+00	5.449918e-05	
45	2.250000e+00	5.500558e-05	
46	2.300000e+00	5.551095e-05	
47	2.350000e+00	5.601536e-05	
48	2.400000e+00	5.651887e-05	
49	2.450000e+00	5.702155e-05	
50	2.500000e+00	5.752346e-05	
51	2.550000e+00	5.802465e-05	
52	2.600000e+00	5.852520e-05	
53	2.650000e+00	5.902515e-05	
54	2.700000e+00	5.952458e-05	

Index   v-sweep         -i(vds)         
--------------------------------------------------------------------------------
55	2.750000e+00	6.002355e-05	
56	2.800000e+00	6.052212e-05	
57	2.850000e+00	6.102039e-05	
58	2.900000e+00	6.151842e-05	
59	2.950000e+00	6.201631e-05	
60	3.000000e+00	6.251415e-05	
61	3.050000e+00	6.301206e-05	
62	3.100000e+00	6.351015e-05	
63	3.150000e+00	6.400856e-05	
64	3.200000e+00	6.450743e-05	
65	3.250000e+00	6.500692e-05	
66	3.300000e+00	6.550721e-05	
67	3.350000e+00	6.600851e-05	
68	3.400000e+00	6.651102e-05	
69	3.450000e+00	6.701500e-05	
70	3.500000e+00	6.752069e-05	
71	3.550000e+00	6.802840e-05	
72	3.600000e+00	6.853842e-05	
73	3.650000e+00	6.905111e-05	
74	3.700000e+00	6.956683e-05	
75	3.750000e+00	7.008599e-05	
76	3.800000e+00	7.060901e-05	
77	3.850000e+00	7.113637e-05	
78	3.900000e+00	7.166855e-05	
79	3.950000e+00	7.220611e-05	
80	4.000000e+00	7.274961e-05	
81	4.050000e+00	7.329967e-05	
82	4.100000e+00	7.385693e-05	
83	4.150000e+00	7.442209e-05	
84	4.200000e+00	7.499589e-05	
85	4.250000e+00	7.557908e-05	
86	4.300000e+00	7.617251e-05	
87	4.350000e+00	7.677702e-05	
88	4.400000e+00	7.739353e-05	
89	4.450000e+00	7.802298e-05	
90	4.500000e+00	7.866638e-05	
91	4.550000e+00	7.932477e-05	
92	4.600000e+00	7.999925e-05	
93	4.650000e+00	8.069094e-05	
94	4.700000e+00	8.140105e-05	
95	4.750000e+00	8.213080e-05	
96	4.800000e+00	8.288149e-05	
97	4.850000e+00	8.365443e-05	
98	4.900000e+00	8.445101e-05	
99	4.950000e+00	8.527266e-05	
100	5.000000e+00	8.612086e-05	
101	5.050000e+00	8.699712e-05	
102	5.100000e+00	8.790303e-05	
103	5.150000e+00	8.884021e-05	
104	5.200000e+00	8.981032e-05	
105	5.250000e+00	9.081507e-05	
106	5.300000e+00	9.185624e-05	
107	5.350000e+00	9.293563e-05	
108	5.400000e+00	9.405510e-05	
109	5.450000e+00	9.521655e-05	
110	5.500000e+00	9.642193e-05	
111	5.550000e+00	9.767323e-05	
112	5.600000e+00	9.897248e-05	

Index   v-sweep         -i(vds)         
--------------------------------------------------------------------------------
113	5.650000e+00	1.003218e-04	
114	5.700000e+00	1.017232e-04	
115	5.750000e+00	1.031790e-04	
116	5.800000e+00	1.046913e-04	
117	5.850000e+00	1.062623e-04	
118	5.900000e+00	1.078945e-04	
119	5.950000e+00	1.095900e-04	
120	6.000000e+00	1.113513e-04	
121	6.050000e+00	1.131808e-04	
122	6.100000e+00	1.150808e-04	
123	6.150000e+00	1.170539e-04	
124	6.200000e+00	1.191027e-04	
125	6.250000e+00	1.212296e-04	
126	6.300000e+00	1.234372e-04	
127	6.350000e+00	1.257281e-04	
128	6.400000e+00	1.281050e-04	
129	6.450000e+00	1.305706e-04	
130	6.500000e+00	1.331276e-04	
131	6.550000e+00	1.357786e-04	
132	6.600000e+00	1.385266e-04	
133	0.000000e+00	-0.000000e+00	
134	5.000000e-02	7.236763e-05	
135	1.000000e-01	1.378436e-04	
136	1.500000e-01	1.967698e-04	
137	2.000000e-01	2.494647e-04	
138	2.500000e-01	2.962253e-04	
139	3.000000e-01	3.373274e-04	
140	3.500000e-01	3.730269e-04	
141	4.000000e-01	4.035571e-04	
142	4.500000e-01	4.291268e-04	
143	5.000000e-01	4.499352e-04	
144	5.500000e-01	4.662754e-04	
145	6.000000e-01	4.787397e-04	
146	6.500000e-01	4.882273e-04	
147	7.000000e-01	4.956306e-04	
148	7.500000e-01	5.016126e-04	
149	8.000000e-01	5.066083e-04	
150	8.500000e-01	5.108959e-04	
151	9.000000e-01	5.146574e-04	
152	9.500000e-01	5.180155e-04	
153	1.000000e+00	5.210558e-04	
154	1.050000e+00	5.238399e-04	
155	1.100000e+00	5.264136e-04	
156	1.150000e+00	5.288117e-04	
157	1.200000e+00	5.310609e-04	
158	1.250000e+00	5.331827e-04	
159	1.300000e+00	5.351940e-04	
160	1.350000e+00	5.371088e-04	
161	1.400000e+00	5.389386e-04	
162	1.450000e+00	5.406928e-04	
163	1.500000e+00	5.423795e-04	
164	1.550000e+00	5.440056e-04	
165	1.600000e+00	5.455769e-04	
166	1.650000e+00	5.470985e-04	
167	1.700000e+00	5.485747e-04	
168	1.750000e+00	5.500095e-04	
169	1.800000e+00	5.514062e-04	
170	1.850000e+00	5.527678e-04	

Index   v-sweep         -i(vds)         
--------------------------------------------------------------------------------
171	1.900000e+00	5.540969e-04	
172	1.950000e+00	5.553958e-04	
173	2.000000e+00	5.566668e-04	
174	2.050000e+00	5.579117e-04	
175	2.100000e+00	5.591322e-04	
176	2.150000e+00	5.603299e-04	
177	2.200000e+00	5.615062e-04	
178	2.250000e+00	5.626624e-04	
179	2.300000e+00	5.637997e-04	
180	2.350000e+00	5.649190e-04	
181	2.400000e+00	5.660215e-04	
182	2.450000e+00	5.671081e-04	
183	2.500000e+00	5.681795e-04	
184	2.550000e+00	5.692366e-04	
185	2.600000e+00	5.702801e-04	
186	2.650000e+00	5.713107e-04	
187	2.700000e+00	5.723290e-04	
188	2.750000e+00	5.733357e-04	
189	2.800000e+00	5.743314e-04	
190	2.850000e+00	5.753165e-04	
191	2.900000e+00	5.762918e-04	
192	2.950000e+00	5.772577e-04	
193	3.000000e+00	5.782148e-04	
194	3.050000e+00	5.791637e-04	
195	3.100000e+00	5.801050e-04	
196	3.150000e+00	5.810392e-04	
197	3.200000e+00	5.819671e-04	
198	3.250000e+00	5.828893e-04	
199	3.300000e+00	5.838065e-04	
200	3.350000e+00	5.847195e-04	
201	3.400000e+00	5.856293e-04	
202	3.450000e+00	5.865367e-04	
203	3.500000e+00	5.874428e-04	
204	3.550000e+00	5.883487e-04	
205	3.600000e+00	5.892556e-04	
206	3.650000e+00	5.901650e-04	
207	3.700000e+00	5.910783e-04	
208	3.750000e+00	5.919970e-04	
209	3.800000e+00	5.929230e-04	
210	3.850000e+00	5.938582e-04	
211	3.900000e+00	5.948046e-04	
212	3.950000e+00	5.957645e-04	
213	4.000000e+00	5.967404e-04	
214	4.050000e+00	5.977348e-04	
215	4.100000e+00	5.987505e-04	
216	4.150000e+00	5.997906e-04	
217	4.200000e+00	6.008583e-04	
218	4.250000e+00	6.019570e-04	
219	4.300000e+00	6.030904e-04	
220	4.350000e+00	6.042623e-04	
221	4.400000e+00	6.054768e-04	
222	4.450000e+00	6.067383e-04	
223	4.500000e+00	6.080513e-04	
224	4.550000e+00	6.094207e-04	
225	4.600000e+00	6.108515e-04	
226	4.650000e+00	6.123490e-04	
227	4.700000e+00	6.139187e-04	
228	4.750000e+00	6.155664e-04	

Index   v-sweep         -i(vds)         
--------------------------------------------------------------------------------
229	4.800000e+00	6.172981e-04	
230	4.850000e+00	6.191201e-04	
231	4.900000e+00	6.210388e-04	
232	4.950000e+00	6.230611e-04	
233	5.000000e+00	6.251938e-04	
234	5.050000e+00	6.274443e-04	
235	5.100000e+00	6.298199e-04	
236	5.150000e+00	6.323283e-04	
237	5.200000e+00	6.349775e-04	
238	5.250000e+00	6.377756e-04	
239	5.300000e+00	6.407308e-04	
240	5.350000e+00	6.438518e-04	
241	5.400000e+00	6.471474e-04	
242	5.450000e+00	6.506265e-04	
243	5.500000e+00	6.542983e-04	
244	5.550000e+00	6.581721e-04	
245	5.600000e+00	6.622575e-04	
246	5.650000e+00	6.665642e-04	
247	5.700000e+00	6.711022e-04	
248	5.750000e+00	6.758815e-04	
249	5.800000e+00	6.809124e-04	
250	5.850000e+00	6.862053e-04	
251	5.900000e+00	6.917707e-04	
252	5.950000e+00	6.976193e-04	
253	6.000000e+00	7.037619e-04	
254	6.050000e+00	7.102096e-04	
255	6.100000e+00	7.169733e-04	
256	6.150000e+00	7.240644e-04	
257	6.200000e+00	7.314941e-04	
258	6.250000e+00	7.392738e-04	
259	6.300000e+00	7.474151e-04	
260	6.350000e+00	7.559296e-04	
261	6.400000e+00	7.648290e-04	
262	6.450000e+00	7.741250e-04	
263	6.500000e+00	7.838296e-04	
264	6.550000e+00	7.939545e-04	
265	6.600000e+00	8.045119e-04	
266	0.000000e+00	-0.000000e+00	
267	5.000000e-02	1.147968e-04	
268	1.000000e-01	2.219531e-04	
269	1.500000e-01	3.218406e-04	
270	2.000000e-01	4.148056e-04	
271	2.500000e-01	5.011706e-04	
272	3.000000e-01	5.812351e-04	
273	3.500000e-01	6.552766e-04	
274	4.000000e-01	7.235522e-04	
275	4.500000e-01	7.862991e-04	
276	5.000000e-01	8.437349e-04	
277	5.500000e-01	8.960551e-04	
278	6.000000e-01	9.434258e-04	
279	6.500000e-01	9.859705e-04	
280	7.000000e-01	1.023746e-03	
281	7.500000e-01	1.056718e-03	
282	8.000000e-01	1.084777e-03	
283	8.500000e-01	1.107897e-03	
284	9.000000e-01	1.126401e-03	
285	9.500000e-01	1.141029e-03	
286	1.000000e+00	1.152684e-03	

Index   v-sweep         -i(vds)         
--------------------------------------------------------------------------------
287	1.050000e+00	1.162159e-03	
288	1.100000e+00	1.170046e-03	
289	1.150000e+00	1.176760e-03	
290	1.200000e+00	1.182589e-03	
291	1.250000e+00	1.187734e-03	
292	1.300000e+00	1.192337e-03	
293	1.350000e+00	1.196504e-03	
294	1.400000e+00	1.200314e-03	
295	1.450000e+00	1.203826e-03	
296	1.500000e+00	1.207085e-03	
297	1.550000e+00	1.210130e-03	
298	1.600000e+00	1.212989e-03	
299	1.650000e+00	1.215685e-03	
300	1.700000e+00	1.218240e-03	
301	1.750000e+00	1.220668e-03	
302	1.800000e+00	1.222984e-03	
303	1.850000e+00	1.225199e-03	
304	1.900000e+00	1.227324e-03	
305	1.950000e+00	1.229366e-03	
306	2.000000e+00	1.231334e-03	
307	2.050000e+00	1.233233e-03	
308	2.100000e+00	1.235070e-03	
309	2.150000e+00	1.236849e-03	
310	2.200000e+00	1.238574e-03	
311	2.250000e+00	1.240251e-03	
312	2.300000e+00	1.241881e-03	
313	2.350000e+00	1.243469e-03	
314	2.400000e+00	1.245018e-03	
315	2.450000e+00	1.246529e-03	
316	2.500000e+00	1.248005e-03	
317	2.550000e+00	1.249449e-03	
318	2.600000e+00	1.250861e-03	
319	2.650000e+00	1.252245e-03	
320	2.700000e+00	1.253602e-03	
321	2.750000e+00	1.254932e-03	
322	2.800000e+00	1.256238e-03	
323	2.850000e+00	1.257521e-03	
324	2.900000e+00	1.258782e-03	
325	2.950000e+00	1.260023e-03	
326	3.000000e+00	1.261243e-03	
327	3.050000e+00	1.262445e-03	
328	3.100000e+00	1.263629e-03	
329	3.150000e+00	1.264796e-03	
330	3.200000e+00	1.265948e-03	
331	3.250000e+00	1.267085e-03	
332	3.300000e+00	1.268208e-03	
333	3.350000e+00	1.269318e-03	
334	3.400000e+00	1.270417e-03	
335	3.450000e+00	1.271505e-03	
336	3.500000e+00	1.272584e-03	
337	3.550000e+00	1.273656e-03	
338	3.600000e+00	1.274720e-03	
339	3.650000e+00	1.275780e-03	
340	3.700000e+00	1.276837e-03	
341	3.750000e+00	1.277893e-03	
342	3.800000e+00	1.278950e-03	
343	3.850000e+00	1.280010e-03	
344	3.900000e+00	1.281076e-03	

Index   v-sweep         -i(vds)         
--------------------------------------------------------------------------------
345	3.950000e+00	1.282152e-03	
346	4.000000e+00	1.283238e-03	
347	4.050000e+00	1.284341e-03	
348	4.100000e+00	1.285462e-03	
349	4.150000e+00	1.286607e-03	
350	4.200000e+00	1.287779e-03	
351	4.250000e+00	1.288984e-03	
352	4.300000e+00	1.290226e-03	
353	4.350000e+00	1.291511e-03	
354	4.400000e+00	1.292845e-03	
355	4.450000e+00	1.294235e-03	
356	4.500000e+00	1.295687e-03	
357	4.550000e+00	1.297208e-03	
358	4.600000e+00	1.298807e-03	
359	4.650000e+00	1.300491e-03	
360	4.700000e+00	1.302270e-03	
361	4.750000e+00	1.304152e-03	
362	4.800000e+00	1.306147e-03	
363	4.850000e+00	1.308266e-03	
364	4.900000e+00	1.310518e-03	
365	4.950000e+00	1.312916e-03	
366	5.000000e+00	1.315470e-03	
367	5.050000e+00	1.318192e-03	
368	5.100000e+00	1.321097e-03	
369	5.150000e+00	1.324195e-03	
370	5.200000e+00	1.327502e-03	
371	5.250000e+00	1.331032e-03	
372	5.300000e+00	1.334798e-03	
373	5.350000e+00	1.338815e-03	
374	5.400000e+00	1.343101e-03	
375	5.450000e+00	1.347669e-03	
376	5.500000e+00	1.352537e-03	
377	5.550000e+00	1.357722e-03	
378	5.600000e+00	1.363241e-03	
379	5.650000e+00	1.369111e-03	
380	5.700000e+00	1.375351e-03	
381	5.750000e+00	1.381979e-03	
382	5.800000e+00	1.389014e-03	
383	5.850000e+00	1.396475e-03	
384	5.900000e+00	1.404382e-03	
385	5.950000e+00	1.412754e-03	
386	6.000000e+00	1.421613e-03	
387	6.050000e+00	1.430978e-03	
388	6.100000e+00	1.440870e-03	
389	6.150000e+00	1.451311e-03	
390	6.200000e+00	1.462322e-03	
391	6.250000e+00	1.473925e-03	
392	6.300000e+00	1.486141e-03	
393	6.350000e+00	1.498994e-03	
394	6.400000e+00	1.512504e-03	
395	6.450000e+00	1.526695e-03	
396	6.500000e+00	1.541589e-03	
397	6.550000e+00	1.557210e-03	
398	6.600000e+00	1.573581e-03	
399	0.000000e+00	-0.000000e+00	
400	5.000000e-02	1.468910e-04	
401	1.000000e-01	2.858519e-04	
402	1.500000e-01	4.172449e-04	

Index   v-sweep         -i(vds)         
--------------------------------------------------------------------------------
403	2.000000e-01	5.414098e-04	
404	2.500000e-01	6.586644e-04	
405	3.000000e-01	7.693057e-04	
406	3.500000e-01	8.736106e-04	
407	4.000000e-01	9.718368e-04	
408	4.500000e-01	1.064224e-03	
409	5.000000e-01	1.150997e-03	
410	5.500000e-01	1.232362e-03	
411	6.000000e-01	1.308515e-03	
412	6.500000e-01	1.379634e-03	
413	7.000000e-01	1.445886e-03	
414	7.500000e-01	1.507417e-03	
415	8.000000e-01	1.564348e-03	
416	8.500000e-01	1.616765e-03	
417	9.000000e-01	1.664696e-03	
418	9.500000e-01	1.708085e-03	
419	1.000000e+00	1.746768e-03	
420	1.050000e+00	1.780500e-03	
421	1.100000e+00	1.809105e-03	
422	1.150000e+00	1.832717e-03	
423	1.200000e+00	1.851896e-03	
424	1.250000e+00	1.867459e-03	
425	1.300000e+00	1.880232e-03	
426	1.350000e+00	1.890893e-03	
427	1.400000e+00	1.899958e-03	
428	1.450000e+00	1.907798e-03	
429	1.500000e+00	1.914685e-03	
430	1.550000e+00	1.920814e-03	
431	1.600000e+00	1.926332e-03	
432	1.650000e+00	1.931348e-03	
433	1.700000e+00	1.935945e-03	
434	1.750000e+00	1.940190e-03	
435	1.800000e+00	1.944134e-03	
436	1.850000e+00	1.947819e-03	
437	1.900000e+00	1.951278e-03	
438	1.950000e+00	1.954539e-03	
439	2.000000e+00	1.957625e-03	
440	2.050000e+00	1.960555e-03	
441	2.100000e+00	1.963346e-03	
442	2.150000e+00	1.966012e-03	
443	2.200000e+00	1.968564e-03	
444	2.250000e+00	1.971014e-03	
445	2.300000e+00	1.973370e-03	
446	2.350000e+00	1.975639e-03	
447	2.400000e+00	1.977830e-03	
448	2.450000e+00	1.979948e-03	
449	2.500000e+00	1.981999e-03	
450	2.550000e+00	1.983987e-03	
451	2.600000e+00	1.985917e-03	
452	2.650000e+00	1.987792e-03	
453	2.700000e+00	1.989618e-03	
454	2.750000e+00	1.991396e-03	
455	2.800000e+00	1.993129e-03	
456	2.850000e+00	1.994821e-03	
457	2.900000e+00	1.996473e-03	
458	2.950000e+00	1.998089e-03	
459	3.000000e+00	1.999669e-03	
460	3.050000e+00	2.001216e-03	

Index   v-sweep         -i(vds)         
--------------------------------------------------------------------------------
461	3.100000e+00	2.002732e-03	
462	3.150000e+00	2.004219e-03	
463	3.200000e+00	2.005677e-03	
464	3.250000e+00	2.007109e-03	
465	3.300000e+00	2.008515e-03	
466	3.350000e+00	2.009898e-03	
467	3.400000e+00	2.011259e-03	
468	3.450000e+00	2.012598e-03	
469	3.500000e+00	2.013918e-03	
470	3.550000e+00	2.015220e-03	
471	3.600000e+00	2.016505e-03	
472	3.650000e+00	2.017775e-03	
473	3.700000e+00	2.019031e-03	
474	3.750000e+00	2.020276e-03	
475	3.800000e+00	2.021511e-03	
476	3.850000e+00	2.022739e-03	
477	3.900000e+00	2.023962e-03	
478	3.950000e+00	2.025182e-03	
479	4.000000e+00	2.026403e-03	
480	4.050000e+00	2.027628e-03	
481	4.100000e+00	2.028861e-03	
482	4.150000e+00	2.030105e-03	
483	4.200000e+00	2.031364e-03	
484	4.250000e+00	2.032645e-03	
485	4.300000e+00	2.033951e-03	
486	4.350000e+00	2.035289e-03	
487	4.400000e+00	2.036666e-03	
488	4.450000e+00	2.038087e-03	
489	4.500000e+00	2.039560e-03	
490	4.550000e+00	2.041094e-03	
491	4.600000e+00	2.042696e-03	
492	4.650000e+00	2.044378e-03	
493	4.700000e+00	2.046147e-03	
494	4.750000e+00	2.048015e-03	
495	4.800000e+00	2.049994e-03	
496	4.850000e+00	2.052095e-03	
497	4.900000e+00	2.054331e-03	
498	4.950000e+00	2.056716e-03	
499	5.000000e+00	2.059265e-03	
500	5.050000e+00	2.061991e-03	
501	5.100000e+00	2.064912e-03	
502	5.150000e+00	2.068043e-03	
503	5.200000e+00	2.071402e-03	
504	5.250000e+00	2.075008e-03	
505	5.300000e+00	2.078879e-03	
506	5.350000e+00	2.083034e-03	
507	5.400000e+00	2.087495e-03	
508	5.450000e+00	2.092283e-03	
509	5.500000e+00	2.097419e-03	
510	5.550000e+00	2.102926e-03	
511	5.600000e+00	2.108829e-03	
512	5.650000e+00	2.115150e-03	
513	5.700000e+00	2.121915e-03	
514	5.750000e+00	2.129150e-03	
515	5.800000e+00	2.136880e-03	
516	5.850000e+00	2.145133e-03	
517	5.900000e+00	2.153936e-03	
518	5.950000e+00	2.163317e-03	

Index   v-sweep         -i(vds)         
--------------------------------------------------------------------------------
519	6.000000e+00	2.173305e-03	
520	6.050000e+00	2.183930e-03	
521	6.100000e+00	2.195222e-03	
522	6.150000e+00	2.207210e-03	
523	6.200000e+00	2.219926e-03	
524	6.250000e+00	2.233401e-03	
525	6.300000e+00	2.247667e-03	
526	6.350000e+00	2.262758e-03	
527	6.400000e+00	2.278705e-03	
528	6.450000e+00	2.295541e-03	
529	6.500000e+00	2.313302e-03	
530	6.550000e+00	2.332020e-03	
531	6.600000e+00	2.351729e-03	
532	0.000000e+00	-0.000000e+00	
533	5.000000e-02	1.701319e-04	
534	1.000000e-01	3.324529e-04	
535	1.500000e-01	4.872907e-04	
536	2.000000e-01	6.349546e-04	
537	2.500000e-01	7.757359e-04	
538	3.000000e-01	9.099086e-04	
539	3.500000e-01	1.037730e-03	
540	4.000000e-01	1.159442e-03	
541	4.500000e-01	1.275269e-03	
542	5.000000e-01	1.385424e-03	
543	5.500000e-01	1.490104e-03	
544	6.000000e-01	1.589496e-03	
545	6.500000e-01	1.683774e-03	
546	7.000000e-01	1.773103e-03	
547	7.500000e-01	1.857638e-03	
548	8.000000e-01	1.937525e-03	
549	8.500000e-01	2.012900e-03	
550	9.000000e-01	2.083888e-03	
551	9.500000e-01	2.150599e-03	
552	1.000000e+00	2.213125e-03	
553	1.050000e+00	2.271528e-03	
554	1.100000e+00	2.325826e-03	
555	1.150000e+00	2.375972e-03	
556	1.200000e+00	2.421829e-03	
557	1.250000e+00	2.463158e-03	
558	1.300000e+00	2.499662e-03	
559	1.350000e+00	2.531131e-03	
560	1.400000e+00	2.557645e-03	
561	1.450000e+00	2.579660e-03	
562	1.500000e+00	2.597885e-03	
563	1.550000e+00	2.613076e-03	
564	1.600000e+00	2.625898e-03	
565	1.650000e+00	2.636881e-03	
566	1.700000e+00	2.646426e-03	
567	1.750000e+00	2.654832e-03	
568	1.800000e+00	2.662325e-03	
569	1.850000e+00	2.669073e-03	
570	1.900000e+00	2.675205e-03	
571	1.950000e+00	2.680824e-03	
572	2.000000e+00	2.686006e-03	
573	2.050000e+00	2.690815e-03	
574	2.100000e+00	2.695302e-03	
575	2.150000e+00	2.699509e-03	
576	2.200000e+00	2.703468e-03	

Index   v-sweep         -i(vds)         
--------------------------------------------------------------------------------
577	2.250000e+00	2.707209e-03	
578	2.300000e+00	2.710756e-03	
579	2.350000e+00	2.714129e-03	
580	2.400000e+00	2.717345e-03	
581	2.450000e+00	2.720419e-03	
582	2.500000e+00	2.723364e-03	
583	2.550000e+00	2.726192e-03	
584	2.600000e+00	2.728912e-03	
585	2.650000e+00	2.731534e-03	
586	2.700000e+00	2.734064e-03	
587	2.750000e+00	2.736509e-03	
588	2.800000e+00	2.738877e-03	
589	2.850000e+00	2.741171e-03	
590	2.900000e+00	2.743398e-03	
591	2.950000e+00	2.745561e-03	
592	3.000000e+00	2.747665e-03	
593	3.050000e+00	2.749714e-03	
594	3.100000e+00	2.751710e-03	
595	3.150000e+00	2.753657e-03	
596	3.200000e+00	2.755557e-03	
597	3.250000e+00	2.757413e-03	
598	3.300000e+00	2.759228e-03	
599	3.350000e+00	2.761004e-03	
600	3.400000e+00	2.762743e-03	
601	3.450000e+00	2.764447e-03	
602	3.500000e+00	2.766117e-03	
603	3.550000e+00	2.767756e-03	
604	3.600000e+00	2.769366e-03	
605	3.650000e+00	2.770947e-03	
606	3.700000e+00	2.772503e-03	
607	3.750000e+00	2.774034e-03	
608	3.800000e+00	2.775542e-03	
609	3.850000e+00	2.777031e-03	
610	3.900000e+00	2.778501e-03	
611	3.950000e+00	2.779954e-03	
612	4.000000e+00	2.781395e-03	
613	4.050000e+00	2.782824e-03	
614	4.100000e+00	2.784245e-03	
615	4.150000e+00	2.785661e-03	
616	4.200000e+00	2.787077e-03	
617	4.250000e+00	2.788495e-03	
618	4.300000e+00	2.789921e-03	
619	4.350000e+00	2.791359e-03	
620	4.400000e+00	2.792815e-03	
621	4.450000e+00	2.794294e-03	
622	4.500000e+00	2.795805e-03	
623	4.550000e+00	2.797353e-03	
624	4.600000e+00	2.798946e-03	
625	4.650000e+00	2.800594e-03	
626	4.700000e+00	2.802306e-03	
627	4.750000e+00	2.804092e-03	
628	4.800000e+00	2.805963e-03	
629	4.850000e+00	2.807931e-03	
630	4.900000e+00	2.810010e-03	
631	4.950000e+00	2.812211e-03	
632	5.000000e+00	2.814552e-03	
633	5.050000e+00	2.817046e-03	
634	5.100000e+00	2.819711e-03	

Index   v-sweep         -i(vds)         
--------------------------------------------------------------------------------
635	5.150000e+00	2.822564e-03	
636	5.200000e+00	2.825624e-03	
637	5.250000e+00	2.828911e-03	
638	5.300000e+00	2.832446e-03	
639	5.350000e+00	2.836250e-03	
640	5.400000e+00	2.840346e-03	
641	5.450000e+00	2.844758e-03	
642	5.500000e+00	2.849512e-03	
643	5.550000e+00	2.854632e-03	
644	5.600000e+00	2.860147e-03	
645	5.650000e+00	2.866084e-03	
646	5.700000e+00	2.872473e-03	
647	5.750000e+00	2.879344e-03	
648	5.800000e+00	2.886727e-03	
649	5.850000e+00	2.894656e-03	
650	5.900000e+00	2.903163e-03	
651	5.950000e+00	2.912283e-03	
652	6.000000e+00	2.922051e-03	
653	6.050000e+00	2.932502e-03	
654	6.100000e+00	2.943674e-03	
655	6.150000e+00	2.955604e-03	
656	6.200000e+00	2.968332e-03	
657	6.250000e+00	2.981895e-03	
658	6.300000e+00	2.996336e-03	
659	6.350000e+00	3.011694e-03	
660	6.400000e+00	3.028011e-03	
661	6.450000e+00	3.045331e-03	
662	6.500000e+00	3.063695e-03	
663	6.550000e+00	3.083148e-03	
664	6.600000e+00	3.103734e-03	
665	0.000000e+00	-0.000000e+00	
666	5.000000e-02	1.859663e-04	
667	1.000000e-01	3.645217e-04	
668	1.500000e-01	5.359484e-04	
669	2.000000e-01	7.005144e-04	
670	2.500000e-01	8.584735e-04	
671	3.000000e-01	1.010066e-03	
672	3.500000e-01	1.155520e-03	
673	4.000000e-01	1.295050e-03	
674	4.500000e-01	1.428858e-03	
675	5.000000e-01	1.557136e-03	
676	5.500000e-01	1.680063e-03	
677	6.000000e-01	1.797809e-03	
678	6.500000e-01	1.910534e-03	
679	7.000000e-01	2.018389e-03	
680	7.500000e-01	2.121518e-03	
681	8.000000e-01	2.220056e-03	
682	8.500000e-01	2.314134e-03	
683	9.000000e-01	2.403873e-03	
684	9.500000e-01	2.489392e-03	
685	1.000000e+00	2.570801e-03	
686	1.050000e+00	2.648206e-03	
687	1.100000e+00	2.721702e-03	
688	1.150000e+00	2.791376e-03	
689	1.200000e+00	2.857300e-03	
690	1.250000e+00	2.919524e-03	
691	1.300000e+00	2.978068e-03	
692	1.350000e+00	3.032909e-03	

Index   v-sweep         -i(vds)         
--------------------------------------------------------------------------------
693	1.400000e+00	3.083955e-03	
694	1.450000e+00	3.131033e-03	
695	1.500000e+00	3.173881e-03	
696	1.550000e+00	3.212194e-03	
697	1.600000e+00	3.245750e-03	
698	1.650000e+00	3.274568e-03	
699	1.700000e+00	3.298983e-03	
700	1.750000e+00	3.319573e-03	
701	1.800000e+00	3.337000e-03	
702	1.850000e+00	3.351884e-03	
703	1.900000e+00	3.364741e-03	
704	1.950000e+00	3.375983e-03	
705	2.000000e+00	3.385926e-03	
706	2.050000e+00	3.394815e-03	
707	2.100000e+00	3.402837e-03	
708	2.150000e+00	3.410137e-03	
709	2.200000e+00	3.416830e-03	
710	2.250000e+00	3.423006e-03	
711	2.300000e+00	3.428738e-03	
712	2.350000e+00	3.434086e-03	
713	2.400000e+00	3.439098e-03	
714	2.450000e+00	3.443814e-03	
715	2.500000e+00	3.448267e-03	
716	2.550000e+00	3.452487e-03	
717	2.600000e+00	3.456497e-03	
718	2.650000e+00	3.460318e-03	
719	2.700000e+00	3.463968e-03	
720	2.750000e+00	3.467462e-03	
721	2.800000e+00	3.470814e-03	
722	2.850000e+00	3.474036e-03	
723	2.900000e+00	3.477138e-03	
724	2.950000e+00	3.480130e-03	
725	3.000000e+00	3.483019e-03	
726	3.050000e+00	3.485813e-03	
727	3.100000e+00	3.488520e-03	
728	3.150000e+00	3.491143e-03	
729	3.200000e+00	3.493690e-03	
730	3.250000e+00	3.496165e-03	
731	3.300000e+00	3.498573e-03	
732	3.350000e+00	3.500916e-03	
733	3.400000e+00	3.503200e-03	
734	3.450000e+00	3.505428e-03	
735	3.500000e+00	3.507602e-03	
736	3.550000e+00	3.509726e-03	
737	3.600000e+00	3.511802e-03	
738	3.650000e+00	3.513833e-03	
739	3.700000e+00	3.515822e-03	
740	3.750000e+00	3.517770e-03	
741	3.800000e+00	3.519680e-03	
742	3.850000e+00	3.521554e-03	
743	3.900000e+00	3.523394e-03	
744	3.950000e+00	3.525203e-03	
745	4.000000e+00	3.526982e-03	
746	4.050000e+00	3.528734e-03	
747	4.100000e+00	3.530461e-03	
748	4.150000e+00	3.532167e-03	
749	4.200000e+00	3.533853e-03	
750	4.250000e+00	3.535523e-03	

Index   v-sweep         -i(vds)         
--------------------------------------------------------------------------------
751	4.300000e+00	3.537180e-03	
752	4.350000e+00	3.538828e-03	
753	4.400000e+00	3.540471e-03	
754	4.450000e+00	3.542113e-03	
755	4.500000e+00	3.543761e-03	
756	4.550000e+00	3.545419e-03	
757	4.600000e+00	3.547093e-03	
758	4.650000e+00	3.548791e-03	
759	4.700000e+00	3.550520e-03	
760	4.750000e+00	3.552288e-03	
761	4.800000e+00	3.554106e-03	
762	4.850000e+00	3.555982e-03	
763	4.900000e+00	3.557928e-03	
764	4.950000e+00	3.559956e-03	
765	5.000000e+00	3.562078e-03	
766	5.050000e+00	3.564310e-03	
767	5.100000e+00	3.566665e-03	
768	5.150000e+00	3.569161e-03	
769	5.200000e+00	3.571815e-03	
770	5.250000e+00	3.574645e-03	
771	5.300000e+00	3.577671e-03	
772	5.350000e+00	3.580915e-03	
773	5.400000e+00	3.584399e-03	
774	5.450000e+00	3.588146e-03	
775	5.500000e+00	3.592182e-03	
776	5.550000e+00	3.596532e-03	
777	5.600000e+00	3.601225e-03	
778	5.650000e+00	3.606290e-03	
779	5.700000e+00	3.611757e-03	
780	5.750000e+00	3.617657e-03	
781	5.800000e+00	3.624025e-03	
782	5.850000e+00	3.630893e-03	
783	5.900000e+00	3.638298e-03	
784	5.950000e+00	3.646277e-03	
785	6.000000e+00	3.654869e-03	
786	6.050000e+00	3.664112e-03	
787	6.100000e+00	3.674048e-03	
788	6.150000e+00	3.684718e-03	
789	6.200000e+00	3.696167e-03	
790	6.250000e+00	3.708438e-03	
791	6.300000e+00	3.721578e-03	
792	6.350000e+00	3.735633e-03	
793	6.400000e+00	3.750650e-03	
794	6.450000e+00	3.766680e-03	
795	6.500000e+00	3.783772e-03	
796	6.550000e+00	3.801977e-03	
797	6.600000e+00	3.821347e-03	
Note: No ".plot", ".print", or ".fourier" lines; no simulations run
