
Note: Compatibility modes selected: hs

Warning: m=xx on .subckt line will override multiplier m hierarchy!


Circuit: ***************************

Doing analysis at TEMP = 25.000000 and TNOM = 25.000000


No. of Data Rows : 798
                          ***************************
                          DC transfer characteristic  Mon Jan  9 13:57:40  2023
--------------------------------------------------------------------------------
Index   v-sweep         -i(vds)         
--------------------------------------------------------------------------------
0	0.000000e+00	-0.000000e+00	
1	5.000000e-02	7.565203e-07	
2	1.000000e-01	1.354777e-06	
3	1.500000e-01	1.796923e-06	
4	2.000000e-01	2.088853e-06	
5	2.500000e-01	2.248393e-06	
6	3.000000e-01	2.316628e-06	
7	3.500000e-01	2.342482e-06	
8	4.000000e-01	2.353544e-06	
9	4.500000e-01	2.359466e-06	
10	5.000000e-01	2.363335e-06	
11	5.500000e-01	2.366252e-06	
12	6.000000e-01	2.368672e-06	
13	6.500000e-01	2.370804e-06	
14	7.000000e-01	2.372758e-06	
15	7.500000e-01	2.374594e-06	
16	8.000000e-01	2.376348e-06	
17	8.500000e-01	2.378042e-06	
18	9.000000e-01	2.379693e-06	
19	9.500000e-01	2.381309e-06	
20	1.000000e+00	2.382899e-06	
21	1.050000e+00	2.384468e-06	
22	1.100000e+00	2.386019e-06	
23	1.150000e+00	2.387555e-06	
24	1.200000e+00	2.389079e-06	
25	1.250000e+00	2.390593e-06	
26	1.300000e+00	2.392097e-06	
27	1.350000e+00	2.393594e-06	
28	1.400000e+00	2.395084e-06	
29	1.450000e+00	2.396568e-06	
30	1.500000e+00	2.398047e-06	
31	1.550000e+00	2.399520e-06	
32	1.600000e+00	2.400990e-06	
33	1.650000e+00	2.402455e-06	
34	1.700000e+00	2.403917e-06	
35	1.750000e+00	2.405375e-06	
36	1.800000e+00	2.406831e-06	
37	1.850000e+00	2.408284e-06	
38	1.900000e+00	2.409734e-06	
39	1.950000e+00	2.411182e-06	
40	2.000000e+00	2.412628e-06	
41	2.050000e+00	2.414072e-06	
42	2.100000e+00	2.415514e-06	
43	2.150000e+00	2.416954e-06	
44	2.200000e+00	2.418393e-06	
45	2.250000e+00	2.419830e-06	
46	2.300000e+00	2.421266e-06	
47	2.350000e+00	2.422701e-06	
48	2.400000e+00	2.424135e-06	
49	2.450000e+00	2.425568e-06	
50	2.500000e+00	2.427001e-06	
51	2.550000e+00	2.428434e-06	
52	2.600000e+00	2.429867e-06	
53	2.650000e+00	2.431301e-06	
54	2.700000e+00	2.432737e-06	

Index   v-sweep         -i(vds)         
--------------------------------------------------------------------------------
55	2.750000e+00	2.434174e-06	
56	2.800000e+00	2.435615e-06	
57	2.850000e+00	2.437060e-06	
58	2.900000e+00	2.438511e-06	
59	2.950000e+00	2.439968e-06	
60	3.000000e+00	2.441434e-06	
61	3.050000e+00	2.442912e-06	
62	3.100000e+00	2.444402e-06	
63	3.150000e+00	2.445908e-06	
64	3.200000e+00	2.447434e-06	
65	3.250000e+00	2.448982e-06	
66	3.300000e+00	2.450558e-06	
67	3.350000e+00	2.452165e-06	
68	3.400000e+00	2.453808e-06	
69	3.450000e+00	2.455493e-06	
70	3.500000e+00	2.457227e-06	
71	3.550000e+00	2.459017e-06	
72	3.600000e+00	2.460870e-06	
73	3.650000e+00	2.462794e-06	
74	3.700000e+00	2.464798e-06	
75	3.750000e+00	2.466893e-06	
76	3.800000e+00	2.469089e-06	
77	3.850000e+00	2.471397e-06	
78	3.900000e+00	2.473830e-06	
79	3.950000e+00	2.476400e-06	
80	4.000000e+00	2.479123e-06	
81	4.050000e+00	2.482012e-06	
82	4.100000e+00	2.485084e-06	
83	4.150000e+00	2.488356e-06	
84	4.200000e+00	2.491845e-06	
85	4.250000e+00	2.495570e-06	
86	4.300000e+00	2.499550e-06	
87	4.350000e+00	2.503807e-06	
88	4.400000e+00	2.508362e-06	
89	4.450000e+00	2.513237e-06	
90	4.500000e+00	2.518456e-06	
91	4.550000e+00	2.524044e-06	
92	4.600000e+00	2.530025e-06	
93	4.650000e+00	2.536427e-06	
94	4.700000e+00	2.543276e-06	
95	4.750000e+00	2.550601e-06	
96	4.800000e+00	2.558431e-06	
97	4.850000e+00	2.566796e-06	
98	4.900000e+00	2.575727e-06	
99	4.950000e+00	2.585256e-06	
100	5.000000e+00	2.595415e-06	
101	5.050000e+00	2.606237e-06	
102	5.100000e+00	2.617758e-06	
103	5.150000e+00	2.630011e-06	
104	5.200000e+00	2.643034e-06	
105	5.250000e+00	2.656862e-06	
106	5.300000e+00	2.671532e-06	
107	5.350000e+00	2.687083e-06	
108	5.400000e+00	2.703553e-06	
109	5.450000e+00	2.720981e-06	
110	5.500000e+00	2.739407e-06	
111	5.550000e+00	2.758872e-06	
112	5.600000e+00	2.779416e-06	

Index   v-sweep         -i(vds)         
--------------------------------------------------------------------------------
113	5.650000e+00	2.801081e-06	
114	5.700000e+00	2.823909e-06	
115	5.750000e+00	2.847942e-06	
116	5.800000e+00	2.873224e-06	
117	5.850000e+00	2.899796e-06	
118	5.900000e+00	2.927704e-06	
119	5.950000e+00	2.956991e-06	
120	6.000000e+00	2.987702e-06	
121	6.050000e+00	3.019881e-06	
122	6.100000e+00	3.053573e-06	
123	6.150000e+00	3.088823e-06	
124	6.200000e+00	3.125677e-06	
125	6.250000e+00	3.164181e-06	
126	6.300000e+00	3.204380e-06	
127	6.350000e+00	3.246320e-06	
128	6.400000e+00	3.290047e-06	
129	6.450000e+00	3.335609e-06	
130	6.500000e+00	3.383050e-06	
131	6.550000e+00	3.432417e-06	
132	6.600000e+00	3.483757e-06	
133	0.000000e+00	-0.000000e+00	
134	5.000000e-02	3.267011e-06	
135	1.000000e-01	6.366833e-06	
136	1.500000e-01	9.299909e-06	
137	2.000000e-01	1.206668e-05	
138	2.500000e-01	1.466760e-05	
139	3.000000e-01	1.710311e-05	
140	3.500000e-01	1.937366e-05	
141	4.000000e-01	2.147973e-05	
142	4.500000e-01	2.342180e-05	
143	5.000000e-01	2.520037e-05	
144	5.500000e-01	2.681599e-05	
145	6.000000e-01	2.826928e-05	
146	6.500000e-01	2.956097e-05	
147	7.000000e-01	3.069203e-05	
148	7.500000e-01	3.166378e-05	
149	8.000000e-01	3.247834e-05	
150	8.500000e-01	3.313929e-05	
151	9.000000e-01	3.365305e-05	
152	9.500000e-01	3.403112e-05	
153	1.000000e+00	3.429246e-05	
154	1.050000e+00	3.446325e-05	
155	1.100000e+00	3.457175e-05	
156	1.150000e+00	3.464143e-05	
157	1.200000e+00	3.468814e-05	
158	1.250000e+00	3.472130e-05	
159	1.300000e+00	3.474627e-05	
160	1.350000e+00	3.476609e-05	
161	1.400000e+00	3.478252e-05	
162	1.450000e+00	3.479664e-05	
163	1.500000e+00	3.480912e-05	
164	1.550000e+00	3.482041e-05	
165	1.600000e+00	3.483080e-05	
166	1.650000e+00	3.484049e-05	
167	1.700000e+00	3.484963e-05	
168	1.750000e+00	3.485833e-05	
169	1.800000e+00	3.486668e-05	
170	1.850000e+00	3.487473e-05	

Index   v-sweep         -i(vds)         
--------------------------------------------------------------------------------
171	1.900000e+00	3.488253e-05	
172	1.950000e+00	3.489012e-05	
173	2.000000e+00	3.489753e-05	
174	2.050000e+00	3.490478e-05	
175	2.100000e+00	3.491189e-05	
176	2.150000e+00	3.491889e-05	
177	2.200000e+00	3.492578e-05	
178	2.250000e+00	3.493258e-05	
179	2.300000e+00	3.493929e-05	
180	2.350000e+00	3.494592e-05	
181	2.400000e+00	3.495249e-05	
182	2.450000e+00	3.495899e-05	
183	2.500000e+00	3.496544e-05	
184	2.550000e+00	3.497184e-05	
185	2.600000e+00	3.497818e-05	
186	2.650000e+00	3.498449e-05	
187	2.700000e+00	3.499075e-05	
188	2.750000e+00	3.499698e-05	
189	2.800000e+00	3.500317e-05	
190	2.850000e+00	3.500933e-05	
191	2.900000e+00	3.501546e-05	
192	2.950000e+00	3.502156e-05	
193	3.000000e+00	3.502764e-05	
194	3.050000e+00	3.503369e-05	
195	3.100000e+00	3.503973e-05	
196	3.150000e+00	3.504575e-05	
197	3.200000e+00	3.505176e-05	
198	3.250000e+00	3.505775e-05	
199	3.300000e+00	3.506375e-05	
200	3.350000e+00	3.506975e-05	
201	3.400000e+00	3.507576e-05	
202	3.450000e+00	3.508179e-05	
203	3.500000e+00	3.508785e-05	
204	3.550000e+00	3.509395e-05	
205	3.600000e+00	3.510011e-05	
206	3.650000e+00	3.510635e-05	
207	3.700000e+00	3.511270e-05	
208	3.750000e+00	3.511917e-05	
209	3.800000e+00	3.512579e-05	
210	3.850000e+00	3.513261e-05	
211	3.900000e+00	3.513966e-05	
212	3.950000e+00	3.514699e-05	
213	4.000000e+00	3.515465e-05	
214	4.050000e+00	3.516270e-05	
215	4.100000e+00	3.517120e-05	
216	4.150000e+00	3.518023e-05	
217	4.200000e+00	3.518987e-05	
218	4.250000e+00	3.520021e-05	
219	4.300000e+00	3.521134e-05	
220	4.350000e+00	3.522338e-05	
221	4.400000e+00	3.523645e-05	
222	4.450000e+00	3.525068e-05	
223	4.500000e+00	3.526620e-05	
224	4.550000e+00	3.528317e-05	
225	4.600000e+00	3.530174e-05	
226	4.650000e+00	3.532210e-05	
227	4.700000e+00	3.534443e-05	
228	4.750000e+00	3.536894e-05	

Index   v-sweep         -i(vds)         
--------------------------------------------------------------------------------
229	4.800000e+00	3.539582e-05	
230	4.850000e+00	3.542530e-05	
231	4.900000e+00	3.545763e-05	
232	4.950000e+00	3.549306e-05	
233	5.000000e+00	3.553184e-05	
234	5.050000e+00	3.557425e-05	
235	5.100000e+00	3.562058e-05	
236	5.150000e+00	3.567114e-05	
237	5.200000e+00	3.572625e-05	
238	5.250000e+00	3.578622e-05	
239	5.300000e+00	3.585142e-05	
240	5.350000e+00	3.592218e-05	
241	5.400000e+00	3.599888e-05	
242	5.450000e+00	3.608189e-05	
243	5.500000e+00	3.617163e-05	
244	5.550000e+00	3.626848e-05	
245	5.600000e+00	3.637286e-05	
246	5.650000e+00	3.648522e-05	
247	5.700000e+00	3.660597e-05	
248	5.750000e+00	3.673559e-05	
249	5.800000e+00	3.687453e-05	
250	5.850000e+00	3.702327e-05	
251	5.900000e+00	3.718228e-05	
252	5.950000e+00	3.735207e-05	
253	6.000000e+00	3.753313e-05	
254	6.050000e+00	3.772598e-05	
255	6.100000e+00	3.793115e-05	
256	6.150000e+00	3.814915e-05	
257	6.200000e+00	3.838053e-05	
258	6.250000e+00	3.862583e-05	
259	6.300000e+00	3.888560e-05	
260	6.350000e+00	3.916041e-05	
261	6.400000e+00	3.945083e-05	
262	6.450000e+00	3.975741e-05	
263	6.500000e+00	4.008074e-05	
264	6.550000e+00	4.042141e-05	
265	6.600000e+00	4.078000e-05	
266	0.000000e+00	-0.000000e+00	
267	5.000000e-02	5.407159e-06	
268	1.000000e-01	1.065741e-05	
269	1.500000e-01	1.575118e-05	
270	2.000000e-01	2.068888e-05	
271	2.500000e-01	2.547092e-05	
272	3.000000e-01	3.009773e-05	
273	3.500000e-01	3.456971e-05	
274	4.000000e-01	3.888727e-05	
275	4.500000e-01	4.305082e-05	
276	5.000000e-01	4.706079e-05	
277	5.500000e-01	5.091756e-05	
278	6.000000e-01	5.462155e-05	
279	6.500000e-01	5.817316e-05	
280	7.000000e-01	6.157281e-05	
281	7.500000e-01	6.482089e-05	
282	8.000000e-01	6.791781e-05	
283	8.500000e-01	7.086397e-05	
284	9.000000e-01	7.365978e-05	
285	9.500000e-01	7.630565e-05	
286	1.000000e+00	7.880199e-05	

Index   v-sweep         -i(vds)         
--------------------------------------------------------------------------------
287	1.050000e+00	8.114921e-05	
288	1.100000e+00	8.334774e-05	
289	1.150000e+00	8.539802e-05	
290	1.200000e+00	8.730049e-05	
291	1.250000e+00	8.905566e-05	
292	1.300000e+00	9.066407e-05	
293	1.350000e+00	9.212633e-05	
294	1.400000e+00	9.344321e-05	
295	1.450000e+00	9.461572e-05	
296	1.500000e+00	9.564524e-05	
297	1.550000e+00	9.653387e-05	
298	1.600000e+00	9.728488e-05	
299	1.650000e+00	9.790349e-05	
300	1.700000e+00	9.839794e-05	
301	1.750000e+00	9.878052e-05	
302	1.800000e+00	9.906771e-05	
303	1.850000e+00	9.927877e-05	
304	1.900000e+00	9.943285e-05	
305	1.950000e+00	9.954638e-05	
306	2.000000e+00	9.963184e-05	
307	2.050000e+00	9.969803e-05	
308	2.100000e+00	9.975089e-05	
309	2.150000e+00	9.979436e-05	
310	2.200000e+00	9.983108e-05	
311	2.250000e+00	9.986282e-05	
312	2.300000e+00	9.989084e-05	
313	2.350000e+00	9.991598e-05	
314	2.400000e+00	9.993887e-05	
315	2.450000e+00	9.995998e-05	
316	2.500000e+00	9.997963e-05	
317	2.550000e+00	9.999810e-05	
318	2.600000e+00	1.000156e-04	
319	2.650000e+00	1.000322e-04	
320	2.700000e+00	1.000482e-04	
321	2.750000e+00	1.000635e-04	
322	2.800000e+00	1.000783e-04	
323	2.850000e+00	1.000927e-04	
324	2.900000e+00	1.001066e-04	
325	2.950000e+00	1.001202e-04	
326	3.000000e+00	1.001335e-04	
327	3.050000e+00	1.001465e-04	
328	3.100000e+00	1.001592e-04	
329	3.150000e+00	1.001718e-04	
330	3.200000e+00	1.001841e-04	
331	3.250000e+00	1.001962e-04	
332	3.300000e+00	1.002081e-04	
333	3.350000e+00	1.002199e-04	
334	3.400000e+00	1.002316e-04	
335	3.450000e+00	1.002431e-04	
336	3.500000e+00	1.002545e-04	
337	3.550000e+00	1.002658e-04	
338	3.600000e+00	1.002769e-04	
339	3.650000e+00	1.002880e-04	
340	3.700000e+00	1.002990e-04	
341	3.750000e+00	1.003099e-04	
342	3.800000e+00	1.003207e-04	
343	3.850000e+00	1.003315e-04	
344	3.900000e+00	1.003422e-04	

Index   v-sweep         -i(vds)         
--------------------------------------------------------------------------------
345	3.950000e+00	1.003529e-04	
346	4.000000e+00	1.003635e-04	
347	4.050000e+00	1.003741e-04	
348	4.100000e+00	1.003847e-04	
349	4.150000e+00	1.003953e-04	
350	4.200000e+00	1.004060e-04	
351	4.250000e+00	1.004167e-04	
352	4.300000e+00	1.004275e-04	
353	4.350000e+00	1.004385e-04	
354	4.400000e+00	1.004497e-04	
355	4.450000e+00	1.004611e-04	
356	4.500000e+00	1.004729e-04	
357	4.550000e+00	1.004851e-04	
358	4.600000e+00	1.004978e-04	
359	4.650000e+00	1.005110e-04	
360	4.700000e+00	1.005251e-04	
361	4.750000e+00	1.005400e-04	
362	4.800000e+00	1.005559e-04	
363	4.850000e+00	1.005730e-04	
364	4.900000e+00	1.005916e-04	
365	4.950000e+00	1.006118e-04	
366	5.000000e+00	1.006339e-04	
367	5.050000e+00	1.006581e-04	
368	5.100000e+00	1.006848e-04	
369	5.150000e+00	1.007143e-04	
370	5.200000e+00	1.007469e-04	
371	5.250000e+00	1.007831e-04	
372	5.300000e+00	1.008231e-04	
373	5.350000e+00	1.008676e-04	
374	5.400000e+00	1.009169e-04	
375	5.450000e+00	1.009717e-04	
376	5.500000e+00	1.010323e-04	
377	5.550000e+00	1.010995e-04	
378	5.600000e+00	1.011739e-04	
379	5.650000e+00	1.012561e-04	
380	5.700000e+00	1.013467e-04	
381	5.750000e+00	1.014467e-04	
382	5.800000e+00	1.015566e-04	
383	5.850000e+00	1.016774e-04	
384	5.900000e+00	1.018098e-04	
385	5.950000e+00	1.019548e-04	
386	6.000000e+00	1.021133e-04	
387	6.050000e+00	1.022862e-04	
388	6.100000e+00	1.024745e-04	
389	6.150000e+00	1.026793e-04	
390	6.200000e+00	1.029016e-04	
391	6.250000e+00	1.031426e-04	
392	6.300000e+00	1.034033e-04	
393	6.350000e+00	1.036850e-04	
394	6.400000e+00	1.039889e-04	
395	6.450000e+00	1.043161e-04	
396	6.500000e+00	1.046680e-04	
397	6.550000e+00	1.050459e-04	
398	6.600000e+00	1.054511e-04	
399	0.000000e+00	-0.000000e+00	
400	5.000000e-02	7.122915e-06	
401	1.000000e-01	1.410264e-05	
402	1.500000e-01	2.093954e-05	

Index   v-sweep         -i(vds)         
--------------------------------------------------------------------------------
403	2.000000e-01	2.763399e-05	
404	2.500000e-01	3.418634e-05	
405	3.000000e-01	4.059697e-05	
406	3.500000e-01	4.686623e-05	
407	4.000000e-01	5.299449e-05	
408	4.500000e-01	5.898211e-05	
409	5.000000e-01	6.482944e-05	
410	5.500000e-01	7.053684e-05	
411	6.000000e-01	7.610468e-05	
412	6.500000e-01	8.153329e-05	
413	7.000000e-01	8.682304e-05	
414	7.500000e-01	9.197428e-05	
415	8.000000e-01	9.698737e-05	
416	8.500000e-01	1.018626e-04	
417	9.000000e-01	1.066005e-04	
418	9.500000e-01	1.112011e-04	
419	1.000000e+00	1.156651e-04	
420	1.050000e+00	1.199926e-04	
421	1.100000e+00	1.241840e-04	
422	1.150000e+00	1.282397e-04	
423	1.200000e+00	1.321600e-04	
424	1.250000e+00	1.359452e-04	
425	1.300000e+00	1.395958e-04	
426	1.350000e+00	1.431119e-04	
427	1.400000e+00	1.464940e-04	
428	1.450000e+00	1.497424e-04	
429	1.500000e+00	1.528573e-04	
430	1.550000e+00	1.558393e-04	
431	1.600000e+00	1.586885e-04	
432	1.650000e+00	1.614054e-04	
433	1.700000e+00	1.639902e-04	
434	1.750000e+00	1.664432e-04	
435	1.800000e+00	1.687649e-04	
436	1.850000e+00	1.709555e-04	
437	1.900000e+00	1.730154e-04	
438	1.950000e+00	1.749449e-04	
439	2.000000e+00	1.767444e-04	
440	2.050000e+00	1.784143e-04	
441	2.100000e+00	1.799551e-04	
442	2.150000e+00	1.813672e-04	
443	2.200000e+00	1.826513e-04	
444	2.250000e+00	1.838082e-04	
445	2.300000e+00	1.848393e-04	
446	2.350000e+00	1.857462e-04	
447	2.400000e+00	1.865318e-04	
448	2.450000e+00	1.872002e-04	
449	2.500000e+00	1.877577e-04	
450	2.550000e+00	1.882130e-04	
451	2.600000e+00	1.885780e-04	
452	2.650000e+00	1.888661e-04	
453	2.700000e+00	1.890920e-04	
454	2.750000e+00	1.892693e-04	
455	2.800000e+00	1.894097e-04	
456	2.850000e+00	1.895226e-04	
457	2.900000e+00	1.896149e-04	
458	2.950000e+00	1.896919e-04	
459	3.000000e+00	1.897574e-04	
460	3.050000e+00	1.898140e-04	

Index   v-sweep         -i(vds)         
--------------------------------------------------------------------------------
461	3.100000e+00	1.898637e-04	
462	3.150000e+00	1.899080e-04	
463	3.200000e+00	1.899480e-04	
464	3.250000e+00	1.899846e-04	
465	3.300000e+00	1.900182e-04	
466	3.350000e+00	1.900495e-04	
467	3.400000e+00	1.900789e-04	
468	3.450000e+00	1.901065e-04	
469	3.500000e+00	1.901327e-04	
470	3.550000e+00	1.901577e-04	
471	3.600000e+00	1.901816e-04	
472	3.650000e+00	1.902045e-04	
473	3.700000e+00	1.902267e-04	
474	3.750000e+00	1.902481e-04	
475	3.800000e+00	1.902688e-04	
476	3.850000e+00	1.902890e-04	
477	3.900000e+00	1.903087e-04	
478	3.950000e+00	1.903278e-04	
479	4.000000e+00	1.903466e-04	
480	4.050000e+00	1.903650e-04	
481	4.100000e+00	1.903830e-04	
482	4.150000e+00	1.904007e-04	
483	4.200000e+00	1.904180e-04	
484	4.250000e+00	1.904352e-04	
485	4.300000e+00	1.904520e-04	
486	4.350000e+00	1.904686e-04	
487	4.400000e+00	1.904850e-04	
488	4.450000e+00	1.905013e-04	
489	4.500000e+00	1.905173e-04	
490	4.550000e+00	1.905331e-04	
491	4.600000e+00	1.905488e-04	
492	4.650000e+00	1.905644e-04	
493	4.700000e+00	1.905798e-04	
494	4.750000e+00	1.905952e-04	
495	4.800000e+00	1.906105e-04	
496	4.850000e+00	1.906257e-04	
497	4.900000e+00	1.906409e-04	
498	4.950000e+00	1.906561e-04	
499	5.000000e+00	1.906714e-04	
500	5.050000e+00	1.906868e-04	
501	5.100000e+00	1.907024e-04	
502	5.150000e+00	1.907182e-04	
503	5.200000e+00	1.907344e-04	
504	5.250000e+00	1.907511e-04	
505	5.300000e+00	1.907684e-04	
506	5.350000e+00	1.907864e-04	
507	5.400000e+00	1.908054e-04	
508	5.450000e+00	1.908254e-04	
509	5.500000e+00	1.908469e-04	
510	5.550000e+00	1.908699e-04	
511	5.600000e+00	1.908949e-04	
512	5.650000e+00	1.909221e-04	
513	5.700000e+00	1.909519e-04	
514	5.750000e+00	1.909848e-04	
515	5.800000e+00	1.910212e-04	
516	5.850000e+00	1.910616e-04	
517	5.900000e+00	1.911065e-04	
518	5.950000e+00	1.911567e-04	

Index   v-sweep         -i(vds)         
--------------------------------------------------------------------------------
519	6.000000e+00	1.912126e-04	
520	6.050000e+00	1.912752e-04	
521	6.100000e+00	1.913451e-04	
522	6.150000e+00	1.914232e-04	
523	6.200000e+00	1.915104e-04	
524	6.250000e+00	1.916076e-04	
525	6.300000e+00	1.917160e-04	
526	6.350000e+00	1.918365e-04	
527	6.400000e+00	1.919705e-04	
528	6.450000e+00	1.921190e-04	
529	6.500000e+00	1.922835e-04	
530	6.550000e+00	1.924653e-04	
531	6.600000e+00	1.926659e-04	
532	0.000000e+00	-0.000000e+00	
533	5.000000e-02	8.420865e-06	
534	1.000000e-01	1.671346e-05	
535	1.500000e-01	2.487809e-05	
536	2.000000e-01	3.291507e-05	
537	2.500000e-01	4.082470e-05	
538	3.000000e-01	4.860729e-05	
539	3.500000e-01	5.626313e-05	
540	4.000000e-01	6.379254e-05	
541	4.500000e-01	7.119581e-05	
542	5.000000e-01	7.847325e-05	
543	5.500000e-01	8.562515e-05	
544	6.000000e-01	9.265182e-05	
545	6.500000e-01	9.955355e-05	
546	7.000000e-01	1.063306e-04	
547	7.500000e-01	1.129834e-04	
548	8.000000e-01	1.195121e-04	
549	8.500000e-01	1.259170e-04	
550	9.000000e-01	1.321985e-04	
551	9.500000e-01	1.383568e-04	
552	1.000000e+00	1.443922e-04	
553	1.050000e+00	1.503050e-04	
554	1.100000e+00	1.560956e-04	
555	1.150000e+00	1.617641e-04	
556	1.200000e+00	1.673109e-04	
557	1.250000e+00	1.727362e-04	
558	1.300000e+00	1.780404e-04	
559	1.350000e+00	1.832237e-04	
560	1.400000e+00	1.882865e-04	
561	1.450000e+00	1.932289e-04	
562	1.500000e+00	1.980513e-04	
563	1.550000e+00	2.027540e-04	
564	1.600000e+00	2.073372e-04	
565	1.650000e+00	2.118012e-04	
566	1.700000e+00	2.161463e-04	
567	1.750000e+00	2.203727e-04	
568	1.800000e+00	2.244808e-04	
569	1.850000e+00	2.284708e-04	
570	1.900000e+00	2.323430e-04	
571	1.950000e+00	2.360977e-04	
572	2.000000e+00	2.397350e-04	
573	2.050000e+00	2.432554e-04	
574	2.100000e+00	2.466589e-04	
575	2.150000e+00	2.499460e-04	
576	2.200000e+00	2.531169e-04	

Index   v-sweep         -i(vds)         
--------------------------------------------------------------------------------
577	2.250000e+00	2.561718e-04	
578	2.300000e+00	2.591110e-04	
579	2.350000e+00	2.619348e-04	
580	2.400000e+00	2.646433e-04	
581	2.450000e+00	2.672369e-04	
582	2.500000e+00	2.697158e-04	
583	2.550000e+00	2.720802e-04	
584	2.600000e+00	2.743304e-04	
585	2.650000e+00	2.764666e-04	
586	2.700000e+00	2.784890e-04	
587	2.750000e+00	2.803980e-04	
588	2.800000e+00	2.821936e-04	
589	2.850000e+00	2.838763e-04	
590	2.900000e+00	2.854462e-04	
591	2.950000e+00	2.869036e-04	
592	3.000000e+00	2.882489e-04	
593	3.050000e+00	2.894826e-04	
594	3.100000e+00	2.906054e-04	
595	3.150000e+00	2.916180e-04	
596	3.200000e+00	2.925221e-04	
597	3.250000e+00	2.933196e-04	
598	3.300000e+00	2.940139e-04	
599	3.350000e+00	2.946096e-04	
600	3.400000e+00	2.951133e-04	
601	3.450000e+00	2.955334e-04	
602	3.500000e+00	2.958800e-04	
603	3.550000e+00	2.961640e-04	
604	3.600000e+00	2.963965e-04	
605	3.650000e+00	2.965875e-04	
606	3.700000e+00	2.967457e-04	
607	3.750000e+00	2.968781e-04	
608	3.800000e+00	2.969903e-04	
609	3.850000e+00	2.970867e-04	
610	3.900000e+00	2.971706e-04	
611	3.950000e+00	2.972446e-04	
612	4.000000e+00	2.973105e-04	
613	4.050000e+00	2.973699e-04	
614	4.100000e+00	2.974240e-04	
615	4.150000e+00	2.974736e-04	
616	4.200000e+00	2.975195e-04	
617	4.250000e+00	2.975622e-04	
618	4.300000e+00	2.976023e-04	
619	4.350000e+00	2.976401e-04	
620	4.400000e+00	2.976759e-04	
621	4.450000e+00	2.977099e-04	
622	4.500000e+00	2.977424e-04	
623	4.550000e+00	2.977736e-04	
624	4.600000e+00	2.978036e-04	
625	4.650000e+00	2.978325e-04	
626	4.700000e+00	2.978604e-04	
627	4.750000e+00	2.978876e-04	
628	4.800000e+00	2.979139e-04	
629	4.850000e+00	2.979395e-04	
630	4.900000e+00	2.979645e-04	
631	4.950000e+00	2.979889e-04	
632	5.000000e+00	2.980128e-04	
633	5.050000e+00	2.980362e-04	
634	5.100000e+00	2.980591e-04	

Index   v-sweep         -i(vds)         
--------------------------------------------------------------------------------
635	5.150000e+00	2.980816e-04	
636	5.200000e+00	2.981037e-04	
637	5.250000e+00	2.981255e-04	
638	5.300000e+00	2.981469e-04	
639	5.350000e+00	2.981681e-04	
640	5.400000e+00	2.981889e-04	
641	5.450000e+00	2.982095e-04	
642	5.500000e+00	2.982299e-04	
643	5.550000e+00	2.982501e-04	
644	5.600000e+00	2.982701e-04	
645	5.650000e+00	2.982899e-04	
646	5.700000e+00	2.983097e-04	
647	5.750000e+00	2.983295e-04	
648	5.800000e+00	2.983492e-04	
649	5.850000e+00	2.983691e-04	
650	5.900000e+00	2.983891e-04	
651	5.950000e+00	2.984094e-04	
652	6.000000e+00	2.984301e-04	
653	6.050000e+00	2.984514e-04	
654	6.100000e+00	2.984733e-04	
655	6.150000e+00	2.984962e-04	
656	6.200000e+00	2.985203e-04	
657	6.250000e+00	2.985457e-04	
658	6.300000e+00	2.985729e-04	
659	6.350000e+00	2.986022e-04	
660	6.400000e+00	2.986340e-04	
661	6.450000e+00	2.986687e-04	
662	6.500000e+00	2.987070e-04	
663	6.550000e+00	2.987492e-04	
664	6.600000e+00	2.987962e-04	
665	0.000000e+00	-0.000000e+00	
666	5.000000e-02	9.345909e-06	
667	1.000000e-01	1.857844e-05	
668	1.500000e-01	2.769786e-05	
669	2.000000e-01	3.670440e-05	
670	2.500000e-01	4.559831e-05	
671	3.000000e-01	5.437985e-05	
672	3.500000e-01	6.304925e-05	
673	4.000000e-01	7.160677e-05	
674	4.500000e-01	8.005266e-05	
675	5.000000e-01	8.838715e-05	
676	5.500000e-01	9.661049e-05	
677	6.000000e-01	1.047229e-04	
678	6.500000e-01	1.127247e-04	
679	7.000000e-01	1.206160e-04	
680	7.500000e-01	1.283972e-04	
681	8.000000e-01	1.360684e-04	
682	8.500000e-01	1.436300e-04	
683	9.000000e-01	1.510820e-04	
684	9.500000e-01	1.584249e-04	
685	1.000000e+00	1.656588e-04	
686	1.050000e+00	1.727839e-04	
687	1.100000e+00	1.798005e-04	
688	1.150000e+00	1.867088e-04	
689	1.200000e+00	1.935091e-04	
690	1.250000e+00	2.002016e-04	
691	1.300000e+00	2.067865e-04	
692	1.350000e+00	2.132641e-04	

Index   v-sweep         -i(vds)         
--------------------------------------------------------------------------------
693	1.400000e+00	2.196345e-04	
694	1.450000e+00	2.258981e-04	
695	1.500000e+00	2.320550e-04	
696	1.550000e+00	2.381055e-04	
697	1.600000e+00	2.440499e-04	
698	1.650000e+00	2.498882e-04	
699	1.700000e+00	2.556209e-04	
700	1.750000e+00	2.612480e-04	
701	1.800000e+00	2.667698e-04	
702	1.850000e+00	2.721866e-04	
703	1.900000e+00	2.774986e-04	
704	1.950000e+00	2.827059e-04	
705	2.000000e+00	2.878089e-04	
706	2.050000e+00	2.928077e-04	
707	2.100000e+00	2.977026e-04	
708	2.150000e+00	3.024938e-04	
709	2.200000e+00	3.071814e-04	
710	2.250000e+00	3.117658e-04	
711	2.300000e+00	3.162471e-04	
712	2.350000e+00	3.206255e-04	
713	2.400000e+00	3.249014e-04	
714	2.450000e+00	3.290748e-04	
715	2.500000e+00	3.331460e-04	
716	2.550000e+00	3.371152e-04	
717	2.600000e+00	3.409827e-04	
718	2.650000e+00	3.447486e-04	
719	2.700000e+00	3.484131e-04	
720	2.750000e+00	3.519765e-04	
721	2.800000e+00	3.554389e-04	
722	2.850000e+00	3.588006e-04	
723	2.900000e+00	3.620617e-04	
724	2.950000e+00	3.652225e-04	
725	3.000000e+00	3.682832e-04	
726	3.050000e+00	3.712439e-04	
727	3.100000e+00	3.741048e-04	
728	3.150000e+00	3.768662e-04	
729	3.200000e+00	3.795283e-04	
730	3.250000e+00	3.820911e-04	
731	3.300000e+00	3.845549e-04	
732	3.350000e+00	3.869198e-04	
733	3.400000e+00	3.891861e-04	
734	3.450000e+00	3.913539e-04	
735	3.500000e+00	3.934233e-04	
736	3.550000e+00	3.953944e-04	
737	3.600000e+00	3.972675e-04	
738	3.650000e+00	3.990427e-04	
739	3.700000e+00	4.007200e-04	
740	3.750000e+00	4.022996e-04	
741	3.800000e+00	4.037817e-04	
742	3.850000e+00	4.051664e-04	
743	3.900000e+00	4.064539e-04	
744	3.950000e+00	4.076444e-04	
745	4.000000e+00	4.087383e-04	
746	4.050000e+00	4.097363e-04	
747	4.100000e+00	4.106393e-04	
748	4.150000e+00	4.114488e-04	
749	4.200000e+00	4.121670e-04	
750	4.250000e+00	4.127973e-04	

Index   v-sweep         -i(vds)         
--------------------------------------------------------------------------------
751	4.300000e+00	4.133443e-04	
752	4.350000e+00	4.138140e-04	
753	4.400000e+00	4.142138e-04	
754	4.450000e+00	4.145520e-04	
755	4.500000e+00	4.148371e-04	
756	4.550000e+00	4.150777e-04	
757	4.600000e+00	4.152815e-04	
758	4.650000e+00	4.154553e-04	
759	4.700000e+00	4.156046e-04	
760	4.750000e+00	4.157342e-04	
761	4.800000e+00	4.158477e-04	
762	4.850000e+00	4.159481e-04	
763	4.900000e+00	4.160378e-04	
764	4.950000e+00	4.161187e-04	
765	5.000000e+00	4.161922e-04	
766	5.050000e+00	4.162594e-04	
767	5.100000e+00	4.163215e-04	
768	5.150000e+00	4.163791e-04	
769	5.200000e+00	4.164329e-04	
770	5.250000e+00	4.164834e-04	
771	5.300000e+00	4.165310e-04	
772	5.350000e+00	4.165761e-04	
773	5.400000e+00	4.166190e-04	
774	5.450000e+00	4.166600e-04	
775	5.500000e+00	4.166992e-04	
776	5.550000e+00	4.167369e-04	
777	5.600000e+00	4.167732e-04	
778	5.650000e+00	4.168082e-04	
779	5.700000e+00	4.168422e-04	
780	5.750000e+00	4.168751e-04	
781	5.800000e+00	4.169070e-04	
782	5.850000e+00	4.169381e-04	
783	5.900000e+00	4.169684e-04	
784	5.950000e+00	4.169980e-04	
785	6.000000e+00	4.170270e-04	
786	6.050000e+00	4.170553e-04	
787	6.100000e+00	4.170831e-04	
788	6.150000e+00	4.171103e-04	
789	6.200000e+00	4.171371e-04	
790	6.250000e+00	4.171634e-04	
791	6.300000e+00	4.171893e-04	
792	6.350000e+00	4.172148e-04	
793	6.400000e+00	4.172400e-04	
794	6.450000e+00	4.172649e-04	
795	6.500000e+00	4.172895e-04	
796	6.550000e+00	4.173140e-04	
797	6.600000e+00	4.173382e-04	
Note: No ".plot", ".print", or ".fourier" lines; no simulations run
