
Note: Compatibility modes selected: hs

Warning: m=xx on .subckt line will override multiplier m hierarchy!


Circuit: ***************************

Doing analysis at TEMP = 25.000000 and TNOM = 25.000000


No. of Data Rows : 798
                          ***************************
                          DC transfer characteristic  Mon Jan  9 13:57:40  2023
--------------------------------------------------------------------------------
Index   v-sweep         -i(vds)         
--------------------------------------------------------------------------------
0	0.000000e+00	-0.000000e+00	
1	5.000000e-02	2.214172e-05	
2	1.000000e-01	3.774061e-05	
3	1.500000e-01	4.738770e-05	
4	2.000000e-01	5.245704e-05	
5	2.500000e-01	5.514064e-05	
6	3.000000e-01	5.692388e-05	
7	3.500000e-01	5.832643e-05	
8	4.000000e-01	5.951931e-05	
9	4.500000e-01	6.057525e-05	
10	5.000000e-01	6.153295e-05	
11	5.500000e-01	6.241607e-05	
12	6.000000e-01	6.324042e-05	
13	6.500000e-01	6.401715e-05	
14	7.000000e-01	6.475452e-05	
15	7.500000e-01	6.545877e-05	
16	8.000000e-01	6.613479e-05	
17	8.500000e-01	6.678647e-05	
18	9.000000e-01	6.741694e-05	
19	9.500000e-01	6.802878e-05	
20	1.000000e+00	6.862413e-05	
21	1.050000e+00	6.920479e-05	
22	1.100000e+00	6.977228e-05	
23	1.150000e+00	7.032792e-05	
24	1.200000e+00	7.087281e-05	
25	1.250000e+00	7.140795e-05	
26	1.300000e+00	7.193418e-05	
27	1.350000e+00	7.245224e-05	
28	1.400000e+00	7.296280e-05	
29	1.450000e+00	7.346645e-05	
30	1.500000e+00	7.396371e-05	
31	1.550000e+00	7.445505e-05	
32	1.600000e+00	7.494087e-05	
33	1.650000e+00	7.542158e-05	
34	1.700000e+00	7.589750e-05	
35	1.750000e+00	7.636894e-05	
36	1.800000e+00	7.683620e-05	
37	1.850000e+00	7.729952e-05	
38	1.900000e+00	7.775914e-05	
39	1.950000e+00	7.821529e-05	
40	2.000000e+00	7.866816e-05	
41	2.050000e+00	7.911793e-05	
42	2.100000e+00	7.956477e-05	
43	2.150000e+00	8.000884e-05	
44	2.200000e+00	8.045029e-05	
45	2.250000e+00	8.088926e-05	
46	2.300000e+00	8.132587e-05	
47	2.350000e+00	8.176025e-05	
48	2.400000e+00	8.219251e-05	
49	2.450000e+00	8.262276e-05	
50	2.500000e+00	8.305110e-05	
51	2.550000e+00	8.347765e-05	
52	2.600000e+00	8.390250e-05	
53	2.650000e+00	8.432575e-05	
54	2.700000e+00	8.474751e-05	

Index   v-sweep         -i(vds)         
--------------------------------------------------------------------------------
55	2.750000e+00	8.516788e-05	
56	2.800000e+00	8.558698e-05	
57	2.850000e+00	8.600490e-05	
58	2.900000e+00	8.642177e-05	
59	2.950000e+00	8.683772e-05	
60	3.000000e+00	8.725288e-05	
61	3.050000e+00	8.766740e-05	
62	3.100000e+00	8.808143e-05	
63	3.150000e+00	8.849517e-05	
64	3.200000e+00	8.890878e-05	
65	3.250000e+00	8.932248e-05	
66	3.300000e+00	8.973649e-05	
67	3.350000e+00	9.015107e-05	
68	3.400000e+00	9.056649e-05	
69	3.450000e+00	9.098303e-05	
70	3.500000e+00	9.140102e-05	
71	3.550000e+00	9.182082e-05	
72	3.600000e+00	9.224280e-05	
73	3.650000e+00	9.266738e-05	
74	3.700000e+00	9.309499e-05	
75	3.750000e+00	9.352612e-05	
76	3.800000e+00	9.396129e-05	
77	3.850000e+00	9.440104e-05	
78	3.900000e+00	9.484598e-05	
79	3.950000e+00	9.529673e-05	
80	4.000000e+00	9.575397e-05	
81	4.050000e+00	9.621841e-05	
82	4.100000e+00	9.669082e-05	
83	4.150000e+00	9.717201e-05	
84	4.200000e+00	9.766281e-05	
85	4.250000e+00	9.816414e-05	
86	4.300000e+00	9.867694e-05	
87	4.350000e+00	9.920220e-05	
88	4.400000e+00	9.974096e-05	
89	4.450000e+00	1.002943e-04	
90	4.500000e+00	1.008634e-04	
91	4.550000e+00	1.014494e-04	
92	4.600000e+00	1.020536e-04	
93	4.650000e+00	1.026772e-04	
94	4.700000e+00	1.033216e-04	
95	4.750000e+00	1.039882e-04	
96	4.800000e+00	1.046784e-04	
97	4.850000e+00	1.053938e-04	
98	4.900000e+00	1.061357e-04	
99	4.950000e+00	1.069060e-04	
100	5.000000e+00	1.077060e-04	
101	5.050000e+00	1.085377e-04	
102	5.100000e+00	1.094026e-04	
103	5.150000e+00	1.103027e-04	
104	5.200000e+00	1.112396e-04	
105	5.250000e+00	1.122153e-04	
106	5.300000e+00	1.132317e-04	
107	5.350000e+00	1.142908e-04	
108	5.400000e+00	1.153945e-04	
109	5.450000e+00	1.165450e-04	
110	5.500000e+00	1.177443e-04	
111	5.550000e+00	1.189946e-04	
112	5.600000e+00	1.202980e-04	

Index   v-sweep         -i(vds)         
--------------------------------------------------------------------------------
113	5.650000e+00	1.216567e-04	
114	5.700000e+00	1.230731e-04	
115	5.750000e+00	1.245494e-04	
116	5.800000e+00	1.260879e-04	
117	5.850000e+00	1.276910e-04	
118	5.900000e+00	1.293611e-04	
119	5.950000e+00	1.311007e-04	
120	6.000000e+00	1.329122e-04	
121	6.050000e+00	1.347982e-04	
122	6.100000e+00	1.367611e-04	
123	6.150000e+00	1.388035e-04	
124	6.200000e+00	1.409280e-04	
125	6.250000e+00	1.431373e-04	
126	6.300000e+00	1.454339e-04	
127	6.350000e+00	1.478206e-04	
128	6.400000e+00	1.503001e-04	
129	6.450000e+00	1.528750e-04	
130	6.500000e+00	1.555481e-04	
131	6.550000e+00	1.583223e-04	
132	6.600000e+00	1.612002e-04	
133	0.000000e+00	-0.000000e+00	
134	5.000000e-02	9.811372e-05	
135	1.000000e-01	1.880013e-04	
136	1.500000e-01	2.699856e-04	
137	2.000000e-01	3.443730e-04	
138	2.500000e-01	4.114552e-04	
139	3.000000e-01	4.715102e-04	
140	3.500000e-01	5.248041e-04	
141	4.000000e-01	5.715931e-04	
142	4.500000e-01	6.121275e-04	
143	5.000000e-01	6.466590e-04	
144	5.500000e-01	6.754610e-04	
145	6.000000e-01	6.988818e-04	
146	6.500000e-01	7.174553e-04	
147	7.000000e-01	7.319903e-04	
148	7.500000e-01	7.434527e-04	
149	8.000000e-01	7.527092e-04	
150	8.500000e-01	7.603989e-04	
151	9.000000e-01	7.669551e-04	
152	9.500000e-01	7.726672e-04	
153	1.000000e+00	7.777323e-04	
154	1.050000e+00	7.822882e-04	
155	1.100000e+00	7.864341e-04	
156	1.150000e+00	7.902434e-04	
157	1.200000e+00	7.937718e-04	
158	1.250000e+00	7.970625e-04	
159	1.300000e+00	8.001494e-04	
160	1.350000e+00	8.030599e-04	
161	1.400000e+00	8.058162e-04	
162	1.450000e+00	8.084365e-04	
163	1.500000e+00	8.109362e-04	
164	1.550000e+00	8.133279e-04	
165	1.600000e+00	8.156228e-04	
166	1.650000e+00	8.178300e-04	
167	1.700000e+00	8.199577e-04	
168	1.750000e+00	8.220129e-04	
169	1.800000e+00	8.240017e-04	
170	1.850000e+00	8.259295e-04	

Index   v-sweep         -i(vds)         
--------------------------------------------------------------------------------
171	1.900000e+00	8.278010e-04	
172	1.950000e+00	8.296205e-04	
173	2.000000e+00	8.313918e-04	
174	2.050000e+00	8.331182e-04	
175	2.100000e+00	8.348027e-04	
176	2.150000e+00	8.364482e-04	
177	2.200000e+00	8.380571e-04	
178	2.250000e+00	8.396316e-04	
179	2.300000e+00	8.411738e-04	
180	2.350000e+00	8.426856e-04	
181	2.400000e+00	8.441687e-04	
182	2.450000e+00	8.456247e-04	
183	2.500000e+00	8.470550e-04	
184	2.550000e+00	8.484610e-04	
185	2.600000e+00	8.498439e-04	
186	2.650000e+00	8.512050e-04	
187	2.700000e+00	8.525452e-04	
188	2.750000e+00	8.538657e-04	
189	2.800000e+00	8.551673e-04	
190	2.850000e+00	8.564511e-04	
191	2.900000e+00	8.577179e-04	
192	2.950000e+00	8.589686e-04	
193	3.000000e+00	8.602039e-04	
194	3.050000e+00	8.614249e-04	
195	3.100000e+00	8.626322e-04	
196	3.150000e+00	8.638268e-04	
197	3.200000e+00	8.650096e-04	
198	3.250000e+00	8.661814e-04	
199	3.300000e+00	8.673434e-04	
200	3.350000e+00	8.684964e-04	
201	3.400000e+00	8.696416e-04	
202	3.450000e+00	8.707803e-04	
203	3.500000e+00	8.719137e-04	
204	3.550000e+00	8.730432e-04	
205	3.600000e+00	8.741705e-04	
206	3.650000e+00	8.752973e-04	
207	3.700000e+00	8.764253e-04	
208	3.750000e+00	8.775566e-04	
209	3.800000e+00	8.786935e-04	
210	3.850000e+00	8.798383e-04	
211	3.900000e+00	8.809938e-04	
212	3.950000e+00	8.821627e-04	
213	4.000000e+00	8.833483e-04	
214	4.050000e+00	8.845538e-04	
215	4.100000e+00	8.857828e-04	
216	4.150000e+00	8.870393e-04	
217	4.200000e+00	8.883275e-04	
218	4.250000e+00	8.896518e-04	
219	4.300000e+00	8.910171e-04	
220	4.350000e+00	8.924283e-04	
221	4.400000e+00	8.938910e-04	
222	4.450000e+00	8.954109e-04	
223	4.500000e+00	8.969940e-04	
224	4.550000e+00	8.986468e-04	
225	4.600000e+00	9.003760e-04	
226	4.650000e+00	9.021888e-04	
227	4.700000e+00	9.040925e-04	
228	4.750000e+00	9.060951e-04	

Index   v-sweep         -i(vds)         
--------------------------------------------------------------------------------
229	4.800000e+00	9.082045e-04	
230	4.850000e+00	9.104294e-04	
231	4.900000e+00	9.127786e-04	
232	4.950000e+00	9.152613e-04	
233	5.000000e+00	9.178870e-04	
234	5.050000e+00	9.206657e-04	
235	5.100000e+00	9.236076e-04	
236	5.150000e+00	9.267232e-04	
237	5.200000e+00	9.300234e-04	
238	5.250000e+00	9.335196e-04	
239	5.300000e+00	9.372231e-04	
240	5.350000e+00	9.411460e-04	
241	5.400000e+00	9.453004e-04	
242	5.450000e+00	9.496988e-04	
243	5.500000e+00	9.543540e-04	
244	5.550000e+00	9.592789e-04	
245	5.600000e+00	9.644870e-04	
246	5.650000e+00	9.699919e-04	
247	5.700000e+00	9.758075e-04	
248	5.750000e+00	9.819478e-04	
249	5.800000e+00	9.884273e-04	
250	5.850000e+00	9.952605e-04	
251	5.900000e+00	1.002462e-03	
252	5.950000e+00	1.010048e-03	
253	6.000000e+00	1.018032e-03	
254	6.050000e+00	1.026431e-03	
255	6.100000e+00	1.035260e-03	
256	6.150000e+00	1.044534e-03	
257	6.200000e+00	1.054270e-03	
258	6.250000e+00	1.064484e-03	
259	6.300000e+00	1.075193e-03	
260	6.350000e+00	1.086412e-03	
261	6.400000e+00	1.098158e-03	
262	6.450000e+00	1.110447e-03	
263	6.500000e+00	1.123298e-03	
264	6.550000e+00	1.136725e-03	
265	6.600000e+00	1.150747e-03	
266	0.000000e+00	-0.000000e+00	
267	5.000000e-02	1.551255e-04	
268	1.000000e-01	3.013103e-04	
269	1.500000e-01	4.388944e-04	
270	2.000000e-01	5.682004e-04	
271	2.500000e-01	6.895349e-04	
272	3.000000e-01	8.031888e-04	
273	3.500000e-01	9.094387e-04	
274	4.000000e-01	1.008547e-03	
275	4.500000e-01	1.100763e-03	
276	5.000000e-01	1.186324e-03	
277	5.500000e-01	1.265454e-03	
278	6.000000e-01	1.338365e-03	
279	6.500000e-01	1.405254e-03	
280	7.000000e-01	1.466305e-03	
281	7.500000e-01	1.521676e-03	
282	8.000000e-01	1.571497e-03	
283	8.500000e-01	1.615856e-03	
284	9.000000e-01	1.654789e-03	
285	9.500000e-01	1.688317e-03	
286	1.000000e+00	1.716561e-03	

Index   v-sweep         -i(vds)         
--------------------------------------------------------------------------------
287	1.050000e+00	1.739923e-03	
288	1.100000e+00	1.759110e-03	
289	1.150000e+00	1.774965e-03	
290	1.200000e+00	1.788258e-03	
291	1.250000e+00	1.799598e-03	
292	1.300000e+00	1.809440e-03	
293	1.350000e+00	1.818113e-03	
294	1.400000e+00	1.825857e-03	
295	1.450000e+00	1.832850e-03	
296	1.500000e+00	1.839226e-03	
297	1.550000e+00	1.845087e-03	
298	1.600000e+00	1.850512e-03	
299	1.650000e+00	1.855566e-03	
300	1.700000e+00	1.860297e-03	
301	1.750000e+00	1.864748e-03	
302	1.800000e+00	1.868953e-03	
303	1.850000e+00	1.872939e-03	
304	1.900000e+00	1.876730e-03	
305	1.950000e+00	1.880346e-03	
306	2.000000e+00	1.883805e-03	
307	2.050000e+00	1.887121e-03	
308	2.100000e+00	1.890307e-03	
309	2.150000e+00	1.893375e-03	
310	2.200000e+00	1.896333e-03	
311	2.250000e+00	1.899191e-03	
312	2.300000e+00	1.901957e-03	
313	2.350000e+00	1.904636e-03	
314	2.400000e+00	1.907236e-03	
315	2.450000e+00	1.909762e-03	
316	2.500000e+00	1.912218e-03	
317	2.550000e+00	1.914610e-03	
318	2.600000e+00	1.916941e-03	
319	2.650000e+00	1.919215e-03	
320	2.700000e+00	1.921435e-03	
321	2.750000e+00	1.923604e-03	
322	2.800000e+00	1.925726e-03	
323	2.850000e+00	1.927802e-03	
324	2.900000e+00	1.929836e-03	
325	2.950000e+00	1.931829e-03	
326	3.000000e+00	1.933784e-03	
327	3.050000e+00	1.935702e-03	
328	3.100000e+00	1.937585e-03	
329	3.150000e+00	1.939436e-03	
330	3.200000e+00	1.941255e-03	
331	3.250000e+00	1.943045e-03	
332	3.300000e+00	1.944806e-03	
333	3.350000e+00	1.946542e-03	
334	3.400000e+00	1.948252e-03	
335	3.450000e+00	1.949939e-03	
336	3.500000e+00	1.951604e-03	
337	3.550000e+00	1.953250e-03	
338	3.600000e+00	1.954877e-03	
339	3.650000e+00	1.956488e-03	
340	3.700000e+00	1.958086e-03	
341	3.750000e+00	1.959672e-03	
342	3.800000e+00	1.961248e-03	
343	3.850000e+00	1.962818e-03	
344	3.900000e+00	1.964385e-03	

Index   v-sweep         -i(vds)         
--------------------------------------------------------------------------------
345	3.950000e+00	1.965952e-03	
346	4.000000e+00	1.967523e-03	
347	4.050000e+00	1.969101e-03	
348	4.100000e+00	1.970692e-03	
349	4.150000e+00	1.972299e-03	
350	4.200000e+00	1.973928e-03	
351	4.250000e+00	1.975586e-03	
352	4.300000e+00	1.977278e-03	
353	4.350000e+00	1.979011e-03	
354	4.400000e+00	1.980792e-03	
355	4.450000e+00	1.982630e-03	
356	4.500000e+00	1.984533e-03	
357	4.550000e+00	1.986510e-03	
358	4.600000e+00	1.988571e-03	
359	4.650000e+00	1.990726e-03	
360	4.700000e+00	1.992987e-03	
361	4.750000e+00	1.995366e-03	
362	4.800000e+00	1.997875e-03	
363	4.850000e+00	2.000528e-03	
364	4.900000e+00	2.003339e-03	
365	4.950000e+00	2.006322e-03	
366	5.000000e+00	2.009493e-03	
367	5.050000e+00	2.012868e-03	
368	5.100000e+00	2.016465e-03	
369	5.150000e+00	2.020302e-03	
370	5.200000e+00	2.024396e-03	
371	5.250000e+00	2.028767e-03	
372	5.300000e+00	2.033436e-03	
373	5.350000e+00	2.038423e-03	
374	5.400000e+00	2.043749e-03	
375	5.450000e+00	2.049438e-03	
376	5.500000e+00	2.055512e-03	
377	5.550000e+00	2.061994e-03	
378	5.600000e+00	2.068909e-03	
379	5.650000e+00	2.076283e-03	
380	5.700000e+00	2.084141e-03	
381	5.750000e+00	2.092509e-03	
382	5.800000e+00	2.101414e-03	
383	5.850000e+00	2.110884e-03	
384	5.900000e+00	2.120947e-03	
385	5.950000e+00	2.131632e-03	
386	6.000000e+00	2.142969e-03	
387	6.050000e+00	2.154987e-03	
388	6.100000e+00	2.167716e-03	
389	6.150000e+00	2.181188e-03	
390	6.200000e+00	2.195433e-03	
391	6.250000e+00	2.210485e-03	
392	6.300000e+00	2.226374e-03	
393	6.350000e+00	2.243133e-03	
394	6.400000e+00	2.260797e-03	
395	6.450000e+00	2.279397e-03	
396	6.500000e+00	2.298967e-03	
397	6.550000e+00	2.319543e-03	
398	6.600000e+00	2.341157e-03	
399	0.000000e+00	-0.000000e+00	
400	5.000000e-02	1.975534e-04	
401	1.000000e-01	3.860309e-04	
402	1.500000e-01	5.657536e-04	

Index   v-sweep         -i(vds)         
--------------------------------------------------------------------------------
403	2.000000e-01	7.370274e-04	
404	2.500000e-01	9.001439e-04	
405	3.000000e-01	1.055381e-03	
406	3.500000e-01	1.203004e-03	
407	4.000000e-01	1.343265e-03	
408	4.500000e-01	1.476404e-03	
409	5.000000e-01	1.602653e-03	
410	5.500000e-01	1.722228e-03	
411	6.000000e-01	1.835341e-03	
412	6.500000e-01	1.942189e-03	
413	7.000000e-01	2.042963e-03	
414	7.500000e-01	2.137843e-03	
415	8.000000e-01	2.227000e-03	
416	8.500000e-01	2.310595e-03	
417	9.000000e-01	2.388776e-03	
418	9.500000e-01	2.461674e-03	
419	1.000000e+00	2.529401e-03	
420	1.050000e+00	2.592037e-03	
421	1.100000e+00	2.649616e-03	
422	1.150000e+00	2.702107e-03	
423	1.200000e+00	2.749403e-03	
424	1.250000e+00	2.791346e-03	
425	1.300000e+00	2.827829e-03	
426	1.350000e+00	2.858978e-03	
427	1.400000e+00	2.885250e-03	
428	1.450000e+00	2.907358e-03	
429	1.500000e+00	2.926080e-03	
430	1.550000e+00	2.942117e-03	
431	1.600000e+00	2.956036e-03	
432	1.650000e+00	2.968276e-03	
433	1.700000e+00	2.979170e-03	
434	1.750000e+00	2.988969e-03	
435	1.800000e+00	2.997866e-03	
436	1.850000e+00	3.006011e-03	
437	1.900000e+00	3.013519e-03	
438	1.950000e+00	3.020484e-03	
439	2.000000e+00	3.026980e-03	
440	2.050000e+00	3.033068e-03	
441	2.100000e+00	3.038798e-03	
442	2.150000e+00	3.044211e-03	
443	2.200000e+00	3.049341e-03	
444	2.250000e+00	3.054220e-03	
445	2.300000e+00	3.058871e-03	
446	2.350000e+00	3.063317e-03	
447	2.400000e+00	3.067576e-03	
448	2.450000e+00	3.071664e-03	
449	2.500000e+00	3.075596e-03	
450	2.550000e+00	3.079385e-03	
451	2.600000e+00	3.083041e-03	
452	2.650000e+00	3.086575e-03	
453	2.700000e+00	3.089995e-03	
454	2.750000e+00	3.093310e-03	
455	2.800000e+00	3.096526e-03	
456	2.850000e+00	3.099650e-03	
457	2.900000e+00	3.102687e-03	
458	2.950000e+00	3.105644e-03	
459	3.000000e+00	3.108524e-03	
460	3.050000e+00	3.111333e-03	

Index   v-sweep         -i(vds)         
--------------------------------------------------------------------------------
461	3.100000e+00	3.114074e-03	
462	3.150000e+00	3.116751e-03	
463	3.200000e+00	3.119368e-03	
464	3.250000e+00	3.121928e-03	
465	3.300000e+00	3.124433e-03	
466	3.350000e+00	3.126887e-03	
467	3.400000e+00	3.129291e-03	
468	3.450000e+00	3.131650e-03	
469	3.500000e+00	3.133965e-03	
470	3.550000e+00	3.136238e-03	
471	3.600000e+00	3.138471e-03	
472	3.650000e+00	3.140668e-03	
473	3.700000e+00	3.142830e-03	
474	3.750000e+00	3.144959e-03	
475	3.800000e+00	3.147058e-03	
476	3.850000e+00	3.149130e-03	
477	3.900000e+00	3.151177e-03	
478	3.950000e+00	3.153203e-03	
479	4.000000e+00	3.155210e-03	
480	4.050000e+00	3.157202e-03	
481	4.100000e+00	3.159182e-03	
482	4.150000e+00	3.161155e-03	
483	4.200000e+00	3.163126e-03	
484	4.250000e+00	3.165100e-03	
485	4.300000e+00	3.167081e-03	
486	4.350000e+00	3.169078e-03	
487	4.400000e+00	3.171095e-03	
488	4.450000e+00	3.173141e-03	
489	4.500000e+00	3.175224e-03	
490	4.550000e+00	3.177354e-03	
491	4.600000e+00	3.179539e-03	
492	4.650000e+00	3.181790e-03	
493	4.700000e+00	3.184119e-03	
494	4.750000e+00	3.186539e-03	
495	4.800000e+00	3.189062e-03	
496	4.850000e+00	3.191704e-03	
497	4.900000e+00	3.194479e-03	
498	4.950000e+00	3.197404e-03	
499	5.000000e+00	3.200497e-03	
500	5.050000e+00	3.203777e-03	
501	5.100000e+00	3.207263e-03	
502	5.150000e+00	3.210976e-03	
503	5.200000e+00	3.214939e-03	
504	5.250000e+00	3.219174e-03	
505	5.300000e+00	3.223708e-03	
506	5.350000e+00	3.228564e-03	
507	5.400000e+00	3.233770e-03	
508	5.450000e+00	3.239354e-03	
509	5.500000e+00	3.245347e-03	
510	5.550000e+00	3.251777e-03	
511	5.600000e+00	3.258677e-03	
512	5.650000e+00	3.266079e-03	
513	5.700000e+00	3.274019e-03	
514	5.750000e+00	3.282530e-03	
515	5.800000e+00	3.291650e-03	
516	5.850000e+00	3.301415e-03	
517	5.900000e+00	3.311865e-03	
518	5.950000e+00	3.323039e-03	

Index   v-sweep         -i(vds)         
--------------------------------------------------------------------------------
519	6.000000e+00	3.334977e-03	
520	6.050000e+00	3.347722e-03	
521	6.100000e+00	3.361315e-03	
522	6.150000e+00	3.375802e-03	
523	6.200000e+00	3.391225e-03	
524	6.250000e+00	3.407631e-03	
525	6.300000e+00	3.425067e-03	
526	6.350000e+00	3.443578e-03	
527	6.400000e+00	3.463214e-03	
528	6.450000e+00	3.484023e-03	
529	6.500000e+00	3.506055e-03	
530	6.550000e+00	3.529360e-03	
531	6.600000e+00	3.553988e-03	
532	0.000000e+00	-0.000000e+00	
533	5.000000e-02	2.274396e-04	
534	1.000000e-01	4.461171e-04	
535	1.500000e-01	6.563148e-04	
536	2.000000e-01	8.583027e-04	
537	2.500000e-01	1.052339e-03	
538	3.000000e-01	1.238673e-03	
539	3.500000e-01	1.417540e-03	
540	4.000000e-01	1.589167e-03	
541	4.500000e-01	1.753773e-03	
542	5.000000e-01	1.911564e-03	
543	5.500000e-01	2.062742e-03	
544	6.000000e-01	2.207496e-03	
545	6.500000e-01	2.346010e-03	
546	7.000000e-01	2.478459e-03	
547	7.500000e-01	2.605012e-03	
548	8.000000e-01	2.725831e-03	
549	8.500000e-01	2.841070e-03	
550	9.000000e-01	2.950878e-03	
551	9.500000e-01	3.055397e-03	
552	1.000000e+00	3.154763e-03	
553	1.050000e+00	3.249103e-03	
554	1.100000e+00	3.338537e-03	
555	1.150000e+00	3.423176e-03	
556	1.200000e+00	3.503115e-03	
557	1.250000e+00	3.578435e-03	
558	1.300000e+00	3.649189e-03	
559	1.350000e+00	3.715395e-03	
560	1.400000e+00	3.777018e-03	
561	1.450000e+00	3.833953e-03	
562	1.500000e+00	3.886015e-03	
563	1.550000e+00	3.932967e-03	
564	1.600000e+00	3.974611e-03	
565	1.650000e+00	4.010940e-03	
566	1.700000e+00	4.042243e-03	
567	1.750000e+00	4.069076e-03	
568	1.800000e+00	4.092126e-03	
569	1.850000e+00	4.112068e-03	
570	1.900000e+00	4.129492e-03	
571	1.950000e+00	4.144877e-03	
572	2.000000e+00	4.158602e-03	
573	2.050000e+00	4.170962e-03	
574	2.100000e+00	4.182189e-03	
575	2.150000e+00	4.192465e-03	
576	2.200000e+00	4.201933e-03	

Index   v-sweep         -i(vds)         
--------------------------------------------------------------------------------
577	2.250000e+00	4.210710e-03	
578	2.300000e+00	4.218888e-03	
579	2.350000e+00	4.226544e-03	
580	2.400000e+00	4.233742e-03	
581	2.450000e+00	4.240534e-03	
582	2.500000e+00	4.246964e-03	
583	2.550000e+00	4.253070e-03	
584	2.600000e+00	4.258885e-03	
585	2.650000e+00	4.264436e-03	
586	2.700000e+00	4.269747e-03	
587	2.750000e+00	4.274840e-03	
588	2.800000e+00	4.279732e-03	
589	2.850000e+00	4.284440e-03	
590	2.900000e+00	4.288977e-03	
591	2.950000e+00	4.293358e-03	
592	3.000000e+00	4.297592e-03	
593	3.050000e+00	4.301691e-03	
594	3.100000e+00	4.305664e-03	
595	3.150000e+00	4.309518e-03	
596	3.200000e+00	4.313262e-03	
597	3.250000e+00	4.316901e-03	
598	3.300000e+00	4.320443e-03	
599	3.350000e+00	4.323894e-03	
600	3.400000e+00	4.327257e-03	
601	3.450000e+00	4.330538e-03	
602	3.500000e+00	4.333742e-03	
603	3.550000e+00	4.336873e-03	
604	3.600000e+00	4.339934e-03	
605	3.650000e+00	4.342929e-03	
606	3.700000e+00	4.345861e-03	
607	3.750000e+00	4.348734e-03	
608	3.800000e+00	4.351551e-03	
609	3.850000e+00	4.354315e-03	
610	3.900000e+00	4.357028e-03	
611	3.950000e+00	4.359694e-03	
612	4.000000e+00	4.362316e-03	
613	4.050000e+00	4.364896e-03	
614	4.100000e+00	4.367438e-03	
615	4.150000e+00	4.369946e-03	
616	4.200000e+00	4.372422e-03	
617	4.250000e+00	4.374872e-03	
618	4.300000e+00	4.377298e-03	
619	4.350000e+00	4.379707e-03	
620	4.400000e+00	4.382102e-03	
621	4.450000e+00	4.384490e-03	
622	4.500000e+00	4.386876e-03	
623	4.550000e+00	4.389268e-03	
624	4.600000e+00	4.391674e-03	
625	4.650000e+00	4.394101e-03	
626	4.700000e+00	4.396560e-03	
627	4.750000e+00	4.399060e-03	
628	4.800000e+00	4.401612e-03	
629	4.850000e+00	4.404229e-03	
630	4.900000e+00	4.406924e-03	
631	4.950000e+00	4.409712e-03	
632	5.000000e+00	4.412608e-03	
633	5.050000e+00	4.415630e-03	
634	5.100000e+00	4.418796e-03	

Index   v-sweep         -i(vds)         
--------------------------------------------------------------------------------
635	5.150000e+00	4.422125e-03	
636	5.200000e+00	4.425640e-03	
637	5.250000e+00	4.429362e-03	
638	5.300000e+00	4.433315e-03	
639	5.350000e+00	4.437526e-03	
640	5.400000e+00	4.442022e-03	
641	5.450000e+00	4.446831e-03	
642	5.500000e+00	4.451984e-03	
643	5.550000e+00	4.457514e-03	
644	5.600000e+00	4.463453e-03	
645	5.650000e+00	4.469837e-03	
646	5.700000e+00	4.476703e-03	
647	5.750000e+00	4.484091e-03	
648	5.800000e+00	4.492040e-03	
649	5.850000e+00	4.500592e-03	
650	5.900000e+00	4.509790e-03	
651	5.950000e+00	4.519681e-03	
652	6.000000e+00	4.530311e-03	
653	6.050000e+00	4.541729e-03	
654	6.100000e+00	4.553984e-03	
655	6.150000e+00	4.567127e-03	
656	6.200000e+00	4.581213e-03	
657	6.250000e+00	4.596295e-03	
658	6.300000e+00	4.612430e-03	
659	6.350000e+00	4.629675e-03	
660	6.400000e+00	4.648088e-03	
661	6.450000e+00	4.667730e-03	
662	6.500000e+00	4.688661e-03	
663	6.550000e+00	4.710946e-03	
664	6.600000e+00	4.734646e-03	
665	0.000000e+00	-0.000000e+00	
666	5.000000e-02	2.470553e-04	
667	1.000000e-01	4.859406e-04	
668	1.500000e-01	7.168927e-04	
669	2.000000e-01	9.401393e-04	
670	2.500000e-01	1.155899e-03	
671	3.000000e-01	1.364384e-03	
672	3.500000e-01	1.565795e-03	
673	4.000000e-01	1.760327e-03	
674	4.500000e-01	1.948169e-03	
675	5.000000e-01	2.129500e-03	
676	5.500000e-01	2.304494e-03	
677	6.000000e-01	2.473317e-03	
678	6.500000e-01	2.636131e-03	
679	7.000000e-01	2.793089e-03	
680	7.500000e-01	2.944341e-03	
681	8.000000e-01	3.090030e-03	
682	8.500000e-01	3.230294e-03	
683	9.000000e-01	3.365267e-03	
684	9.500000e-01	3.495077e-03	
685	1.000000e+00	3.619849e-03	
686	1.050000e+00	3.739700e-03	
687	1.100000e+00	3.854749e-03	
688	1.150000e+00	3.965104e-03	
689	1.200000e+00	4.070872e-03	
690	1.250000e+00	4.172156e-03	
691	1.300000e+00	4.269052e-03	
692	1.350000e+00	4.361650e-03	

Index   v-sweep         -i(vds)         
--------------------------------------------------------------------------------
693	1.400000e+00	4.450034e-03	
694	1.450000e+00	4.534277e-03	
695	1.500000e+00	4.614440e-03	
696	1.550000e+00	4.690567e-03	
697	1.600000e+00	4.762676e-03	
698	1.650000e+00	4.830750e-03	
699	1.700000e+00	4.894722e-03	
700	1.750000e+00	4.954460e-03	
701	1.800000e+00	5.009760e-03	
702	1.850000e+00	5.060363e-03	
703	1.900000e+00	5.106028e-03	
704	1.950000e+00	5.146643e-03	
705	2.000000e+00	5.182332e-03	
706	2.050000e+00	5.213470e-03	
707	2.100000e+00	5.240604e-03	
708	2.150000e+00	5.264332e-03	
709	2.200000e+00	5.285222e-03	
710	2.250000e+00	5.303763e-03	
711	2.300000e+00	5.320361e-03	
712	2.350000e+00	5.335342e-03	
713	2.400000e+00	5.348969e-03	
714	2.450000e+00	5.361451e-03	
715	2.500000e+00	5.372956e-03	
716	2.550000e+00	5.383621e-03	
717	2.600000e+00	5.393557e-03	
718	2.650000e+00	5.402857e-03	
719	2.700000e+00	5.411596e-03	
720	2.750000e+00	5.419838e-03	
721	2.800000e+00	5.427637e-03	
722	2.850000e+00	5.435039e-03	
723	2.900000e+00	5.442083e-03	
724	2.950000e+00	5.448803e-03	
725	3.000000e+00	5.455228e-03	
726	3.050000e+00	5.461385e-03	
727	3.100000e+00	5.467295e-03	
728	3.150000e+00	5.472978e-03	
729	3.200000e+00	5.478452e-03	
730	3.250000e+00	5.483733e-03	
731	3.300000e+00	5.488835e-03	
732	3.350000e+00	5.493770e-03	
733	3.400000e+00	5.498549e-03	
734	3.450000e+00	5.503182e-03	
735	3.500000e+00	5.507680e-03	
736	3.550000e+00	5.512050e-03	
737	3.600000e+00	5.516299e-03	
738	3.650000e+00	5.520435e-03	
739	3.700000e+00	5.524465e-03	
740	3.750000e+00	5.528394e-03	
741	3.800000e+00	5.532227e-03	
742	3.850000e+00	5.535970e-03	
743	3.900000e+00	5.539628e-03	
744	3.950000e+00	5.543204e-03	
745	4.000000e+00	5.546703e-03	
746	4.050000e+00	5.550130e-03	
747	4.100000e+00	5.553487e-03	
748	4.150000e+00	5.556778e-03	
749	4.200000e+00	5.560008e-03	
750	4.250000e+00	5.563179e-03	

Index   v-sweep         -i(vds)         
--------------------------------------------------------------------------------
751	4.300000e+00	5.566295e-03	
752	4.350000e+00	5.569361e-03	
753	4.400000e+00	5.572380e-03	
754	4.450000e+00	5.575356e-03	
755	4.500000e+00	5.578293e-03	
756	4.550000e+00	5.581197e-03	
757	4.600000e+00	5.584073e-03	
758	4.650000e+00	5.586926e-03	
759	4.700000e+00	5.589763e-03	
760	4.750000e+00	5.592591e-03	
761	4.800000e+00	5.595417e-03	
762	4.850000e+00	5.598249e-03	
763	4.900000e+00	5.601099e-03	
764	4.950000e+00	5.603975e-03	
765	5.000000e+00	5.606890e-03	
766	5.050000e+00	5.609855e-03	
767	5.100000e+00	5.612886e-03	
768	5.150000e+00	5.615997e-03	
769	5.200000e+00	5.619205e-03	
770	5.250000e+00	5.622528e-03	
771	5.300000e+00	5.625986e-03	
772	5.350000e+00	5.629601e-03	
773	5.400000e+00	5.633394e-03	
774	5.450000e+00	5.637391e-03	
775	5.500000e+00	5.641619e-03	
776	5.550000e+00	5.646105e-03	
777	5.600000e+00	5.650881e-03	
778	5.650000e+00	5.655977e-03	
779	5.700000e+00	5.661430e-03	
780	5.750000e+00	5.667274e-03	
781	5.800000e+00	5.673549e-03	
782	5.850000e+00	5.680294e-03	
783	5.900000e+00	5.687552e-03	
784	5.950000e+00	5.695368e-03	
785	6.000000e+00	5.703788e-03	
786	6.050000e+00	5.712861e-03	
787	6.100000e+00	5.722637e-03	
788	6.150000e+00	5.733171e-03	
789	6.200000e+00	5.744516e-03	
790	6.250000e+00	5.756730e-03	
791	6.300000e+00	5.769872e-03	
792	6.350000e+00	5.784003e-03	
793	6.400000e+00	5.799187e-03	
794	6.450000e+00	5.815488e-03	
795	6.500000e+00	5.832974e-03	
796	6.550000e+00	5.851713e-03	
797	6.600000e+00	5.871776e-03	
Note: No ".plot", ".print", or ".fourier" lines; no simulations run
