
Note: Compatibility modes selected: hs

Warning: m=xx on .subckt line will override multiplier m hierarchy!


Circuit: ***************************

Doing analysis at TEMP = 25.000000 and TNOM = 25.000000


No. of Data Rows : 798
                          ***************************
                          DC transfer characteristic  Mon Jan  9 13:57:40  2023
--------------------------------------------------------------------------------
Index   v-sweep         -i(vds)         
--------------------------------------------------------------------------------
0	0.000000e+00	-0.000000e+00	
1	5.000000e-02	1.056822e-07	
2	1.000000e-01	1.920836e-07	
3	1.500000e-01	2.594149e-07	
4	2.000000e-01	3.081011e-07	
5	2.500000e-01	3.392408e-07	
6	3.000000e-01	3.557485e-07	
7	3.500000e-01	3.629966e-07	
8	4.000000e-01	3.661098e-07	
9	4.500000e-01	3.676760e-07	
10	5.000000e-01	3.686322e-07	
11	5.500000e-01	3.693116e-07	
12	6.000000e-01	3.698470e-07	
13	6.500000e-01	3.702988e-07	
14	7.000000e-01	3.706974e-07	
15	7.500000e-01	3.710601e-07	
16	8.000000e-01	3.713971e-07	
17	8.500000e-01	3.717149e-07	
18	9.000000e-01	3.720179e-07	
19	9.500000e-01	3.723092e-07	
20	1.000000e+00	3.725910e-07	
21	1.050000e+00	3.728649e-07	
22	1.100000e+00	3.731322e-07	
23	1.150000e+00	3.733938e-07	
24	1.200000e+00	3.736506e-07	
25	1.250000e+00	3.739032e-07	
26	1.300000e+00	3.741520e-07	
27	1.350000e+00	3.743976e-07	
28	1.400000e+00	3.746402e-07	
29	1.450000e+00	3.748801e-07	
30	1.500000e+00	3.751177e-07	
31	1.550000e+00	3.753531e-07	
32	1.600000e+00	3.755866e-07	
33	1.650000e+00	3.758182e-07	
34	1.700000e+00	3.760482e-07	
35	1.750000e+00	3.762766e-07	
36	1.800000e+00	3.765036e-07	
37	1.850000e+00	3.767294e-07	
38	1.900000e+00	3.769538e-07	
39	1.950000e+00	3.771772e-07	
40	2.000000e+00	3.773995e-07	
41	2.050000e+00	3.776208e-07	
42	2.100000e+00	3.778411e-07	
43	2.150000e+00	3.780606e-07	
44	2.200000e+00	3.782792e-07	
45	2.250000e+00	3.784971e-07	
46	2.300000e+00	3.787143e-07	
47	2.350000e+00	3.789307e-07	
48	2.400000e+00	3.791466e-07	
49	2.450000e+00	3.793619e-07	
50	2.500000e+00	3.795767e-07	
51	2.550000e+00	3.797910e-07	
52	2.600000e+00	3.800050e-07	
53	2.650000e+00	3.802187e-07	
54	2.700000e+00	3.804322e-07	

Index   v-sweep         -i(vds)         
--------------------------------------------------------------------------------
55	2.750000e+00	3.806457e-07	
56	2.800000e+00	3.808592e-07	
57	2.850000e+00	3.810729e-07	
58	2.900000e+00	3.812871e-07	
59	2.950000e+00	3.815019e-07	
60	3.000000e+00	3.817176e-07	
61	3.050000e+00	3.819345e-07	
62	3.100000e+00	3.821529e-07	
63	3.150000e+00	3.823733e-07	
64	3.200000e+00	3.825962e-07	
65	3.250000e+00	3.828219e-07	
66	3.300000e+00	3.830512e-07	
67	3.350000e+00	3.832847e-07	
68	3.400000e+00	3.835231e-07	
69	3.450000e+00	3.837673e-07	
70	3.500000e+00	3.840182e-07	
71	3.550000e+00	3.842768e-07	
72	3.600000e+00	3.845443e-07	
73	3.650000e+00	3.848218e-07	
74	3.700000e+00	3.851106e-07	
75	3.750000e+00	3.854124e-07	
76	3.800000e+00	3.857285e-07	
77	3.850000e+00	3.860608e-07	
78	3.900000e+00	3.864111e-07	
79	3.950000e+00	3.867812e-07	
80	4.000000e+00	3.871734e-07	
81	4.050000e+00	3.875899e-07	
82	4.100000e+00	3.880330e-07	
83	4.150000e+00	3.885052e-07	
84	4.200000e+00	3.890093e-07	
85	4.250000e+00	3.895480e-07	
86	4.300000e+00	3.901243e-07	
87	4.350000e+00	3.907413e-07	
88	4.400000e+00	3.914023e-07	
89	4.450000e+00	3.921107e-07	
90	4.500000e+00	3.928700e-07	
91	4.550000e+00	3.936840e-07	
92	4.600000e+00	3.945566e-07	
93	4.650000e+00	3.954916e-07	
94	4.700000e+00	3.964934e-07	
95	4.750000e+00	3.975661e-07	
96	4.800000e+00	3.987143e-07	
97	4.850000e+00	3.999424e-07	
98	4.900000e+00	4.012553e-07	
99	4.950000e+00	4.026578e-07	
100	5.000000e+00	4.041548e-07	
101	5.050000e+00	4.057515e-07	
102	5.100000e+00	4.074532e-07	
103	5.150000e+00	4.092651e-07	
104	5.200000e+00	4.111928e-07	
105	5.250000e+00	4.132419e-07	
106	5.300000e+00	4.154180e-07	
107	5.350000e+00	4.177271e-07	
108	5.400000e+00	4.201750e-07	
109	5.450000e+00	4.227678e-07	
110	5.500000e+00	4.255116e-07	
111	5.550000e+00	4.284125e-07	
112	5.600000e+00	4.314770e-07	

Index   v-sweep         -i(vds)         
--------------------------------------------------------------------------------
113	5.650000e+00	4.347113e-07	
114	5.700000e+00	4.381220e-07	
115	5.750000e+00	4.417155e-07	
116	5.800000e+00	4.454986e-07	
117	5.850000e+00	4.494778e-07	
118	5.900000e+00	4.536600e-07	
119	5.950000e+00	4.580518e-07	
120	6.000000e+00	4.626602e-07	
121	6.050000e+00	4.674920e-07	
122	6.100000e+00	4.725542e-07	
123	6.150000e+00	4.778538e-07	
124	6.200000e+00	4.833978e-07	
125	6.250000e+00	4.891932e-07	
126	6.300000e+00	4.952472e-07	
127	6.350000e+00	5.015668e-07	
128	6.400000e+00	5.081592e-07	
129	6.450000e+00	5.150314e-07	
130	6.500000e+00	5.221908e-07	
131	6.550000e+00	5.296444e-07	
132	6.600000e+00	5.373993e-07	
133	0.000000e+00	-0.000000e+00	
134	5.000000e-02	4.029222e-07	
135	1.000000e-01	7.854046e-07	
136	1.500000e-01	1.147553e-06	
137	2.000000e-01	1.489474e-06	
138	2.500000e-01	1.811272e-06	
139	3.000000e-01	2.113053e-06	
140	3.500000e-01	2.394920e-06	
141	4.000000e-01	2.656981e-06	
142	4.500000e-01	2.899340e-06	
143	5.000000e-01	3.122106e-06	
144	5.500000e-01	3.325389e-06	
145	6.000000e-01	3.509305e-06	
146	6.500000e-01	3.673978e-06	
147	7.000000e-01	3.819549e-06	
148	7.500000e-01	3.946193e-06	
149	8.000000e-01	4.054142e-06	
150	8.500000e-01	4.143749e-06	
151	9.000000e-01	4.215605e-06	
152	9.500000e-01	4.270748e-06	
153	1.000000e+00	4.310954e-06	
154	1.050000e+00	4.338887e-06	
155	1.100000e+00	4.357755e-06	
156	1.150000e+00	4.370560e-06	
157	1.200000e+00	4.379542e-06	
158	1.250000e+00	4.386148e-06	
159	1.300000e+00	4.391245e-06	
160	1.350000e+00	4.395351e-06	
161	1.400000e+00	4.398779e-06	
162	1.450000e+00	4.401725e-06	
163	1.500000e+00	4.404316e-06	
164	1.550000e+00	4.406638e-06	
165	1.600000e+00	4.408751e-06	
166	1.650000e+00	4.410698e-06	
167	1.700000e+00	4.412509e-06	
168	1.750000e+00	4.414208e-06	
169	1.800000e+00	4.415814e-06	
170	1.850000e+00	4.417341e-06	

Index   v-sweep         -i(vds)         
--------------------------------------------------------------------------------
171	1.900000e+00	4.418800e-06	
172	1.950000e+00	4.420200e-06	
173	2.000000e+00	4.421549e-06	
174	2.050000e+00	4.422852e-06	
175	2.100000e+00	4.424115e-06	
176	2.150000e+00	4.425342e-06	
177	2.200000e+00	4.426537e-06	
178	2.250000e+00	4.427702e-06	
179	2.300000e+00	4.428842e-06	
180	2.350000e+00	4.429957e-06	
181	2.400000e+00	4.431050e-06	
182	2.450000e+00	4.432123e-06	
183	2.500000e+00	4.433178e-06	
184	2.550000e+00	4.434215e-06	
185	2.600000e+00	4.435236e-06	
186	2.650000e+00	4.436243e-06	
187	2.700000e+00	4.437235e-06	
188	2.750000e+00	4.438215e-06	
189	2.800000e+00	4.439183e-06	
190	2.850000e+00	4.440140e-06	
191	2.900000e+00	4.441086e-06	
192	2.950000e+00	4.442022e-06	
193	3.000000e+00	4.442949e-06	
194	3.050000e+00	4.443868e-06	
195	3.100000e+00	4.444778e-06	
196	3.150000e+00	4.445682e-06	
197	3.200000e+00	4.446578e-06	
198	3.250000e+00	4.447469e-06	
199	3.300000e+00	4.448355e-06	
200	3.350000e+00	4.449236e-06	
201	3.400000e+00	4.450115e-06	
202	3.450000e+00	4.450992e-06	
203	3.500000e+00	4.451868e-06	
204	3.550000e+00	4.452746e-06	
205	3.600000e+00	4.453628e-06	
206	3.650000e+00	4.454516e-06	
207	3.700000e+00	4.455412e-06	
208	3.750000e+00	4.456320e-06	
209	3.800000e+00	4.457244e-06	
210	3.850000e+00	4.458188e-06	
211	3.900000e+00	4.459157e-06	
212	3.950000e+00	4.460157e-06	
213	4.000000e+00	4.461194e-06	
214	4.050000e+00	4.462275e-06	
215	4.100000e+00	4.463409e-06	
216	4.150000e+00	4.464604e-06	
217	4.200000e+00	4.465872e-06	
218	4.250000e+00	4.467221e-06	
219	4.300000e+00	4.468667e-06	
220	4.350000e+00	4.470220e-06	
221	4.400000e+00	4.471897e-06	
222	4.450000e+00	4.473713e-06	
223	4.500000e+00	4.475686e-06	
224	4.550000e+00	4.477835e-06	
225	4.600000e+00	4.480179e-06	
226	4.650000e+00	4.482741e-06	
227	4.700000e+00	4.485543e-06	
228	4.750000e+00	4.488611e-06	

Index   v-sweep         -i(vds)         
--------------------------------------------------------------------------------
229	4.800000e+00	4.491970e-06	
230	4.850000e+00	4.495650e-06	
231	4.900000e+00	4.499678e-06	
232	4.950000e+00	4.504088e-06	
233	5.000000e+00	4.508911e-06	
234	5.050000e+00	4.514182e-06	
235	5.100000e+00	4.519937e-06	
236	5.150000e+00	4.526215e-06	
237	5.200000e+00	4.533056e-06	
238	5.250000e+00	4.540499e-06	
239	5.300000e+00	4.548589e-06	
240	5.350000e+00	4.557369e-06	
241	5.400000e+00	4.566887e-06	
242	5.450000e+00	4.577190e-06	
243	5.500000e+00	4.588327e-06	
244	5.550000e+00	4.600350e-06	
245	5.600000e+00	4.613311e-06	
246	5.650000e+00	4.627263e-06	
247	5.700000e+00	4.642264e-06	
248	5.750000e+00	4.658368e-06	
249	5.800000e+00	4.675636e-06	
250	5.850000e+00	4.694126e-06	
251	5.900000e+00	4.713899e-06	
252	5.950000e+00	4.735018e-06	
253	6.000000e+00	4.757546e-06	
254	6.050000e+00	4.781548e-06	
255	6.100000e+00	4.807090e-06	
256	6.150000e+00	4.834238e-06	
257	6.200000e+00	4.863060e-06	
258	6.250000e+00	4.893626e-06	
259	6.300000e+00	4.926004e-06	
260	6.350000e+00	4.960267e-06	
261	6.400000e+00	4.996485e-06	
262	6.450000e+00	5.034730e-06	
263	6.500000e+00	5.075077e-06	
264	6.550000e+00	5.117598e-06	
265	6.600000e+00	5.162367e-06	
266	0.000000e+00	-0.000000e+00	
267	5.000000e-02	6.555079e-07	
268	1.000000e-01	1.291340e-06	
269	1.500000e-01	1.907598e-06	
270	2.000000e-01	2.504385e-06	
271	2.500000e-01	3.081803e-06	
272	3.000000e-01	3.639952e-06	
273	3.500000e-01	4.178933e-06	
274	4.000000e-01	4.698845e-06	
275	4.500000e-01	5.199786e-06	
276	5.000000e-01	5.681856e-06	
277	5.500000e-01	6.145151e-06	
278	6.000000e-01	6.589767e-06	
279	6.500000e-01	7.015802e-06	
280	7.000000e-01	7.423351e-06	
281	7.500000e-01	7.812508e-06	
282	8.000000e-01	8.183368e-06	
283	8.500000e-01	8.536023e-06	
284	9.000000e-01	8.870568e-06	
285	9.500000e-01	9.187095e-06	
286	1.000000e+00	9.485694e-06	

Index   v-sweep         -i(vds)         
--------------------------------------------------------------------------------
287	1.050000e+00	9.766459e-06	
288	1.100000e+00	1.002948e-05	
289	1.150000e+00	1.027485e-05	
290	1.200000e+00	1.050266e-05	
291	1.250000e+00	1.071300e-05	
292	1.300000e+00	1.090597e-05	
293	1.350000e+00	1.108166e-05	
294	1.400000e+00	1.124021e-05	
295	1.450000e+00	1.138173e-05	
296	1.500000e+00	1.150640e-05	
297	1.550000e+00	1.161446e-05	
298	1.600000e+00	1.170632e-05	
299	1.650000e+00	1.178259e-05	
300	1.700000e+00	1.184427e-05	
301	1.750000e+00	1.189289e-05	
302	1.800000e+00	1.193042e-05	
303	1.850000e+00	1.195910e-05	
304	1.900000e+00	1.198109e-05	
305	1.950000e+00	1.199819e-05	
306	2.000000e+00	1.201178e-05	
307	2.050000e+00	1.202284e-05	
308	2.100000e+00	1.203206e-05	
309	2.150000e+00	1.203990e-05	
310	2.200000e+00	1.204670e-05	
311	2.250000e+00	1.205270e-05	
312	2.300000e+00	1.205806e-05	
313	2.350000e+00	1.206292e-05	
314	2.400000e+00	1.206736e-05	
315	2.450000e+00	1.207146e-05	
316	2.500000e+00	1.207527e-05	
317	2.550000e+00	1.207884e-05	
318	2.600000e+00	1.208220e-05	
319	2.650000e+00	1.208539e-05	
320	2.700000e+00	1.208841e-05	
321	2.750000e+00	1.209130e-05	
322	2.800000e+00	1.209406e-05	
323	2.850000e+00	1.209672e-05	
324	2.900000e+00	1.209928e-05	
325	2.950000e+00	1.210176e-05	
326	3.000000e+00	1.210415e-05	
327	3.050000e+00	1.210647e-05	
328	3.100000e+00	1.210873e-05	
329	3.150000e+00	1.211093e-05	
330	3.200000e+00	1.211307e-05	
331	3.250000e+00	1.211517e-05	
332	3.300000e+00	1.211721e-05	
333	3.350000e+00	1.211922e-05	
334	3.400000e+00	1.212118e-05	
335	3.450000e+00	1.212310e-05	
336	3.500000e+00	1.212500e-05	
337	3.550000e+00	1.212685e-05	
338	3.600000e+00	1.212868e-05	
339	3.650000e+00	1.213048e-05	
340	3.700000e+00	1.213226e-05	
341	3.750000e+00	1.213401e-05	
342	3.800000e+00	1.213573e-05	
343	3.850000e+00	1.213744e-05	
344	3.900000e+00	1.213912e-05	

Index   v-sweep         -i(vds)         
--------------------------------------------------------------------------------
345	3.950000e+00	1.214079e-05	
346	4.000000e+00	1.214244e-05	
347	4.050000e+00	1.214408e-05	
348	4.100000e+00	1.214571e-05	
349	4.150000e+00	1.214734e-05	
350	4.200000e+00	1.214896e-05	
351	4.250000e+00	1.215058e-05	
352	4.300000e+00	1.215221e-05	
353	4.350000e+00	1.215385e-05	
354	4.400000e+00	1.215551e-05	
355	4.450000e+00	1.215720e-05	
356	4.500000e+00	1.215892e-05	
357	4.550000e+00	1.216070e-05	
358	4.600000e+00	1.216253e-05	
359	4.650000e+00	1.216444e-05	
360	4.700000e+00	1.216645e-05	
361	4.750000e+00	1.216856e-05	
362	4.800000e+00	1.217080e-05	
363	4.850000e+00	1.217320e-05	
364	4.900000e+00	1.217578e-05	
365	4.950000e+00	1.217857e-05	
366	5.000000e+00	1.218160e-05	
367	5.050000e+00	1.218490e-05	
368	5.100000e+00	1.218852e-05	
369	5.150000e+00	1.219249e-05	
370	5.200000e+00	1.219687e-05	
371	5.250000e+00	1.220169e-05	
372	5.300000e+00	1.220702e-05	
373	5.350000e+00	1.221291e-05	
374	5.400000e+00	1.221942e-05	
375	5.450000e+00	1.222661e-05	
376	5.500000e+00	1.223456e-05	
377	5.550000e+00	1.224334e-05	
378	5.600000e+00	1.225302e-05	
379	5.650000e+00	1.226370e-05	
380	5.700000e+00	1.227545e-05	
381	5.750000e+00	1.228837e-05	
382	5.800000e+00	1.230255e-05	
383	5.850000e+00	1.231809e-05	
384	5.900000e+00	1.233511e-05	
385	5.950000e+00	1.235371e-05	
386	6.000000e+00	1.237399e-05	
387	6.050000e+00	1.239609e-05	
388	6.100000e+00	1.242013e-05	
389	6.150000e+00	1.244623e-05	
390	6.200000e+00	1.247452e-05	
391	6.250000e+00	1.250514e-05	
392	6.300000e+00	1.253824e-05	
393	6.350000e+00	1.257395e-05	
394	6.400000e+00	1.261242e-05	
395	6.450000e+00	1.265381e-05	
396	6.500000e+00	1.269826e-05	
397	6.550000e+00	1.274595e-05	
398	6.600000e+00	1.279704e-05	
399	0.000000e+00	-0.000000e+00	
400	5.000000e-02	8.588142e-07	
401	1.000000e-01	1.699229e-06	
402	1.500000e-01	2.521337e-06	

Index   v-sweep         -i(vds)         
--------------------------------------------------------------------------------
403	2.000000e-01	3.325230e-06	
404	2.500000e-01	4.110999e-06	
405	3.000000e-01	4.878734e-06	
406	3.500000e-01	5.628525e-06	
407	4.000000e-01	6.360461e-06	
408	4.500000e-01	7.074632e-06	
409	5.000000e-01	7.771125e-06	
410	5.500000e-01	8.450027e-06	
411	6.000000e-01	9.111425e-06	
412	6.500000e-01	9.755406e-06	
413	7.000000e-01	1.038206e-05	
414	7.500000e-01	1.099146e-05	
415	8.000000e-01	1.158370e-05	
416	8.500000e-01	1.215886e-05	
417	9.000000e-01	1.271703e-05	
418	9.500000e-01	1.325829e-05	
419	1.000000e+00	1.378271e-05	
420	1.050000e+00	1.429039e-05	
421	1.100000e+00	1.478140e-05	
422	1.150000e+00	1.525582e-05	
423	1.200000e+00	1.571374e-05	
424	1.250000e+00	1.615523e-05	
425	1.300000e+00	1.658037e-05	
426	1.350000e+00	1.698923e-05	
427	1.400000e+00	1.738190e-05	
428	1.450000e+00	1.775845e-05	
429	1.500000e+00	1.811896e-05	
430	1.550000e+00	1.846350e-05	
431	1.600000e+00	1.879215e-05	
432	1.650000e+00	1.910497e-05	
433	1.700000e+00	1.940204e-05	
434	1.750000e+00	1.968343e-05	
435	1.800000e+00	1.994921e-05	
436	1.850000e+00	2.019943e-05	
437	1.900000e+00	2.043418e-05	
438	1.950000e+00	2.065351e-05	
439	2.000000e+00	2.085748e-05	
440	2.050000e+00	2.104614e-05	
441	2.100000e+00	2.121957e-05	
442	2.150000e+00	2.137783e-05	
443	2.200000e+00	2.152099e-05	
444	2.250000e+00	2.164916e-05	
445	2.300000e+00	2.176251e-05	
446	2.350000e+00	2.186132e-05	
447	2.400000e+00	2.194605e-05	
448	2.450000e+00	2.201746e-05	
449	2.500000e+00	2.207665e-05	
450	2.550000e+00	2.212506e-05	
451	2.600000e+00	2.216437e-05	
452	2.650000e+00	2.219627e-05	
453	2.700000e+00	2.222232e-05	
454	2.750000e+00	2.224384e-05	
455	2.800000e+00	2.226185e-05	
456	2.850000e+00	2.227717e-05	
457	2.900000e+00	2.229037e-05	
458	2.950000e+00	2.230191e-05	
459	3.000000e+00	2.231213e-05	
460	3.050000e+00	2.232129e-05	

Index   v-sweep         -i(vds)         
--------------------------------------------------------------------------------
461	3.100000e+00	2.232956e-05	
462	3.150000e+00	2.233712e-05	
463	3.200000e+00	2.234406e-05	
464	3.250000e+00	2.235050e-05	
465	3.300000e+00	2.235649e-05	
466	3.350000e+00	2.236211e-05	
467	3.400000e+00	2.236740e-05	
468	3.450000e+00	2.237240e-05	
469	3.500000e+00	2.237716e-05	
470	3.550000e+00	2.238168e-05	
471	3.600000e+00	2.238601e-05	
472	3.650000e+00	2.239016e-05	
473	3.700000e+00	2.239415e-05	
474	3.750000e+00	2.239799e-05	
475	3.800000e+00	2.240170e-05	
476	3.850000e+00	2.240529e-05	
477	3.900000e+00	2.240877e-05	
478	3.950000e+00	2.241214e-05	
479	4.000000e+00	2.241543e-05	
480	4.050000e+00	2.241862e-05	
481	4.100000e+00	2.242174e-05	
482	4.150000e+00	2.242478e-05	
483	4.200000e+00	2.242776e-05	
484	4.250000e+00	2.243067e-05	
485	4.300000e+00	2.243351e-05	
486	4.350000e+00	2.243631e-05	
487	4.400000e+00	2.243905e-05	
488	4.450000e+00	2.244174e-05	
489	4.500000e+00	2.244439e-05	
490	4.550000e+00	2.244699e-05	
491	4.600000e+00	2.244956e-05	
492	4.650000e+00	2.245209e-05	
493	4.700000e+00	2.245459e-05	
494	4.750000e+00	2.245706e-05	
495	4.800000e+00	2.245950e-05	
496	4.850000e+00	2.246194e-05	
497	4.900000e+00	2.246436e-05	
498	4.950000e+00	2.246677e-05	
499	5.000000e+00	2.246919e-05	
500	5.050000e+00	2.247162e-05	
501	5.100000e+00	2.247408e-05	
502	5.150000e+00	2.247658e-05	
503	5.200000e+00	2.247914e-05	
504	5.250000e+00	2.248176e-05	
505	5.300000e+00	2.248448e-05	
506	5.350000e+00	2.248732e-05	
507	5.400000e+00	2.249030e-05	
508	5.450000e+00	2.249345e-05	
509	5.500000e+00	2.249682e-05	
510	5.550000e+00	2.250044e-05	
511	5.600000e+00	2.250435e-05	
512	5.650000e+00	2.250860e-05	
513	5.700000e+00	2.251325e-05	
514	5.750000e+00	2.251835e-05	
515	5.800000e+00	2.252398e-05	
516	5.850000e+00	2.253020e-05	
517	5.900000e+00	2.253709e-05	
518	5.950000e+00	2.254474e-05	

Index   v-sweep         -i(vds)         
--------------------------------------------------------------------------------
519	6.000000e+00	2.255323e-05	
520	6.050000e+00	2.256268e-05	
521	6.100000e+00	2.257317e-05	
522	6.150000e+00	2.258483e-05	
523	6.200000e+00	2.259778e-05	
524	6.250000e+00	2.261215e-05	
525	6.300000e+00	2.262807e-05	
526	6.350000e+00	2.264569e-05	
527	6.400000e+00	2.266516e-05	
528	6.450000e+00	2.268665e-05	
529	6.500000e+00	2.271033e-05	
530	6.550000e+00	2.273637e-05	
531	6.600000e+00	2.276496e-05	
532	0.000000e+00	-0.000000e+00	
533	5.000000e-02	1.014119e-06	
534	1.000000e-01	2.011390e-06	
535	1.500000e-01	2.991892e-06	
536	2.000000e-01	3.955705e-06	
537	2.500000e-01	4.902904e-06	
538	3.000000e-01	5.833569e-06	
539	3.500000e-01	6.747775e-06	
540	4.000000e-01	7.645600e-06	
541	4.500000e-01	8.527118e-06	
542	5.000000e-01	9.392406e-06	
543	5.500000e-01	1.024154e-05	
544	6.000000e-01	1.107459e-05	
545	6.500000e-01	1.189163e-05	
546	7.000000e-01	1.269274e-05	
547	7.500000e-01	1.347799e-05	
548	8.000000e-01	1.424745e-05	
549	8.500000e-01	1.500120e-05	
550	9.000000e-01	1.573930e-05	
551	9.500000e-01	1.646183e-05	
552	1.000000e+00	1.716885e-05	
553	1.050000e+00	1.786045e-05	
554	1.100000e+00	1.853668e-05	
555	1.150000e+00	1.919763e-05	
556	1.200000e+00	1.984334e-05	
557	1.250000e+00	2.047391e-05	
558	1.300000e+00	2.108938e-05	
559	1.350000e+00	2.168984e-05	
560	1.400000e+00	2.227535e-05	
561	1.450000e+00	2.284597e-05	
562	1.500000e+00	2.340178e-05	
563	1.550000e+00	2.394283e-05	
564	1.600000e+00	2.446919e-05	
565	1.650000e+00	2.498094e-05	
566	1.700000e+00	2.547812e-05	
567	1.750000e+00	2.596081e-05	
568	1.800000e+00	2.642907e-05	
569	1.850000e+00	2.688296e-05	
570	1.900000e+00	2.732255e-05	
571	1.950000e+00	2.774789e-05	
572	2.000000e+00	2.815905e-05	
573	2.050000e+00	2.855608e-05	
574	2.100000e+00	2.893906e-05	
575	2.150000e+00	2.930802e-05	
576	2.200000e+00	2.966304e-05	

Index   v-sweep         -i(vds)         
--------------------------------------------------------------------------------
577	2.250000e+00	3.000417e-05	
578	2.300000e+00	3.033146e-05	
579	2.350000e+00	3.064497e-05	
580	2.400000e+00	3.094474e-05	
581	2.450000e+00	3.123084e-05	
582	2.500000e+00	3.150329e-05	
583	2.550000e+00	3.176216e-05	
584	2.600000e+00	3.200748e-05	
585	2.650000e+00	3.223929e-05	
586	2.700000e+00	3.245761e-05	
587	2.750000e+00	3.266248e-05	
588	2.800000e+00	3.285390e-05	
589	2.850000e+00	3.303191e-05	
590	2.900000e+00	3.319649e-05	
591	2.950000e+00	3.334767e-05	
592	3.000000e+00	3.348546e-05	
593	3.050000e+00	3.360991e-05	
594	3.100000e+00	3.372114e-05	
595	3.150000e+00	3.381938e-05	
596	3.200000e+00	3.390504e-05	
597	3.250000e+00	3.397878e-05	
598	3.300000e+00	3.404156e-05	
599	3.350000e+00	3.409456e-05	
600	3.400000e+00	3.413912e-05	
601	3.450000e+00	3.417660e-05	
602	3.500000e+00	3.420826e-05	
603	3.550000e+00	3.423521e-05	
604	3.600000e+00	3.425836e-05	
605	3.650000e+00	3.427845e-05	
606	3.700000e+00	3.429608e-05	
607	3.750000e+00	3.431169e-05	
608	3.800000e+00	3.432566e-05	
609	3.850000e+00	3.433826e-05	
610	3.900000e+00	3.434973e-05	
611	3.950000e+00	3.436023e-05	
612	4.000000e+00	3.436991e-05	
613	4.050000e+00	3.437890e-05	
614	4.100000e+00	3.438728e-05	
615	4.150000e+00	3.439514e-05	
616	4.200000e+00	3.440254e-05	
617	4.250000e+00	3.440953e-05	
618	4.300000e+00	3.441615e-05	
619	4.350000e+00	3.442246e-05	
620	4.400000e+00	3.442848e-05	
621	4.450000e+00	3.443425e-05	
622	4.500000e+00	3.443978e-05	
623	4.550000e+00	3.444509e-05	
624	4.600000e+00	3.445022e-05	
625	4.650000e+00	3.445516e-05	
626	4.700000e+00	3.445995e-05	
627	4.750000e+00	3.446458e-05	
628	4.800000e+00	3.446908e-05	
629	4.850000e+00	3.447345e-05	
630	4.900000e+00	3.447770e-05	
631	4.950000e+00	3.448184e-05	
632	5.000000e+00	3.448588e-05	
633	5.050000e+00	3.448982e-05	
634	5.100000e+00	3.449368e-05	

Index   v-sweep         -i(vds)         
--------------------------------------------------------------------------------
635	5.150000e+00	3.449745e-05	
636	5.200000e+00	3.450115e-05	
637	5.250000e+00	3.450477e-05	
638	5.300000e+00	3.450832e-05	
639	5.350000e+00	3.451182e-05	
640	5.400000e+00	3.451525e-05	
641	5.450000e+00	3.451864e-05	
642	5.500000e+00	3.452198e-05	
643	5.550000e+00	3.452528e-05	
644	5.600000e+00	3.452856e-05	
645	5.650000e+00	3.453181e-05	
646	5.700000e+00	3.453505e-05	
647	5.750000e+00	3.453830e-05	
648	5.800000e+00	3.454155e-05	
649	5.850000e+00	3.454485e-05	
650	5.900000e+00	3.454819e-05	
651	5.950000e+00	3.455161e-05	
652	6.000000e+00	3.455513e-05	
653	6.050000e+00	3.455878e-05	
654	6.100000e+00	3.456259e-05	
655	6.150000e+00	3.456662e-05	
656	6.200000e+00	3.457089e-05	
657	6.250000e+00	3.457547e-05	
658	6.300000e+00	3.458041e-05	
659	6.350000e+00	3.458577e-05	
660	6.400000e+00	3.459163e-05	
661	6.450000e+00	3.459806e-05	
662	6.500000e+00	3.460517e-05	
663	6.550000e+00	3.461303e-05	
664	6.600000e+00	3.462176e-05	
665	0.000000e+00	-0.000000e+00	
666	5.000000e-02	1.126676e-06	
667	1.000000e-01	2.238167e-06	
668	1.500000e-01	3.334537e-06	
669	2.000000e-01	4.415851e-06	
670	2.500000e-01	5.482175e-06	
671	3.000000e-01	6.533571e-06	
672	3.500000e-01	7.570104e-06	
673	4.000000e-01	8.591838e-06	
674	4.500000e-01	9.598834e-06	
675	5.000000e-01	1.059116e-05	
676	5.500000e-01	1.156887e-05	
677	6.000000e-01	1.253202e-05	
678	6.500000e-01	1.348070e-05	
679	7.000000e-01	1.441494e-05	
680	7.500000e-01	1.533482e-05	
681	8.000000e-01	1.624039e-05	
682	8.500000e-01	1.713171e-05	
683	9.000000e-01	1.800885e-05	
684	9.500000e-01	1.887186e-05	
685	1.000000e+00	1.972081e-05	
686	1.050000e+00	2.055574e-05	
687	1.100000e+00	2.137673e-05	
688	1.150000e+00	2.218382e-05	
689	1.200000e+00	2.297708e-05	
690	1.250000e+00	2.375657e-05	
691	1.300000e+00	2.452233e-05	
692	1.350000e+00	2.527443e-05	

Index   v-sweep         -i(vds)         
--------------------------------------------------------------------------------
693	1.400000e+00	2.601292e-05	
694	1.450000e+00	2.673787e-05	
695	1.500000e+00	2.744932e-05	
696	1.550000e+00	2.814733e-05	
697	1.600000e+00	2.883196e-05	
698	1.650000e+00	2.950326e-05	
699	1.700000e+00	3.016128e-05	
700	1.750000e+00	3.080609e-05	
701	1.800000e+00	3.143773e-05	
702	1.850000e+00	3.205625e-05	
703	1.900000e+00	3.266172e-05	
704	1.950000e+00	3.325418e-05	
705	2.000000e+00	3.383369e-05	
706	2.050000e+00	3.440030e-05	
707	2.100000e+00	3.495405e-05	
708	2.150000e+00	3.549501e-05	
709	2.200000e+00	3.602322e-05	
710	2.250000e+00	3.653874e-05	
711	2.300000e+00	3.704161e-05	
712	2.350000e+00	3.753188e-05	
713	2.400000e+00	3.800961e-05	
714	2.450000e+00	3.847484e-05	
715	2.500000e+00	3.892762e-05	
716	2.550000e+00	3.936800e-05	
717	2.600000e+00	3.979603e-05	
718	2.650000e+00	4.021175e-05	
719	2.700000e+00	4.061522e-05	
720	2.750000e+00	4.100647e-05	
721	2.800000e+00	4.138555e-05	
722	2.850000e+00	4.175251e-05	
723	2.900000e+00	4.210739e-05	
724	2.950000e+00	4.245023e-05	
725	3.000000e+00	4.278107e-05	
726	3.050000e+00	4.309995e-05	
727	3.100000e+00	4.340691e-05	
728	3.150000e+00	4.370198e-05	
729	3.200000e+00	4.398520e-05	
730	3.250000e+00	4.425659e-05	
731	3.300000e+00	4.451619e-05	
732	3.350000e+00	4.476401e-05	
733	3.400000e+00	4.500007e-05	
734	3.450000e+00	4.522438e-05	
735	3.500000e+00	4.543694e-05	
736	3.550000e+00	4.563775e-05	
737	3.600000e+00	4.582679e-05	
738	3.650000e+00	4.600402e-05	
739	3.700000e+00	4.616942e-05	
740	3.750000e+00	4.632295e-05	
741	3.800000e+00	4.646454e-05	
742	3.850000e+00	4.659420e-05	
743	3.900000e+00	4.671192e-05	
744	3.950000e+00	4.681781e-05	
745	4.000000e+00	4.691210e-05	
746	4.050000e+00	4.699523e-05	
747	4.100000e+00	4.706782e-05	
748	4.150000e+00	4.713074e-05	
749	4.200000e+00	4.718501e-05	
750	4.250000e+00	4.723173e-05	

Index   v-sweep         -i(vds)         
--------------------------------------------------------------------------------
751	4.300000e+00	4.727201e-05	
752	4.350000e+00	4.730687e-05	
753	4.400000e+00	4.733722e-05	
754	4.450000e+00	4.736383e-05	
755	4.500000e+00	4.738733e-05	
756	4.550000e+00	4.740826e-05	
757	4.600000e+00	4.742704e-05	
758	4.650000e+00	4.744402e-05	
759	4.700000e+00	4.745947e-05	
760	4.750000e+00	4.747363e-05	
761	4.800000e+00	4.748667e-05	
762	4.850000e+00	4.749876e-05	
763	4.900000e+00	4.751002e-05	
764	4.950000e+00	4.752055e-05	
765	5.000000e+00	4.753045e-05	
766	5.050000e+00	4.753978e-05	
767	5.100000e+00	4.754861e-05	
768	5.150000e+00	4.755699e-05	
769	5.200000e+00	4.756498e-05	
770	5.250000e+00	4.757260e-05	
771	5.300000e+00	4.757989e-05	
772	5.350000e+00	4.758689e-05	
773	5.400000e+00	4.759361e-05	
774	5.450000e+00	4.760009e-05	
775	5.500000e+00	4.760634e-05	
776	5.550000e+00	4.761239e-05	
777	5.600000e+00	4.761824e-05	
778	5.650000e+00	4.762391e-05	
779	5.700000e+00	4.762941e-05	
780	5.750000e+00	4.763476e-05	
781	5.800000e+00	4.763997e-05	
782	5.850000e+00	4.764505e-05	
783	5.900000e+00	4.765000e-05	
784	5.950000e+00	4.765484e-05	
785	6.000000e+00	4.765956e-05	
786	6.050000e+00	4.766419e-05	
787	6.100000e+00	4.766872e-05	
788	6.150000e+00	4.767316e-05	
789	6.200000e+00	4.767753e-05	
790	6.250000e+00	4.768182e-05	
791	6.300000e+00	4.768605e-05	
792	6.350000e+00	4.769023e-05	
793	6.400000e+00	4.769437e-05	
794	6.450000e+00	4.769847e-05	
795	6.500000e+00	4.770255e-05	
796	6.550000e+00	4.770664e-05	
797	6.600000e+00	4.771074e-05	
Note: No ".plot", ".print", or ".fourier" lines; no simulations run
