
Note: Compatibility modes selected: hs

Warning: m=xx on .subckt line will override multiplier m hierarchy!


Circuit: ***************************

Doing analysis at TEMP = 25.000000 and TNOM = 25.000000


No. of Data Rows : 798
                          ***************************
                          DC transfer characteristic  Mon Jan  9 13:57:40  2023
--------------------------------------------------------------------------------
Index   v-sweep         -i(vds)         
--------------------------------------------------------------------------------
0	0.000000e+00	-0.000000e+00	
1	5.000000e-02	3.145184e-07	
2	1.000000e-01	5.644249e-07	
3	1.500000e-01	7.506841e-07	
4	2.000000e-01	8.756275e-07	
5	2.500000e-01	9.459682e-07	
6	3.000000e-01	9.774677e-07	
7	3.500000e-01	9.900454e-07	
8	4.000000e-01	9.957156e-07	
9	4.500000e-01	9.988918e-07	
10	5.000000e-01	1.001029e-06	
11	5.500000e-01	1.002660e-06	
12	6.000000e-01	1.004011e-06	
13	6.500000e-01	1.005192e-06	
14	7.000000e-01	1.006259e-06	
15	7.500000e-01	1.007248e-06	
16	8.000000e-01	1.008178e-06	
17	8.500000e-01	1.009065e-06	
18	9.000000e-01	1.009917e-06	
19	9.500000e-01	1.010741e-06	
20	1.000000e+00	1.011543e-06	
21	1.050000e+00	1.012325e-06	
22	1.100000e+00	1.013091e-06	
23	1.150000e+00	1.013843e-06	
24	1.200000e+00	1.014584e-06	
25	1.250000e+00	1.015314e-06	
26	1.300000e+00	1.016034e-06	
27	1.350000e+00	1.016746e-06	
28	1.400000e+00	1.017451e-06	
29	1.450000e+00	1.018149e-06	
30	1.500000e+00	1.018841e-06	
31	1.550000e+00	1.019527e-06	
32	1.600000e+00	1.020209e-06	
33	1.650000e+00	1.020885e-06	
34	1.700000e+00	1.021558e-06	
35	1.750000e+00	1.022227e-06	
36	1.800000e+00	1.022891e-06	
37	1.850000e+00	1.023553e-06	
38	1.900000e+00	1.024211e-06	
39	1.950000e+00	1.024867e-06	
40	2.000000e+00	1.025519e-06	
41	2.050000e+00	1.026169e-06	
42	2.100000e+00	1.026817e-06	
43	2.150000e+00	1.027462e-06	
44	2.200000e+00	1.028105e-06	
45	2.250000e+00	1.028746e-06	
46	2.300000e+00	1.029386e-06	
47	2.350000e+00	1.030023e-06	
48	2.400000e+00	1.030659e-06	
49	2.450000e+00	1.031294e-06	
50	2.500000e+00	1.031927e-06	
51	2.550000e+00	1.032559e-06	
52	2.600000e+00	1.033191e-06	
53	2.650000e+00	1.033821e-06	
54	2.700000e+00	1.034452e-06	

Index   v-sweep         -i(vds)         
--------------------------------------------------------------------------------
55	2.750000e+00	1.035082e-06	
56	2.800000e+00	1.035713e-06	
57	2.850000e+00	1.036345e-06	
58	2.900000e+00	1.036978e-06	
59	2.950000e+00	1.037614e-06	
60	3.000000e+00	1.038253e-06	
61	3.050000e+00	1.038895e-06	
62	3.100000e+00	1.039542e-06	
63	3.150000e+00	1.040195e-06	
64	3.200000e+00	1.040856e-06	
65	3.250000e+00	1.041526e-06	
66	3.300000e+00	1.042206e-06	
67	3.350000e+00	1.042899e-06	
68	3.400000e+00	1.043607e-06	
69	3.450000e+00	1.044332e-06	
70	3.500000e+00	1.045077e-06	
71	3.550000e+00	1.045845e-06	
72	3.600000e+00	1.046639e-06	
73	3.650000e+00	1.047463e-06	
74	3.700000e+00	1.048320e-06	
75	3.750000e+00	1.049214e-06	
76	3.800000e+00	1.050151e-06	
77	3.850000e+00	1.051135e-06	
78	3.900000e+00	1.052171e-06	
79	3.950000e+00	1.053264e-06	
80	4.000000e+00	1.054421e-06	
81	4.050000e+00	1.055649e-06	
82	4.100000e+00	1.056953e-06	
83	4.150000e+00	1.058341e-06	
84	4.200000e+00	1.059820e-06	
85	4.250000e+00	1.061399e-06	
86	4.300000e+00	1.063085e-06	
87	4.350000e+00	1.064888e-06	
88	4.400000e+00	1.066816e-06	
89	4.450000e+00	1.068880e-06	
90	4.500000e+00	1.071088e-06	
91	4.550000e+00	1.073452e-06	
92	4.600000e+00	1.075982e-06	
93	4.650000e+00	1.078690e-06	
94	4.700000e+00	1.081587e-06	
95	4.750000e+00	1.084684e-06	
96	4.800000e+00	1.087995e-06	
97	4.850000e+00	1.091532e-06	
98	4.900000e+00	1.095309e-06	
99	4.950000e+00	1.099338e-06	
100	5.000000e+00	1.103633e-06	
101	5.050000e+00	1.108209e-06	
102	5.100000e+00	1.113081e-06	
103	5.150000e+00	1.118262e-06	
104	5.200000e+00	1.123769e-06	
105	5.250000e+00	1.129617e-06	
106	5.300000e+00	1.135821e-06	
107	5.350000e+00	1.142398e-06	
108	5.400000e+00	1.149364e-06	
109	5.450000e+00	1.156736e-06	
110	5.500000e+00	1.164530e-06	
111	5.550000e+00	1.172764e-06	
112	5.600000e+00	1.181455e-06	

Index   v-sweep         -i(vds)         
--------------------------------------------------------------------------------
113	5.650000e+00	1.190620e-06	
114	5.700000e+00	1.200278e-06	
115	5.750000e+00	1.210447e-06	
116	5.800000e+00	1.221144e-06	
117	5.850000e+00	1.232389e-06	
118	5.900000e+00	1.244199e-06	
119	5.950000e+00	1.256593e-06	
120	6.000000e+00	1.269591e-06	
121	6.050000e+00	1.283211e-06	
122	6.100000e+00	1.297472e-06	
123	6.150000e+00	1.312393e-06	
124	6.200000e+00	1.327994e-06	
125	6.250000e+00	1.344294e-06	
126	6.300000e+00	1.361313e-06	
127	6.350000e+00	1.379070e-06	
128	6.400000e+00	1.397584e-06	
129	6.450000e+00	1.416875e-06	
130	6.500000e+00	1.436964e-06	
131	6.550000e+00	1.457869e-06	
132	6.600000e+00	1.479610e-06	
133	0.000000e+00	-0.000000e+00	
134	5.000000e-02	1.311477e-06	
135	1.000000e-01	2.553652e-06	
136	1.500000e-01	3.726890e-06	
137	2.000000e-01	4.831554e-06	
138	2.500000e-01	5.868008e-06	
139	3.000000e-01	6.836614e-06	
140	3.500000e-01	7.737735e-06	
141	4.000000e-01	8.571736e-06	
142	4.500000e-01	9.338986e-06	
143	5.000000e-01	1.003986e-05	
144	5.500000e-01	1.067476e-05	
145	6.000000e-01	1.124409e-05	
146	6.500000e-01	1.174834e-05	
147	7.000000e-01	1.218804e-05	
148	7.500000e-01	1.256395e-05	
149	8.000000e-01	1.287714e-05	
150	8.500000e-01	1.312941e-05	
151	9.000000e-01	1.332392e-05	
152	9.500000e-01	1.346622e-05	
153	1.000000e+00	1.356497e-05	
154	1.050000e+00	1.363114e-05	
155	1.100000e+00	1.367541e-05	
156	1.150000e+00	1.370597e-05	
157	1.200000e+00	1.372811e-05	
158	1.250000e+00	1.374498e-05	
159	1.300000e+00	1.375845e-05	
160	1.350000e+00	1.376960e-05	
161	1.400000e+00	1.377914e-05	
162	1.450000e+00	1.378750e-05	
163	1.500000e+00	1.379497e-05	
164	1.550000e+00	1.380175e-05	
165	1.600000e+00	1.380798e-05	
166	1.650000e+00	1.381377e-05	
167	1.700000e+00	1.381921e-05	
168	1.750000e+00	1.382434e-05	
169	1.800000e+00	1.382921e-05	
170	1.850000e+00	1.383387e-05	

Index   v-sweep         -i(vds)         
--------------------------------------------------------------------------------
171	1.900000e+00	1.383834e-05	
172	1.950000e+00	1.384264e-05	
173	2.000000e+00	1.384679e-05	
174	2.050000e+00	1.385082e-05	
175	2.100000e+00	1.385473e-05	
176	2.150000e+00	1.385854e-05	
177	2.200000e+00	1.386226e-05	
178	2.250000e+00	1.386590e-05	
179	2.300000e+00	1.386945e-05	
180	2.350000e+00	1.387294e-05	
181	2.400000e+00	1.387636e-05	
182	2.450000e+00	1.387973e-05	
183	2.500000e+00	1.388304e-05	
184	2.550000e+00	1.388629e-05	
185	2.600000e+00	1.388951e-05	
186	2.650000e+00	1.389267e-05	
187	2.700000e+00	1.389580e-05	
188	2.750000e+00	1.389889e-05	
189	2.800000e+00	1.390195e-05	
190	2.850000e+00	1.390497e-05	
191	2.900000e+00	1.390796e-05	
192	2.950000e+00	1.391092e-05	
193	3.000000e+00	1.391385e-05	
194	3.050000e+00	1.391676e-05	
195	3.100000e+00	1.391964e-05	
196	3.150000e+00	1.392250e-05	
197	3.200000e+00	1.392535e-05	
198	3.250000e+00	1.392818e-05	
199	3.300000e+00	1.393099e-05	
200	3.350000e+00	1.393380e-05	
201	3.400000e+00	1.393660e-05	
202	3.450000e+00	1.393939e-05	
203	3.500000e+00	1.394219e-05	
204	3.550000e+00	1.394500e-05	
205	3.600000e+00	1.394783e-05	
206	3.650000e+00	1.395068e-05	
207	3.700000e+00	1.395357e-05	
208	3.750000e+00	1.395651e-05	
209	3.800000e+00	1.395950e-05	
210	3.850000e+00	1.396257e-05	
211	3.900000e+00	1.396574e-05	
212	3.950000e+00	1.396901e-05	
213	4.000000e+00	1.397242e-05	
214	4.050000e+00	1.397599e-05	
215	4.100000e+00	1.397975e-05	
216	4.150000e+00	1.398373e-05	
217	4.200000e+00	1.398796e-05	
218	4.250000e+00	1.399248e-05	
219	4.300000e+00	1.399733e-05	
220	4.350000e+00	1.400256e-05	
221	4.400000e+00	1.400821e-05	
222	4.450000e+00	1.401435e-05	
223	4.500000e+00	1.402102e-05	
224	4.550000e+00	1.402830e-05	
225	4.600000e+00	1.403624e-05	
226	4.650000e+00	1.404492e-05	
227	4.700000e+00	1.405442e-05	
228	4.750000e+00	1.406482e-05	

Index   v-sweep         -i(vds)         
--------------------------------------------------------------------------------
229	4.800000e+00	1.407620e-05	
230	4.850000e+00	1.408866e-05	
231	4.900000e+00	1.410229e-05	
232	4.950000e+00	1.411720e-05	
233	5.000000e+00	1.413349e-05	
234	5.050000e+00	1.415128e-05	
235	5.100000e+00	1.417068e-05	
236	5.150000e+00	1.419182e-05	
237	5.200000e+00	1.421483e-05	
238	5.250000e+00	1.423983e-05	
239	5.300000e+00	1.426697e-05	
240	5.350000e+00	1.429640e-05	
241	5.400000e+00	1.432825e-05	
242	5.450000e+00	1.436269e-05	
243	5.500000e+00	1.439987e-05	
244	5.550000e+00	1.443996e-05	
245	5.600000e+00	1.448312e-05	
246	5.650000e+00	1.452954e-05	
247	5.700000e+00	1.457937e-05	
248	5.750000e+00	1.463282e-05	
249	5.800000e+00	1.469006e-05	
250	5.850000e+00	1.475129e-05	
251	5.900000e+00	1.481669e-05	
252	5.950000e+00	1.488647e-05	
253	6.000000e+00	1.496083e-05	
254	6.050000e+00	1.503998e-05	
255	6.100000e+00	1.512411e-05	
256	6.150000e+00	1.521346e-05	
257	6.200000e+00	1.530822e-05	
258	6.250000e+00	1.540862e-05	
259	6.300000e+00	1.551488e-05	
260	6.350000e+00	1.562723e-05	
261	6.400000e+00	1.574588e-05	
262	6.450000e+00	1.587107e-05	
263	6.500000e+00	1.600304e-05	
264	6.550000e+00	1.614200e-05	
265	6.600000e+00	1.628820e-05	
266	0.000000e+00	-0.000000e+00	
267	5.000000e-02	2.153780e-06	
268	1.000000e-01	4.240995e-06	
269	1.500000e-01	6.262000e-06	
270	2.000000e-01	8.217146e-06	
271	2.500000e-01	1.010678e-05	
272	3.000000e-01	1.193126e-05	
273	3.500000e-01	1.369092e-05	
274	4.000000e-01	1.538611e-05	
275	4.500000e-01	1.701716e-05	
276	5.000000e-01	1.858441e-05	
277	5.500000e-01	2.008820e-05	
278	6.000000e-01	2.152886e-05	
279	6.500000e-01	2.290673e-05	
280	7.000000e-01	2.422212e-05	
281	7.500000e-01	2.547537e-05	
282	8.000000e-01	2.666679e-05	
283	8.500000e-01	2.779672e-05	
284	9.000000e-01	2.886547e-05	
285	9.500000e-01	2.987336e-05	
286	1.000000e+00	3.082071e-05	

Index   v-sweep         -i(vds)         
--------------------------------------------------------------------------------
287	1.050000e+00	3.170783e-05	
288	1.100000e+00	3.253503e-05	
289	1.150000e+00	3.330265e-05	
290	1.200000e+00	3.401099e-05	
291	1.250000e+00	3.466039e-05	
292	1.300000e+00	3.525121e-05	
293	1.350000e+00	3.578383e-05	
294	1.400000e+00	3.625871e-05	
295	1.450000e+00	3.667645e-05	
296	1.500000e+00	3.703789e-05	
297	1.550000e+00	3.734437e-05	
298	1.600000e+00	3.759804e-05	
299	1.650000e+00	3.780238e-05	
300	1.700000e+00	3.796260e-05	
301	1.750000e+00	3.808557e-05	
302	1.800000e+00	3.817901e-05	
303	1.850000e+00	3.825027e-05	
304	1.900000e+00	3.830547e-05	
305	1.950000e+00	3.834920e-05	
306	2.000000e+00	3.838470e-05	
307	2.050000e+00	3.841424e-05	
308	2.100000e+00	3.843935e-05	
309	2.150000e+00	3.846113e-05	
310	2.200000e+00	3.848033e-05	
311	2.250000e+00	3.849749e-05	
312	2.300000e+00	3.851303e-05	
313	2.350000e+00	3.852725e-05	
314	2.400000e+00	3.854037e-05	
315	2.450000e+00	3.855257e-05	
316	2.500000e+00	3.856400e-05	
317	2.550000e+00	3.857477e-05	
318	2.600000e+00	3.858496e-05	
319	2.650000e+00	3.859465e-05	
320	2.700000e+00	3.860390e-05	
321	2.750000e+00	3.861277e-05	
322	2.800000e+00	3.862128e-05	
323	2.850000e+00	3.862950e-05	
324	2.900000e+00	3.863743e-05	
325	2.950000e+00	3.864511e-05	
326	3.000000e+00	3.865256e-05	
327	3.050000e+00	3.865981e-05	
328	3.100000e+00	3.866687e-05	
329	3.150000e+00	3.867375e-05	
330	3.200000e+00	3.868047e-05	
331	3.250000e+00	3.868704e-05	
332	3.300000e+00	3.869348e-05	
333	3.350000e+00	3.869979e-05	
334	3.400000e+00	3.870598e-05	
335	3.450000e+00	3.871205e-05	
336	3.500000e+00	3.871803e-05	
337	3.550000e+00	3.872391e-05	
338	3.600000e+00	3.872969e-05	
339	3.650000e+00	3.873540e-05	
340	3.700000e+00	3.874102e-05	
341	3.750000e+00	3.874657e-05	
342	3.800000e+00	3.875206e-05	
343	3.850000e+00	3.875748e-05	
344	3.900000e+00	3.876285e-05	

Index   v-sweep         -i(vds)         
--------------------------------------------------------------------------------
345	3.950000e+00	3.876817e-05	
346	4.000000e+00	3.877344e-05	
347	4.050000e+00	3.877869e-05	
348	4.100000e+00	3.878392e-05	
349	4.150000e+00	3.878913e-05	
350	4.200000e+00	3.879435e-05	
351	4.250000e+00	3.879960e-05	
352	4.300000e+00	3.880488e-05	
353	4.350000e+00	3.881022e-05	
354	4.400000e+00	3.881566e-05	
355	4.450000e+00	3.882122e-05	
356	4.500000e+00	3.882693e-05	
357	4.550000e+00	3.883283e-05	
358	4.600000e+00	3.883898e-05	
359	4.650000e+00	3.884542e-05	
360	4.700000e+00	3.885221e-05	
361	4.750000e+00	3.885943e-05	
362	4.800000e+00	3.886713e-05	
363	4.850000e+00	3.887542e-05	
364	4.900000e+00	3.888437e-05	
365	4.950000e+00	3.889410e-05	
366	5.000000e+00	3.890471e-05	
367	5.050000e+00	3.891632e-05	
368	5.100000e+00	3.892907e-05	
369	5.150000e+00	3.894311e-05	
370	5.200000e+00	3.895858e-05	
371	5.250000e+00	3.897566e-05	
372	5.300000e+00	3.899454e-05	
373	5.350000e+00	3.901539e-05	
374	5.400000e+00	3.903844e-05	
375	5.450000e+00	3.906391e-05	
376	5.500000e+00	3.909202e-05	
377	5.550000e+00	3.912304e-05	
378	5.600000e+00	3.915722e-05	
379	5.650000e+00	3.919484e-05	
380	5.700000e+00	3.923619e-05	
381	5.750000e+00	3.928158e-05	
382	5.800000e+00	3.933134e-05	
383	5.850000e+00	3.938579e-05	
384	5.900000e+00	3.944530e-05	
385	5.950000e+00	3.951021e-05	
386	6.000000e+00	3.958092e-05	
387	6.050000e+00	3.965782e-05	
388	6.100000e+00	3.974130e-05	
389	6.150000e+00	3.983181e-05	
390	6.200000e+00	3.992976e-05	
391	6.250000e+00	4.003560e-05	
392	6.300000e+00	4.014981e-05	
393	6.350000e+00	4.027284e-05	
394	6.400000e+00	4.040520e-05	
395	6.450000e+00	4.054737e-05	
396	6.500000e+00	4.069987e-05	
397	6.550000e+00	4.086321e-05	
398	6.600000e+00	4.103794e-05	
399	0.000000e+00	-0.000000e+00	
400	5.000000e-02	2.825311e-06	
401	1.000000e-01	5.588596e-06	
402	1.500000e-01	8.290173e-06	

Index   v-sweep         -i(vds)         
--------------------------------------------------------------------------------
403	2.000000e-01	1.093036e-05	
404	2.500000e-01	1.350946e-05	
405	3.000000e-01	1.602779e-05	
406	3.500000e-01	1.848565e-05	
407	4.000000e-01	2.088336e-05	
408	4.500000e-01	2.322122e-05	
409	5.000000e-01	2.549953e-05	
410	5.500000e-01	2.771859e-05	
411	6.000000e-01	2.987869e-05	
412	6.500000e-01	3.198014e-05	
413	7.000000e-01	3.402322e-05	
414	7.500000e-01	3.600823e-05	
415	8.000000e-01	3.793546e-05	
416	8.500000e-01	3.980519e-05	
417	9.000000e-01	4.161771e-05	
418	9.500000e-01	4.337331e-05	
419	1.000000e+00	4.507226e-05	
420	1.050000e+00	4.671485e-05	
421	1.100000e+00	4.830135e-05	
422	1.150000e+00	4.983204e-05	
423	1.200000e+00	5.130718e-05	
424	1.250000e+00	5.272706e-05	
425	1.300000e+00	5.409193e-05	
426	1.350000e+00	5.540207e-05	
427	1.400000e+00	5.665773e-05	
428	1.450000e+00	5.785918e-05	
429	1.500000e+00	5.900668e-05	
430	1.550000e+00	6.010047e-05	
431	1.600000e+00	6.114081e-05	
432	1.650000e+00	6.212794e-05	
433	1.700000e+00	6.306211e-05	
434	1.750000e+00	6.394354e-05	
435	1.800000e+00	6.477248e-05	
436	1.850000e+00	6.554914e-05	
437	1.900000e+00	6.627375e-05	
438	1.950000e+00	6.694651e-05	
439	2.000000e+00	6.756764e-05	
440	2.050000e+00	6.813734e-05	
441	2.100000e+00	6.865586e-05	
442	2.150000e+00	6.912348e-05	
443	2.200000e+00	6.954061e-05	
444	2.250000e+00	6.990788e-05	
445	2.300000e+00	7.022637e-05	
446	2.350000e+00	7.049787e-05	
447	2.400000e+00	7.072517e-05	
448	2.450000e+00	7.091233e-05	
449	2.500000e+00	7.106452e-05	
450	2.550000e+00	7.118753e-05	
451	2.600000e+00	7.128710e-05	
452	2.650000e+00	7.136833e-05	
453	2.700000e+00	7.143543e-05	
454	2.750000e+00	7.149168e-05	
455	2.800000e+00	7.153956e-05	
456	2.850000e+00	7.158092e-05	
457	2.900000e+00	7.161715e-05	
458	2.950000e+00	7.164928e-05	
459	3.000000e+00	7.167811e-05	
460	3.050000e+00	7.170422e-05	

Index   v-sweep         -i(vds)         
--------------------------------------------------------------------------------
461	3.100000e+00	7.172808e-05	
462	3.150000e+00	7.175006e-05	
463	3.200000e+00	7.177044e-05	
464	3.250000e+00	7.178946e-05	
465	3.300000e+00	7.180730e-05	
466	3.350000e+00	7.182411e-05	
467	3.400000e+00	7.184003e-05	
468	3.450000e+00	7.185516e-05	
469	3.500000e+00	7.186958e-05	
470	3.550000e+00	7.188338e-05	
471	3.600000e+00	7.189661e-05	
472	3.650000e+00	7.190934e-05	
473	3.700000e+00	7.192161e-05	
474	3.750000e+00	7.193346e-05	
475	3.800000e+00	7.194494e-05	
476	3.850000e+00	7.195606e-05	
477	3.900000e+00	7.196687e-05	
478	3.950000e+00	7.197738e-05	
479	4.000000e+00	7.198761e-05	
480	4.050000e+00	7.199760e-05	
481	4.100000e+00	7.200735e-05	
482	4.150000e+00	7.201688e-05	
483	4.200000e+00	7.202621e-05	
484	4.250000e+00	7.203535e-05	
485	4.300000e+00	7.204431e-05	
486	4.350000e+00	7.205310e-05	
487	4.400000e+00	7.206174e-05	
488	4.450000e+00	7.207024e-05	
489	4.500000e+00	7.207860e-05	
490	4.550000e+00	7.208685e-05	
491	4.600000e+00	7.209498e-05	
492	4.650000e+00	7.210301e-05	
493	4.700000e+00	7.211096e-05	
494	4.750000e+00	7.211884e-05	
495	4.800000e+00	7.212666e-05	
496	4.850000e+00	7.213446e-05	
497	4.900000e+00	7.214225e-05	
498	4.950000e+00	7.215005e-05	
499	5.000000e+00	7.215791e-05	
500	5.050000e+00	7.216586e-05	
501	5.100000e+00	7.217395e-05	
502	5.150000e+00	7.218222e-05	
503	5.200000e+00	7.219074e-05	
504	5.250000e+00	7.219957e-05	
505	5.300000e+00	7.220880e-05	
506	5.350000e+00	7.221852e-05	
507	5.400000e+00	7.222882e-05	
508	5.450000e+00	7.223982e-05	
509	5.500000e+00	7.225165e-05	
510	5.550000e+00	7.226446e-05	
511	5.600000e+00	7.227840e-05	
512	5.650000e+00	7.229366e-05	
513	5.700000e+00	7.231042e-05	
514	5.750000e+00	7.232891e-05	
515	5.800000e+00	7.234935e-05	
516	5.850000e+00	7.237201e-05	
517	5.900000e+00	7.239715e-05	
518	5.950000e+00	7.242509e-05	

Index   v-sweep         -i(vds)         
--------------------------------------------------------------------------------
519	6.000000e+00	7.245613e-05	
520	6.050000e+00	7.249063e-05	
521	6.100000e+00	7.252896e-05	
522	6.150000e+00	7.257151e-05	
523	6.200000e+00	7.261870e-05	
524	6.250000e+00	7.267099e-05	
525	6.300000e+00	7.272883e-05	
526	6.350000e+00	7.279274e-05	
527	6.400000e+00	7.286323e-05	
528	6.450000e+00	7.294086e-05	
529	6.500000e+00	7.302621e-05	
530	6.550000e+00	7.311989e-05	
531	6.600000e+00	7.322252e-05	
532	0.000000e+00	-0.000000e+00	
533	5.000000e-02	3.331034e-06	
534	1.000000e-01	6.605522e-06	
535	1.500000e-01	9.823732e-06	
536	2.000000e-01	1.298593e-05	
537	2.500000e-01	1.609239e-05	
538	3.000000e-01	1.914336e-05	
539	3.500000e-01	2.213912e-05	
540	4.000000e-01	2.507992e-05	
541	4.500000e-01	2.796602e-05	
542	5.000000e-01	3.079768e-05	
543	5.500000e-01	3.357516e-05	
544	6.000000e-01	3.629870e-05	
545	6.500000e-01	3.896857e-05	
546	7.000000e-01	4.158500e-05	
547	7.500000e-01	4.414826e-05	
548	8.000000e-01	4.665859e-05	
549	8.500000e-01	4.911623e-05	
550	9.000000e-01	5.152144e-05	
551	9.500000e-01	5.387445e-05	
552	1.000000e+00	5.617550e-05	
553	1.050000e+00	5.842483e-05	
554	1.100000e+00	6.062269e-05	
555	1.150000e+00	6.276931e-05	
556	1.200000e+00	6.486492e-05	
557	1.250000e+00	6.690976e-05	
558	1.300000e+00	6.890406e-05	
559	1.350000e+00	7.084805e-05	
560	1.400000e+00	7.274196e-05	
561	1.450000e+00	7.458602e-05	
562	1.500000e+00	7.638045e-05	
563	1.550000e+00	7.812547e-05	
564	1.600000e+00	7.982132e-05	
565	1.650000e+00	8.146820e-05	
566	1.700000e+00	8.306635e-05	
567	1.750000e+00	8.461596e-05	
568	1.800000e+00	8.611727e-05	
569	1.850000e+00	8.757048e-05	
570	1.900000e+00	8.897581e-05	
571	1.950000e+00	9.033346e-05	
572	2.000000e+00	9.164363e-05	
573	2.050000e+00	9.290654e-05	
574	2.100000e+00	9.412238e-05	
575	2.150000e+00	9.529134e-05	
576	2.200000e+00	9.641363e-05	

Index   v-sweep         -i(vds)         
--------------------------------------------------------------------------------
577	2.250000e+00	9.748943e-05	
578	2.300000e+00	9.851891e-05	
579	2.350000e+00	9.950227e-05	
580	2.400000e+00	1.004397e-04	
581	2.450000e+00	1.013313e-04	
582	2.500000e+00	1.021772e-04	
583	2.550000e+00	1.029776e-04	
584	2.600000e+00	1.037327e-04	
585	2.650000e+00	1.044424e-04	
586	2.700000e+00	1.051070e-04	
587	2.750000e+00	1.057264e-04	
588	2.800000e+00	1.063007e-04	
589	2.850000e+00	1.068300e-04	
590	2.900000e+00	1.073142e-04	
591	2.950000e+00	1.077536e-04	
592	3.000000e+00	1.081484e-04	
593	3.050000e+00	1.084990e-04	
594	3.100000e+00	1.088066e-04	
595	3.150000e+00	1.090728e-04	
596	3.200000e+00	1.093004e-04	
597	3.250000e+00	1.094928e-04	
598	3.300000e+00	1.096545e-04	
599	3.350000e+00	1.097900e-04	
600	3.400000e+00	1.099038e-04	
601	3.450000e+00	1.100000e-04	
602	3.500000e+00	1.100820e-04	
603	3.550000e+00	1.101527e-04	
604	3.600000e+00	1.102142e-04	
605	3.650000e+00	1.102683e-04	
606	3.700000e+00	1.103164e-04	
607	3.750000e+00	1.103595e-04	
608	3.800000e+00	1.103986e-04	
609	3.850000e+00	1.104342e-04	
610	3.900000e+00	1.104669e-04	
611	3.950000e+00	1.104971e-04	
612	4.000000e+00	1.105253e-04	
613	4.050000e+00	1.105515e-04	
614	4.100000e+00	1.105762e-04	
615	4.150000e+00	1.105994e-04	
616	4.200000e+00	1.106214e-04	
617	4.250000e+00	1.106423e-04	
618	4.300000e+00	1.106622e-04	
619	4.350000e+00	1.106813e-04	
620	4.400000e+00	1.106995e-04	
621	4.450000e+00	1.107170e-04	
622	4.500000e+00	1.107339e-04	
623	4.550000e+00	1.107501e-04	
624	4.600000e+00	1.107658e-04	
625	4.650000e+00	1.107810e-04	
626	4.700000e+00	1.107957e-04	
627	4.750000e+00	1.108100e-04	
628	4.800000e+00	1.108239e-04	
629	4.850000e+00	1.108375e-04	
630	4.900000e+00	1.108507e-04	
631	4.950000e+00	1.108636e-04	
632	5.000000e+00	1.108761e-04	
633	5.050000e+00	1.108884e-04	
634	5.100000e+00	1.109005e-04	

Index   v-sweep         -i(vds)         
--------------------------------------------------------------------------------
635	5.150000e+00	1.109123e-04	
636	5.200000e+00	1.109238e-04	
637	5.250000e+00	1.109352e-04	
638	5.300000e+00	1.109464e-04	
639	5.350000e+00	1.109574e-04	
640	5.400000e+00	1.109682e-04	
641	5.450000e+00	1.109789e-04	
642	5.500000e+00	1.109895e-04	
643	5.550000e+00	1.110000e-04	
644	5.600000e+00	1.110105e-04	
645	5.650000e+00	1.110209e-04	
646	5.700000e+00	1.110314e-04	
647	5.750000e+00	1.110419e-04	
648	5.800000e+00	1.110526e-04	
649	5.850000e+00	1.110634e-04	
650	5.900000e+00	1.110746e-04	
651	5.950000e+00	1.110861e-04	
652	6.000000e+00	1.110980e-04	
653	6.050000e+00	1.111106e-04	
654	6.100000e+00	1.111238e-04	
655	6.150000e+00	1.111380e-04	
656	6.200000e+00	1.111531e-04	
657	6.250000e+00	1.111696e-04	
658	6.300000e+00	1.111874e-04	
659	6.350000e+00	1.112070e-04	
660	6.400000e+00	1.112286e-04	
661	6.450000e+00	1.112524e-04	
662	6.500000e+00	1.112787e-04	
663	6.550000e+00	1.113081e-04	
664	6.600000e+00	1.113407e-04	
665	0.000000e+00	-0.000000e+00	
666	5.000000e-02	3.690068e-06	
667	1.000000e-01	7.329418e-06	
668	1.500000e-01	1.091827e-05	
669	2.000000e-01	1.445685e-05	
670	2.500000e-01	1.794537e-05	
671	3.000000e-01	2.138406e-05	
672	3.500000e-01	2.477311e-05	
673	4.000000e-01	2.811276e-05	
674	4.500000e-01	3.140322e-05	
675	5.000000e-01	3.464469e-05	
676	5.500000e-01	3.783739e-05	
677	6.000000e-01	4.098153e-05	
678	6.500000e-01	4.407732e-05	
679	7.000000e-01	4.712496e-05	
680	7.500000e-01	5.012466e-05	
681	8.000000e-01	5.307663e-05	
682	8.500000e-01	5.598107e-05	
683	9.000000e-01	5.883818e-05	
684	9.500000e-01	6.164817e-05	
685	1.000000e+00	6.441123e-05	
686	1.050000e+00	6.712756e-05	
687	1.100000e+00	6.979737e-05	
688	1.150000e+00	7.242085e-05	
689	1.200000e+00	7.499819e-05	
690	1.250000e+00	7.752959e-05	
691	1.300000e+00	8.001525e-05	
692	1.350000e+00	8.245535e-05	

Index   v-sweep         -i(vds)         
--------------------------------------------------------------------------------
693	1.400000e+00	8.485009e-05	
694	1.450000e+00	8.719966e-05	
695	1.500000e+00	8.950424e-05	
696	1.550000e+00	9.176403e-05	
697	1.600000e+00	9.397921e-05	
698	1.650000e+00	9.614997e-05	
699	1.700000e+00	9.827648e-05	
700	1.750000e+00	1.003589e-04	
701	1.800000e+00	1.023975e-04	
702	1.850000e+00	1.043924e-04	
703	1.900000e+00	1.063438e-04	
704	1.950000e+00	1.082519e-04	
705	2.000000e+00	1.101168e-04	
706	2.050000e+00	1.119387e-04	
707	2.100000e+00	1.137178e-04	
708	2.150000e+00	1.154543e-04	
709	2.200000e+00	1.171483e-04	
710	2.250000e+00	1.188001e-04	
711	2.300000e+00	1.204097e-04	
712	2.350000e+00	1.219774e-04	
713	2.400000e+00	1.235033e-04	
714	2.450000e+00	1.249875e-04	
715	2.500000e+00	1.264304e-04	
716	2.550000e+00	1.278319e-04	
717	2.600000e+00	1.291923e-04	
718	2.650000e+00	1.305118e-04	
719	2.700000e+00	1.317904e-04	
720	2.750000e+00	1.330284e-04	
721	2.800000e+00	1.342258e-04	
722	2.850000e+00	1.353829e-04	
723	2.900000e+00	1.364997e-04	
724	2.950000e+00	1.375765e-04	
725	3.000000e+00	1.386133e-04	
726	3.050000e+00	1.396103e-04	
727	3.100000e+00	1.405675e-04	
728	3.150000e+00	1.414852e-04	
729	3.200000e+00	1.423633e-04	
730	3.250000e+00	1.432020e-04	
731	3.300000e+00	1.440014e-04	
732	3.350000e+00	1.447615e-04	
733	3.400000e+00	1.454822e-04	
734	3.450000e+00	1.461637e-04	
735	3.500000e+00	1.468059e-04	
736	3.550000e+00	1.474087e-04	
737	3.600000e+00	1.479721e-04	
738	3.650000e+00	1.484958e-04	
739	3.700000e+00	1.489798e-04	
740	3.750000e+00	1.494239e-04	
741	3.800000e+00	1.498282e-04	
742	3.850000e+00	1.501929e-04	
743	3.900000e+00	1.505186e-04	
744	3.950000e+00	1.508063e-04	
745	4.000000e+00	1.510581e-04	
746	4.050000e+00	1.512765e-04	
747	4.100000e+00	1.514648e-04	
748	4.150000e+00	1.516266e-04	
749	4.200000e+00	1.517657e-04	
750	4.250000e+00	1.518856e-04	

Index   v-sweep         -i(vds)         
--------------------------------------------------------------------------------
751	4.300000e+00	1.519895e-04	
752	4.350000e+00	1.520803e-04	
753	4.400000e+00	1.521601e-04	
754	4.450000e+00	1.522308e-04	
755	4.500000e+00	1.522941e-04	
756	4.550000e+00	1.523511e-04	
757	4.600000e+00	1.524027e-04	
758	4.650000e+00	1.524499e-04	
759	4.700000e+00	1.524933e-04	
760	4.750000e+00	1.525334e-04	
761	4.800000e+00	1.525707e-04	
762	4.850000e+00	1.526055e-04	
763	4.900000e+00	1.526381e-04	
764	4.950000e+00	1.526688e-04	
765	5.000000e+00	1.526978e-04	
766	5.050000e+00	1.527253e-04	
767	5.100000e+00	1.527515e-04	
768	5.150000e+00	1.527765e-04	
769	5.200000e+00	1.528003e-04	
770	5.250000e+00	1.528232e-04	
771	5.300000e+00	1.528451e-04	
772	5.350000e+00	1.528663e-04	
773	5.400000e+00	1.528867e-04	
774	5.450000e+00	1.529063e-04	
775	5.500000e+00	1.529254e-04	
776	5.550000e+00	1.529438e-04	
777	5.600000e+00	1.529617e-04	
778	5.650000e+00	1.529791e-04	
779	5.700000e+00	1.529961e-04	
780	5.750000e+00	1.530126e-04	
781	5.800000e+00	1.530286e-04	
782	5.850000e+00	1.530443e-04	
783	5.900000e+00	1.530596e-04	
784	5.950000e+00	1.530746e-04	
785	6.000000e+00	1.530893e-04	
786	6.050000e+00	1.531037e-04	
787	6.100000e+00	1.531179e-04	
788	6.150000e+00	1.531318e-04	
789	6.200000e+00	1.531454e-04	
790	6.250000e+00	1.531589e-04	
791	6.300000e+00	1.531723e-04	
792	6.350000e+00	1.531855e-04	
793	6.400000e+00	1.531986e-04	
794	6.450000e+00	1.532118e-04	
795	6.500000e+00	1.532249e-04	
796	6.550000e+00	1.532382e-04	
797	6.600000e+00	1.532516e-04	
Note: No ".plot", ".print", or ".fourier" lines; no simulations run
