
Note: Compatibility modes selected: hs

Warning: m=xx on .subckt line will override multiplier m hierarchy!


Circuit: ***************************

Doing analysis at TEMP = -40.000000 and TNOM = -40.000000


No. of Data Rows : 798
                          ***************************
                          DC transfer characteristic  Mon Jan  9 13:57:41  2023
--------------------------------------------------------------------------------
Index   v-sweep         -i(vds)         
--------------------------------------------------------------------------------
0	0.000000e+00	-0.000000e+00	
1	5.000000e-02	7.639616e-07	
2	1.000000e-01	1.301178e-06	
3	1.500000e-01	1.622960e-06	
4	2.000000e-01	1.768549e-06	
5	2.500000e-01	1.817468e-06	
6	3.000000e-01	1.834027e-06	
7	3.500000e-01	1.841388e-06	
8	4.000000e-01	1.845705e-06	
9	4.500000e-01	1.848790e-06	
10	5.000000e-01	1.851289e-06	
11	5.500000e-01	1.853473e-06	
12	6.000000e-01	1.855470e-06	
13	6.500000e-01	1.857348e-06	
14	7.000000e-01	1.859147e-06	
15	7.500000e-01	1.860890e-06	
16	8.000000e-01	1.862592e-06	
17	8.500000e-01	1.864263e-06	
18	9.000000e-01	1.865909e-06	
19	9.500000e-01	1.867537e-06	
20	1.000000e+00	1.869150e-06	
21	1.050000e+00	1.870749e-06	
22	1.100000e+00	1.872339e-06	
23	1.150000e+00	1.873919e-06	
24	1.200000e+00	1.875491e-06	
25	1.250000e+00	1.877057e-06	
26	1.300000e+00	1.878618e-06	
27	1.350000e+00	1.880173e-06	
28	1.400000e+00	1.881723e-06	
29	1.450000e+00	1.883270e-06	
30	1.500000e+00	1.884813e-06	
31	1.550000e+00	1.886353e-06	
32	1.600000e+00	1.887889e-06	
33	1.650000e+00	1.889423e-06	
34	1.700000e+00	1.890955e-06	
35	1.750000e+00	1.892485e-06	
36	1.800000e+00	1.894012e-06	
37	1.850000e+00	1.895538e-06	
38	1.900000e+00	1.897061e-06	
39	1.950000e+00	1.898583e-06	
40	2.000000e+00	1.900104e-06	
41	2.050000e+00	1.901623e-06	
42	2.100000e+00	1.903141e-06	
43	2.150000e+00	1.904658e-06	
44	2.200000e+00	1.906174e-06	
45	2.250000e+00	1.907688e-06	
46	2.300000e+00	1.909202e-06	
47	2.350000e+00	1.910716e-06	
48	2.400000e+00	1.912229e-06	
49	2.450000e+00	1.913741e-06	
50	2.500000e+00	1.915254e-06	
51	2.550000e+00	1.916767e-06	
52	2.600000e+00	1.918282e-06	
53	2.650000e+00	1.919797e-06	
54	2.700000e+00	1.921315e-06	

Index   v-sweep         -i(vds)         
--------------------------------------------------------------------------------
55	2.750000e+00	1.922835e-06	
56	2.800000e+00	1.924359e-06	
57	2.850000e+00	1.925889e-06	
58	2.900000e+00	1.927424e-06	
59	2.950000e+00	1.928967e-06	
60	3.000000e+00	1.930519e-06	
61	3.050000e+00	1.932083e-06	
62	3.100000e+00	1.933660e-06	
63	3.150000e+00	1.935254e-06	
64	3.200000e+00	1.936868e-06	
65	3.250000e+00	1.938504e-06	
66	3.300000e+00	1.940167e-06	
67	3.350000e+00	1.941861e-06	
68	3.400000e+00	1.943590e-06	
69	3.450000e+00	1.945360e-06	
70	3.500000e+00	1.947177e-06	
71	3.550000e+00	1.949047e-06	
72	3.600000e+00	1.950977e-06	
73	3.650000e+00	1.952974e-06	
74	3.700000e+00	1.955046e-06	
75	3.750000e+00	1.957203e-06	
76	3.800000e+00	1.959453e-06	
77	3.850000e+00	1.961807e-06	
78	3.900000e+00	1.964275e-06	
79	3.950000e+00	1.966869e-06	
80	4.000000e+00	1.969602e-06	
81	4.050000e+00	1.972485e-06	
82	4.100000e+00	1.975534e-06	
83	4.150000e+00	1.978763e-06	
84	4.200000e+00	1.982186e-06	
85	4.250000e+00	1.985820e-06	
86	4.300000e+00	1.989681e-06	
87	4.350000e+00	1.993788e-06	
88	4.400000e+00	1.998159e-06	
89	4.450000e+00	2.002813e-06	
90	4.500000e+00	2.007769e-06	
91	4.550000e+00	2.013049e-06	
92	4.600000e+00	2.018674e-06	
93	4.650000e+00	2.024667e-06	
94	4.700000e+00	2.031050e-06	
95	4.750000e+00	2.037846e-06	
96	4.800000e+00	2.045081e-06	
97	4.850000e+00	2.052780e-06	
98	4.900000e+00	2.060968e-06	
99	4.950000e+00	2.069672e-06	
100	5.000000e+00	2.078919e-06	
101	5.050000e+00	2.088738e-06	
102	5.100000e+00	2.099155e-06	
103	5.150000e+00	2.110202e-06	
104	5.200000e+00	2.121906e-06	
105	5.250000e+00	2.134300e-06	
106	5.300000e+00	2.147412e-06	
107	5.350000e+00	2.161276e-06	
108	5.400000e+00	2.175922e-06	
109	5.450000e+00	2.191383e-06	
110	5.500000e+00	2.207692e-06	
111	5.550000e+00	2.224882e-06	
112	5.600000e+00	2.242987e-06	

Index   v-sweep         -i(vds)         
--------------------------------------------------------------------------------
113	5.650000e+00	2.262041e-06	
114	5.700000e+00	2.282079e-06	
115	5.750000e+00	2.303136e-06	
116	5.800000e+00	2.325246e-06	
117	5.850000e+00	2.348446e-06	
118	5.900000e+00	2.372770e-06	
119	5.950000e+00	2.398257e-06	
120	6.000000e+00	2.424941e-06	
121	6.050000e+00	2.452860e-06	
122	6.100000e+00	2.482050e-06	
123	6.150000e+00	2.512549e-06	
124	6.200000e+00	2.544393e-06	
125	6.250000e+00	2.577621e-06	
126	6.300000e+00	2.612269e-06	
127	6.350000e+00	2.648376e-06	
128	6.400000e+00	2.685978e-06	
129	6.450000e+00	2.725115e-06	
130	6.500000e+00	2.765824e-06	
131	6.550000e+00	2.808143e-06	
132	6.600000e+00	2.852109e-06	
133	0.000000e+00	-0.000000e+00	
134	5.000000e-02	4.457933e-06	
135	1.000000e-01	8.668353e-06	
136	1.500000e-01	1.263197e-05	
137	2.000000e-01	1.634951e-05	
138	2.500000e-01	1.982168e-05	
139	3.000000e-01	2.304922e-05	
140	3.500000e-01	2.603286e-05	
141	4.000000e-01	2.877337e-05	
142	4.500000e-01	3.127156e-05	
143	5.000000e-01	3.352830e-05	
144	5.500000e-01	3.554457e-05	
145	6.000000e-01	3.732157e-05	
146	6.500000e-01	3.886088e-05	
147	7.000000e-01	4.016486e-05	
148	7.500000e-01	4.123736e-05	
149	8.000000e-01	4.208530e-05	
150	8.500000e-01	4.272158e-05	
151	9.000000e-01	4.316924e-05	
152	9.500000e-01	4.346398e-05	
153	1.000000e+00	4.364935e-05	
154	1.050000e+00	4.376535e-05	
155	1.100000e+00	4.384054e-05	
156	1.150000e+00	4.389218e-05	
157	1.200000e+00	4.392995e-05	
158	1.250000e+00	4.395921e-05	
159	1.300000e+00	4.398302e-05	
160	1.350000e+00	4.400317e-05	
161	1.400000e+00	4.402078e-05	
162	1.450000e+00	4.403656e-05	
163	1.500000e+00	4.405097e-05	
164	1.550000e+00	4.406435e-05	
165	1.600000e+00	4.407691e-05	
166	1.650000e+00	4.408883e-05	
167	1.700000e+00	4.410022e-05	
168	1.750000e+00	4.411118e-05	
169	1.800000e+00	4.412179e-05	
170	1.850000e+00	4.413209e-05	

Index   v-sweep         -i(vds)         
--------------------------------------------------------------------------------
171	1.900000e+00	4.414213e-05	
172	1.950000e+00	4.415195e-05	
173	2.000000e+00	4.416158e-05	
174	2.050000e+00	4.417104e-05	
175	2.100000e+00	4.418035e-05	
176	2.150000e+00	4.418952e-05	
177	2.200000e+00	4.419858e-05	
178	2.250000e+00	4.420753e-05	
179	2.300000e+00	4.421639e-05	
180	2.350000e+00	4.422516e-05	
181	2.400000e+00	4.423386e-05	
182	2.450000e+00	4.424248e-05	
183	2.500000e+00	4.425104e-05	
184	2.550000e+00	4.425953e-05	
185	2.600000e+00	4.426797e-05	
186	2.650000e+00	4.427636e-05	
187	2.700000e+00	4.428470e-05	
188	2.750000e+00	4.429300e-05	
189	2.800000e+00	4.430125e-05	
190	2.850000e+00	4.430947e-05	
191	2.900000e+00	4.431766e-05	
192	2.950000e+00	4.432581e-05	
193	3.000000e+00	4.433394e-05	
194	3.050000e+00	4.434204e-05	
195	3.100000e+00	4.435013e-05	
196	3.150000e+00	4.435820e-05	
197	3.200000e+00	4.436626e-05	
198	3.250000e+00	4.437433e-05	
199	3.300000e+00	4.438240e-05	
200	3.350000e+00	4.439049e-05	
201	3.400000e+00	4.439861e-05	
202	3.450000e+00	4.440678e-05	
203	3.500000e+00	4.441502e-05	
204	3.550000e+00	4.442334e-05	
205	3.600000e+00	4.443178e-05	
206	3.650000e+00	4.444037e-05	
207	3.700000e+00	4.444914e-05	
208	3.750000e+00	4.445813e-05	
209	3.800000e+00	4.446740e-05	
210	3.850000e+00	4.447699e-05	
211	3.900000e+00	4.448697e-05	
212	3.950000e+00	4.449741e-05	
213	4.000000e+00	4.450839e-05	
214	4.050000e+00	4.452000e-05	
215	4.100000e+00	4.453234e-05	
216	4.150000e+00	4.454551e-05	
217	4.200000e+00	4.455964e-05	
218	4.250000e+00	4.457486e-05	
219	4.300000e+00	4.459132e-05	
220	4.350000e+00	4.460918e-05	
221	4.400000e+00	4.462860e-05	
222	4.450000e+00	4.464977e-05	
223	4.500000e+00	4.467289e-05	
224	4.550000e+00	4.469818e-05	
225	4.600000e+00	4.472587e-05	
226	4.650000e+00	4.475620e-05	
227	4.700000e+00	4.478943e-05	
228	4.750000e+00	4.482585e-05	

Index   v-sweep         -i(vds)         
--------------------------------------------------------------------------------
229	4.800000e+00	4.486574e-05	
230	4.850000e+00	4.490942e-05	
231	4.900000e+00	4.495720e-05	
232	4.950000e+00	4.500945e-05	
233	5.000000e+00	4.506651e-05	
234	5.050000e+00	4.512876e-05	
235	5.100000e+00	4.519660e-05	
236	5.150000e+00	4.527044e-05	
237	5.200000e+00	4.535071e-05	
238	5.250000e+00	4.543784e-05	
239	5.300000e+00	4.553230e-05	
240	5.350000e+00	4.563457e-05	
241	5.400000e+00	4.574513e-05	
242	5.450000e+00	4.586450e-05	
243	5.500000e+00	4.599320e-05	
244	5.550000e+00	4.613176e-05	
245	5.600000e+00	4.628074e-05	
246	5.650000e+00	4.644071e-05	
247	5.700000e+00	4.661224e-05	
248	5.750000e+00	4.679593e-05	
249	5.800000e+00	4.699240e-05	
250	5.850000e+00	4.720225e-05	
251	5.900000e+00	4.742612e-05	
252	5.950000e+00	4.766466e-05	
253	6.000000e+00	4.791853e-05	
254	6.050000e+00	4.818838e-05	
255	6.100000e+00	4.847490e-05	
256	6.150000e+00	4.877877e-05	
257	6.200000e+00	4.910070e-05	
258	6.250000e+00	4.944138e-05	
259	6.300000e+00	4.980153e-05	
260	6.350000e+00	5.018187e-05	
261	6.400000e+00	5.058314e-05	
262	6.450000e+00	5.100606e-05	
263	6.500000e+00	5.145138e-05	
264	6.550000e+00	5.191985e-05	
265	6.600000e+00	5.241222e-05	
266	0.000000e+00	-0.000000e+00	
267	5.000000e-02	7.637610e-06	
268	1.000000e-01	1.504166e-05	
269	1.500000e-01	2.221287e-05	
270	2.000000e-01	2.915193e-05	
271	2.500000e-01	3.585955e-05	
272	3.000000e-01	4.233643e-05	
273	3.500000e-01	4.858327e-05	
274	4.000000e-01	5.460076e-05	
275	4.500000e-01	6.038959e-05	
276	5.000000e-01	6.595045e-05	
277	5.500000e-01	7.128403e-05	
278	6.000000e-01	7.639101e-05	
279	6.500000e-01	8.127207e-05	
280	7.000000e-01	8.592789e-05	
281	7.500000e-01	9.035915e-05	
282	8.000000e-01	9.456652e-05	
283	8.500000e-01	9.855068e-05	
284	9.000000e-01	1.023123e-04	
285	9.500000e-01	1.058521e-04	
286	1.000000e+00	1.091707e-04	

Index   v-sweep         -i(vds)         
--------------------------------------------------------------------------------
287	1.050000e+00	1.122688e-04	
288	1.100000e+00	1.151471e-04	
289	1.150000e+00	1.178064e-04	
290	1.200000e+00	1.202475e-04	
291	1.250000e+00	1.224712e-04	
292	1.300000e+00	1.244785e-04	
293	1.350000e+00	1.262708e-04	
294	1.400000e+00	1.278498e-04	
295	1.450000e+00	1.292181e-04	
296	1.500000e+00	1.303796e-04	
297	1.550000e+00	1.313412e-04	
298	1.600000e+00	1.321134e-04	
299	1.650000e+00	1.327132e-04	
300	1.700000e+00	1.331640e-04	
301	1.750000e+00	1.334946e-04	
302	1.800000e+00	1.337346e-04	
303	1.850000e+00	1.339100e-04	
304	1.900000e+00	1.340408e-04	
305	1.950000e+00	1.341412e-04	
306	2.000000e+00	1.342206e-04	
307	2.050000e+00	1.342854e-04	
308	2.100000e+00	1.343397e-04	
309	2.150000e+00	1.343863e-04	
310	2.200000e+00	1.344272e-04	
311	2.250000e+00	1.344636e-04	
312	2.300000e+00	1.344967e-04	
313	2.350000e+00	1.345270e-04	
314	2.400000e+00	1.345552e-04	
315	2.450000e+00	1.345815e-04	
316	2.500000e+00	1.346064e-04	
317	2.550000e+00	1.346300e-04	
318	2.600000e+00	1.346525e-04	
319	2.650000e+00	1.346741e-04	
320	2.700000e+00	1.346950e-04	
321	2.750000e+00	1.347152e-04	
322	2.800000e+00	1.347347e-04	
323	2.850000e+00	1.347538e-04	
324	2.900000e+00	1.347724e-04	
325	2.950000e+00	1.347905e-04	
326	3.000000e+00	1.348083e-04	
327	3.050000e+00	1.348258e-04	
328	3.100000e+00	1.348429e-04	
329	3.150000e+00	1.348598e-04	
330	3.200000e+00	1.348764e-04	
331	3.250000e+00	1.348928e-04	
332	3.300000e+00	1.349090e-04	
333	3.350000e+00	1.349250e-04	
334	3.400000e+00	1.349408e-04	
335	3.450000e+00	1.349565e-04	
336	3.500000e+00	1.349720e-04	
337	3.550000e+00	1.349873e-04	
338	3.600000e+00	1.350025e-04	
339	3.650000e+00	1.350176e-04	
340	3.700000e+00	1.350326e-04	
341	3.750000e+00	1.350475e-04	
342	3.800000e+00	1.350623e-04	
343	3.850000e+00	1.350771e-04	
344	3.900000e+00	1.350918e-04	

Index   v-sweep         -i(vds)         
--------------------------------------------------------------------------------
345	3.950000e+00	1.351064e-04	
346	4.000000e+00	1.351210e-04	
347	4.050000e+00	1.351357e-04	
348	4.100000e+00	1.351504e-04	
349	4.150000e+00	1.351652e-04	
350	4.200000e+00	1.351801e-04	
351	4.250000e+00	1.351952e-04	
352	4.300000e+00	1.352105e-04	
353	4.350000e+00	1.352262e-04	
354	4.400000e+00	1.352423e-04	
355	4.450000e+00	1.352589e-04	
356	4.500000e+00	1.352762e-04	
357	4.550000e+00	1.352943e-04	
358	4.600000e+00	1.353133e-04	
359	4.650000e+00	1.353335e-04	
360	4.700000e+00	1.353551e-04	
361	4.750000e+00	1.353782e-04	
362	4.800000e+00	1.354032e-04	
363	4.850000e+00	1.354303e-04	
364	4.900000e+00	1.354599e-04	
365	4.950000e+00	1.354924e-04	
366	5.000000e+00	1.355281e-04	
367	5.050000e+00	1.355675e-04	
368	5.100000e+00	1.356110e-04	
369	5.150000e+00	1.356591e-04	
370	5.200000e+00	1.357125e-04	
371	5.250000e+00	1.357717e-04	
372	5.300000e+00	1.358373e-04	
373	5.350000e+00	1.359101e-04	
374	5.400000e+00	1.359907e-04	
375	5.450000e+00	1.360800e-04	
376	5.500000e+00	1.361788e-04	
377	5.550000e+00	1.362880e-04	
378	5.600000e+00	1.364085e-04	
379	5.650000e+00	1.365413e-04	
380	5.700000e+00	1.366873e-04	
381	5.750000e+00	1.368478e-04	
382	5.800000e+00	1.370238e-04	
383	5.850000e+00	1.372165e-04	
384	5.900000e+00	1.374271e-04	
385	5.950000e+00	1.376570e-04	
386	6.000000e+00	1.379074e-04	
387	6.050000e+00	1.381798e-04	
388	6.100000e+00	1.384756e-04	
389	6.150000e+00	1.387961e-04	
390	6.200000e+00	1.391431e-04	
391	6.250000e+00	1.395180e-04	
392	6.300000e+00	1.399225e-04	
393	6.350000e+00	1.403582e-04	
394	6.400000e+00	1.408268e-04	
395	6.450000e+00	1.413301e-04	
396	6.500000e+00	1.418699e-04	
397	6.550000e+00	1.424480e-04	
398	6.600000e+00	1.430662e-04	
399	0.000000e+00	-0.000000e+00	
400	5.000000e-02	1.019190e-05	
401	1.000000e-01	2.016966e-05	
402	1.500000e-01	2.993389e-05	

Index   v-sweep         -i(vds)         
--------------------------------------------------------------------------------
403	2.000000e-01	3.948525e-05	
404	2.500000e-01	4.882436e-05	
405	3.000000e-01	5.795185e-05	
406	3.500000e-01	6.686836e-05	
407	4.000000e-01	7.557450e-05	
408	4.500000e-01	8.407090e-05	
409	5.000000e-01	9.235818e-05	
410	5.500000e-01	1.004369e-04	
411	6.000000e-01	1.083078e-04	
412	6.500000e-01	1.159714e-04	
413	7.000000e-01	1.234284e-04	
414	7.500000e-01	1.306792e-04	
415	8.000000e-01	1.377246e-04	
416	8.500000e-01	1.445652e-04	
417	9.000000e-01	1.512015e-04	
418	9.500000e-01	1.576341e-04	
419	1.000000e+00	1.638636e-04	
420	1.050000e+00	1.698907e-04	
421	1.100000e+00	1.757159e-04	
422	1.150000e+00	1.813397e-04	
423	1.200000e+00	1.867628e-04	
424	1.250000e+00	1.919858e-04	
425	1.300000e+00	1.970091e-04	
426	1.350000e+00	2.018335e-04	
427	1.400000e+00	2.064593e-04	
428	1.450000e+00	2.108873e-04	
429	1.500000e+00	2.151180e-04	
430	1.550000e+00	2.191518e-04	
431	1.600000e+00	2.229894e-04	
432	1.650000e+00	2.266313e-04	
433	1.700000e+00	2.300781e-04	
434	1.750000e+00	2.333302e-04	
435	1.800000e+00	2.363882e-04	
436	1.850000e+00	2.392527e-04	
437	1.900000e+00	2.419241e-04	
438	1.950000e+00	2.444031e-04	
439	2.000000e+00	2.466902e-04	
440	2.050000e+00	2.487862e-04	
441	2.100000e+00	2.506918e-04	
442	2.150000e+00	2.524082e-04	
443	2.200000e+00	2.539370e-04	
444	2.250000e+00	2.552806e-04	
445	2.300000e+00	2.564428e-04	
446	2.350000e+00	2.574296e-04	
447	2.400000e+00	2.582504e-04	
448	2.450000e+00	2.589185e-04	
449	2.500000e+00	2.594518e-04	
450	2.550000e+00	2.598713e-04	
451	2.600000e+00	2.601992e-04	
452	2.650000e+00	2.604560e-04	
453	2.700000e+00	2.606591e-04	
454	2.750000e+00	2.608223e-04	
455	2.800000e+00	2.609558e-04	
456	2.850000e+00	2.610671e-04	
457	2.900000e+00	2.611616e-04	
458	2.950000e+00	2.612433e-04	
459	3.000000e+00	2.613150e-04	
460	3.050000e+00	2.613788e-04	

Index   v-sweep         -i(vds)         
--------------------------------------------------------------------------------
461	3.100000e+00	2.614363e-04	
462	3.150000e+00	2.614888e-04	
463	3.200000e+00	2.615371e-04	
464	3.250000e+00	2.615819e-04	
465	3.300000e+00	2.616238e-04	
466	3.350000e+00	2.616632e-04	
467	3.400000e+00	2.617006e-04	
468	3.450000e+00	2.617361e-04	
469	3.500000e+00	2.617700e-04	
470	3.550000e+00	2.618026e-04	
471	3.600000e+00	2.618339e-04	
472	3.650000e+00	2.618642e-04	
473	3.700000e+00	2.618935e-04	
474	3.750000e+00	2.619220e-04	
475	3.800000e+00	2.619497e-04	
476	3.850000e+00	2.619767e-04	
477	3.900000e+00	2.620031e-04	
478	3.950000e+00	2.620289e-04	
479	4.000000e+00	2.620542e-04	
480	4.050000e+00	2.620790e-04	
481	4.100000e+00	2.621033e-04	
482	4.150000e+00	2.621273e-04	
483	4.200000e+00	2.621509e-04	
484	4.250000e+00	2.621742e-04	
485	4.300000e+00	2.621971e-04	
486	4.350000e+00	2.622198e-04	
487	4.400000e+00	2.622422e-04	
488	4.450000e+00	2.622643e-04	
489	4.500000e+00	2.622862e-04	
490	4.550000e+00	2.623079e-04	
491	4.600000e+00	2.623295e-04	
492	4.650000e+00	2.623509e-04	
493	4.700000e+00	2.623722e-04	
494	4.750000e+00	2.623934e-04	
495	4.800000e+00	2.624146e-04	
496	4.850000e+00	2.624358e-04	
497	4.900000e+00	2.624571e-04	
498	4.950000e+00	2.624786e-04	
499	5.000000e+00	2.625003e-04	
500	5.050000e+00	2.625224e-04	
501	5.100000e+00	2.625451e-04	
502	5.150000e+00	2.625684e-04	
503	5.200000e+00	2.625925e-04	
504	5.250000e+00	2.626177e-04	
505	5.300000e+00	2.626443e-04	
506	5.350000e+00	2.626724e-04	
507	5.400000e+00	2.627025e-04	
508	5.450000e+00	2.627348e-04	
509	5.500000e+00	2.627699e-04	
510	5.550000e+00	2.628081e-04	
511	5.600000e+00	2.628501e-04	
512	5.650000e+00	2.628963e-04	
513	5.700000e+00	2.629475e-04	
514	5.750000e+00	2.630044e-04	
515	5.800000e+00	2.630676e-04	
516	5.850000e+00	2.631382e-04	
517	5.900000e+00	2.632170e-04	
518	5.950000e+00	2.633050e-04	

Index   v-sweep         -i(vds)         
--------------------------------------------------------------------------------
519	6.000000e+00	2.634033e-04	
520	6.050000e+00	2.635132e-04	
521	6.100000e+00	2.636357e-04	
522	6.150000e+00	2.637725e-04	
523	6.200000e+00	2.639247e-04	
524	6.250000e+00	2.640941e-04	
525	6.300000e+00	2.642821e-04	
526	6.350000e+00	2.644907e-04	
527	6.400000e+00	2.647214e-04	
528	6.450000e+00	2.649764e-04	
529	6.500000e+00	2.652576e-04	
530	6.550000e+00	2.655671e-04	
531	6.600000e+00	2.659071e-04	
532	0.000000e+00	-0.000000e+00	
533	5.000000e-02	1.211574e-05	
534	1.000000e-01	2.403909e-05	
535	1.500000e-01	3.577061e-05	
536	2.000000e-01	4.731082e-05	
537	2.500000e-01	5.866028e-05	
538	3.000000e-01	6.981950e-05	
539	3.500000e-01	8.078903e-05	
540	4.000000e-01	9.156939e-05	
541	4.500000e-01	1.021611e-04	
542	5.000000e-01	1.125647e-04	
543	5.500000e-01	1.227808e-04	
544	6.000000e-01	1.328097e-04	
545	6.500000e-01	1.426521e-04	
546	7.000000e-01	1.523085e-04	
547	7.500000e-01	1.617794e-04	
548	8.000000e-01	1.710653e-04	
549	8.500000e-01	1.801667e-04	
550	9.000000e-01	1.890841e-04	
551	9.500000e-01	1.978181e-04	
552	1.000000e+00	2.063691e-04	
553	1.050000e+00	2.147377e-04	
554	1.100000e+00	2.229242e-04	
555	1.150000e+00	2.309294e-04	
556	1.200000e+00	2.387536e-04	
557	1.250000e+00	2.463973e-04	
558	1.300000e+00	2.538610e-04	
559	1.350000e+00	2.611453e-04	
560	1.400000e+00	2.682506e-04	
561	1.450000e+00	2.751774e-04	
562	1.500000e+00	2.819261e-04	
563	1.550000e+00	2.884974e-04	
564	1.600000e+00	2.948915e-04	
565	1.650000e+00	3.011091e-04	
566	1.700000e+00	3.071506e-04	
567	1.750000e+00	3.130164e-04	
568	1.800000e+00	3.187070e-04	
569	1.850000e+00	3.242230e-04	
570	1.900000e+00	3.295646e-04	
571	1.950000e+00	3.347325e-04	
572	2.000000e+00	3.397271e-04	
573	2.050000e+00	3.445487e-04	
574	2.100000e+00	3.491979e-04	
575	2.150000e+00	3.536751e-04	
576	2.200000e+00	3.579807e-04	

Index   v-sweep         -i(vds)         
--------------------------------------------------------------------------------
577	2.250000e+00	3.621151e-04	
578	2.300000e+00	3.660787e-04	
579	2.350000e+00	3.698721e-04	
580	2.400000e+00	3.734954e-04	
581	2.450000e+00	3.769492e-04	
582	2.500000e+00	3.802339e-04	
583	2.550000e+00	3.833497e-04	
584	2.600000e+00	3.862970e-04	
585	2.650000e+00	3.890761e-04	
586	2.700000e+00	3.916875e-04	
587	2.750000e+00	3.941313e-04	
588	2.800000e+00	3.964079e-04	
589	2.850000e+00	3.985176e-04	
590	2.900000e+00	4.004609e-04	
591	2.950000e+00	4.022383e-04	
592	3.000000e+00	4.038506e-04	
593	3.050000e+00	4.052991e-04	
594	3.100000e+00	4.065859e-04	
595	3.150000e+00	4.077145e-04	
596	3.200000e+00	4.086902e-04	
597	3.250000e+00	4.095209e-04	
598	3.300000e+00	4.102177e-04	
599	3.350000e+00	4.107945e-04	
600	3.400000e+00	4.112678e-04	
601	3.450000e+00	4.116543e-04	
602	3.500000e+00	4.119703e-04	
603	3.550000e+00	4.122303e-04	
604	3.600000e+00	4.124463e-04	
605	3.650000e+00	4.126278e-04	
606	3.700000e+00	4.127824e-04	
607	3.750000e+00	4.129157e-04	
608	3.800000e+00	4.130322e-04	
609	3.850000e+00	4.131352e-04	
610	3.900000e+00	4.132273e-04	
611	3.950000e+00	4.133105e-04	
612	4.000000e+00	4.133864e-04	
613	4.050000e+00	4.134561e-04	
614	4.100000e+00	4.135206e-04	
615	4.150000e+00	4.135808e-04	
616	4.200000e+00	4.136372e-04	
617	4.250000e+00	4.136904e-04	
618	4.300000e+00	4.137408e-04	
619	4.350000e+00	4.137887e-04	
620	4.400000e+00	4.138345e-04	
621	4.450000e+00	4.138784e-04	
622	4.500000e+00	4.139205e-04	
623	4.550000e+00	4.139612e-04	
624	4.600000e+00	4.140005e-04	
625	4.650000e+00	4.140386e-04	
626	4.700000e+00	4.140755e-04	
627	4.750000e+00	4.141115e-04	
628	4.800000e+00	4.141466e-04	
629	4.850000e+00	4.141808e-04	
630	4.900000e+00	4.142142e-04	
631	4.950000e+00	4.142470e-04	
632	5.000000e+00	4.142790e-04	
633	5.050000e+00	4.143105e-04	
634	5.100000e+00	4.143415e-04	

Index   v-sweep         -i(vds)         
--------------------------------------------------------------------------------
635	5.150000e+00	4.143719e-04	
636	5.200000e+00	4.144019e-04	
637	5.250000e+00	4.144314e-04	
638	5.300000e+00	4.144605e-04	
639	5.350000e+00	4.144893e-04	
640	5.400000e+00	4.145177e-04	
641	5.450000e+00	4.145459e-04	
642	5.500000e+00	4.145738e-04	
643	5.550000e+00	4.146016e-04	
644	5.600000e+00	4.146293e-04	
645	5.650000e+00	4.146569e-04	
646	5.700000e+00	4.146846e-04	
647	5.750000e+00	4.147125e-04	
648	5.800000e+00	4.147407e-04	
649	5.850000e+00	4.147694e-04	
650	5.900000e+00	4.147988e-04	
651	5.950000e+00	4.148290e-04	
652	6.000000e+00	4.148603e-04	
653	6.050000e+00	4.148932e-04	
654	6.100000e+00	4.149278e-04	
655	6.150000e+00	4.149647e-04	
656	6.200000e+00	4.150042e-04	
657	6.250000e+00	4.150470e-04	
658	6.300000e+00	4.150937e-04	
659	6.350000e+00	4.151448e-04	
660	6.400000e+00	4.152013e-04	
661	6.450000e+00	4.152639e-04	
662	6.500000e+00	4.153337e-04	
663	6.550000e+00	4.154116e-04	
664	6.600000e+00	4.154989e-04	
665	0.000000e+00	-0.000000e+00	
666	5.000000e-02	1.347119e-05	
667	1.000000e-01	2.677218e-05	
668	1.500000e-01	3.990341e-05	
669	2.000000e-01	5.286533e-05	
670	2.500000e-01	6.565838e-05	
671	3.000000e-01	7.828299e-05	
672	3.500000e-01	9.073959e-05	
673	4.000000e-01	1.030286e-04	
674	4.500000e-01	1.151505e-04	
675	5.000000e-01	1.271057e-04	
676	5.500000e-01	1.388946e-04	
677	6.000000e-01	1.505177e-04	
678	6.500000e-01	1.619753e-04	
679	7.000000e-01	1.732680e-04	
680	7.500000e-01	1.843961e-04	
681	8.000000e-01	1.953600e-04	
682	8.500000e-01	2.061602e-04	
683	9.000000e-01	2.167970e-04	
684	9.500000e-01	2.272710e-04	
685	1.000000e+00	2.375825e-04	
686	1.050000e+00	2.477319e-04	
687	1.100000e+00	2.577197e-04	
688	1.150000e+00	2.675462e-04	
689	1.200000e+00	2.772119e-04	
690	1.250000e+00	2.867172e-04	
691	1.300000e+00	2.960624e-04	
692	1.350000e+00	3.052481e-04	

Index   v-sweep         -i(vds)         
--------------------------------------------------------------------------------
693	1.400000e+00	3.142745e-04	
694	1.450000e+00	3.231421e-04	
695	1.500000e+00	3.318514e-04	
696	1.550000e+00	3.404026e-04	
697	1.600000e+00	3.487962e-04	
698	1.650000e+00	3.570326e-04	
699	1.700000e+00	3.651122e-04	
700	1.750000e+00	3.730353e-04	
701	1.800000e+00	3.808024e-04	
702	1.850000e+00	3.884139e-04	
703	1.900000e+00	3.958701e-04	
704	1.950000e+00	4.031715e-04	
705	2.000000e+00	4.103183e-04	
706	2.050000e+00	4.173111e-04	
707	2.100000e+00	4.241501e-04	
708	2.150000e+00	4.308358e-04	
709	2.200000e+00	4.373685e-04	
710	2.250000e+00	4.437486e-04	
711	2.300000e+00	4.499765e-04	
712	2.350000e+00	4.560526e-04	
713	2.400000e+00	4.619772e-04	
714	2.450000e+00	4.677506e-04	
715	2.500000e+00	4.733733e-04	
716	2.550000e+00	4.788456e-04	
717	2.600000e+00	4.841679e-04	
718	2.650000e+00	4.893405e-04	
719	2.700000e+00	4.943637e-04	
720	2.750000e+00	4.992380e-04	
721	2.800000e+00	5.039636e-04	
722	2.850000e+00	5.085409e-04	
723	2.900000e+00	5.129702e-04	
724	2.950000e+00	5.172518e-04	
725	3.000000e+00	5.213861e-04	
726	3.050000e+00	5.253733e-04	
727	3.100000e+00	5.292138e-04	
728	3.150000e+00	5.329078e-04	
729	3.200000e+00	5.364556e-04	
730	3.250000e+00	5.398576e-04	
731	3.300000e+00	5.431138e-04	
732	3.350000e+00	5.462246e-04	
733	3.400000e+00	5.491901e-04	
734	3.450000e+00	5.520105e-04	
735	3.500000e+00	5.546860e-04	
736	3.550000e+00	5.572167e-04	
737	3.600000e+00	5.596027e-04	
738	3.650000e+00	5.618441e-04	
739	3.700000e+00	5.639408e-04	
740	3.750000e+00	5.658930e-04	
741	3.800000e+00	5.677009e-04	
742	3.850000e+00	5.693645e-04	
743	3.900000e+00	5.708844e-04	
744	3.950000e+00	5.722616e-04	
745	4.000000e+00	5.734976e-04	
746	4.050000e+00	5.745954e-04	
747	4.100000e+00	5.755593e-04	
748	4.150000e+00	5.763959e-04	
749	4.200000e+00	5.771139e-04	
750	4.250000e+00	5.777244e-04	

Index   v-sweep         -i(vds)         
--------------------------------------------------------------------------------
751	4.300000e+00	5.782400e-04	
752	4.350000e+00	5.786739e-04	
753	4.400000e+00	5.790393e-04	
754	4.450000e+00	5.793481e-04	
755	4.500000e+00	5.796107e-04	
756	4.550000e+00	5.798358e-04	
757	4.600000e+00	5.800306e-04	
758	4.650000e+00	5.802008e-04	
759	4.700000e+00	5.803510e-04	
760	4.750000e+00	5.804848e-04	
761	4.800000e+00	5.806050e-04	
762	4.850000e+00	5.807139e-04	
763	4.900000e+00	5.808134e-04	
764	4.950000e+00	5.809049e-04	
765	5.000000e+00	5.809896e-04	
766	5.050000e+00	5.810685e-04	
767	5.100000e+00	5.811423e-04	
768	5.150000e+00	5.812118e-04	
769	5.200000e+00	5.812775e-04	
770	5.250000e+00	5.813398e-04	
771	5.300000e+00	5.813991e-04	
772	5.350000e+00	5.814558e-04	
773	5.400000e+00	5.815102e-04	
774	5.450000e+00	5.815624e-04	
775	5.500000e+00	5.816128e-04	
776	5.550000e+00	5.816614e-04	
777	5.600000e+00	5.817085e-04	
778	5.650000e+00	5.817542e-04	
779	5.700000e+00	5.817986e-04	
780	5.750000e+00	5.818418e-04	
781	5.800000e+00	5.818839e-04	
782	5.850000e+00	5.819250e-04	
783	5.900000e+00	5.819652e-04	
784	5.950000e+00	5.820046e-04	
785	6.000000e+00	5.820431e-04	
786	6.050000e+00	5.820810e-04	
787	6.100000e+00	5.821182e-04	
788	6.150000e+00	5.821547e-04	
789	6.200000e+00	5.821907e-04	
790	6.250000e+00	5.822262e-04	
791	6.300000e+00	5.822612e-04	
792	6.350000e+00	5.822959e-04	
793	6.400000e+00	5.823302e-04	
794	6.450000e+00	5.823643e-04	
795	6.500000e+00	5.823983e-04	
796	6.550000e+00	5.824323e-04	
797	6.600000e+00	5.824664e-04	
Note: No ".plot", ".print", or ".fourier" lines; no simulations run
