
Note: Compatibility modes selected: hs

Warning: m=xx on .subckt line will override multiplier m hierarchy!


Circuit: ***************************

Doing analysis at TEMP = 25.000000 and TNOM = 25.000000


No. of Data Rows : 798
                          ***************************
                          DC transfer characteristic  Mon Jan  9 13:57:40  2023
--------------------------------------------------------------------------------
Index   v-sweep         -i(vds)         
--------------------------------------------------------------------------------
0	0.000000e+00	-0.000000e+00	
1	5.000000e-02	1.494356e-05	
2	1.000000e-01	2.579148e-05	
3	1.500000e-01	3.278984e-05	
4	2.000000e-01	3.654615e-05	
5	2.500000e-01	3.830300e-05	
6	3.000000e-01	3.923927e-05	
7	3.500000e-01	3.986834e-05	
8	4.000000e-01	4.035454e-05	
9	4.500000e-01	4.075825e-05	
10	5.000000e-01	4.110736e-05	
11	5.500000e-01	4.141719e-05	
12	6.000000e-01	4.169717e-05	
13	6.500000e-01	4.195361e-05	
14	7.000000e-01	4.219096e-05	
15	7.500000e-01	4.241249e-05	
16	8.000000e-01	4.262069e-05	
17	8.500000e-01	4.281749e-05	
18	9.000000e-01	4.300444e-05	
19	9.500000e-01	4.318277e-05	
20	1.000000e+00	4.335351e-05	
21	1.050000e+00	4.351751e-05	
22	1.100000e+00	4.367549e-05	
23	1.150000e+00	4.382805e-05	
24	1.200000e+00	4.397571e-05	
25	1.250000e+00	4.411891e-05	
26	1.300000e+00	4.425805e-05	
27	1.350000e+00	4.439348e-05	
28	1.400000e+00	4.452548e-05	
29	1.450000e+00	4.465432e-05	
30	1.500000e+00	4.478024e-05	
31	1.550000e+00	4.490346e-05	
32	1.600000e+00	4.502415e-05	
33	1.650000e+00	4.514249e-05	
34	1.700000e+00	4.525863e-05	
35	1.750000e+00	4.537271e-05	
36	1.800000e+00	4.548485e-05	
37	1.850000e+00	4.559518e-05	
38	1.900000e+00	4.570379e-05	
39	1.950000e+00	4.581079e-05	
40	2.000000e+00	4.591626e-05	
41	2.050000e+00	4.602028e-05	
42	2.100000e+00	4.612294e-05	
43	2.150000e+00	4.622429e-05	
44	2.200000e+00	4.632441e-05	
45	2.250000e+00	4.642335e-05	
46	2.300000e+00	4.652118e-05	
47	2.350000e+00	4.661794e-05	
48	2.400000e+00	4.671370e-05	
49	2.450000e+00	4.680850e-05	
50	2.500000e+00	4.690238e-05	
51	2.550000e+00	4.699540e-05	
52	2.600000e+00	4.708760e-05	
53	2.650000e+00	4.717903e-05	
54	2.700000e+00	4.726973e-05	

Index   v-sweep         -i(vds)         
--------------------------------------------------------------------------------
55	2.750000e+00	4.735976e-05	
56	2.800000e+00	4.744916e-05	
57	2.850000e+00	4.753799e-05	
58	2.900000e+00	4.762631e-05	
59	2.950000e+00	4.771417e-05	
60	3.000000e+00	4.780165e-05	
61	3.050000e+00	4.788880e-05	
62	3.100000e+00	4.797572e-05	
63	3.150000e+00	4.806248e-05	
64	3.200000e+00	4.814917e-05	
65	3.250000e+00	4.823590e-05	
66	3.300000e+00	4.832278e-05	
67	3.350000e+00	4.840993e-05	
68	3.400000e+00	4.849748e-05	
69	3.450000e+00	4.858558e-05	
70	3.500000e+00	4.867438e-05	
71	3.550000e+00	4.876405e-05	
72	3.600000e+00	4.885477e-05	
73	3.650000e+00	4.894675e-05	
74	3.700000e+00	4.904020e-05	
75	3.750000e+00	4.913534e-05	
76	3.800000e+00	4.923244e-05	
77	3.850000e+00	4.933175e-05	
78	3.900000e+00	4.943354e-05	
79	3.950000e+00	4.953814e-05	
80	4.000000e+00	4.964584e-05	
81	4.050000e+00	4.975700e-05	
82	4.100000e+00	4.987196e-05	
83	4.150000e+00	4.999111e-05	
84	4.200000e+00	5.011485e-05	
85	4.250000e+00	5.024358e-05	
86	4.300000e+00	5.037775e-05	
87	4.350000e+00	5.051782e-05	
88	4.400000e+00	5.066426e-05	
89	4.450000e+00	5.081757e-05	
90	4.500000e+00	5.097827e-05	
91	4.550000e+00	5.114690e-05	
92	4.600000e+00	5.132403e-05	
93	4.650000e+00	5.151023e-05	
94	4.700000e+00	5.170609e-05	
95	4.750000e+00	5.191225e-05	
96	4.800000e+00	5.212935e-05	
97	4.850000e+00	5.235803e-05	
98	4.900000e+00	5.259898e-05	
99	4.950000e+00	5.285289e-05	
100	5.000000e+00	5.312048e-05	
101	5.050000e+00	5.340249e-05	
102	5.100000e+00	5.369966e-05	
103	5.150000e+00	5.401276e-05	
104	5.200000e+00	5.434257e-05	
105	5.250000e+00	5.468990e-05	
106	5.300000e+00	5.505556e-05	
107	5.350000e+00	5.544038e-05	
108	5.400000e+00	5.584521e-05	
109	5.450000e+00	5.627091e-05	
110	5.500000e+00	5.671835e-05	
111	5.550000e+00	5.718843e-05	
112	5.600000e+00	5.768203e-05	

Index   v-sweep         -i(vds)         
--------------------------------------------------------------------------------
113	5.650000e+00	5.820008e-05	
114	5.700000e+00	5.874349e-05	
115	5.750000e+00	5.931321e-05	
116	5.800000e+00	5.991018e-05	
117	5.850000e+00	6.053535e-05	
118	5.900000e+00	6.118969e-05	
119	5.950000e+00	6.187417e-05	
120	6.000000e+00	6.258978e-05	
121	6.050000e+00	6.333750e-05	
122	6.100000e+00	6.411833e-05	
123	6.150000e+00	6.493329e-05	
124	6.200000e+00	6.578336e-05	
125	6.250000e+00	6.666959e-05	
126	6.300000e+00	6.759297e-05	
127	6.350000e+00	6.855455e-05	
128	6.400000e+00	6.955535e-05	
129	6.450000e+00	7.059641e-05	
130	6.500000e+00	7.167875e-05	
131	6.550000e+00	7.280344e-05	
132	6.600000e+00	7.397149e-05	
133	0.000000e+00	-0.000000e+00	
134	5.000000e-02	6.761886e-05	
135	1.000000e-01	1.302587e-04	
136	1.500000e-01	1.880543e-04	
137	2.000000e-01	2.411358e-04	
138	2.500000e-01	2.896290e-04	
139	3.000000e-01	3.336555e-04	
140	3.500000e-01	3.733335e-04	
141	4.000000e-01	4.087783e-04	
142	4.500000e-01	4.401028e-04	
143	5.000000e-01	4.674202e-04	
144	5.500000e-01	4.908473e-04	
145	6.000000e-01	5.105153e-04	
146	6.500000e-01	5.265939e-04	
147	7.000000e-01	5.393449e-04	
148	7.500000e-01	5.491928e-04	
149	8.000000e-01	5.567269e-04	
150	8.500000e-01	5.625682e-04	
151	9.000000e-01	5.672243e-04	
152	9.500000e-01	5.710505e-04	
153	1.000000e+00	5.742813e-04	
154	1.050000e+00	5.770713e-04	
155	1.100000e+00	5.795248e-04	
156	1.150000e+00	5.817144e-04	
157	1.200000e+00	5.836919e-04	
158	1.250000e+00	5.854958e-04	
159	1.300000e+00	5.871551e-04	
160	1.350000e+00	5.886920e-04	
161	1.400000e+00	5.901243e-04	
162	1.450000e+00	5.914660e-04	
163	1.500000e+00	5.927286e-04	
164	1.550000e+00	5.939216e-04	
165	1.600000e+00	5.950527e-04	
166	1.650000e+00	5.961286e-04	
167	1.700000e+00	5.971550e-04	
168	1.750000e+00	5.981364e-04	
169	1.800000e+00	5.990773e-04	
170	1.850000e+00	5.999810e-04	

Index   v-sweep         -i(vds)         
--------------------------------------------------------------------------------
171	1.900000e+00	6.008507e-04	
172	1.950000e+00	6.016893e-04	
173	2.000000e+00	6.024991e-04	
174	2.050000e+00	6.032824e-04	
175	2.100000e+00	6.040409e-04	
176	2.150000e+00	6.047765e-04	
177	2.200000e+00	6.054907e-04	
178	2.250000e+00	6.061850e-04	
179	2.300000e+00	6.068605e-04	
180	2.350000e+00	6.075184e-04	
181	2.400000e+00	6.081598e-04	
182	2.450000e+00	6.087857e-04	
183	2.500000e+00	6.093969e-04	
184	2.550000e+00	6.099941e-04	
185	2.600000e+00	6.105783e-04	
186	2.650000e+00	6.111500e-04	
187	2.700000e+00	6.117099e-04	
188	2.750000e+00	6.122587e-04	
189	2.800000e+00	6.127967e-04	
190	2.850000e+00	6.133247e-04	
191	2.900000e+00	6.138431e-04	
192	2.950000e+00	6.143524e-04	
193	3.000000e+00	6.148530e-04	
194	3.050000e+00	6.153455e-04	
195	3.100000e+00	6.158303e-04	
196	3.150000e+00	6.163079e-04	
197	3.200000e+00	6.167787e-04	
198	3.250000e+00	6.172433e-04	
199	3.300000e+00	6.177022e-04	
200	3.350000e+00	6.181560e-04	
201	3.400000e+00	6.186053e-04	
202	3.450000e+00	6.190507e-04	
203	3.500000e+00	6.194929e-04	
204	3.550000e+00	6.199329e-04	
205	3.600000e+00	6.203713e-04	
206	3.650000e+00	6.208093e-04	
207	3.700000e+00	6.212478e-04	
208	3.750000e+00	6.216880e-04	
209	3.800000e+00	6.221313e-04	
210	3.850000e+00	6.225789e-04	
211	3.900000e+00	6.230325e-04	
212	3.950000e+00	6.234937e-04	
213	4.000000e+00	6.239645e-04	
214	4.050000e+00	6.244467e-04	
215	4.100000e+00	6.249425e-04	
216	4.150000e+00	6.254544e-04	
217	4.200000e+00	6.259849e-04	
218	4.250000e+00	6.265367e-04	
219	4.300000e+00	6.271127e-04	
220	4.350000e+00	6.277161e-04	
221	4.400000e+00	6.283502e-04	
222	4.450000e+00	6.290186e-04	
223	4.500000e+00	6.297251e-04	
224	4.550000e+00	6.304737e-04	
225	4.600000e+00	6.312687e-04	
226	4.650000e+00	6.321146e-04	
227	4.700000e+00	6.330160e-04	
228	4.750000e+00	6.339780e-04	

Index   v-sweep         -i(vds)         
--------------------------------------------------------------------------------
229	4.800000e+00	6.350056e-04	
230	4.850000e+00	6.361044e-04	
231	4.900000e+00	6.372800e-04	
232	4.950000e+00	6.385382e-04	
233	5.000000e+00	6.398854e-04	
234	5.050000e+00	6.413277e-04	
235	5.100000e+00	6.428718e-04	
236	5.150000e+00	6.445246e-04	
237	5.200000e+00	6.462931e-04	
238	5.250000e+00	6.481846e-04	
239	5.300000e+00	6.502066e-04	
240	5.350000e+00	6.523669e-04	
241	5.400000e+00	6.546732e-04	
242	5.450000e+00	6.571339e-04	
243	5.500000e+00	6.597572e-04	
244	5.550000e+00	6.625517e-04	
245	5.600000e+00	6.655260e-04	
246	5.650000e+00	6.686892e-04	
247	5.700000e+00	6.720502e-04	
248	5.750000e+00	6.756184e-04	
249	5.800000e+00	6.794031e-04	
250	5.850000e+00	6.834140e-04	
251	5.900000e+00	6.876608e-04	
252	5.950000e+00	6.921534e-04	
253	6.000000e+00	6.969017e-04	
254	6.050000e+00	7.019159e-04	
255	6.100000e+00	7.072064e-04	
256	6.150000e+00	7.127834e-04	
257	6.200000e+00	7.186576e-04	
258	6.250000e+00	7.248394e-04	
259	6.300000e+00	7.313396e-04	
260	6.350000e+00	7.381690e-04	
261	6.400000e+00	7.453385e-04	
262	6.450000e+00	7.528589e-04	
263	6.500000e+00	7.607413e-04	
264	6.550000e+00	7.689969e-04	
265	6.600000e+00	7.776366e-04	
266	0.000000e+00	-0.000000e+00	
267	5.000000e-02	1.086088e-04	
268	1.000000e-01	2.119319e-04	
269	1.500000e-01	3.101102e-04	
270	2.000000e-01	4.032797e-04	
271	2.500000e-01	4.915717e-04	
272	3.000000e-01	5.751126e-04	
273	3.500000e-01	6.540248e-04	
274	4.000000e-01	7.284261e-04	
275	4.500000e-01	7.984302e-04	
276	5.000000e-01	8.641469e-04	
277	5.500000e-01	9.256820e-04	
278	6.000000e-01	9.831376e-04	
279	6.500000e-01	1.036612e-03	
280	7.000000e-01	1.086199e-03	
281	7.500000e-01	1.131988e-03	
282	8.000000e-01	1.174064e-03	
283	8.500000e-01	1.212506e-03	
284	9.000000e-01	1.247382e-03	
285	9.500000e-01	1.278752e-03	
286	1.000000e+00	1.306659e-03	

Index   v-sweep         -i(vds)         
--------------------------------------------------------------------------------
287	1.050000e+00	1.331135e-03	
288	1.100000e+00	1.352218e-03	
289	1.150000e+00	1.370005e-03	
290	1.200000e+00	1.384730e-03	
291	1.250000e+00	1.396793e-03	
292	1.300000e+00	1.406688e-03	
293	1.350000e+00	1.414895e-03	
294	1.400000e+00	1.421812e-03	
295	1.450000e+00	1.427739e-03	
296	1.500000e+00	1.432901e-03	
297	1.550000e+00	1.437458e-03	
298	1.600000e+00	1.441532e-03	
299	1.650000e+00	1.445211e-03	
300	1.700000e+00	1.448564e-03	
301	1.750000e+00	1.451642e-03	
302	1.800000e+00	1.454488e-03	
303	1.850000e+00	1.457134e-03	
304	1.900000e+00	1.459606e-03	
305	1.950000e+00	1.461927e-03	
306	2.000000e+00	1.464114e-03	
307	2.050000e+00	1.466182e-03	
308	2.100000e+00	1.468144e-03	
309	2.150000e+00	1.470010e-03	
310	2.200000e+00	1.471791e-03	
311	2.250000e+00	1.473493e-03	
312	2.300000e+00	1.475124e-03	
313	2.350000e+00	1.476689e-03	
314	2.400000e+00	1.478195e-03	
315	2.450000e+00	1.479645e-03	
316	2.500000e+00	1.481045e-03	
317	2.550000e+00	1.482397e-03	
318	2.600000e+00	1.483705e-03	
319	2.650000e+00	1.484972e-03	
320	2.700000e+00	1.486200e-03	
321	2.750000e+00	1.487393e-03	
322	2.800000e+00	1.488552e-03	
323	2.850000e+00	1.489680e-03	
324	2.900000e+00	1.490778e-03	
325	2.950000e+00	1.491848e-03	
326	3.000000e+00	1.492891e-03	
327	3.050000e+00	1.493909e-03	
328	3.100000e+00	1.494903e-03	
329	3.150000e+00	1.495875e-03	
330	3.200000e+00	1.496826e-03	
331	3.250000e+00	1.497756e-03	
332	3.300000e+00	1.498667e-03	
333	3.350000e+00	1.499560e-03	
334	3.400000e+00	1.500435e-03	
335	3.450000e+00	1.501295e-03	
336	3.500000e+00	1.502139e-03	
337	3.550000e+00	1.502969e-03	
338	3.600000e+00	1.503785e-03	
339	3.650000e+00	1.504590e-03	
340	3.700000e+00	1.505383e-03	
341	3.750000e+00	1.506166e-03	
342	3.800000e+00	1.506941e-03	
343	3.850000e+00	1.507709e-03	
344	3.900000e+00	1.508471e-03	

Index   v-sweep         -i(vds)         
--------------------------------------------------------------------------------
345	3.950000e+00	1.509229e-03	
346	4.000000e+00	1.509985e-03	
347	4.050000e+00	1.510741e-03	
348	4.100000e+00	1.511500e-03	
349	4.150000e+00	1.512264e-03	
350	4.200000e+00	1.513036e-03	
351	4.250000e+00	1.513819e-03	
352	4.300000e+00	1.514616e-03	
353	4.350000e+00	1.515432e-03	
354	4.400000e+00	1.516271e-03	
355	4.450000e+00	1.517137e-03	
356	4.500000e+00	1.518035e-03	
357	4.550000e+00	1.518970e-03	
358	4.600000e+00	1.519949e-03	
359	4.650000e+00	1.520978e-03	
360	4.700000e+00	1.522063e-03	
361	4.750000e+00	1.523211e-03	
362	4.800000e+00	1.524432e-03	
363	4.850000e+00	1.525732e-03	
364	4.900000e+00	1.527120e-03	
365	4.950000e+00	1.528607e-03	
366	5.000000e+00	1.530201e-03	
367	5.050000e+00	1.531914e-03	
368	5.100000e+00	1.533756e-03	
369	5.150000e+00	1.535738e-03	
370	5.200000e+00	1.537874e-03	
371	5.250000e+00	1.540176e-03	
372	5.300000e+00	1.542656e-03	
373	5.350000e+00	1.545329e-03	
374	5.400000e+00	1.548210e-03	
375	5.450000e+00	1.551313e-03	
376	5.500000e+00	1.554654e-03	
377	5.550000e+00	1.558248e-03	
378	5.600000e+00	1.562113e-03	
379	5.650000e+00	1.566266e-03	
380	5.700000e+00	1.570724e-03	
381	5.750000e+00	1.575506e-03	
382	5.800000e+00	1.580630e-03	
383	5.850000e+00	1.586116e-03	
384	5.900000e+00	1.591983e-03	
385	5.950000e+00	1.598251e-03	
386	6.000000e+00	1.604942e-03	
387	6.050000e+00	1.612075e-03	
388	6.100000e+00	1.619674e-03	
389	6.150000e+00	1.627758e-03	
390	6.200000e+00	1.636352e-03	
391	6.250000e+00	1.645477e-03	
392	6.300000e+00	1.655157e-03	
393	6.350000e+00	1.665415e-03	
394	6.400000e+00	1.676275e-03	
395	6.450000e+00	1.687760e-03	
396	6.500000e+00	1.699896e-03	
397	6.550000e+00	1.712706e-03	
398	6.600000e+00	1.726216e-03	
399	0.000000e+00	-0.000000e+00	
400	5.000000e-02	1.395761e-04	
401	1.000000e-01	2.738609e-04	
402	1.500000e-01	4.029867e-04	

Index   v-sweep         -i(vds)         
--------------------------------------------------------------------------------
403	2.000000e-01	5.270817e-04	
404	2.500000e-01	6.462697e-04	
405	3.000000e-01	7.606706e-04	
406	3.500000e-01	8.704001e-04	
407	4.000000e-01	9.755702e-04	
408	4.500000e-01	1.076289e-03	
409	5.000000e-01	1.172662e-03	
410	5.500000e-01	1.264791e-03	
411	6.000000e-01	1.352772e-03	
412	6.500000e-01	1.436702e-03	
413	7.000000e-01	1.516672e-03	
414	7.500000e-01	1.592771e-03	
415	8.000000e-01	1.665085e-03	
416	8.500000e-01	1.733696e-03	
417	9.000000e-01	1.798685e-03	
418	9.500000e-01	1.860127e-03	
419	1.000000e+00	1.918097e-03	
420	1.050000e+00	1.972662e-03	
421	1.100000e+00	2.023888e-03	
422	1.150000e+00	2.071831e-03	
423	1.200000e+00	2.116542e-03	
424	1.250000e+00	2.158056e-03	
425	1.300000e+00	2.196396e-03	
426	1.350000e+00	2.231557e-03	
427	1.400000e+00	2.263509e-03	
428	1.450000e+00	2.292190e-03	
429	1.500000e+00	2.317540e-03	
430	1.550000e+00	2.339552e-03	
431	1.600000e+00	2.358355e-03	
432	1.650000e+00	2.374245e-03	
433	1.700000e+00	2.387639e-03	
434	1.750000e+00	2.398986e-03	
435	1.800000e+00	2.408693e-03	
436	1.850000e+00	2.417098e-03	
437	1.900000e+00	2.424463e-03	
438	1.950000e+00	2.430993e-03	
439	2.000000e+00	2.436843e-03	
440	2.050000e+00	2.442132e-03	
441	2.100000e+00	2.446953e-03	
442	2.150000e+00	2.451379e-03	
443	2.200000e+00	2.455468e-03	
444	2.250000e+00	2.459267e-03	
445	2.300000e+00	2.462813e-03	
446	2.350000e+00	2.466137e-03	
447	2.400000e+00	2.469266e-03	
448	2.450000e+00	2.472222e-03	
449	2.500000e+00	2.475023e-03	
450	2.550000e+00	2.477683e-03	
451	2.600000e+00	2.480218e-03	
452	2.650000e+00	2.482639e-03	
453	2.700000e+00	2.484955e-03	
454	2.750000e+00	2.487176e-03	
455	2.800000e+00	2.489309e-03	
456	2.850000e+00	2.491361e-03	
457	2.900000e+00	2.493338e-03	
458	2.950000e+00	2.495247e-03	
459	3.000000e+00	2.497091e-03	
460	3.050000e+00	2.498875e-03	

Index   v-sweep         -i(vds)         
--------------------------------------------------------------------------------
461	3.100000e+00	2.500603e-03	
462	3.150000e+00	2.502279e-03	
463	3.200000e+00	2.503906e-03	
464	3.250000e+00	2.505487e-03	
465	3.300000e+00	2.507024e-03	
466	3.350000e+00	2.508520e-03	
467	3.400000e+00	2.509978e-03	
468	3.450000e+00	2.511399e-03	
469	3.500000e+00	2.512786e-03	
470	3.550000e+00	2.514139e-03	
471	3.600000e+00	2.515462e-03	
472	3.650000e+00	2.516755e-03	
473	3.700000e+00	2.518021e-03	
474	3.750000e+00	2.519260e-03	
475	3.800000e+00	2.520474e-03	
476	3.850000e+00	2.521665e-03	
477	3.900000e+00	2.522834e-03	
478	3.950000e+00	2.523982e-03	
479	4.000000e+00	2.525112e-03	
480	4.050000e+00	2.526224e-03	
481	4.100000e+00	2.527322e-03	
482	4.150000e+00	2.528405e-03	
483	4.200000e+00	2.529478e-03	
484	4.250000e+00	2.530541e-03	
485	4.300000e+00	2.531598e-03	
486	4.350000e+00	2.532652e-03	
487	4.400000e+00	2.533705e-03	
488	4.450000e+00	2.534761e-03	
489	4.500000e+00	2.535824e-03	
490	4.550000e+00	2.536899e-03	
491	4.600000e+00	2.537990e-03	
492	4.650000e+00	2.539102e-03	
493	4.700000e+00	2.540242e-03	
494	4.750000e+00	2.541415e-03	
495	4.800000e+00	2.542630e-03	
496	4.850000e+00	2.543893e-03	
497	4.900000e+00	2.545213e-03	
498	4.950000e+00	2.546599e-03	
499	5.000000e+00	2.548061e-03	
500	5.050000e+00	2.549609e-03	
501	5.100000e+00	2.551256e-03	
502	5.150000e+00	2.553012e-03	
503	5.200000e+00	2.554892e-03	
504	5.250000e+00	2.556909e-03	
505	5.300000e+00	2.559078e-03	
506	5.350000e+00	2.561415e-03	
507	5.400000e+00	2.563936e-03	
508	5.450000e+00	2.566659e-03	
509	5.500000e+00	2.569602e-03	
510	5.550000e+00	2.572786e-03	
511	5.600000e+00	2.576230e-03	
512	5.650000e+00	2.579955e-03	
513	5.700000e+00	2.583985e-03	
514	5.750000e+00	2.588342e-03	
515	5.800000e+00	2.593050e-03	
516	5.850000e+00	2.598135e-03	
517	5.900000e+00	2.603623e-03	
518	5.950000e+00	2.609541e-03	

Index   v-sweep         -i(vds)         
--------------------------------------------------------------------------------
519	6.000000e+00	2.615916e-03	
520	6.050000e+00	2.622777e-03	
521	6.100000e+00	2.630154e-03	
522	6.150000e+00	2.638078e-03	
523	6.200000e+00	2.646579e-03	
524	6.250000e+00	2.655691e-03	
525	6.300000e+00	2.665445e-03	
526	6.350000e+00	2.675877e-03	
527	6.400000e+00	2.687019e-03	
528	6.450000e+00	2.698908e-03	
529	6.500000e+00	2.711579e-03	
530	6.550000e+00	2.725069e-03	
531	6.600000e+00	2.739416e-03	
532	0.000000e+00	-0.000000e+00	
533	5.000000e-02	1.616589e-04	
534	1.000000e-01	3.182514e-04	
535	1.500000e-01	4.698937e-04	
536	2.000000e-01	6.166984e-04	
537	2.500000e-01	7.587747e-04	
538	3.000000e-01	8.962286e-04	
539	3.500000e-01	1.029163e-03	
540	4.000000e-01	1.157677e-03	
541	4.500000e-01	1.281868e-03	
542	5.000000e-01	1.401829e-03	
543	5.500000e-01	1.517651e-03	
544	6.000000e-01	1.629424e-03	
545	6.500000e-01	1.737231e-03	
546	7.000000e-01	1.841157e-03	
547	7.500000e-01	1.941283e-03	
548	8.000000e-01	2.037685e-03	
549	8.500000e-01	2.130442e-03	
550	9.000000e-01	2.219626e-03	
551	9.500000e-01	2.305309e-03	
552	1.000000e+00	2.387562e-03	
553	1.050000e+00	2.466450e-03	
554	1.100000e+00	2.542040e-03	
555	1.150000e+00	2.614395e-03	
556	1.200000e+00	2.683576e-03	
557	1.250000e+00	2.749641e-03	
558	1.300000e+00	2.812646e-03	
559	1.350000e+00	2.872644e-03	
560	1.400000e+00	2.929683e-03	
561	1.450000e+00	2.983806e-03	
562	1.500000e+00	3.035053e-03	
563	1.550000e+00	3.083450e-03	
564	1.600000e+00	3.129014e-03	
565	1.650000e+00	3.171743e-03	
566	1.700000e+00	3.211612e-03	
567	1.750000e+00	3.248566e-03	
568	1.800000e+00	3.282513e-03	
569	1.850000e+00	3.313340e-03	
570	1.900000e+00	3.340941e-03	
571	1.950000e+00	3.365278e-03	
572	2.000000e+00	3.386450e-03	
573	2.050000e+00	3.404705e-03	
574	2.100000e+00	3.420404e-03	
575	2.150000e+00	3.433945e-03	
576	2.200000e+00	3.445704e-03	

Index   v-sweep         -i(vds)         
--------------------------------------------------------------------------------
577	2.250000e+00	3.456009e-03	
578	2.300000e+00	3.465124e-03	
579	2.350000e+00	3.473264e-03	
580	2.400000e+00	3.480596e-03	
581	2.450000e+00	3.487253e-03	
582	2.500000e+00	3.493342e-03	
583	2.550000e+00	3.498946e-03	
584	2.600000e+00	3.504133e-03	
585	2.650000e+00	3.508958e-03	
586	2.700000e+00	3.513469e-03	
587	2.750000e+00	3.517701e-03	
588	2.800000e+00	3.521687e-03	
589	2.850000e+00	3.525454e-03	
590	2.900000e+00	3.529024e-03	
591	2.950000e+00	3.532418e-03	
592	3.000000e+00	3.535650e-03	
593	3.050000e+00	3.538737e-03	
594	3.100000e+00	3.541691e-03	
595	3.150000e+00	3.544523e-03	
596	3.200000e+00	3.547243e-03	
597	3.250000e+00	3.549859e-03	
598	3.300000e+00	3.552379e-03	
599	3.350000e+00	3.554811e-03	
600	3.400000e+00	3.557161e-03	
601	3.450000e+00	3.559433e-03	
602	3.500000e+00	3.561633e-03	
603	3.550000e+00	3.563766e-03	
604	3.600000e+00	3.565836e-03	
605	3.650000e+00	3.567847e-03	
606	3.700000e+00	3.569801e-03	
607	3.750000e+00	3.571703e-03	
608	3.800000e+00	3.573555e-03	
609	3.850000e+00	3.575360e-03	
610	3.900000e+00	3.577120e-03	
611	3.950000e+00	3.578838e-03	
612	4.000000e+00	3.580516e-03	
613	4.050000e+00	3.582157e-03	
614	4.100000e+00	3.583761e-03	
615	4.150000e+00	3.585332e-03	
616	4.200000e+00	3.586870e-03	
617	4.250000e+00	3.588379e-03	
618	4.300000e+00	3.589860e-03	
619	4.350000e+00	3.591315e-03	
620	4.400000e+00	3.592747e-03	
621	4.450000e+00	3.594157e-03	
622	4.500000e+00	3.595548e-03	
623	4.550000e+00	3.596923e-03	
624	4.600000e+00	3.598286e-03	
625	4.650000e+00	3.599638e-03	
626	4.700000e+00	3.600984e-03	
627	4.750000e+00	3.602329e-03	
628	4.800000e+00	3.603676e-03	
629	4.850000e+00	3.605031e-03	
630	4.900000e+00	3.606399e-03	
631	4.950000e+00	3.607788e-03	
632	5.000000e+00	3.609203e-03	
633	5.050000e+00	3.610652e-03	
634	5.100000e+00	3.612145e-03	

Index   v-sweep         -i(vds)         
--------------------------------------------------------------------------------
635	5.150000e+00	3.613689e-03	
636	5.200000e+00	3.615297e-03	
637	5.250000e+00	3.616978e-03	
638	5.300000e+00	3.618745e-03	
639	5.350000e+00	3.620612e-03	
640	5.400000e+00	3.622591e-03	
641	5.450000e+00	3.624700e-03	
642	5.500000e+00	3.626953e-03	
643	5.550000e+00	3.629370e-03	
644	5.600000e+00	3.631968e-03	
645	5.650000e+00	3.634768e-03	
646	5.700000e+00	3.637792e-03	
647	5.750000e+00	3.641062e-03	
648	5.800000e+00	3.644602e-03	
649	5.850000e+00	3.648437e-03	
650	5.900000e+00	3.652594e-03	
651	5.950000e+00	3.657101e-03	
652	6.000000e+00	3.661988e-03	
653	6.050000e+00	3.667284e-03	
654	6.100000e+00	3.673023e-03	
655	6.150000e+00	3.679237e-03	
656	6.200000e+00	3.685961e-03	
657	6.250000e+00	3.693231e-03	
658	6.300000e+00	3.701085e-03	
659	6.350000e+00	3.709561e-03	
660	6.400000e+00	3.718699e-03	
661	6.450000e+00	3.728540e-03	
662	6.500000e+00	3.739126e-03	
663	6.550000e+00	3.750502e-03	
664	6.600000e+00	3.762711e-03	
665	0.000000e+00	-0.000000e+00	
666	5.000000e-02	1.763503e-04	
667	1.000000e-01	3.480008e-04	
668	1.500000e-01	5.150491e-04	
669	2.000000e-01	6.775897e-04	
670	2.500000e-01	8.357148e-04	
671	3.000000e-01	9.895139e-04	
672	3.500000e-01	1.139074e-03	
673	4.000000e-01	1.284480e-03	
674	4.500000e-01	1.425815e-03	
675	5.000000e-01	1.563159e-03	
676	5.500000e-01	1.696589e-03	
677	6.000000e-01	1.826182e-03	
678	6.500000e-01	1.952012e-03	
679	7.000000e-01	2.074150e-03	
680	7.500000e-01	2.192668e-03	
681	8.000000e-01	2.307632e-03	
682	8.500000e-01	2.419111e-03	
683	9.000000e-01	2.527167e-03	
684	9.500000e-01	2.631865e-03	
685	1.000000e+00	2.733265e-03	
686	1.050000e+00	2.831428e-03	
687	1.100000e+00	2.926412e-03	
688	1.150000e+00	3.018273e-03	
689	1.200000e+00	3.107067e-03	
690	1.250000e+00	3.192849e-03	
691	1.300000e+00	3.275669e-03	
692	1.350000e+00	3.355580e-03	

Index   v-sweep         -i(vds)         
--------------------------------------------------------------------------------
693	1.400000e+00	3.432630e-03	
694	1.450000e+00	3.506869e-03	
695	1.500000e+00	3.578342e-03	
696	1.550000e+00	3.647094e-03	
697	1.600000e+00	3.713167e-03	
698	1.650000e+00	3.776603e-03	
699	1.700000e+00	3.837440e-03	
700	1.750000e+00	3.895710e-03	
701	1.800000e+00	3.951446e-03	
702	1.850000e+00	4.004670e-03	
703	1.900000e+00	4.055400e-03	
704	1.950000e+00	4.103642e-03	
705	2.000000e+00	4.149388e-03	
706	2.050000e+00	4.192609e-03	
707	2.100000e+00	4.233252e-03	
708	2.150000e+00	4.271230e-03	
709	2.200000e+00	4.306425e-03	
710	2.250000e+00	4.338702e-03	
711	2.300000e+00	4.367939e-03	
712	2.350000e+00	4.394080e-03	
713	2.400000e+00	4.417185e-03	
714	2.450000e+00	4.437446e-03	
715	2.500000e+00	4.455156e-03	
716	2.550000e+00	4.470656e-03	
717	2.600000e+00	4.484286e-03	
718	2.650000e+00	4.496349e-03	
719	2.700000e+00	4.507106e-03	
720	2.750000e+00	4.516773e-03	
721	2.800000e+00	4.525525e-03	
722	2.850000e+00	4.533503e-03	
723	2.900000e+00	4.540823e-03	
724	2.950000e+00	4.547576e-03	
725	3.000000e+00	4.553840e-03	
726	3.050000e+00	4.559677e-03	
727	3.100000e+00	4.565139e-03	
728	3.150000e+00	4.570271e-03	
729	3.200000e+00	4.575108e-03	
730	3.250000e+00	4.579682e-03	
731	3.300000e+00	4.584020e-03	
732	3.350000e+00	4.588145e-03	
733	3.400000e+00	4.592076e-03	
734	3.450000e+00	4.595830e-03	
735	3.500000e+00	4.599424e-03	
736	3.550000e+00	4.602869e-03	
737	3.600000e+00	4.606179e-03	
738	3.650000e+00	4.609363e-03	
739	3.700000e+00	4.612430e-03	
740	3.750000e+00	4.615390e-03	
741	3.800000e+00	4.618248e-03	
742	3.850000e+00	4.621014e-03	
743	3.900000e+00	4.623691e-03	
744	3.950000e+00	4.626286e-03	
745	4.000000e+00	4.628804e-03	
746	4.050000e+00	4.631249e-03	
747	4.100000e+00	4.633626e-03	
748	4.150000e+00	4.635939e-03	
749	4.200000e+00	4.638191e-03	
750	4.250000e+00	4.640385e-03	

Index   v-sweep         -i(vds)         
--------------------------------------------------------------------------------
751	4.300000e+00	4.642524e-03	
752	4.350000e+00	4.644612e-03	
753	4.400000e+00	4.646651e-03	
754	4.450000e+00	4.648643e-03	
755	4.500000e+00	4.650592e-03	
756	4.550000e+00	4.652499e-03	
757	4.600000e+00	4.654368e-03	
758	4.650000e+00	4.656200e-03	
759	4.700000e+00	4.657998e-03	
760	4.750000e+00	4.659765e-03	
761	4.800000e+00	4.661503e-03	
762	4.850000e+00	4.663216e-03	
763	4.900000e+00	4.664906e-03	
764	4.950000e+00	4.666578e-03	
765	5.000000e+00	4.668234e-03	
766	5.050000e+00	4.669880e-03	
767	5.100000e+00	4.671520e-03	
768	5.150000e+00	4.673160e-03	
769	5.200000e+00	4.674805e-03	
770	5.250000e+00	4.676462e-03	
771	5.300000e+00	4.678139e-03	
772	5.350000e+00	4.679844e-03	
773	5.400000e+00	4.681585e-03	
774	5.450000e+00	4.683374e-03	
775	5.500000e+00	4.685221e-03	
776	5.550000e+00	4.687138e-03	
777	5.600000e+00	4.689139e-03	
778	5.650000e+00	4.691239e-03	
779	5.700000e+00	4.693452e-03	
780	5.750000e+00	4.695797e-03	
781	5.800000e+00	4.698292e-03	
782	5.850000e+00	4.700958e-03	
783	5.900000e+00	4.703814e-03	
784	5.950000e+00	4.706886e-03	
785	6.000000e+00	4.710197e-03	
786	6.050000e+00	4.713773e-03	
787	6.100000e+00	4.717644e-03	
788	6.150000e+00	4.721837e-03	
789	6.200000e+00	4.726384e-03	
790	6.250000e+00	4.731319e-03	
791	6.300000e+00	4.736676e-03	
792	6.350000e+00	4.742492e-03	
793	6.400000e+00	4.748804e-03	
794	6.450000e+00	4.755652e-03	
795	6.500000e+00	4.763079e-03	
796	6.550000e+00	4.771128e-03	
797	6.600000e+00	4.779844e-03	
Note: No ".plot", ".print", or ".fourier" lines; no simulations run
