
Note: Compatibility modes selected: hs

Warning: m=xx on .subckt line will override multiplier m hierarchy!


Circuit: ***************************

Doing analysis at TEMP = -40.000000 and TNOM = -40.000000


No. of Data Rows : 798
                          ***************************
                          DC transfer characteristic  Mon Jan  9 13:57:41  2023
--------------------------------------------------------------------------------
Index   v-sweep         -i(vds)         
--------------------------------------------------------------------------------
0	0.000000e+00	-0.000000e+00	
1	5.000000e-02	1.151670e-05	
2	1.000000e-01	1.856567e-05	
3	1.500000e-01	2.205618e-05	
4	2.000000e-01	2.367581e-05	
5	2.500000e-01	2.465216e-05	
6	3.000000e-01	2.538346e-05	
7	3.500000e-01	2.598865e-05	
8	4.000000e-01	2.651556e-05	
9	4.500000e-01	2.698854e-05	
10	5.000000e-01	2.742193e-05	
11	5.500000e-01	2.782495e-05	
12	6.000000e-01	2.820393e-05	
13	6.500000e-01	2.856340e-05	
14	7.000000e-01	2.890674e-05	
15	7.500000e-01	2.923652e-05	
16	8.000000e-01	2.955474e-05	
17	8.500000e-01	2.986302e-05	
18	9.000000e-01	3.016263e-05	
19	9.500000e-01	3.045466e-05	
20	1.000000e+00	3.073997e-05	
21	1.050000e+00	3.101931e-05	
22	1.100000e+00	3.129331e-05	
23	1.150000e+00	3.156250e-05	
24	1.200000e+00	3.182736e-05	
25	1.250000e+00	3.208826e-05	
26	1.300000e+00	3.234558e-05	
27	1.350000e+00	3.259961e-05	
28	1.400000e+00	3.285062e-05	
29	1.450000e+00	3.309885e-05	
30	1.500000e+00	3.334453e-05	
31	1.550000e+00	3.358783e-05	
32	1.600000e+00	3.382894e-05	
33	1.650000e+00	3.406800e-05	
34	1.700000e+00	3.430515e-05	
35	1.750000e+00	3.454053e-05	
36	1.800000e+00	3.477424e-05	
37	1.850000e+00	3.500639e-05	
38	1.900000e+00	3.523708e-05	
39	1.950000e+00	3.546640e-05	
40	2.000000e+00	3.569442e-05	
41	2.050000e+00	3.592122e-05	
42	2.100000e+00	3.614688e-05	
43	2.150000e+00	3.637144e-05	
44	2.200000e+00	3.659499e-05	
45	2.250000e+00	3.681756e-05	
46	2.300000e+00	3.703921e-05	
47	2.350000e+00	3.726000e-05	
48	2.400000e+00	3.747997e-05	
49	2.450000e+00	3.769916e-05	
50	2.500000e+00	3.791763e-05	
51	2.550000e+00	3.813541e-05	
52	2.600000e+00	3.835255e-05	
53	2.650000e+00	3.856909e-05	
54	2.700000e+00	3.878509e-05	

Index   v-sweep         -i(vds)         
--------------------------------------------------------------------------------
55	2.750000e+00	3.900057e-05	
56	2.800000e+00	3.921560e-05	
57	2.850000e+00	3.943023e-05	
58	2.900000e+00	3.964451e-05	
59	2.950000e+00	3.985850e-05	
60	3.000000e+00	4.007227e-05	
61	3.050000e+00	4.028589e-05	
62	3.100000e+00	4.049943e-05	
63	3.150000e+00	4.071298e-05	
64	3.200000e+00	4.092663e-05	
65	3.250000e+00	4.114049e-05	
66	3.300000e+00	4.135467e-05	
67	3.350000e+00	4.156928e-05	
68	3.400000e+00	4.178447e-05	
69	3.450000e+00	4.200038e-05	
70	3.500000e+00	4.221717e-05	
71	3.550000e+00	4.243501e-05	
72	3.600000e+00	4.265410e-05	
73	3.650000e+00	4.287463e-05	
74	3.700000e+00	4.309683e-05	
75	3.750000e+00	4.332094e-05	
76	3.800000e+00	4.354720e-05	
77	3.850000e+00	4.377591e-05	
78	3.900000e+00	4.400734e-05	
79	3.950000e+00	4.424181e-05	
80	4.000000e+00	4.447966e-05	
81	4.050000e+00	4.472123e-05	
82	4.100000e+00	4.496691e-05	
83	4.150000e+00	4.521709e-05	
84	4.200000e+00	4.547219e-05	
85	4.250000e+00	4.573266e-05	
86	4.300000e+00	4.599895e-05	
87	4.350000e+00	4.627156e-05	
88	4.400000e+00	4.655100e-05	
89	4.450000e+00	4.683780e-05	
90	4.500000e+00	4.713253e-05	
91	4.550000e+00	4.743576e-05	
92	4.600000e+00	4.774812e-05	
93	4.650000e+00	4.807022e-05	
94	4.700000e+00	4.840274e-05	
95	4.750000e+00	4.874634e-05	
96	4.800000e+00	4.910173e-05	
97	4.850000e+00	4.946965e-05	
98	4.900000e+00	4.985085e-05	
99	4.950000e+00	5.024611e-05	
100	5.000000e+00	5.065623e-05	
101	5.050000e+00	5.108204e-05	
102	5.100000e+00	5.152438e-05	
103	5.150000e+00	5.198413e-05	
104	5.200000e+00	5.246218e-05	
105	5.250000e+00	5.295946e-05	
106	5.300000e+00	5.347691e-05	
107	5.350000e+00	5.401549e-05	
108	5.400000e+00	5.457617e-05	
109	5.450000e+00	5.515998e-05	
110	5.500000e+00	5.576794e-05	
111	5.550000e+00	5.640110e-05	
112	5.600000e+00	5.706052e-05	

Index   v-sweep         -i(vds)         
--------------------------------------------------------------------------------
113	5.650000e+00	5.774729e-05	
114	5.700000e+00	5.846253e-05	
115	5.750000e+00	5.920735e-05	
116	5.800000e+00	5.998291e-05	
117	5.850000e+00	6.079037e-05	
118	5.900000e+00	6.163090e-05	
119	5.950000e+00	6.250572e-05	
120	6.000000e+00	6.341602e-05	
121	6.050000e+00	6.436305e-05	
122	6.100000e+00	6.534805e-05	
123	6.150000e+00	6.637228e-05	
124	6.200000e+00	6.743703e-05	
125	6.250000e+00	6.854357e-05	
126	6.300000e+00	6.969322e-05	
127	6.350000e+00	7.088729e-05	
128	6.400000e+00	7.212712e-05	
129	6.450000e+00	7.341405e-05	
130	6.500000e+00	7.474943e-05	
131	6.550000e+00	7.613464e-05	
132	6.600000e+00	7.757104e-05	
133	0.000000e+00	-0.000000e+00	
134	5.000000e-02	6.209425e-05	
135	1.000000e-01	1.183003e-04	
136	1.500000e-01	1.689147e-04	
137	2.000000e-01	2.142138e-04	
138	2.500000e-01	2.544547e-04	
139	3.000000e-01	2.898758e-04	
140	3.500000e-01	3.206966e-04	
141	4.000000e-01	3.471147e-04	
142	4.500000e-01	3.693017e-04	
143	5.000000e-01	3.874084e-04	
144	5.500000e-01	4.016282e-04	
145	6.000000e-01	4.123724e-04	
146	6.500000e-01	4.203625e-04	
147	7.000000e-01	4.264061e-04	
148	7.500000e-01	4.311401e-04	
149	8.000000e-01	4.349865e-04	
150	8.500000e-01	4.382119e-04	
151	9.000000e-01	4.409862e-04	
152	9.500000e-01	4.434214e-04	
153	1.000000e+00	4.455939e-04	
154	1.050000e+00	4.475578e-04	
155	1.100000e+00	4.493524e-04	
156	1.150000e+00	4.510070e-04	
157	1.200000e+00	4.525441e-04	
158	1.250000e+00	4.539814e-04	
159	1.300000e+00	4.553327e-04	
160	1.350000e+00	4.566094e-04	
161	1.400000e+00	4.578205e-04	
162	1.450000e+00	4.589739e-04	
163	1.500000e+00	4.600758e-04	
164	1.550000e+00	4.611316e-04	
165	1.600000e+00	4.621460e-04	
166	1.650000e+00	4.631228e-04	
167	1.700000e+00	4.640655e-04	
168	1.750000e+00	4.649770e-04	
169	1.800000e+00	4.658600e-04	
170	1.850000e+00	4.667167e-04	

Index   v-sweep         -i(vds)         
--------------------------------------------------------------------------------
171	1.900000e+00	4.675492e-04	
172	1.950000e+00	4.683593e-04	
173	2.000000e+00	4.691486e-04	
174	2.050000e+00	4.699185e-04	
175	2.100000e+00	4.706703e-04	
176	2.150000e+00	4.714052e-04	
177	2.200000e+00	4.721243e-04	
178	2.250000e+00	4.728286e-04	
179	2.300000e+00	4.735188e-04	
180	2.350000e+00	4.741959e-04	
181	2.400000e+00	4.748606e-04	
182	2.450000e+00	4.755135e-04	
183	2.500000e+00	4.761553e-04	
184	2.550000e+00	4.767866e-04	
185	2.600000e+00	4.774079e-04	
186	2.650000e+00	4.780198e-04	
187	2.700000e+00	4.786226e-04	
188	2.750000e+00	4.792169e-04	
189	2.800000e+00	4.798032e-04	
190	2.850000e+00	4.803818e-04	
191	2.900000e+00	4.809531e-04	
192	2.950000e+00	4.815176e-04	
193	3.000000e+00	4.820758e-04	
194	3.050000e+00	4.826279e-04	
195	3.100000e+00	4.831745e-04	
196	3.150000e+00	4.837161e-04	
197	3.200000e+00	4.842531e-04	
198	3.250000e+00	4.847860e-04	
199	3.300000e+00	4.853154e-04	
200	3.350000e+00	4.858420e-04	
201	3.400000e+00	4.863663e-04	
202	3.450000e+00	4.868892e-04	
203	3.500000e+00	4.874114e-04	
204	3.550000e+00	4.879338e-04	
205	3.600000e+00	4.884574e-04	
206	3.650000e+00	4.889833e-04	
207	3.700000e+00	4.895125e-04	
208	3.750000e+00	4.900464e-04	
209	3.800000e+00	4.905864e-04	
210	3.850000e+00	4.911340e-04	
211	3.900000e+00	4.916908e-04	
212	3.950000e+00	4.922586e-04	
213	4.000000e+00	4.928393e-04	
214	4.050000e+00	4.934351e-04	
215	4.100000e+00	4.940481e-04	
216	4.150000e+00	4.946807e-04	
217	4.200000e+00	4.953355e-04	
218	4.250000e+00	4.960152e-04	
219	4.300000e+00	4.967227e-04	
220	4.350000e+00	4.974612e-04	
221	4.400000e+00	4.982338e-04	
222	4.450000e+00	4.990441e-04	
223	4.500000e+00	4.998956e-04	
224	4.550000e+00	5.007923e-04	
225	4.600000e+00	5.017380e-04	
226	4.650000e+00	5.027371e-04	
227	4.700000e+00	5.037940e-04	
228	4.750000e+00	5.049131e-04	

Index   v-sweep         -i(vds)         
--------------------------------------------------------------------------------
229	4.800000e+00	5.060994e-04	
230	4.850000e+00	5.073578e-04	
231	4.900000e+00	5.086935e-04	
232	4.950000e+00	5.101118e-04	
233	5.000000e+00	5.116184e-04	
234	5.050000e+00	5.132188e-04	
235	5.100000e+00	5.149191e-04	
236	5.150000e+00	5.167253e-04	
237	5.200000e+00	5.186438e-04	
238	5.250000e+00	5.206809e-04	
239	5.300000e+00	5.228433e-04	
240	5.350000e+00	5.251378e-04	
241	5.400000e+00	5.275712e-04	
242	5.450000e+00	5.301508e-04	
243	5.500000e+00	5.328838e-04	
244	5.550000e+00	5.357775e-04	
245	5.600000e+00	5.388396e-04	
246	5.650000e+00	5.420777e-04	
247	5.700000e+00	5.454996e-04	
248	5.750000e+00	5.491133e-04	
249	5.800000e+00	5.529268e-04	
250	5.850000e+00	5.569484e-04	
251	5.900000e+00	5.611863e-04	
252	5.950000e+00	5.656489e-04	
253	6.000000e+00	5.703448e-04	
254	6.050000e+00	5.752826e-04	
255	6.100000e+00	5.804709e-04	
256	6.150000e+00	5.859185e-04	
257	6.200000e+00	5.916343e-04	
258	6.250000e+00	5.976272e-04	
259	6.300000e+00	6.039063e-04	
260	6.350000e+00	6.104805e-04	
261	6.400000e+00	6.173590e-04	
262	6.450000e+00	6.245510e-04	
263	6.500000e+00	6.320657e-04	
264	6.550000e+00	6.399124e-04	
265	6.600000e+00	6.481003e-04	
266	0.000000e+00	-0.000000e+00	
267	5.000000e-02	9.960196e-05	
268	1.000000e-01	1.926186e-04	
269	1.500000e-01	2.793722e-04	
270	2.000000e-01	3.601636e-04	
271	2.500000e-01	4.352735e-04	
272	3.000000e-01	5.049634e-04	
273	3.500000e-01	5.694767e-04	
274	4.000000e-01	6.290396e-04	
275	4.500000e-01	6.838612e-04	
276	5.000000e-01	7.341334e-04	
277	5.500000e-01	7.800283e-04	
278	6.000000e-01	8.216939e-04	
279	6.500000e-01	8.592435e-04	
280	7.000000e-01	8.927387e-04	
281	7.500000e-01	9.221671e-04	
282	8.000000e-01	9.474364e-04	
283	8.500000e-01	9.684521e-04	
284	9.000000e-01	9.853266e-04	
285	9.500000e-01	9.985527e-04	
286	1.000000e+00	1.008889e-03	

Index   v-sweep         -i(vds)         
--------------------------------------------------------------------------------
287	1.050000e+00	1.017090e-03	
288	1.100000e+00	1.023752e-03	
289	1.150000e+00	1.029296e-03	
290	1.200000e+00	1.034013e-03	
291	1.250000e+00	1.038105e-03	
292	1.300000e+00	1.041711e-03	
293	1.350000e+00	1.044932e-03	
294	1.400000e+00	1.047842e-03	
295	1.450000e+00	1.050496e-03	
296	1.500000e+00	1.052936e-03	
297	1.550000e+00	1.055195e-03	
298	1.600000e+00	1.057299e-03	
299	1.650000e+00	1.059269e-03	
300	1.700000e+00	1.061122e-03	
301	1.750000e+00	1.062873e-03	
302	1.800000e+00	1.064533e-03	
303	1.850000e+00	1.066111e-03	
304	1.900000e+00	1.067617e-03	
305	1.950000e+00	1.069057e-03	
306	2.000000e+00	1.070438e-03	
307	2.050000e+00	1.071765e-03	
308	2.100000e+00	1.073042e-03	
309	2.150000e+00	1.074273e-03	
310	2.200000e+00	1.075463e-03	
311	2.250000e+00	1.076615e-03	
312	2.300000e+00	1.077731e-03	
313	2.350000e+00	1.078813e-03	
314	2.400000e+00	1.079865e-03	
315	2.450000e+00	1.080888e-03	
316	2.500000e+00	1.081884e-03	
317	2.550000e+00	1.082855e-03	
318	2.600000e+00	1.083802e-03	
319	2.650000e+00	1.084727e-03	
320	2.700000e+00	1.085630e-03	
321	2.750000e+00	1.086514e-03	
322	2.800000e+00	1.087380e-03	
323	2.850000e+00	1.088227e-03	
324	2.900000e+00	1.089058e-03	
325	2.950000e+00	1.089873e-03	
326	3.000000e+00	1.090673e-03	
327	3.050000e+00	1.091458e-03	
328	3.100000e+00	1.092231e-03	
329	3.150000e+00	1.092990e-03	
330	3.200000e+00	1.093738e-03	
331	3.250000e+00	1.094474e-03	
332	3.300000e+00	1.095200e-03	
333	3.350000e+00	1.095916e-03	
334	3.400000e+00	1.096624e-03	
335	3.450000e+00	1.097324e-03	
336	3.500000e+00	1.098017e-03	
337	3.550000e+00	1.098704e-03	
338	3.600000e+00	1.099386e-03	
339	3.650000e+00	1.100065e-03	
340	3.700000e+00	1.100742e-03	
341	3.750000e+00	1.101419e-03	
342	3.800000e+00	1.102097e-03	
343	3.850000e+00	1.102777e-03	
344	3.900000e+00	1.103464e-03	

Index   v-sweep         -i(vds)         
--------------------------------------------------------------------------------
345	3.950000e+00	1.104157e-03	
346	4.000000e+00	1.104861e-03	
347	4.050000e+00	1.105577e-03	
348	4.100000e+00	1.106309e-03	
349	4.150000e+00	1.107060e-03	
350	4.200000e+00	1.107834e-03	
351	4.250000e+00	1.108635e-03	
352	4.300000e+00	1.109467e-03	
353	4.350000e+00	1.110333e-03	
354	4.400000e+00	1.111241e-03	
355	4.450000e+00	1.112193e-03	
356	4.500000e+00	1.113198e-03	
357	4.550000e+00	1.114259e-03	
358	4.600000e+00	1.115384e-03	
359	4.650000e+00	1.116579e-03	
360	4.700000e+00	1.117852e-03	
361	4.750000e+00	1.119210e-03	
362	4.800000e+00	1.120661e-03	
363	4.850000e+00	1.122214e-03	
364	4.900000e+00	1.123878e-03	
365	4.950000e+00	1.125661e-03	
366	5.000000e+00	1.127574e-03	
367	5.050000e+00	1.129626e-03	
368	5.100000e+00	1.131829e-03	
369	5.150000e+00	1.134192e-03	
370	5.200000e+00	1.136727e-03	
371	5.250000e+00	1.139447e-03	
372	5.300000e+00	1.142363e-03	
373	5.350000e+00	1.145488e-03	
374	5.400000e+00	1.148834e-03	
375	5.450000e+00	1.152416e-03	
376	5.500000e+00	1.156246e-03	
377	5.550000e+00	1.160339e-03	
378	5.600000e+00	1.164710e-03	
379	5.650000e+00	1.169372e-03	
380	5.700000e+00	1.174342e-03	
381	5.750000e+00	1.179634e-03	
382	5.800000e+00	1.185265e-03	
383	5.850000e+00	1.191250e-03	
384	5.900000e+00	1.197606e-03	
385	5.950000e+00	1.204350e-03	
386	6.000000e+00	1.211498e-03	
387	6.050000e+00	1.219068e-03	
388	6.100000e+00	1.227077e-03	
389	6.150000e+00	1.235544e-03	
390	6.200000e+00	1.244485e-03	
391	6.250000e+00	1.253918e-03	
392	6.300000e+00	1.263864e-03	
393	6.350000e+00	1.274339e-03	
394	6.400000e+00	1.285362e-03	
395	6.450000e+00	1.296953e-03	
396	6.500000e+00	1.309131e-03	
397	6.550000e+00	1.321914e-03	
398	6.600000e+00	1.335321e-03	
399	0.000000e+00	-0.000000e+00	
400	5.000000e-02	1.280411e-04	
401	1.000000e-01	2.492314e-04	
402	1.500000e-01	3.638844e-04	

Index   v-sweep         -i(vds)         
--------------------------------------------------------------------------------
403	2.000000e-01	4.722944e-04	
404	2.500000e-01	5.747373e-04	
405	3.000000e-01	6.714719e-04	
406	3.500000e-01	7.627406e-04	
407	4.000000e-01	8.487704e-04	
408	4.500000e-01	9.297738e-04	
409	5.000000e-01	1.005950e-03	
410	5.500000e-01	1.077484e-03	
411	6.000000e-01	1.144549e-03	
412	6.500000e-01	1.207306e-03	
413	7.000000e-01	1.265902e-03	
414	7.500000e-01	1.320468e-03	
415	8.000000e-01	1.371113e-03	
416	8.500000e-01	1.417920e-03	
417	9.000000e-01	1.460927e-03	
418	9.500000e-01	1.500112e-03	
419	1.000000e+00	1.535363e-03	
420	1.050000e+00	1.566478e-03	
421	1.100000e+00	1.593226e-03	
422	1.150000e+00	1.615528e-03	
423	1.200000e+00	1.633645e-03	
424	1.250000e+00	1.648183e-03	
425	1.300000e+00	1.659888e-03	
426	1.350000e+00	1.669443e-03	
427	1.400000e+00	1.677389e-03	
428	1.450000e+00	1.684121e-03	
429	1.500000e+00	1.689926e-03	
430	1.550000e+00	1.695008e-03	
431	1.600000e+00	1.699516e-03	
432	1.650000e+00	1.703561e-03	
433	1.700000e+00	1.707227e-03	
434	1.750000e+00	1.710577e-03	
435	1.800000e+00	1.713660e-03	
436	1.850000e+00	1.716516e-03	
437	1.900000e+00	1.719176e-03	
438	1.950000e+00	1.721666e-03	
439	2.000000e+00	1.724007e-03	
440	2.050000e+00	1.726216e-03	
441	2.100000e+00	1.728308e-03	
442	2.150000e+00	1.730295e-03	
443	2.200000e+00	1.732189e-03	
444	2.250000e+00	1.733997e-03	
445	2.300000e+00	1.735728e-03	
446	2.350000e+00	1.737388e-03	
447	2.400000e+00	1.738984e-03	
448	2.450000e+00	1.740521e-03	
449	2.500000e+00	1.742003e-03	
450	2.550000e+00	1.743435e-03	
451	2.600000e+00	1.744821e-03	
452	2.650000e+00	1.746163e-03	
453	2.700000e+00	1.747464e-03	
454	2.750000e+00	1.748728e-03	
455	2.800000e+00	1.749956e-03	
456	2.850000e+00	1.751151e-03	
457	2.900000e+00	1.752315e-03	
458	2.950000e+00	1.753450e-03	
459	3.000000e+00	1.754557e-03	
460	3.050000e+00	1.755638e-03	

Index   v-sweep         -i(vds)         
--------------------------------------------------------------------------------
461	3.100000e+00	1.756695e-03	
462	3.150000e+00	1.757728e-03	
463	3.200000e+00	1.758739e-03	
464	3.250000e+00	1.759730e-03	
465	3.300000e+00	1.760700e-03	
466	3.350000e+00	1.761653e-03	
467	3.400000e+00	1.762587e-03	
468	3.450000e+00	1.763505e-03	
469	3.500000e+00	1.764408e-03	
470	3.550000e+00	1.765297e-03	
471	3.600000e+00	1.766173e-03	
472	3.650000e+00	1.767037e-03	
473	3.700000e+00	1.767891e-03	
474	3.750000e+00	1.768735e-03	
475	3.800000e+00	1.769572e-03	
476	3.850000e+00	1.770403e-03	
477	3.900000e+00	1.771231e-03	
478	3.950000e+00	1.772057e-03	
479	4.000000e+00	1.772883e-03	
480	4.050000e+00	1.773713e-03	
481	4.100000e+00	1.774548e-03	
482	4.150000e+00	1.775393e-03	
483	4.200000e+00	1.776251e-03	
484	4.250000e+00	1.777126e-03	
485	4.300000e+00	1.778021e-03	
486	4.350000e+00	1.778942e-03	
487	4.400000e+00	1.779894e-03	
488	4.450000e+00	1.780883e-03	
489	4.500000e+00	1.781914e-03	
490	4.550000e+00	1.782994e-03	
491	4.600000e+00	1.784131e-03	
492	4.650000e+00	1.785332e-03	
493	4.700000e+00	1.786604e-03	
494	4.750000e+00	1.787958e-03	
495	4.800000e+00	1.789403e-03	
496	4.850000e+00	1.790947e-03	
497	4.900000e+00	1.792604e-03	
498	4.950000e+00	1.794382e-03	
499	5.000000e+00	1.796296e-03	
500	5.050000e+00	1.798356e-03	
501	5.100000e+00	1.800577e-03	
502	5.150000e+00	1.802972e-03	
503	5.200000e+00	1.805556e-03	
504	5.250000e+00	1.808344e-03	
505	5.300000e+00	1.811353e-03	
506	5.350000e+00	1.814598e-03	
507	5.400000e+00	1.818098e-03	
508	5.450000e+00	1.821869e-03	
509	5.500000e+00	1.825932e-03	
510	5.550000e+00	1.830304e-03	
511	5.600000e+00	1.835005e-03	
512	5.650000e+00	1.840057e-03	
513	5.700000e+00	1.845480e-03	
514	5.750000e+00	1.851296e-03	
515	5.800000e+00	1.857527e-03	
516	5.850000e+00	1.864196e-03	
517	5.900000e+00	1.871327e-03	
518	5.950000e+00	1.878943e-03	

Index   v-sweep         -i(vds)         
--------------------------------------------------------------------------------
519	6.000000e+00	1.887069e-03	
520	6.050000e+00	1.895730e-03	
521	6.100000e+00	1.904952e-03	
522	6.150000e+00	1.914759e-03	
523	6.200000e+00	1.925180e-03	
524	6.250000e+00	1.936240e-03	
525	6.300000e+00	1.947967e-03	
526	6.350000e+00	1.960388e-03	
527	6.400000e+00	1.973531e-03	
528	6.450000e+00	1.987426e-03	
529	6.500000e+00	2.002100e-03	
530	6.550000e+00	2.017583e-03	
531	6.600000e+00	2.033904e-03	
532	0.000000e+00	-0.000000e+00	
533	5.000000e-02	1.486161e-04	
534	1.000000e-01	2.904850e-04	
535	1.500000e-01	4.258894e-04	
536	2.000000e-01	5.550963e-04	
537	2.500000e-01	6.783576e-04	
538	3.000000e-01	7.959111e-04	
539	3.500000e-01	9.079808e-04	
540	4.000000e-01	1.014778e-03	
541	4.500000e-01	1.116502e-03	
542	5.000000e-01	1.213340e-03	
543	5.500000e-01	1.305469e-03	
544	6.000000e-01	1.393055e-03	
545	6.500000e-01	1.476256e-03	
546	7.000000e-01	1.555219e-03	
547	7.500000e-01	1.630084e-03	
548	8.000000e-01	1.700981e-03	
549	8.500000e-01	1.768031e-03	
550	9.000000e-01	1.831346e-03	
551	9.500000e-01	1.891024e-03	
552	1.000000e+00	1.947148e-03	
553	1.050000e+00	1.999780e-03	
554	1.100000e+00	2.048946e-03	
555	1.150000e+00	2.094631e-03	
556	1.200000e+00	2.136748e-03	
557	1.250000e+00	2.175129e-03	
558	1.300000e+00	2.209515e-03	
559	1.350000e+00	2.239629e-03	
560	1.400000e+00	2.265318e-03	
561	1.450000e+00	2.286726e-03	
562	1.500000e+00	2.304322e-03	
563	1.550000e+00	2.318760e-03	
564	1.600000e+00	2.330704e-03	
565	1.650000e+00	2.340717e-03	
566	1.700000e+00	2.349240e-03	
567	1.750000e+00	2.356604e-03	
568	1.800000e+00	2.363055e-03	
569	1.850000e+00	2.368776e-03	
570	1.900000e+00	2.373904e-03	
571	1.950000e+00	2.378544e-03	
572	2.000000e+00	2.382777e-03	
573	2.050000e+00	2.386666e-03	
574	2.100000e+00	2.390262e-03	
575	2.150000e+00	2.393604e-03	
576	2.200000e+00	2.396727e-03	

Index   v-sweep         -i(vds)         
--------------------------------------------------------------------------------
577	2.250000e+00	2.399657e-03	
578	2.300000e+00	2.402417e-03	
579	2.350000e+00	2.405026e-03	
580	2.400000e+00	2.407500e-03	
581	2.450000e+00	2.409853e-03	
582	2.500000e+00	2.412095e-03	
583	2.550000e+00	2.414239e-03	
584	2.600000e+00	2.416291e-03	
585	2.650000e+00	2.418261e-03	
586	2.700000e+00	2.420154e-03	
587	2.750000e+00	2.421978e-03	
588	2.800000e+00	2.423737e-03	
589	2.850000e+00	2.425436e-03	
590	2.900000e+00	2.427079e-03	
591	2.950000e+00	2.428670e-03	
592	3.000000e+00	2.430213e-03	
593	3.050000e+00	2.431710e-03	
594	3.100000e+00	2.433166e-03	
595	3.150000e+00	2.434581e-03	
596	3.200000e+00	2.435959e-03	
597	3.250000e+00	2.437301e-03	
598	3.300000e+00	2.438610e-03	
599	3.350000e+00	2.439888e-03	
600	3.400000e+00	2.441136e-03	
601	3.450000e+00	2.442356e-03	
602	3.500000e+00	2.443549e-03	
603	3.550000e+00	2.444718e-03	
604	3.600000e+00	2.445862e-03	
605	3.650000e+00	2.446985e-03	
606	3.700000e+00	2.448086e-03	
607	3.750000e+00	2.449168e-03	
608	3.800000e+00	2.450233e-03	
609	3.850000e+00	2.451281e-03	
610	3.900000e+00	2.452314e-03	
611	3.950000e+00	2.453334e-03	
612	4.000000e+00	2.454343e-03	
613	4.050000e+00	2.455343e-03	
614	4.100000e+00	2.456336e-03	
615	4.150000e+00	2.457325e-03	
616	4.200000e+00	2.458313e-03	
617	4.250000e+00	2.459303e-03	
618	4.300000e+00	2.460298e-03	
619	4.350000e+00	2.461303e-03	
620	4.400000e+00	2.462321e-03	
621	4.450000e+00	2.463358e-03	
622	4.500000e+00	2.464419e-03	
623	4.550000e+00	2.465509e-03	
624	4.600000e+00	2.466636e-03	
625	4.650000e+00	2.467806e-03	
626	4.700000e+00	2.469026e-03	
627	4.750000e+00	2.470306e-03	
628	4.800000e+00	2.471654e-03	
629	4.850000e+00	2.473080e-03	
630	4.900000e+00	2.474595e-03	
631	4.950000e+00	2.476210e-03	
632	5.000000e+00	2.477937e-03	
633	5.050000e+00	2.479788e-03	
634	5.100000e+00	2.481779e-03	

Index   v-sweep         -i(vds)         
--------------------------------------------------------------------------------
635	5.150000e+00	2.483924e-03	
636	5.200000e+00	2.486237e-03	
637	5.250000e+00	2.488737e-03	
638	5.300000e+00	2.491439e-03	
639	5.350000e+00	2.494362e-03	
640	5.400000e+00	2.497526e-03	
641	5.450000e+00	2.500951e-03	
642	5.500000e+00	2.504658e-03	
643	5.550000e+00	2.508668e-03	
644	5.600000e+00	2.513005e-03	
645	5.650000e+00	2.517692e-03	
646	5.700000e+00	2.522754e-03	
647	5.750000e+00	2.528217e-03	
648	5.800000e+00	2.534107e-03	
649	5.850000e+00	2.540451e-03	
650	5.900000e+00	2.547279e-03	
651	5.950000e+00	2.554618e-03	
652	6.000000e+00	2.562499e-03	
653	6.050000e+00	2.570953e-03	
654	6.100000e+00	2.580011e-03	
655	6.150000e+00	2.589705e-03	
656	6.200000e+00	2.600068e-03	
657	6.250000e+00	2.611134e-03	
658	6.300000e+00	2.622938e-03	
659	6.350000e+00	2.635515e-03	
660	6.400000e+00	2.648900e-03	
661	6.450000e+00	2.663130e-03	
662	6.500000e+00	2.678242e-03	
663	6.550000e+00	2.694273e-03	
664	6.600000e+00	2.711262e-03	
665	0.000000e+00	-0.000000e+00	
666	5.000000e-02	1.625951e-04	
667	1.000000e-01	3.187966e-04	
668	1.500000e-01	4.688472e-04	
669	2.000000e-01	6.129772e-04	
670	2.500000e-01	7.514052e-04	
671	3.000000e-01	8.843388e-04	
672	3.500000e-01	1.011975e-03	
673	4.000000e-01	1.134501e-03	
674	4.500000e-01	1.252093e-03	
675	5.000000e-01	1.364920e-03	
676	5.500000e-01	1.473141e-03	
677	6.000000e-01	1.576906e-03	
678	6.500000e-01	1.676359e-03	
679	7.000000e-01	1.771636e-03	
680	7.500000e-01	1.862866e-03	
681	8.000000e-01	1.950172e-03	
682	8.500000e-01	2.033670e-03	
683	9.000000e-01	2.113470e-03	
684	9.500000e-01	2.189678e-03	
685	1.000000e+00	2.262393e-03	
686	1.050000e+00	2.331707e-03	
687	1.100000e+00	2.397704e-03	
688	1.150000e+00	2.460462e-03	
689	1.200000e+00	2.520045e-03	
690	1.250000e+00	2.576502e-03	
691	1.300000e+00	2.629861e-03	
692	1.350000e+00	2.680118e-03	

Index   v-sweep         -i(vds)         
--------------------------------------------------------------------------------
693	1.400000e+00	2.727223e-03	
694	1.450000e+00	2.771066e-03	
695	1.500000e+00	2.811459e-03	
696	1.550000e+00	2.848136e-03	
697	1.600000e+00	2.880805e-03	
698	1.650000e+00	2.909264e-03	
699	1.700000e+00	2.933539e-03	
700	1.750000e+00	2.953942e-03	
701	1.800000e+00	2.970999e-03	
702	1.850000e+00	2.985305e-03	
703	1.900000e+00	2.997413e-03	
704	1.950000e+00	3.007783e-03	
705	2.000000e+00	3.016776e-03	
706	2.050000e+00	3.024670e-03	
707	2.100000e+00	3.031677e-03	
708	2.150000e+00	3.037960e-03	
709	2.200000e+00	3.043644e-03	
710	2.250000e+00	3.048827e-03	
711	2.300000e+00	3.053585e-03	
712	2.350000e+00	3.057981e-03	
713	2.400000e+00	3.062063e-03	
714	2.450000e+00	3.065873e-03	
715	2.500000e+00	3.069445e-03	
716	2.550000e+00	3.072805e-03	
717	2.600000e+00	3.075979e-03	
718	2.650000e+00	3.078984e-03	
719	2.700000e+00	3.081840e-03	
720	2.750000e+00	3.084559e-03	
721	2.800000e+00	3.087155e-03	
722	2.850000e+00	3.089639e-03	
723	2.900000e+00	3.092020e-03	
724	2.950000e+00	3.094307e-03	
725	3.000000e+00	3.096507e-03	
726	3.050000e+00	3.098627e-03	
727	3.100000e+00	3.100672e-03	
728	3.150000e+00	3.102649e-03	
729	3.200000e+00	3.104562e-03	
730	3.250000e+00	3.106415e-03	
731	3.300000e+00	3.108211e-03	
732	3.350000e+00	3.109956e-03	
733	3.400000e+00	3.111651e-03	
734	3.450000e+00	3.113299e-03	
735	3.500000e+00	3.114905e-03	
736	3.550000e+00	3.116469e-03	
737	3.600000e+00	3.117994e-03	
738	3.650000e+00	3.119482e-03	
739	3.700000e+00	3.120936e-03	
740	3.750000e+00	3.122357e-03	
741	3.800000e+00	3.123747e-03	
742	3.850000e+00	3.125108e-03	
743	3.900000e+00	3.126442e-03	
744	3.950000e+00	3.127749e-03	
745	4.000000e+00	3.129033e-03	
746	4.050000e+00	3.130295e-03	
747	4.100000e+00	3.131537e-03	
748	4.150000e+00	3.132760e-03	
749	4.200000e+00	3.133967e-03	
750	4.250000e+00	3.135160e-03	

Index   v-sweep         -i(vds)         
--------------------------------------------------------------------------------
751	4.300000e+00	3.136343e-03	
752	4.350000e+00	3.137517e-03	
753	4.400000e+00	3.138686e-03	
754	4.450000e+00	3.139854e-03	
755	4.500000e+00	3.141024e-03	
756	4.550000e+00	3.142200e-03	
757	4.600000e+00	3.143389e-03	
758	4.650000e+00	3.144595e-03	
759	4.700000e+00	3.145824e-03	
760	4.750000e+00	3.147082e-03	
761	4.800000e+00	3.148378e-03	
762	4.850000e+00	3.149719e-03	
763	4.900000e+00	3.151114e-03	
764	4.950000e+00	3.152572e-03	
765	5.000000e+00	3.154105e-03	
766	5.050000e+00	3.155723e-03	
767	5.100000e+00	3.157439e-03	
768	5.150000e+00	3.159266e-03	
769	5.200000e+00	3.161218e-03	
770	5.250000e+00	3.163311e-03	
771	5.300000e+00	3.165561e-03	
772	5.350000e+00	3.167986e-03	
773	5.400000e+00	3.170603e-03	
774	5.450000e+00	3.173433e-03	
775	5.500000e+00	3.176497e-03	
776	5.550000e+00	3.179816e-03	
777	5.600000e+00	3.183413e-03	
778	5.650000e+00	3.187313e-03	
779	5.700000e+00	3.191541e-03	
780	5.750000e+00	3.196124e-03	
781	5.800000e+00	3.201090e-03	
782	5.850000e+00	3.206467e-03	
783	5.900000e+00	3.212287e-03	
784	5.950000e+00	3.218579e-03	
785	6.000000e+00	3.225377e-03	
786	6.050000e+00	3.232714e-03	
787	6.100000e+00	3.240624e-03	
788	6.150000e+00	3.249145e-03	
789	6.200000e+00	3.258312e-03	
790	6.250000e+00	3.268163e-03	
791	6.300000e+00	3.278738e-03	
792	6.350000e+00	3.290077e-03	
793	6.400000e+00	3.302219e-03	
794	6.450000e+00	3.315209e-03	
795	6.500000e+00	3.329087e-03	
796	6.550000e+00	3.343899e-03	
797	6.600000e+00	3.359688e-03	
Note: No ".plot", ".print", or ".fourier" lines; no simulations run
