
Note: Compatibility modes selected: hs

Warning: m=xx on .subckt line will override multiplier m hierarchy!


Circuit: ***************************

Doing analysis at TEMP = 125.000000 and TNOM = 125.000000


No. of Data Rows : 798
                          ***************************
                          DC transfer characteristic  Mon Jan  9 13:57:41  2023
--------------------------------------------------------------------------------
Index   v-sweep         -i(vds)         
--------------------------------------------------------------------------------
0	0.000000e+00	-0.000000e+00	
1	5.000000e-02	1.300604e-06	
2	1.000000e-01	2.417196e-06	
3	1.500000e-01	3.357860e-06	
4	2.000000e-01	4.128643e-06	
5	2.500000e-01	4.736315e-06	
6	3.000000e-01	5.191259e-06	
7	3.500000e-01	5.513237e-06	
8	4.000000e-01	5.737113e-06	
9	4.500000e-01	5.903324e-06	
10	5.000000e-01	6.039197e-06	
11	5.500000e-01	6.157628e-06	
12	6.000000e-01	6.264458e-06	
13	6.500000e-01	6.362734e-06	
14	7.000000e-01	6.454313e-06	
15	7.500000e-01	6.540450e-06	
16	8.000000e-01	6.622059e-06	
17	8.500000e-01	6.699830e-06	
18	9.000000e-01	6.774306e-06	
19	9.500000e-01	6.845919e-06	
20	1.000000e+00	6.915023e-06	
21	1.050000e+00	6.981910e-06	
22	1.100000e+00	7.046823e-06	
23	1.150000e+00	7.109970e-06	
24	1.200000e+00	7.171526e-06	
25	1.250000e+00	7.231642e-06	
26	1.300000e+00	7.290451e-06	
27	1.350000e+00	7.348067e-06	
28	1.400000e+00	7.404589e-06	
29	1.450000e+00	7.460108e-06	
30	1.500000e+00	7.514701e-06	
31	1.550000e+00	7.568438e-06	
32	1.600000e+00	7.621382e-06	
33	1.650000e+00	7.673589e-06	
34	1.700000e+00	7.725110e-06	
35	1.750000e+00	7.775991e-06	
36	1.800000e+00	7.826272e-06	
37	1.850000e+00	7.875992e-06	
38	1.900000e+00	7.925185e-06	
39	1.950000e+00	7.973882e-06	
40	2.000000e+00	8.022113e-06	
41	2.050000e+00	8.069904e-06	
42	2.100000e+00	8.117279e-06	
43	2.150000e+00	8.164261e-06	
44	2.200000e+00	8.210871e-06	
45	2.250000e+00	8.257129e-06	
46	2.300000e+00	8.303051e-06	
47	2.350000e+00	8.348656e-06	
48	2.400000e+00	8.393958e-06	
49	2.450000e+00	8.438973e-06	
50	2.500000e+00	8.483715e-06	
51	2.550000e+00	8.528196e-06	
52	2.600000e+00	8.572429e-06	
53	2.650000e+00	8.616427e-06	
54	2.700000e+00	8.660201e-06	

Index   v-sweep         -i(vds)         
--------------------------------------------------------------------------------
55	2.750000e+00	8.703762e-06	
56	2.800000e+00	8.747122e-06	
57	2.850000e+00	8.790292e-06	
58	2.900000e+00	8.833283e-06	
59	2.950000e+00	8.876107e-06	
60	3.000000e+00	8.918776e-06	
61	3.050000e+00	8.961302e-06	
62	3.100000e+00	9.003698e-06	
63	3.150000e+00	9.045979e-06	
64	3.200000e+00	9.088158e-06	
65	3.250000e+00	9.130253e-06	
66	3.300000e+00	9.172281e-06	
67	3.350000e+00	9.214260e-06	
68	3.400000e+00	9.256211e-06	
69	3.450000e+00	9.298157e-06	
70	3.500000e+00	9.340122e-06	
71	3.550000e+00	9.382132e-06	
72	3.600000e+00	9.424217e-06	
73	3.650000e+00	9.466409e-06	
74	3.700000e+00	9.508742e-06	
75	3.750000e+00	9.551252e-06	
76	3.800000e+00	9.593982e-06	
77	3.850000e+00	9.636974e-06	
78	3.900000e+00	9.680275e-06	
79	3.950000e+00	9.723937e-06	
80	4.000000e+00	9.768014e-06	
81	4.050000e+00	9.812564e-06	
82	4.100000e+00	9.857650e-06	
83	4.150000e+00	9.903339e-06	
84	4.200000e+00	9.949701e-06	
85	4.250000e+00	9.996812e-06	
86	4.300000e+00	1.004475e-05	
87	4.350000e+00	1.009360e-05	
88	4.400000e+00	1.014346e-05	
89	4.450000e+00	1.019441e-05	
90	4.500000e+00	1.024656e-05	
91	4.550000e+00	1.030000e-05	
92	4.600000e+00	1.035485e-05	
93	4.650000e+00	1.041123e-05	
94	4.700000e+00	1.046924e-05	
95	4.750000e+00	1.052901e-05	
96	4.800000e+00	1.059068e-05	
97	4.850000e+00	1.065438e-05	
98	4.900000e+00	1.072024e-05	
99	4.950000e+00	1.078840e-05	
100	5.000000e+00	1.085903e-05	
101	5.050000e+00	1.093227e-05	
102	5.100000e+00	1.100828e-05	
103	5.150000e+00	1.108723e-05	
104	5.200000e+00	1.116929e-05	
105	5.250000e+00	1.125462e-05	
106	5.300000e+00	1.134341e-05	
107	5.350000e+00	1.143585e-05	
108	5.400000e+00	1.153212e-05	
109	5.450000e+00	1.163241e-05	
110	5.500000e+00	1.173693e-05	
111	5.550000e+00	1.184586e-05	
112	5.600000e+00	1.195944e-05	

Index   v-sweep         -i(vds)         
--------------------------------------------------------------------------------
113	5.650000e+00	1.207785e-05	
114	5.700000e+00	1.220132e-05	
115	5.750000e+00	1.233007e-05	
116	5.800000e+00	1.246432e-05	
117	5.850000e+00	1.260430e-05	
118	5.900000e+00	1.275024e-05	
119	5.950000e+00	1.290238e-05	
120	6.000000e+00	1.306095e-05	
121	6.050000e+00	1.322619e-05	
122	6.100000e+00	1.339837e-05	
123	6.150000e+00	1.357771e-05	
124	6.200000e+00	1.376448e-05	
125	6.250000e+00	1.395893e-05	
126	6.300000e+00	1.416132e-05	
127	6.350000e+00	1.437192e-05	
128	6.400000e+00	1.459098e-05	
129	6.450000e+00	1.481878e-05	
130	6.500000e+00	1.505558e-05	
131	6.550000e+00	1.530166e-05	
132	6.600000e+00	1.555729e-05	
133	0.000000e+00	-0.000000e+00	
134	5.000000e-02	3.152806e-06	
135	1.000000e-01	6.104967e-06	
136	1.500000e-01	8.864867e-06	
137	2.000000e-01	1.143823e-05	
138	2.500000e-01	1.382999e-05	
139	3.000000e-01	1.604478e-05	
140	3.500000e-01	1.808708e-05	
141	4.000000e-01	1.996122e-05	
142	4.500000e-01	2.167148e-05	
143	5.000000e-01	2.322208e-05	
144	5.500000e-01	2.461731e-05	
145	6.000000e-01	2.586159e-05	
146	6.500000e-01	2.695976e-05	
147	7.000000e-01	2.791754e-05	
148	7.500000e-01	2.874231e-05	
149	8.000000e-01	2.944453e-05	
150	8.500000e-01	3.003889e-05	
151	9.000000e-01	3.054377e-05	
152	9.500000e-01	3.097807e-05	
153	1.000000e+00	3.135790e-05	
154	1.050000e+00	3.169547e-05	
155	1.100000e+00	3.199968e-05	
156	1.150000e+00	3.227703e-05	
157	1.200000e+00	3.253234e-05	
158	1.250000e+00	3.276926e-05	
159	1.300000e+00	3.299061e-05	
160	1.350000e+00	3.319864e-05	
161	1.400000e+00	3.339512e-05	
162	1.450000e+00	3.358152e-05	
163	1.500000e+00	3.375902e-05	
164	1.550000e+00	3.392864e-05	
165	1.600000e+00	3.409120e-05	
166	1.650000e+00	3.424743e-05	
167	1.700000e+00	3.439793e-05	
168	1.750000e+00	3.454324e-05	
169	1.800000e+00	3.468381e-05	
170	1.850000e+00	3.482005e-05	

Index   v-sweep         -i(vds)         
--------------------------------------------------------------------------------
171	1.900000e+00	3.495230e-05	
172	1.950000e+00	3.508088e-05	
173	2.000000e+00	3.520606e-05	
174	2.050000e+00	3.532809e-05	
175	2.100000e+00	3.544720e-05	
176	2.150000e+00	3.556358e-05	
177	2.200000e+00	3.567741e-05	
178	2.250000e+00	3.578885e-05	
179	2.300000e+00	3.589805e-05	
180	2.350000e+00	3.600515e-05	
181	2.400000e+00	3.611027e-05	
182	2.450000e+00	3.621351e-05	
183	2.500000e+00	3.631499e-05	
184	2.550000e+00	3.641480e-05	
185	2.600000e+00	3.651303e-05	
186	2.650000e+00	3.660975e-05	
187	2.700000e+00	3.670505e-05	
188	2.750000e+00	3.679898e-05	
189	2.800000e+00	3.689163e-05	
190	2.850000e+00	3.698304e-05	
191	2.900000e+00	3.707329e-05	
192	2.950000e+00	3.716241e-05	
193	3.000000e+00	3.725046e-05	
194	3.050000e+00	3.733749e-05	
195	3.100000e+00	3.742355e-05	
196	3.150000e+00	3.750868e-05	
197	3.200000e+00	3.759293e-05	
198	3.250000e+00	3.767634e-05	
199	3.300000e+00	3.775895e-05	
200	3.350000e+00	3.784081e-05	
201	3.400000e+00	3.792196e-05	
202	3.450000e+00	3.800245e-05	
203	3.500000e+00	3.808232e-05	
204	3.550000e+00	3.816163e-05	
205	3.600000e+00	3.824043e-05	
206	3.650000e+00	3.831878e-05	
207	3.700000e+00	3.839674e-05	
208	3.750000e+00	3.847437e-05	
209	3.800000e+00	3.855176e-05	
210	3.850000e+00	3.862897e-05	
211	3.900000e+00	3.870609e-05	
212	3.950000e+00	3.878322e-05	
213	4.000000e+00	3.886045e-05	
214	4.050000e+00	3.893791e-05	
215	4.100000e+00	3.901570e-05	
216	4.150000e+00	3.909396e-05	
217	4.200000e+00	3.917282e-05	
218	4.250000e+00	3.925245e-05	
219	4.300000e+00	3.933300e-05	
220	4.350000e+00	3.941464e-05	
221	4.400000e+00	3.949758e-05	
222	4.450000e+00	3.958201e-05	
223	4.500000e+00	3.966815e-05	
224	4.550000e+00	3.975622e-05	
225	4.600000e+00	3.984648e-05	
226	4.650000e+00	3.993918e-05	
227	4.700000e+00	4.003460e-05	
228	4.750000e+00	4.013303e-05	

Index   v-sweep         -i(vds)         
--------------------------------------------------------------------------------
229	4.800000e+00	4.023477e-05	
230	4.850000e+00	4.034016e-05	
231	4.900000e+00	4.044952e-05	
232	4.950000e+00	4.056322e-05	
233	5.000000e+00	4.068163e-05	
234	5.050000e+00	4.080513e-05	
235	5.100000e+00	4.093412e-05	
236	5.150000e+00	4.106904e-05	
237	5.200000e+00	4.121032e-05	
238	5.250000e+00	4.135840e-05	
239	5.300000e+00	4.151377e-05	
240	5.350000e+00	4.167691e-05	
241	5.400000e+00	4.184832e-05	
242	5.450000e+00	4.202851e-05	
243	5.500000e+00	4.221803e-05	
244	5.550000e+00	4.241742e-05	
245	5.600000e+00	4.262724e-05	
246	5.650000e+00	4.284808e-05	
247	5.700000e+00	4.308052e-05	
248	5.750000e+00	4.332517e-05	
249	5.800000e+00	4.358267e-05	
250	5.850000e+00	4.385363e-05	
251	5.900000e+00	4.413871e-05	
252	5.950000e+00	4.443856e-05	
253	6.000000e+00	4.475387e-05	
254	6.050000e+00	4.508531e-05	
255	6.100000e+00	4.543359e-05	
256	6.150000e+00	4.579940e-05	
257	6.200000e+00	4.618347e-05	
258	6.250000e+00	4.658653e-05	
259	6.300000e+00	4.700931e-05	
260	6.350000e+00	4.745256e-05	
261	6.400000e+00	4.791703e-05	
262	6.450000e+00	4.840350e-05	
263	6.500000e+00	4.891274e-05	
264	6.550000e+00	4.944552e-05	
265	6.600000e+00	5.000263e-05	
266	0.000000e+00	-0.000000e+00	
267	5.000000e-02	4.558228e-06	
268	1.000000e-01	8.910426e-06	
269	1.500000e-01	1.306498e-05	
270	2.000000e-01	1.702761e-05	
271	2.500000e-01	2.080325e-05	
272	3.000000e-01	2.439649e-05	
273	3.500000e-01	2.781177e-05	
274	4.000000e-01	3.105334e-05	
275	4.500000e-01	3.412531e-05	
276	5.000000e-01	3.703166e-05	
277	5.500000e-01	3.977626e-05	
278	6.000000e-01	4.236283e-05	
279	6.500000e-01	4.479503e-05	
280	7.000000e-01	4.707640e-05	
281	7.500000e-01	4.921042e-05	
282	8.000000e-01	5.120047e-05	
283	8.500000e-01	5.304993e-05	
284	9.000000e-01	5.476212e-05	
285	9.500000e-01	5.634036e-05	
286	1.000000e+00	5.778801e-05	

Index   v-sweep         -i(vds)         
--------------------------------------------------------------------------------
287	1.050000e+00	5.910855e-05	
288	1.100000e+00	6.030567e-05	
289	1.150000e+00	6.138356e-05	
290	1.200000e+00	6.234731e-05	
291	1.250000e+00	6.320368e-05	
292	1.300000e+00	6.396172e-05	
293	1.350000e+00	6.463278e-05	
294	1.400000e+00	6.522931e-05	
295	1.450000e+00	6.576336e-05	
296	1.500000e+00	6.624546e-05	
297	1.550000e+00	6.668434e-05	
298	1.600000e+00	6.708703e-05	
299	1.650000e+00	6.745916e-05	
300	1.700000e+00	6.780523e-05	
301	1.750000e+00	6.812887e-05	
302	1.800000e+00	6.843303e-05	
303	1.850000e+00	6.872014e-05	
304	1.900000e+00	6.899219e-05	
305	1.950000e+00	6.925088e-05	
306	2.000000e+00	6.949762e-05	
307	2.050000e+00	6.973362e-05	
308	2.100000e+00	6.995992e-05	
309	2.150000e+00	7.017741e-05	
310	2.200000e+00	7.038688e-05	
311	2.250000e+00	7.058899e-05	
312	2.300000e+00	7.078436e-05	
313	2.350000e+00	7.097350e-05	
314	2.400000e+00	7.115689e-05	
315	2.450000e+00	7.133495e-05	
316	2.500000e+00	7.150804e-05	
317	2.550000e+00	7.167652e-05	
318	2.600000e+00	7.184068e-05	
319	2.650000e+00	7.200079e-05	
320	2.700000e+00	7.215712e-05	
321	2.750000e+00	7.230987e-05	
322	2.800000e+00	7.245927e-05	
323	2.850000e+00	7.260550e-05	
324	2.900000e+00	7.274874e-05	
325	2.950000e+00	7.288915e-05	
326	3.000000e+00	7.302688e-05	
327	3.050000e+00	7.316205e-05	
328	3.100000e+00	7.329481e-05	
329	3.150000e+00	7.342527e-05	
330	3.200000e+00	7.355354e-05	
331	3.250000e+00	7.367972e-05	
332	3.300000e+00	7.380391e-05	
333	3.350000e+00	7.392620e-05	
334	3.400000e+00	7.404668e-05	
335	3.450000e+00	7.416542e-05	
336	3.500000e+00	7.428253e-05	
337	3.550000e+00	7.439805e-05	
338	3.600000e+00	7.451209e-05	
339	3.650000e+00	7.462470e-05	
340	3.700000e+00	7.473597e-05	
341	3.750000e+00	7.484597e-05	
342	3.800000e+00	7.495479e-05	
343	3.850000e+00	7.506250e-05	
344	3.900000e+00	7.516918e-05	

Index   v-sweep         -i(vds)         
--------------------------------------------------------------------------------
345	3.950000e+00	7.527494e-05	
346	4.000000e+00	7.537987e-05	
347	4.050000e+00	7.548407e-05	
348	4.100000e+00	7.558767e-05	
349	4.150000e+00	7.569077e-05	
350	4.200000e+00	7.579352e-05	
351	4.250000e+00	7.589606e-05	
352	4.300000e+00	7.599856e-05	
353	4.350000e+00	7.610118e-05	
354	4.400000e+00	7.620413e-05	
355	4.450000e+00	7.630760e-05	
356	4.500000e+00	7.641183e-05	
357	4.550000e+00	7.651706e-05	
358	4.600000e+00	7.662356e-05	
359	4.650000e+00	7.673161e-05	
360	4.700000e+00	7.684153e-05	
361	4.750000e+00	7.695364e-05	
362	4.800000e+00	7.706832e-05	
363	4.850000e+00	7.718594e-05	
364	4.900000e+00	7.730692e-05	
365	4.950000e+00	7.743168e-05	
366	5.000000e+00	7.756071e-05	
367	5.050000e+00	7.769448e-05	
368	5.100000e+00	7.783353e-05	
369	5.150000e+00	7.797839e-05	
370	5.200000e+00	7.812967e-05	
371	5.250000e+00	7.828796e-05	
372	5.300000e+00	7.845390e-05	
373	5.350000e+00	7.862817e-05	
374	5.400000e+00	7.881147e-05	
375	5.450000e+00	7.900454e-05	
376	5.500000e+00	7.920812e-05	
377	5.550000e+00	7.942303e-05	
378	5.600000e+00	7.965007e-05	
379	5.650000e+00	7.989011e-05	
380	5.700000e+00	8.014403e-05	
381	5.750000e+00	8.041274e-05	
382	5.800000e+00	8.069718e-05	
383	5.850000e+00	8.099832e-05	
384	5.900000e+00	8.131717e-05	
385	5.950000e+00	8.165473e-05	
386	6.000000e+00	8.201208e-05	
387	6.050000e+00	8.239029e-05	
388	6.100000e+00	8.279046e-05	
389	6.150000e+00	8.321372e-05	
390	6.200000e+00	8.366123e-05	
391	6.250000e+00	8.413417e-05	
392	6.300000e+00	8.463373e-05	
393	6.350000e+00	8.516115e-05	
394	6.400000e+00	8.571767e-05	
395	6.450000e+00	8.630454e-05	
396	6.500000e+00	8.692306e-05	
397	6.550000e+00	8.757454e-05	
398	6.600000e+00	8.826028e-05	
399	0.000000e+00	-0.000000e+00	
400	5.000000e-02	5.617157e-06	
401	1.000000e-01	1.103140e-05	
402	1.500000e-01	1.625071e-05	

Index   v-sweep         -i(vds)         
--------------------------------------------------------------------------------
403	2.000000e-01	2.128044e-05	
404	2.500000e-01	2.612516e-05	
405	3.000000e-01	3.078913e-05	
406	3.500000e-01	3.527646e-05	
407	4.000000e-01	3.959111e-05	
408	4.500000e-01	4.373691e-05	
409	5.000000e-01	4.771756e-05	
410	5.500000e-01	5.153663e-05	
411	6.000000e-01	5.519759e-05	
412	6.500000e-01	5.870380e-05	
413	7.000000e-01	6.205852e-05	
414	7.500000e-01	6.526491e-05	
415	8.000000e-01	6.832604e-05	
416	8.500000e-01	7.124492e-05	
417	9.000000e-01	7.402445e-05	
418	9.500000e-01	7.666750e-05	
419	1.000000e+00	7.917686e-05	
420	1.050000e+00	8.155528e-05	
421	1.100000e+00	8.380542e-05	
422	1.150000e+00	8.592993e-05	
423	1.200000e+00	8.793138e-05	
424	1.250000e+00	8.981228e-05	
425	1.300000e+00	9.157507e-05	
426	1.350000e+00	9.322209e-05	
427	1.400000e+00	9.475555e-05	
428	1.450000e+00	9.617749e-05	
429	1.500000e+00	9.748974e-05	
430	1.550000e+00	9.869405e-05	
431	1.600000e+00	9.979250e-05	
432	1.650000e+00	1.007884e-04	
433	1.700000e+00	1.016871e-04	
434	1.750000e+00	1.024968e-04	
435	1.800000e+00	1.032273e-04	
436	1.850000e+00	1.038891e-04	
437	1.900000e+00	1.044918e-04	
438	1.950000e+00	1.050441e-04	
439	2.000000e+00	1.055534e-04	
440	2.050000e+00	1.060256e-04	
441	2.100000e+00	1.064658e-04	
442	2.150000e+00	1.068782e-04	
443	2.200000e+00	1.072662e-04	
444	2.250000e+00	1.076327e-04	
445	2.300000e+00	1.079800e-04	
446	2.350000e+00	1.083102e-04	
447	2.400000e+00	1.086250e-04	
448	2.450000e+00	1.089260e-04	
449	2.500000e+00	1.092145e-04	
450	2.550000e+00	1.094915e-04	
451	2.600000e+00	1.097580e-04	
452	2.650000e+00	1.100149e-04	
453	2.700000e+00	1.102630e-04	
454	2.750000e+00	1.105029e-04	
455	2.800000e+00	1.107352e-04	
456	2.850000e+00	1.109605e-04	
457	2.900000e+00	1.111793e-04	
458	2.950000e+00	1.113919e-04	
459	3.000000e+00	1.115989e-04	
460	3.050000e+00	1.118004e-04	

Index   v-sweep         -i(vds)         
--------------------------------------------------------------------------------
461	3.100000e+00	1.119969e-04	
462	3.150000e+00	1.121887e-04	
463	3.200000e+00	1.123760e-04	
464	3.250000e+00	1.125591e-04	
465	3.300000e+00	1.127382e-04	
466	3.350000e+00	1.129135e-04	
467	3.400000e+00	1.130852e-04	
468	3.450000e+00	1.132535e-04	
469	3.500000e+00	1.134186e-04	
470	3.550000e+00	1.135806e-04	
471	3.600000e+00	1.137396e-04	
472	3.650000e+00	1.138959e-04	
473	3.700000e+00	1.140494e-04	
474	3.750000e+00	1.142005e-04	
475	3.800000e+00	1.143490e-04	
476	3.850000e+00	1.144953e-04	
477	3.900000e+00	1.146394e-04	
478	3.950000e+00	1.147813e-04	
479	4.000000e+00	1.149213e-04	
480	4.050000e+00	1.150594e-04	
481	4.100000e+00	1.151956e-04	
482	4.150000e+00	1.153302e-04	
483	4.200000e+00	1.154633e-04	
484	4.250000e+00	1.155949e-04	
485	4.300000e+00	1.157252e-04	
486	4.350000e+00	1.158543e-04	
487	4.400000e+00	1.159824e-04	
488	4.450000e+00	1.161096e-04	
489	4.500000e+00	1.162361e-04	
490	4.550000e+00	1.163621e-04	
491	4.600000e+00	1.164879e-04	
492	4.650000e+00	1.166135e-04	
493	4.700000e+00	1.167394e-04	
494	4.750000e+00	1.168657e-04	
495	4.800000e+00	1.169927e-04	
496	4.850000e+00	1.171209e-04	
497	4.900000e+00	1.172505e-04	
498	4.950000e+00	1.173819e-04	
499	5.000000e+00	1.175155e-04	
500	5.050000e+00	1.176518e-04	
501	5.100000e+00	1.177914e-04	
502	5.150000e+00	1.179346e-04	
503	5.200000e+00	1.180820e-04	
504	5.250000e+00	1.182343e-04	
505	5.300000e+00	1.183921e-04	
506	5.350000e+00	1.185561e-04	
507	5.400000e+00	1.187270e-04	
508	5.450000e+00	1.189055e-04	
509	5.500000e+00	1.190925e-04	
510	5.550000e+00	1.192889e-04	
511	5.600000e+00	1.194954e-04	
512	5.650000e+00	1.197132e-04	
513	5.700000e+00	1.199431e-04	
514	5.750000e+00	1.201862e-04	
515	5.800000e+00	1.204435e-04	
516	5.850000e+00	1.207163e-04	
517	5.900000e+00	1.210056e-04	
518	5.950000e+00	1.213127e-04	

Index   v-sweep         -i(vds)         
--------------------------------------------------------------------------------
519	6.000000e+00	1.216389e-04	
520	6.050000e+00	1.219855e-04	
521	6.100000e+00	1.223538e-04	
522	6.150000e+00	1.227451e-04	
523	6.200000e+00	1.231611e-04	
524	6.250000e+00	1.236030e-04	
525	6.300000e+00	1.240725e-04	
526	6.350000e+00	1.245711e-04	
527	6.400000e+00	1.251005e-04	
528	6.450000e+00	1.256621e-04	
529	6.500000e+00	1.262579e-04	
530	6.550000e+00	1.268893e-04	
531	6.600000e+00	1.275583e-04	
532	0.000000e+00	-0.000000e+00	
533	5.000000e-02	6.390618e-06	
534	1.000000e-01	1.258746e-05	
535	1.500000e-01	1.859793e-05	
536	2.000000e-01	2.442683e-05	
537	2.500000e-01	3.007820e-05	
538	3.000000e-01	3.555581e-05	
539	3.500000e-01	4.086331e-05	
540	4.000000e-01	4.600420e-05	
541	4.500000e-01	5.098190e-05	
542	5.000000e-01	5.579969e-05	
543	5.500000e-01	6.046079e-05	
544	6.000000e-01	6.496829e-05	
545	6.500000e-01	6.932520e-05	
546	7.000000e-01	7.353444e-05	
547	7.500000e-01	7.759884e-05	
548	8.000000e-01	8.152114e-05	
549	8.500000e-01	8.530403e-05	
550	9.000000e-01	8.895010e-05	
551	9.500000e-01	9.246188e-05	
552	1.000000e+00	9.584186e-05	
553	1.050000e+00	9.909244e-05	
554	1.100000e+00	1.022160e-04	
555	1.150000e+00	1.052148e-04	
556	1.200000e+00	1.080912e-04	
557	1.250000e+00	1.108474e-04	
558	1.300000e+00	1.134856e-04	
559	1.350000e+00	1.160079e-04	
560	1.400000e+00	1.184164e-04	
561	1.450000e+00	1.207133e-04	
562	1.500000e+00	1.229005e-04	
563	1.550000e+00	1.249799e-04	
564	1.600000e+00	1.269535e-04	
565	1.650000e+00	1.288230e-04	
566	1.700000e+00	1.305900e-04	
567	1.750000e+00	1.322560e-04	
568	1.800000e+00	1.338219e-04	
569	1.850000e+00	1.352885e-04	
570	1.900000e+00	1.366559e-04	
571	1.950000e+00	1.379243e-04	
572	2.000000e+00	1.390940e-04	
573	2.050000e+00	1.401669e-04	
574	2.100000e+00	1.411470e-04	
575	2.150000e+00	1.420410e-04	
576	2.200000e+00	1.428571e-04	

Index   v-sweep         -i(vds)         
--------------------------------------------------------------------------------
577	2.250000e+00	1.436042e-04	
578	2.300000e+00	1.442910e-04	
579	2.350000e+00	1.449253e-04	
580	2.400000e+00	1.455138e-04	
581	2.450000e+00	1.460625e-04	
582	2.500000e+00	1.465763e-04	
583	2.550000e+00	1.470593e-04	
584	2.600000e+00	1.475151e-04	
585	2.650000e+00	1.479466e-04	
586	2.700000e+00	1.483564e-04	
587	2.750000e+00	1.487467e-04	
588	2.800000e+00	1.491193e-04	
589	2.850000e+00	1.494760e-04	
590	2.900000e+00	1.498180e-04	
591	2.950000e+00	1.501467e-04	
592	3.000000e+00	1.504631e-04	
593	3.050000e+00	1.507683e-04	
594	3.100000e+00	1.510630e-04	
595	3.150000e+00	1.513480e-04	
596	3.200000e+00	1.516241e-04	
597	3.250000e+00	1.518917e-04	
598	3.300000e+00	1.521516e-04	
599	3.350000e+00	1.524042e-04	
600	3.400000e+00	1.526499e-04	
601	3.450000e+00	1.528892e-04	
602	3.500000e+00	1.531224e-04	
603	3.550000e+00	1.533499e-04	
604	3.600000e+00	1.535721e-04	
605	3.650000e+00	1.537891e-04	
606	3.700000e+00	1.540013e-04	
607	3.750000e+00	1.542089e-04	
608	3.800000e+00	1.544121e-04	
609	3.850000e+00	1.546112e-04	
610	3.900000e+00	1.548064e-04	
611	3.950000e+00	1.549978e-04	
612	4.000000e+00	1.551856e-04	
613	4.050000e+00	1.553700e-04	
614	4.100000e+00	1.555512e-04	
615	4.150000e+00	1.557292e-04	
616	4.200000e+00	1.559043e-04	
617	4.250000e+00	1.560766e-04	
618	4.300000e+00	1.562461e-04	
619	4.350000e+00	1.564131e-04	
620	4.400000e+00	1.565777e-04	
621	4.450000e+00	1.567400e-04	
622	4.500000e+00	1.569001e-04	
623	4.550000e+00	1.570582e-04	
624	4.600000e+00	1.572145e-04	
625	4.650000e+00	1.573691e-04	
626	4.700000e+00	1.575221e-04	
627	4.750000e+00	1.576739e-04	
628	4.800000e+00	1.578245e-04	
629	4.850000e+00	1.579741e-04	
630	4.900000e+00	1.581232e-04	
631	4.950000e+00	1.582718e-04	
632	5.000000e+00	1.584203e-04	
633	5.050000e+00	1.585691e-04	
634	5.100000e+00	1.587184e-04	

Index   v-sweep         -i(vds)         
--------------------------------------------------------------------------------
635	5.150000e+00	1.588686e-04	
636	5.200000e+00	1.590202e-04	
637	5.250000e+00	1.591737e-04	
638	5.300000e+00	1.593295e-04	
639	5.350000e+00	1.594881e-04	
640	5.400000e+00	1.596502e-04	
641	5.450000e+00	1.598164e-04	
642	5.500000e+00	1.599873e-04	
643	5.550000e+00	1.601637e-04	
644	5.600000e+00	1.603464e-04	
645	5.650000e+00	1.605362e-04	
646	5.700000e+00	1.607341e-04	
647	5.750000e+00	1.609408e-04	
648	5.800000e+00	1.611576e-04	
649	5.850000e+00	1.613853e-04	
650	5.900000e+00	1.616252e-04	
651	5.950000e+00	1.618784e-04	
652	6.000000e+00	1.621462e-04	
653	6.050000e+00	1.624299e-04	
654	6.100000e+00	1.627308e-04	
655	6.150000e+00	1.630504e-04	
656	6.200000e+00	1.633902e-04	
657	6.250000e+00	1.637517e-04	
658	6.300000e+00	1.641365e-04	
659	6.350000e+00	1.645463e-04	
660	6.400000e+00	1.649828e-04	
661	6.450000e+00	1.654479e-04	
662	6.500000e+00	1.659434e-04	
663	6.550000e+00	1.664712e-04	
664	6.600000e+00	1.670332e-04	
665	0.000000e+00	-0.000000e+00	
666	5.000000e-02	6.934208e-06	
667	1.000000e-01	1.368730e-05	
668	1.500000e-01	2.026607e-05	
669	2.000000e-01	2.667472e-05	
670	2.500000e-01	3.291673e-05	
671	3.000000e-01	3.899534e-05	
672	3.500000e-01	4.491366e-05	
673	4.000000e-01	5.067473e-05	
674	4.500000e-01	5.628148e-05	
675	5.000000e-01	6.173677e-05	
676	5.500000e-01	6.704338e-05	
677	6.000000e-01	7.220400e-05	
678	6.500000e-01	7.722127e-05	
679	7.000000e-01	8.209773e-05	
680	7.500000e-01	8.683586e-05	
681	8.000000e-01	9.143807e-05	
682	8.500000e-01	9.590670e-05	
683	9.000000e-01	1.002440e-04	
684	9.500000e-01	1.044523e-04	
685	1.000000e+00	1.085337e-04	
686	1.050000e+00	1.124902e-04	
687	1.100000e+00	1.163240e-04	
688	1.150000e+00	1.200371e-04	
689	1.200000e+00	1.236315e-04	
690	1.250000e+00	1.271090e-04	
691	1.300000e+00	1.304717e-04	
692	1.350000e+00	1.337213e-04	

Index   v-sweep         -i(vds)         
--------------------------------------------------------------------------------
693	1.400000e+00	1.368597e-04	
694	1.450000e+00	1.398887e-04	
695	1.500000e+00	1.428100e-04	
696	1.550000e+00	1.456255e-04	
697	1.600000e+00	1.483368e-04	
698	1.650000e+00	1.509457e-04	
699	1.700000e+00	1.534538e-04	
700	1.750000e+00	1.558627e-04	
701	1.800000e+00	1.581740e-04	
702	1.850000e+00	1.603894e-04	
703	1.900000e+00	1.625102e-04	
704	1.950000e+00	1.645379e-04	
705	2.000000e+00	1.664737e-04	
706	2.050000e+00	1.683189e-04	
707	2.100000e+00	1.700743e-04	
708	2.150000e+00	1.717405e-04	
709	2.200000e+00	1.733177e-04	
710	2.250000e+00	1.748055e-04	
711	2.300000e+00	1.762032e-04	
712	2.350000e+00	1.775098e-04	
713	2.400000e+00	1.787251e-04	
714	2.450000e+00	1.798501e-04	
715	2.500000e+00	1.808882e-04	
716	2.550000e+00	1.818447e-04	
717	2.600000e+00	1.827265e-04	
718	2.650000e+00	1.835411e-04	
719	2.700000e+00	1.842960e-04	
720	2.750000e+00	1.849981e-04	
721	2.800000e+00	1.856536e-04	
722	2.850000e+00	1.862678e-04	
723	2.900000e+00	1.868455e-04	
724	2.950000e+00	1.873906e-04	
725	3.000000e+00	1.879066e-04	
726	3.050000e+00	1.883966e-04	
727	3.100000e+00	1.888630e-04	
728	3.150000e+00	1.893081e-04	
729	3.200000e+00	1.897338e-04	
730	3.250000e+00	1.901419e-04	
731	3.300000e+00	1.905337e-04	
732	3.350000e+00	1.909107e-04	
733	3.400000e+00	1.912740e-04	
734	3.450000e+00	1.916247e-04	
735	3.500000e+00	1.919635e-04	
736	3.550000e+00	1.922915e-04	
737	3.600000e+00	1.926093e-04	
738	3.650000e+00	1.929176e-04	
739	3.700000e+00	1.932170e-04	
740	3.750000e+00	1.935080e-04	
741	3.800000e+00	1.937912e-04	
742	3.850000e+00	1.940671e-04	
743	3.900000e+00	1.943359e-04	
744	3.950000e+00	1.945982e-04	
745	4.000000e+00	1.948543e-04	
746	4.050000e+00	1.951045e-04	
747	4.100000e+00	1.953491e-04	
748	4.150000e+00	1.955885e-04	
749	4.200000e+00	1.958227e-04	
750	4.250000e+00	1.960522e-04	

Index   v-sweep         -i(vds)         
--------------------------------------------------------------------------------
751	4.300000e+00	1.962770e-04	
752	4.350000e+00	1.964976e-04	
753	4.400000e+00	1.967139e-04	
754	4.450000e+00	1.969263e-04	
755	4.500000e+00	1.971348e-04	
756	4.550000e+00	1.973398e-04	
757	4.600000e+00	1.975413e-04	
758	4.650000e+00	1.977395e-04	
759	4.700000e+00	1.979345e-04	
760	4.750000e+00	1.981266e-04	
761	4.800000e+00	1.983159e-04	
762	4.850000e+00	1.985025e-04	
763	4.900000e+00	1.986866e-04	
764	4.950000e+00	1.988684e-04	
765	5.000000e+00	1.990481e-04	
766	5.050000e+00	1.992259e-04	
767	5.100000e+00	1.994021e-04	
768	5.150000e+00	1.995767e-04	
769	5.200000e+00	1.997502e-04	
770	5.250000e+00	1.999228e-04	
771	5.300000e+00	2.000948e-04	
772	5.350000e+00	2.002665e-04	
773	5.400000e+00	2.004384e-04	
774	5.450000e+00	2.006109e-04	
775	5.500000e+00	2.007843e-04	
776	5.550000e+00	2.009593e-04	
777	5.600000e+00	2.011363e-04	
778	5.650000e+00	2.013159e-04	
779	5.700000e+00	2.014989e-04	
780	5.750000e+00	2.016858e-04	
781	5.800000e+00	2.018775e-04	
782	5.850000e+00	2.020748e-04	
783	5.900000e+00	2.022785e-04	
784	5.950000e+00	2.024896e-04	
785	6.000000e+00	2.027092e-04	
786	6.050000e+00	2.029382e-04	
787	6.100000e+00	2.031779e-04	
788	6.150000e+00	2.034294e-04	
789	6.200000e+00	2.036941e-04	
790	6.250000e+00	2.039734e-04	
791	6.300000e+00	2.042686e-04	
792	6.350000e+00	2.045813e-04	
793	6.400000e+00	2.049131e-04	
794	6.450000e+00	2.052657e-04	
795	6.500000e+00	2.056408e-04	
796	6.550000e+00	2.060403e-04	
797	6.600000e+00	2.064660e-04	
Note: No ".plot", ".print", or ".fourier" lines; no simulations run
