
Note: Compatibility modes selected: hs


Circuit: ***************************

Doing analysis at TEMP = 25.000000 and TNOM = 25.000000


No. of Data Rows : 10009

  Measurements for Transient Analysis

cv                  =  4.475315e+01


