
Note: Compatibility modes selected: hs

Warning: m=xx on .subckt line will override multiplier m hierarchy!


Circuit: ***************************

Doing analysis at TEMP = 25.000000 and TNOM = 25.000000


No. of Data Rows : 798
                          ***************************
                          DC transfer characteristic  Mon Jan  9 13:58:04  2023
--------------------------------------------------------------------------------
Index   v-sweep         -i(vds)         
--------------------------------------------------------------------------------
0	0.000000e+00	-0.000000e+00	
1	5.000000e-02	2.085280e-06	
2	1.000000e-01	3.825565e-06	
3	1.500000e-01	5.222187e-06	
4	2.000000e-01	6.277453e-06	
5	2.500000e-01	6.997477e-06	
6	3.000000e-01	7.405816e-06	
7	3.500000e-01	7.584676e-06	
8	4.000000e-01	7.663093e-06	
9	4.500000e-01	7.711715e-06	
10	5.000000e-01	7.749660e-06	
11	5.500000e-01	7.782042e-06	
12	6.000000e-01	7.810737e-06	
13	6.500000e-01	7.836671e-06	
14	7.000000e-01	7.860402e-06	
15	7.500000e-01	7.882310e-06	
16	8.000000e-01	7.902673e-06	
17	8.500000e-01	7.921703e-06	
18	9.000000e-01	7.939571e-06	
19	9.500000e-01	7.956414e-06	
20	1.000000e+00	7.972345e-06	
21	1.050000e+00	7.987459e-06	
22	1.100000e+00	8.001838e-06	
23	1.150000e+00	8.015550e-06	
24	1.200000e+00	8.028655e-06	
25	1.250000e+00	8.041205e-06	
26	1.300000e+00	8.053245e-06	
27	1.350000e+00	8.064815e-06	
28	1.400000e+00	8.075952e-06	
29	1.450000e+00	8.086685e-06	
30	1.500000e+00	8.097045e-06	
31	1.550000e+00	8.107055e-06	
32	1.600000e+00	8.116740e-06	
33	1.650000e+00	8.126118e-06	
34	1.700000e+00	8.135211e-06	
35	1.750000e+00	8.144033e-06	
36	1.800000e+00	8.152602e-06	
37	1.850000e+00	8.160931e-06	
38	1.900000e+00	8.169034e-06	
39	1.950000e+00	8.176922e-06	
40	2.000000e+00	8.184607e-06	
41	2.050000e+00	8.192098e-06	
42	2.100000e+00	8.199407e-06	
43	2.150000e+00	8.206540e-06	
44	2.200000e+00	8.213508e-06	
45	2.250000e+00	8.220316e-06	
46	2.300000e+00	8.226974e-06	
47	2.350000e+00	8.233486e-06	
48	2.400000e+00	8.239860e-06	
49	2.450000e+00	8.246101e-06	
50	2.500000e+00	8.252215e-06	
51	2.550000e+00	8.258208e-06	
52	2.600000e+00	8.264083e-06	
53	2.650000e+00	8.269846e-06	
54	2.700000e+00	8.275501e-06	

Index   v-sweep         -i(vds)         
--------------------------------------------------------------------------------
55	2.750000e+00	8.281052e-06	
56	2.800000e+00	8.286503e-06	
57	2.850000e+00	8.291858e-06	
58	2.900000e+00	8.297120e-06	
59	2.950000e+00	8.302292e-06	
60	3.000000e+00	8.307378e-06	
61	3.050000e+00	8.312381e-06	
62	3.100000e+00	8.317304e-06	
63	3.150000e+00	8.322148e-06	
64	3.200000e+00	8.326918e-06	
65	3.250000e+00	8.331614e-06	
66	3.300000e+00	8.336241e-06	
67	3.350000e+00	8.340799e-06	
68	3.400000e+00	8.345291e-06	
69	3.450000e+00	8.349720e-06	
70	3.500000e+00	8.354086e-06	
71	3.550000e+00	8.358393e-06	
72	3.600000e+00	8.362641e-06	
73	3.650000e+00	8.366833e-06	
74	3.700000e+00	8.370970e-06	
75	3.750000e+00	8.375053e-06	
76	3.800000e+00	8.379085e-06	
77	3.850000e+00	8.383066e-06	
78	3.900000e+00	8.386999e-06	
79	3.950000e+00	8.390884e-06	
80	4.000000e+00	8.394723e-06	
81	4.050000e+00	8.398517e-06	
82	4.100000e+00	8.402267e-06	
83	4.150000e+00	8.405975e-06	
84	4.200000e+00	8.409641e-06	
85	4.250000e+00	8.413267e-06	
86	4.300000e+00	8.416853e-06	
87	4.350000e+00	8.420401e-06	
88	4.400000e+00	8.423912e-06	
89	4.450000e+00	8.427386e-06	
90	4.500000e+00	8.430825e-06	
91	4.550000e+00	8.434229e-06	
92	4.600000e+00	8.437599e-06	
93	4.650000e+00	8.440936e-06	
94	4.700000e+00	8.444241e-06	
95	4.750000e+00	8.447514e-06	
96	4.800000e+00	8.450757e-06	
97	4.850000e+00	8.453970e-06	
98	4.900000e+00	8.457153e-06	
99	4.950000e+00	8.460308e-06	
100	5.000000e+00	8.463434e-06	
101	5.050000e+00	8.466533e-06	
102	5.100000e+00	8.469605e-06	
103	5.150000e+00	8.472652e-06	
104	5.200000e+00	8.475672e-06	
105	5.250000e+00	8.478667e-06	
106	5.300000e+00	8.481638e-06	
107	5.350000e+00	8.484585e-06	
108	5.400000e+00	8.487508e-06	
109	5.450000e+00	8.490408e-06	
110	5.500000e+00	8.493286e-06	
111	5.550000e+00	8.496141e-06	
112	5.600000e+00	8.498975e-06	

Index   v-sweep         -i(vds)         
--------------------------------------------------------------------------------
113	5.650000e+00	8.501787e-06	
114	5.700000e+00	8.504579e-06	
115	5.750000e+00	8.507350e-06	
116	5.800000e+00	8.510101e-06	
117	5.850000e+00	8.512833e-06	
118	5.900000e+00	8.515546e-06	
119	5.950000e+00	8.518239e-06	
120	6.000000e+00	8.520914e-06	
121	6.050000e+00	8.523571e-06	
122	6.100000e+00	8.526210e-06	
123	6.150000e+00	8.528832e-06	
124	6.200000e+00	8.531436e-06	
125	6.250000e+00	8.534024e-06	
126	6.300000e+00	8.536595e-06	
127	6.350000e+00	8.539149e-06	
128	6.400000e+00	8.541688e-06	
129	6.450000e+00	8.544211e-06	
130	6.500000e+00	8.546719e-06	
131	6.550000e+00	8.549211e-06	
132	6.600000e+00	8.551689e-06	
133	0.000000e+00	-0.000000e+00	
134	5.000000e-02	9.118957e-06	
135	1.000000e-01	1.790842e-05	
136	1.500000e-01	2.636935e-05	
137	2.000000e-01	3.450272e-05	
138	2.500000e-01	4.230948e-05	
139	3.000000e-01	4.979059e-05	
140	3.500000e-01	5.694700e-05	
141	4.000000e-01	6.377967e-05	
142	4.500000e-01	7.028954e-05	
143	5.000000e-01	7.647755e-05	
144	5.500000e-01	8.234466e-05	
145	6.000000e-01	8.789182e-05	
146	6.500000e-01	9.311996e-05	
147	7.000000e-01	9.803004e-05	
148	7.500000e-01	1.026230e-04	
149	8.000000e-01	1.068999e-04	
150	8.500000e-01	1.108616e-04	
151	9.000000e-01	1.145092e-04	
152	9.500000e-01	1.178437e-04	
153	1.000000e+00	1.208665e-04	
154	1.050000e+00	1.235788e-04	
155	1.100000e+00	1.259825e-04	
156	1.150000e+00	1.280801e-04	
157	1.200000e+00	1.298760e-04	
158	1.250000e+00	1.313781e-04	
159	1.300000e+00	1.326026e-04	
160	1.350000e+00	1.335797e-04	
161	1.400000e+00	1.343565e-04	
162	1.450000e+00	1.349862e-04	
163	1.500000e+00	1.355128e-04	
164	1.550000e+00	1.359662e-04	
165	1.600000e+00	1.363652e-04	
166	1.650000e+00	1.367221e-04	
167	1.700000e+00	1.370453e-04	
168	1.750000e+00	1.373407e-04	
169	1.800000e+00	1.376130e-04	
170	1.850000e+00	1.378656e-04	

Index   v-sweep         -i(vds)         
--------------------------------------------------------------------------------
171	1.900000e+00	1.381010e-04	
172	1.950000e+00	1.383216e-04	
173	2.000000e+00	1.385292e-04	
174	2.050000e+00	1.387251e-04	
175	2.100000e+00	1.389106e-04	
176	2.150000e+00	1.390868e-04	
177	2.200000e+00	1.392546e-04	
178	2.250000e+00	1.394148e-04	
179	2.300000e+00	1.395679e-04	
180	2.350000e+00	1.397147e-04	
181	2.400000e+00	1.398555e-04	
182	2.450000e+00	1.399910e-04	
183	2.500000e+00	1.401214e-04	
184	2.550000e+00	1.402471e-04	
185	2.600000e+00	1.403685e-04	
186	2.650000e+00	1.404859e-04	
187	2.700000e+00	1.405995e-04	
188	2.750000e+00	1.407095e-04	
189	2.800000e+00	1.408162e-04	
190	2.850000e+00	1.409197e-04	
191	2.900000e+00	1.410203e-04	
192	2.950000e+00	1.411181e-04	
193	3.000000e+00	1.412132e-04	
194	3.050000e+00	1.413058e-04	
195	3.100000e+00	1.413961e-04	
196	3.150000e+00	1.414841e-04	
197	3.200000e+00	1.415700e-04	
198	3.250000e+00	1.416538e-04	
199	3.300000e+00	1.417357e-04	
200	3.350000e+00	1.418158e-04	
201	3.400000e+00	1.418940e-04	
202	3.450000e+00	1.419706e-04	
203	3.500000e+00	1.420456e-04	
204	3.550000e+00	1.421190e-04	
205	3.600000e+00	1.421909e-04	
206	3.650000e+00	1.422614e-04	
207	3.700000e+00	1.423306e-04	
208	3.750000e+00	1.423984e-04	
209	3.800000e+00	1.424650e-04	
210	3.850000e+00	1.425303e-04	
211	3.900000e+00	1.425945e-04	
212	3.950000e+00	1.426576e-04	
213	4.000000e+00	1.427195e-04	
214	4.050000e+00	1.427805e-04	
215	4.100000e+00	1.428404e-04	
216	4.150000e+00	1.428994e-04	
217	4.200000e+00	1.429574e-04	
218	4.250000e+00	1.430145e-04	
219	4.300000e+00	1.430707e-04	
220	4.350000e+00	1.431261e-04	
221	4.400000e+00	1.431807e-04	
222	4.450000e+00	1.432345e-04	
223	4.500000e+00	1.432875e-04	
224	4.550000e+00	1.433398e-04	
225	4.600000e+00	1.433914e-04	
226	4.650000e+00	1.434423e-04	
227	4.700000e+00	1.434925e-04	
228	4.750000e+00	1.435420e-04	

Index   v-sweep         -i(vds)         
--------------------------------------------------------------------------------
229	4.800000e+00	1.435909e-04	
230	4.850000e+00	1.436392e-04	
231	4.900000e+00	1.436869e-04	
232	4.950000e+00	1.437340e-04	
233	5.000000e+00	1.437806e-04	
234	5.050000e+00	1.438266e-04	
235	5.100000e+00	1.438721e-04	
236	5.150000e+00	1.439170e-04	
237	5.200000e+00	1.439615e-04	
238	5.250000e+00	1.440054e-04	
239	5.300000e+00	1.440489e-04	
240	5.350000e+00	1.440920e-04	
241	5.400000e+00	1.441346e-04	
242	5.450000e+00	1.441767e-04	
243	5.500000e+00	1.442184e-04	
244	5.550000e+00	1.442597e-04	
245	5.600000e+00	1.443006e-04	
246	5.650000e+00	1.443411e-04	
247	5.700000e+00	1.443812e-04	
248	5.750000e+00	1.444210e-04	
249	5.800000e+00	1.444603e-04	
250	5.850000e+00	1.444993e-04	
251	5.900000e+00	1.445380e-04	
252	5.950000e+00	1.445763e-04	
253	6.000000e+00	1.446143e-04	
254	6.050000e+00	1.446520e-04	
255	6.100000e+00	1.446894e-04	
256	6.150000e+00	1.447264e-04	
257	6.200000e+00	1.447631e-04	
258	6.250000e+00	1.447996e-04	
259	6.300000e+00	1.448357e-04	
260	6.350000e+00	1.448716e-04	
261	6.400000e+00	1.449072e-04	
262	6.450000e+00	1.449426e-04	
263	6.500000e+00	1.449776e-04	
264	6.550000e+00	1.450124e-04	
265	6.600000e+00	1.450470e-04	
266	0.000000e+00	-0.000000e+00	
267	5.000000e-02	1.430010e-05	
268	1.000000e-01	2.831109e-05	
269	1.500000e-01	4.203382e-05	
270	2.000000e-01	5.546913e-05	
271	2.500000e-01	6.861784e-05	
272	3.000000e-01	8.148080e-05	
273	3.500000e-01	9.405883e-05	
274	4.000000e-01	1.063528e-04	
275	4.500000e-01	1.183634e-04	
276	5.000000e-01	1.300916e-04	
277	5.500000e-01	1.415382e-04	
278	6.000000e-01	1.527039e-04	
279	6.500000e-01	1.635896e-04	
280	7.000000e-01	1.741961e-04	
281	7.500000e-01	1.845242e-04	
282	8.000000e-01	1.945747e-04	
283	8.500000e-01	2.043484e-04	
284	9.000000e-01	2.138461e-04	
285	9.500000e-01	2.230686e-04	
286	1.000000e+00	2.320167e-04	

Index   v-sweep         -i(vds)         
--------------------------------------------------------------------------------
287	1.050000e+00	2.406911e-04	
288	1.100000e+00	2.490927e-04	
289	1.150000e+00	2.572222e-04	
290	1.200000e+00	2.650804e-04	
291	1.250000e+00	2.726681e-04	
292	1.300000e+00	2.799861e-04	
293	1.350000e+00	2.870350e-04	
294	1.400000e+00	2.938158e-04	
295	1.450000e+00	3.003292e-04	
296	1.500000e+00	3.065759e-04	
297	1.550000e+00	3.125567e-04	
298	1.600000e+00	3.182724e-04	
299	1.650000e+00	3.237237e-04	
300	1.700000e+00	3.289114e-04	
301	1.750000e+00	3.338362e-04	
302	1.800000e+00	3.384990e-04	
303	1.850000e+00	3.429005e-04	
304	1.900000e+00	3.470415e-04	
305	1.950000e+00	3.509228e-04	
306	2.000000e+00	3.545453e-04	
307	2.050000e+00	3.579099e-04	
308	2.100000e+00	3.610177e-04	
309	2.150000e+00	3.638700e-04	
310	2.200000e+00	3.664686e-04	
311	2.250000e+00	3.688162e-04	
312	2.300000e+00	3.709180e-04	
313	2.350000e+00	3.727827e-04	
314	2.400000e+00	3.744255e-04	
315	2.450000e+00	3.758687e-04	
316	2.500000e+00	3.771395e-04	
317	2.550000e+00	3.782660e-04	
318	2.600000e+00	3.792732e-04	
319	2.650000e+00	3.801817e-04	
320	2.700000e+00	3.810082e-04	
321	2.750000e+00	3.817657e-04	
322	2.800000e+00	3.824645e-04	
323	2.850000e+00	3.831129e-04	
324	2.900000e+00	3.837177e-04	
325	2.950000e+00	3.842842e-04	
326	3.000000e+00	3.848170e-04	
327	3.050000e+00	3.853199e-04	
328	3.100000e+00	3.857960e-04	
329	3.150000e+00	3.862480e-04	
330	3.200000e+00	3.866782e-04	
331	3.250000e+00	3.870887e-04	
332	3.300000e+00	3.874811e-04	
333	3.350000e+00	3.878570e-04	
334	3.400000e+00	3.882177e-04	
335	3.450000e+00	3.885644e-04	
336	3.500000e+00	3.888981e-04	
337	3.550000e+00	3.892198e-04	
338	3.600000e+00	3.895303e-04	
339	3.650000e+00	3.898304e-04	
340	3.700000e+00	3.901207e-04	
341	3.750000e+00	3.904019e-04	
342	3.800000e+00	3.906745e-04	
343	3.850000e+00	3.909390e-04	
344	3.900000e+00	3.911959e-04	

Index   v-sweep         -i(vds)         
--------------------------------------------------------------------------------
345	3.950000e+00	3.914456e-04	
346	4.000000e+00	3.916885e-04	
347	4.050000e+00	3.919250e-04	
348	4.100000e+00	3.921554e-04	
349	4.150000e+00	3.923800e-04	
350	4.200000e+00	3.925991e-04	
351	4.250000e+00	3.928129e-04	
352	4.300000e+00	3.930218e-04	
353	4.350000e+00	3.932259e-04	
354	4.400000e+00	3.934255e-04	
355	4.450000e+00	3.936208e-04	
356	4.500000e+00	3.938119e-04	
357	4.550000e+00	3.939990e-04	
358	4.600000e+00	3.941823e-04	
359	4.650000e+00	3.943620e-04	
360	4.700000e+00	3.945382e-04	
361	4.750000e+00	3.947110e-04	
362	4.800000e+00	3.948806e-04	
363	4.850000e+00	3.950470e-04	
364	4.900000e+00	3.952105e-04	
365	4.950000e+00	3.953712e-04	
366	5.000000e+00	3.955290e-04	
367	5.050000e+00	3.956842e-04	
368	5.100000e+00	3.958368e-04	
369	5.150000e+00	3.959869e-04	
370	5.200000e+00	3.961347e-04	
371	5.250000e+00	3.962801e-04	
372	5.300000e+00	3.964233e-04	
373	5.350000e+00	3.965644e-04	
374	5.400000e+00	3.967033e-04	
375	5.450000e+00	3.968403e-04	
376	5.500000e+00	3.969752e-04	
377	5.550000e+00	3.971084e-04	
378	5.600000e+00	3.972396e-04	
379	5.650000e+00	3.973691e-04	
380	5.700000e+00	3.974969e-04	
381	5.750000e+00	3.976230e-04	
382	5.800000e+00	3.977475e-04	
383	5.850000e+00	3.978705e-04	
384	5.900000e+00	3.979919e-04	
385	5.950000e+00	3.981118e-04	
386	6.000000e+00	3.982304e-04	
387	6.050000e+00	3.983475e-04	
388	6.100000e+00	3.984633e-04	
389	6.150000e+00	3.985777e-04	
390	6.200000e+00	3.986909e-04	
391	6.250000e+00	3.988029e-04	
392	6.300000e+00	3.989136e-04	
393	6.350000e+00	3.990232e-04	
394	6.400000e+00	3.991316e-04	
395	6.450000e+00	3.992390e-04	
396	6.500000e+00	3.993452e-04	
397	6.550000e+00	3.994504e-04	
398	6.600000e+00	3.995546e-04	
399	0.000000e+00	-0.000000e+00	
400	5.000000e-02	1.819442e-05	
401	1.000000e-01	3.613590e-05	
402	1.500000e-01	5.382511e-05	

Index   v-sweep         -i(vds)         
--------------------------------------------------------------------------------
403	2.000000e-01	7.126276e-05	
404	2.500000e-01	8.844952e-05	
405	3.000000e-01	1.053861e-04	
406	3.500000e-01	1.220731e-04	
407	4.000000e-01	1.385114e-04	
408	4.500000e-01	1.547014e-04	
409	5.000000e-01	1.706440e-04	
410	5.500000e-01	1.863398e-04	
411	6.000000e-01	2.017894e-04	
412	6.500000e-01	2.169936e-04	
413	7.000000e-01	2.319530e-04	
414	7.500000e-01	2.466682e-04	
415	8.000000e-01	2.611399e-04	
416	8.500000e-01	2.753688e-04	
417	9.000000e-01	2.893556e-04	
418	9.500000e-01	3.031008e-04	
419	1.000000e+00	3.166052e-04	
420	1.050000e+00	3.298693e-04	
421	1.100000e+00	3.428939e-04	
422	1.150000e+00	3.556796e-04	
423	1.200000e+00	3.682269e-04	
424	1.250000e+00	3.805367e-04	
425	1.300000e+00	3.926094e-04	
426	1.350000e+00	4.044457e-04	
427	1.400000e+00	4.160464e-04	
428	1.450000e+00	4.274119e-04	
429	1.500000e+00	4.385429e-04	
430	1.550000e+00	4.494401e-04	
431	1.600000e+00	4.601040e-04	
432	1.650000e+00	4.705353e-04	
433	1.700000e+00	4.807347e-04	
434	1.750000e+00	4.907027e-04	
435	1.800000e+00	5.004399e-04	
436	1.850000e+00	5.099469e-04	
437	1.900000e+00	5.192245e-04	
438	1.950000e+00	5.282731e-04	
439	2.000000e+00	5.370933e-04	
440	2.050000e+00	5.456859e-04	
441	2.100000e+00	5.540513e-04	
442	2.150000e+00	5.621902e-04	
443	2.200000e+00	5.701032e-04	
444	2.250000e+00	5.777908e-04	
445	2.300000e+00	5.852537e-04	
446	2.350000e+00	5.924925e-04	
447	2.400000e+00	5.995076e-04	
448	2.450000e+00	6.062998e-04	
449	2.500000e+00	6.128695e-04	
450	2.550000e+00	6.192174e-04	
451	2.600000e+00	6.253440e-04	
452	2.650000e+00	6.312499e-04	
453	2.700000e+00	6.369356e-04	
454	2.750000e+00	6.424016e-04	
455	2.800000e+00	6.476485e-04	
456	2.850000e+00	6.526767e-04	
457	2.900000e+00	6.574867e-04	
458	2.950000e+00	6.620788e-04	
459	3.000000e+00	6.664535e-04	
460	3.050000e+00	6.706108e-04	

Index   v-sweep         -i(vds)         
--------------------------------------------------------------------------------
461	3.100000e+00	6.745509e-04	
462	3.150000e+00	6.782734e-04	
463	3.200000e+00	6.817777e-04	
464	3.250000e+00	6.850626e-04	
465	3.300000e+00	6.881263e-04	
466	3.350000e+00	6.909669e-04	
467	3.400000e+00	6.935832e-04	
468	3.450000e+00	6.959769e-04	
469	3.500000e+00	6.981554e-04	
470	3.550000e+00	7.001328e-04	
471	3.600000e+00	7.019279e-04	
472	3.650000e+00	7.035620e-04	
473	3.700000e+00	7.050561e-04	
474	3.750000e+00	7.064288e-04	
475	3.800000e+00	7.076965e-04	
476	3.850000e+00	7.088729e-04	
477	3.900000e+00	7.099697e-04	
478	3.950000e+00	7.109963e-04	
479	4.000000e+00	7.119611e-04	
480	4.050000e+00	7.128709e-04	
481	4.100000e+00	7.137314e-04	
482	4.150000e+00	7.145476e-04	
483	4.200000e+00	7.153239e-04	
484	4.250000e+00	7.160638e-04	
485	4.300000e+00	7.167707e-04	
486	4.350000e+00	7.174473e-04	
487	4.400000e+00	7.180961e-04	
488	4.450000e+00	7.187192e-04	
489	4.500000e+00	7.193187e-04	
490	4.550000e+00	7.198962e-04	
491	4.600000e+00	7.204533e-04	
492	4.650000e+00	7.209913e-04	
493	4.700000e+00	7.215116e-04	
494	4.750000e+00	7.220153e-04	
495	4.800000e+00	7.225033e-04	
496	4.850000e+00	7.229767e-04	
497	4.900000e+00	7.234362e-04	
498	4.950000e+00	7.238828e-04	
499	5.000000e+00	7.243170e-04	
500	5.050000e+00	7.247395e-04	
501	5.100000e+00	7.251511e-04	
502	5.150000e+00	7.255521e-04	
503	5.200000e+00	7.259432e-04	
504	5.250000e+00	7.263249e-04	
505	5.300000e+00	7.266975e-04	
506	5.350000e+00	7.270616e-04	
507	5.400000e+00	7.274174e-04	
508	5.450000e+00	7.277654e-04	
509	5.500000e+00	7.281060e-04	
510	5.550000e+00	7.284394e-04	
511	5.600000e+00	7.287659e-04	
512	5.650000e+00	7.290859e-04	
513	5.700000e+00	7.293995e-04	
514	5.750000e+00	7.297071e-04	
515	5.800000e+00	7.300089e-04	
516	5.850000e+00	7.303052e-04	
517	5.900000e+00	7.305960e-04	
518	5.950000e+00	7.308817e-04	

Index   v-sweep         -i(vds)         
--------------------------------------------------------------------------------
519	6.000000e+00	7.311624e-04	
520	6.050000e+00	7.314383e-04	
521	6.100000e+00	7.317097e-04	
522	6.150000e+00	7.319765e-04	
523	6.200000e+00	7.322391e-04	
524	6.250000e+00	7.324975e-04	
525	6.300000e+00	7.327519e-04	
526	6.350000e+00	7.330025e-04	
527	6.400000e+00	7.332493e-04	
528	6.450000e+00	7.334925e-04	
529	6.500000e+00	7.337322e-04	
530	6.550000e+00	7.339685e-04	
531	6.600000e+00	7.342016e-04	
532	0.000000e+00	-0.000000e+00	
533	5.000000e-02	2.116061e-05	
534	1.000000e-01	4.209979e-05	
535	1.500000e-01	6.281808e-05	
536	2.000000e-01	8.331605e-05	
537	2.500000e-01	1.035943e-04	
538	3.000000e-01	1.236532e-04	
539	3.500000e-01	1.434936e-04	
540	4.000000e-01	1.631158e-04	
541	4.500000e-01	1.825205e-04	
542	5.000000e-01	2.017081e-04	
543	5.500000e-01	2.206793e-04	
544	6.000000e-01	2.394346e-04	
545	6.500000e-01	2.579745e-04	
546	7.000000e-01	2.762995e-04	
547	7.500000e-01	2.944102e-04	
548	8.000000e-01	3.123072e-04	
549	8.500000e-01	3.299909e-04	
550	9.000000e-01	3.474620e-04	
551	9.500000e-01	3.647208e-04	
552	1.000000e+00	3.817680e-04	
553	1.050000e+00	3.986041e-04	
554	1.100000e+00	4.152296e-04	
555	1.150000e+00	4.316451e-04	
556	1.200000e+00	4.478510e-04	
557	1.250000e+00	4.638479e-04	
558	1.300000e+00	4.796362e-04	
559	1.350000e+00	4.952166e-04	
560	1.400000e+00	5.105895e-04	
561	1.450000e+00	5.257555e-04	
562	1.500000e+00	5.407150e-04	
563	1.550000e+00	5.554685e-04	
564	1.600000e+00	5.700167e-04	
565	1.650000e+00	5.843599e-04	
566	1.700000e+00	5.984987e-04	
567	1.750000e+00	6.124335e-04	
568	1.800000e+00	6.261650e-04	
569	1.850000e+00	6.396936e-04	
570	1.900000e+00	6.530197e-04	
571	1.950000e+00	6.661439e-04	
572	2.000000e+00	6.790667e-04	
573	2.050000e+00	6.917886e-04	
574	2.100000e+00	7.043100e-04	
575	2.150000e+00	7.166315e-04	
576	2.200000e+00	7.287535e-04	

Index   v-sweep         -i(vds)         
--------------------------------------------------------------------------------
577	2.250000e+00	7.406765e-04	
578	2.300000e+00	7.524011e-04	
579	2.350000e+00	7.639276e-04	
580	2.400000e+00	7.752566e-04	
581	2.450000e+00	7.863886e-04	
582	2.500000e+00	7.973240e-04	
583	2.550000e+00	8.080634e-04	
584	2.600000e+00	8.186071e-04	
585	2.650000e+00	8.289557e-04	
586	2.700000e+00	8.391096e-04	
587	2.750000e+00	8.490693e-04	
588	2.800000e+00	8.588352e-04	
589	2.850000e+00	8.684080e-04	
590	2.900000e+00	8.777879e-04	
591	2.950000e+00	8.869754e-04	
592	3.000000e+00	8.959711e-04	
593	3.050000e+00	9.047754e-04	
594	3.100000e+00	9.133887e-04	
595	3.150000e+00	9.218115e-04	
596	3.200000e+00	9.300442e-04	
597	3.250000e+00	9.380873e-04	
598	3.300000e+00	9.459413e-04	
599	3.350000e+00	9.536065e-04	
600	3.400000e+00	9.610834e-04	
601	3.450000e+00	9.683724e-04	
602	3.500000e+00	9.754739e-04	
603	3.550000e+00	9.823885e-04	
604	3.600000e+00	9.891164e-04	
605	3.650000e+00	9.956580e-04	
606	3.700000e+00	1.002014e-03	
607	3.750000e+00	1.008184e-03	
608	3.800000e+00	1.014169e-03	
609	3.850000e+00	1.019969e-03	
610	3.900000e+00	1.025584e-03	
611	3.950000e+00	1.031015e-03	
612	4.000000e+00	1.036261e-03	
613	4.050000e+00	1.041322e-03	
614	4.100000e+00	1.046199e-03	
615	4.150000e+00	1.050889e-03	
616	4.200000e+00	1.055392e-03	
617	4.250000e+00	1.059706e-03	
618	4.300000e+00	1.063827e-03	
619	4.350000e+00	1.067752e-03	
620	4.400000e+00	1.071474e-03	
621	4.450000e+00	1.074985e-03	
622	4.500000e+00	1.078278e-03	
623	4.550000e+00	1.081347e-03	
624	4.600000e+00	1.084192e-03	
625	4.650000e+00	1.086820e-03	
626	4.700000e+00	1.089242e-03	
627	4.750000e+00	1.091477e-03	
628	4.800000e+00	1.093543e-03	
629	4.850000e+00	1.095458e-03	
630	4.900000e+00	1.097240e-03	
631	4.950000e+00	1.098903e-03	
632	5.000000e+00	1.100461e-03	
633	5.050000e+00	1.101927e-03	
634	5.100000e+00	1.103308e-03	

Index   v-sweep         -i(vds)         
--------------------------------------------------------------------------------
635	5.150000e+00	1.104615e-03	
636	5.200000e+00	1.105855e-03	
637	5.250000e+00	1.107033e-03	
638	5.300000e+00	1.108157e-03	
639	5.350000e+00	1.109229e-03	
640	5.400000e+00	1.110255e-03	
641	5.450000e+00	1.111239e-03	
642	5.500000e+00	1.112184e-03	
643	5.550000e+00	1.113093e-03	
644	5.600000e+00	1.113968e-03	
645	5.650000e+00	1.114811e-03	
646	5.700000e+00	1.115626e-03	
647	5.750000e+00	1.116414e-03	
648	5.800000e+00	1.117176e-03	
649	5.850000e+00	1.117914e-03	
650	5.900000e+00	1.118630e-03	
651	5.950000e+00	1.119325e-03	
652	6.000000e+00	1.120001e-03	
653	6.050000e+00	1.120657e-03	
654	6.100000e+00	1.121296e-03	
655	6.150000e+00	1.121917e-03	
656	6.200000e+00	1.122523e-03	
657	6.250000e+00	1.123114e-03	
658	6.300000e+00	1.123690e-03	
659	6.350000e+00	1.124253e-03	
660	6.400000e+00	1.124803e-03	
661	6.450000e+00	1.125340e-03	
662	6.500000e+00	1.125865e-03	
663	6.550000e+00	1.126379e-03	
664	6.600000e+00	1.126882e-03	
665	0.000000e+00	-0.000000e+00	
666	5.000000e-02	2.343868e-05	
667	1.000000e-01	4.668328e-05	
668	1.500000e-01	6.973424e-05	
669	2.000000e-01	9.259201e-05	
670	2.500000e-01	1.152570e-04	
671	3.000000e-01	1.377298e-04	
672	3.500000e-01	1.600107e-04	
673	4.000000e-01	1.821002e-04	
674	4.500000e-01	2.039988e-04	
675	5.000000e-01	2.257068e-04	
676	5.500000e-01	2.472248e-04	
677	6.000000e-01	2.685531e-04	
678	6.500000e-01	2.896922e-04	
679	7.000000e-01	3.106426e-04	
680	7.500000e-01	3.314047e-04	
681	8.000000e-01	3.519788e-04	
682	8.500000e-01	3.723655e-04	
683	9.000000e-01	3.925652e-04	
684	9.500000e-01	4.125783e-04	
685	1.000000e+00	4.324052e-04	
686	1.050000e+00	4.520463e-04	
687	1.100000e+00	4.715022e-04	
688	1.150000e+00	4.907731e-04	
689	1.200000e+00	5.098596e-04	
690	1.250000e+00	5.287620e-04	
691	1.300000e+00	5.474808e-04	
692	1.350000e+00	5.660164e-04	

Index   v-sweep         -i(vds)         
--------------------------------------------------------------------------------
693	1.400000e+00	5.843692e-04	
694	1.450000e+00	6.025396e-04	
695	1.500000e+00	6.205281e-04	
696	1.550000e+00	6.383350e-04	
697	1.600000e+00	6.559608e-04	
698	1.650000e+00	6.734059e-04	
699	1.700000e+00	6.906707e-04	
700	1.750000e+00	7.077555e-04	
701	1.800000e+00	7.246609e-04	
702	1.850000e+00	7.413872e-04	
703	1.900000e+00	7.579348e-04	
704	1.950000e+00	7.743042e-04	
705	2.000000e+00	7.904956e-04	
706	2.050000e+00	8.065096e-04	
707	2.100000e+00	8.223465e-04	
708	2.150000e+00	8.380068e-04	
709	2.200000e+00	8.534908e-04	
710	2.250000e+00	8.687989e-04	
711	2.300000e+00	8.839315e-04	
712	2.350000e+00	8.988890e-04	
713	2.400000e+00	9.136719e-04	
714	2.450000e+00	9.282804e-04	
715	2.500000e+00	9.427151e-04	
716	2.550000e+00	9.569762e-04	
717	2.600000e+00	9.710642e-04	
718	2.650000e+00	9.849794e-04	
719	2.700000e+00	9.987223e-04	
720	2.750000e+00	1.012293e-03	
721	2.800000e+00	1.025693e-03	
722	2.850000e+00	1.038921e-03	
723	2.900000e+00	1.051978e-03	
724	2.950000e+00	1.064865e-03	
725	3.000000e+00	1.077582e-03	
726	3.050000e+00	1.090129e-03	
727	3.100000e+00	1.102506e-03	
728	3.150000e+00	1.114715e-03	
729	3.200000e+00	1.126756e-03	
730	3.250000e+00	1.138628e-03	
731	3.300000e+00	1.150332e-03	
732	3.350000e+00	1.161869e-03	
733	3.400000e+00	1.173239e-03	
734	3.450000e+00	1.184442e-03	
735	3.500000e+00	1.195478e-03	
736	3.550000e+00	1.206349e-03	
737	3.600000e+00	1.217054e-03	
738	3.650000e+00	1.227594e-03	
739	3.700000e+00	1.237969e-03	
740	3.750000e+00	1.248180e-03	
741	3.800000e+00	1.258226e-03	
742	3.850000e+00	1.268109e-03	
743	3.900000e+00	1.277828e-03	
744	3.950000e+00	1.287384e-03	
745	4.000000e+00	1.296777e-03	
746	4.050000e+00	1.306008e-03	
747	4.100000e+00	1.315076e-03	
748	4.150000e+00	1.323983e-03	
749	4.200000e+00	1.332729e-03	
750	4.250000e+00	1.341314e-03	

Index   v-sweep         -i(vds)         
--------------------------------------------------------------------------------
751	4.300000e+00	1.349738e-03	
752	4.350000e+00	1.358001e-03	
753	4.400000e+00	1.366105e-03	
754	4.450000e+00	1.374049e-03	
755	4.500000e+00	1.381833e-03	
756	4.550000e+00	1.389458e-03	
757	4.600000e+00	1.396925e-03	
758	4.650000e+00	1.404233e-03	
759	4.700000e+00	1.411383e-03	
760	4.750000e+00	1.418375e-03	
761	4.800000e+00	1.425209e-03	
762	4.850000e+00	1.431885e-03	
763	4.900000e+00	1.438404e-03	
764	4.950000e+00	1.444766e-03	
765	5.000000e+00	1.450970e-03	
766	5.050000e+00	1.457017e-03	
767	5.100000e+00	1.462906e-03	
768	5.150000e+00	1.468637e-03	
769	5.200000e+00	1.474209e-03	
770	5.250000e+00	1.479622e-03	
771	5.300000e+00	1.484872e-03	
772	5.350000e+00	1.489958e-03	
773	5.400000e+00	1.494877e-03	
774	5.450000e+00	1.499622e-03	
775	5.500000e+00	1.504187e-03	
776	5.550000e+00	1.508563e-03	
777	5.600000e+00	1.512738e-03	
778	5.650000e+00	1.516702e-03	
779	5.700000e+00	1.520443e-03	
780	5.750000e+00	1.523955e-03	
781	5.800000e+00	1.527239e-03	
782	5.850000e+00	1.530302e-03	
783	5.900000e+00	1.533155e-03	
784	5.950000e+00	1.535814e-03	
785	6.000000e+00	1.538297e-03	
786	6.050000e+00	1.540621e-03	
787	6.100000e+00	1.542800e-03	
788	6.150000e+00	1.544850e-03	
789	6.200000e+00	1.546784e-03	
790	6.250000e+00	1.548614e-03	
791	6.300000e+00	1.550348e-03	
792	6.350000e+00	1.551996e-03	
793	6.400000e+00	1.553566e-03	
794	6.450000e+00	1.555065e-03	
795	6.500000e+00	1.556498e-03	
796	6.550000e+00	1.557872e-03	
797	6.600000e+00	1.559190e-03	
Note: No ".plot", ".print", or ".fourier" lines; no simulations run
