
Note: Compatibility modes selected: hs

Warning: m=xx on .subckt line will override multiplier m hierarchy!


Circuit: ***************************

Doing analysis at TEMP = -40.000000 and TNOM = -40.000000


No. of Data Rows : 798
                          ***************************
                          DC transfer characteristic  Mon Jan  9 13:58:05  2023
--------------------------------------------------------------------------------
Index   v-sweep         -i(vds)         
--------------------------------------------------------------------------------
0	0.000000e+00	-0.000000e+00	
1	5.000000e-02	5.587220e-06	
2	1.000000e-01	1.002760e-05	
3	1.500000e-01	1.335054e-05	
4	2.000000e-01	1.562206e-05	
5	2.500000e-01	1.706175e-05	
6	3.000000e-01	1.806516e-05	
7	3.500000e-01	1.887213e-05	
8	4.000000e-01	1.956673e-05	
9	4.500000e-01	2.018661e-05	
10	5.000000e-01	2.075303e-05	
11	5.500000e-01	2.127935e-05	
12	6.000000e-01	2.177456e-05	
13	6.500000e-01	2.224498e-05	
14	7.000000e-01	2.269524e-05	
15	7.500000e-01	2.312880e-05	
16	8.000000e-01	2.354833e-05	
17	8.500000e-01	2.395594e-05	
18	9.000000e-01	2.435331e-05	
19	9.500000e-01	2.474179e-05	
20	1.000000e+00	2.512251e-05	
21	1.050000e+00	2.549639e-05	
22	1.100000e+00	2.586421e-05	
23	1.150000e+00	2.622665e-05	
24	1.200000e+00	2.658425e-05	
25	1.250000e+00	2.693752e-05	
26	1.300000e+00	2.728687e-05	
27	1.350000e+00	2.763267e-05	
28	1.400000e+00	2.797525e-05	
29	1.450000e+00	2.831487e-05	
30	1.500000e+00	2.865181e-05	
31	1.550000e+00	2.898627e-05	
32	1.600000e+00	2.931846e-05	
33	1.650000e+00	2.964856e-05	
34	1.700000e+00	2.997673e-05	
35	1.750000e+00	3.030311e-05	
36	1.800000e+00	3.062784e-05	
37	1.850000e+00	3.095103e-05	
38	1.900000e+00	3.127279e-05	
39	1.950000e+00	3.159322e-05	
40	2.000000e+00	3.191242e-05	
41	2.050000e+00	3.223046e-05	
42	2.100000e+00	3.254742e-05	
43	2.150000e+00	3.286338e-05	
44	2.200000e+00	3.317840e-05	
45	2.250000e+00	3.349254e-05	
46	2.300000e+00	3.380585e-05	
47	2.350000e+00	3.411839e-05	
48	2.400000e+00	3.443021e-05	
49	2.450000e+00	3.474134e-05	
50	2.500000e+00	3.505185e-05	
51	2.550000e+00	3.536176e-05	
52	2.600000e+00	3.567111e-05	
53	2.650000e+00	3.597994e-05	
54	2.700000e+00	3.628828e-05	

Index   v-sweep         -i(vds)         
--------------------------------------------------------------------------------
55	2.750000e+00	3.659617e-05	
56	2.800000e+00	3.690362e-05	
57	2.850000e+00	3.721068e-05	
58	2.900000e+00	3.751736e-05	
59	2.950000e+00	3.782369e-05	
60	3.000000e+00	3.812970e-05	
61	3.050000e+00	3.843540e-05	
62	3.100000e+00	3.874082e-05	
63	3.150000e+00	3.904598e-05	
64	3.200000e+00	3.935090e-05	
65	3.250000e+00	3.965560e-05	
66	3.300000e+00	3.996009e-05	
67	3.350000e+00	4.026439e-05	
68	3.400000e+00	4.056851e-05	
69	3.450000e+00	4.087248e-05	
70	3.500000e+00	4.117631e-05	
71	3.550000e+00	4.148001e-05	
72	3.600000e+00	4.178359e-05	
73	3.650000e+00	4.208707e-05	
74	3.700000e+00	4.239046e-05	
75	3.750000e+00	4.269377e-05	
76	3.800000e+00	4.299701e-05	
77	3.850000e+00	4.330020e-05	
78	3.900000e+00	4.360334e-05	
79	3.950000e+00	4.390645e-05	
80	4.000000e+00	4.420953e-05	
81	4.050000e+00	4.451259e-05	
82	4.100000e+00	4.481565e-05	
83	4.150000e+00	4.511871e-05	
84	4.200000e+00	4.542178e-05	
85	4.250000e+00	4.572486e-05	
86	4.300000e+00	4.602798e-05	
87	4.350000e+00	4.633112e-05	
88	4.400000e+00	4.663431e-05	
89	4.450000e+00	4.693754e-05	
90	4.500000e+00	4.724082e-05	
91	4.550000e+00	4.754417e-05	
92	4.600000e+00	4.784758e-05	
93	4.650000e+00	4.815107e-05	
94	4.700000e+00	4.845463e-05	
95	4.750000e+00	4.875828e-05	
96	4.800000e+00	4.906202e-05	
97	4.850000e+00	4.936585e-05	
98	4.900000e+00	4.966978e-05	
99	4.950000e+00	4.997381e-05	
100	5.000000e+00	5.027796e-05	
101	5.050000e+00	5.058222e-05	
102	5.100000e+00	5.088660e-05	
103	5.150000e+00	5.119110e-05	
104	5.200000e+00	5.149572e-05	
105	5.250000e+00	5.180048e-05	
106	5.300000e+00	5.210537e-05	
107	5.350000e+00	5.241040e-05	
108	5.400000e+00	5.271557e-05	
109	5.450000e+00	5.302089e-05	
110	5.500000e+00	5.332635e-05	
111	5.550000e+00	5.363197e-05	
112	5.600000e+00	5.393774e-05	

Index   v-sweep         -i(vds)         
--------------------------------------------------------------------------------
113	5.650000e+00	5.424367e-05	
114	5.700000e+00	5.454976e-05	
115	5.750000e+00	5.485602e-05	
116	5.800000e+00	5.516244e-05	
117	5.850000e+00	5.546903e-05	
118	5.900000e+00	5.577579e-05	
119	5.950000e+00	5.608272e-05	
120	6.000000e+00	5.638983e-05	
121	6.050000e+00	5.669712e-05	
122	6.100000e+00	5.700459e-05	
123	6.150000e+00	5.731224e-05	
124	6.200000e+00	5.762007e-05	
125	6.250000e+00	5.792809e-05	
126	6.300000e+00	5.823630e-05	
127	6.350000e+00	5.854470e-05	
128	6.400000e+00	5.885330e-05	
129	6.450000e+00	5.916208e-05	
130	6.500000e+00	5.947106e-05	
131	6.550000e+00	5.978024e-05	
132	6.600000e+00	6.008961e-05	
133	0.000000e+00	-0.000000e+00	
134	5.000000e-02	2.426213e-05	
135	1.000000e-01	4.731976e-05	
136	1.500000e-01	6.919768e-05	
137	2.000000e-01	8.992001e-05	
138	2.500000e-01	1.095102e-04	
139	3.000000e-01	1.279910e-04	
140	3.500000e-01	1.453846e-04	
141	4.000000e-01	1.617122e-04	
142	4.500000e-01	1.769940e-04	
143	5.000000e-01	1.912487e-04	
144	5.500000e-01	2.044915e-04	
145	6.000000e-01	2.167286e-04	
146	6.500000e-01	2.279427e-04	
147	7.000000e-01	2.380547e-04	
148	7.500000e-01	2.468820e-04	
149	8.000000e-01	2.542554e-04	
150	8.500000e-01	2.602678e-04	
151	9.000000e-01	2.652134e-04	
152	9.500000e-01	2.693788e-04	
153	1.000000e+00	2.729727e-04	
154	1.050000e+00	2.761380e-04	
155	1.100000e+00	2.789727e-04	
156	1.150000e+00	2.815459e-04	
157	1.200000e+00	2.839075e-04	
158	1.250000e+00	2.860948e-04	
159	1.300000e+00	2.881362e-04	
160	1.350000e+00	2.900535e-04	
161	1.400000e+00	2.918644e-04	
162	1.450000e+00	2.935828e-04	
163	1.500000e+00	2.952202e-04	
164	1.550000e+00	2.967861e-04	
165	1.600000e+00	2.982884e-04	
166	1.650000e+00	2.997338e-04	
167	1.700000e+00	3.011280e-04	
168	1.750000e+00	3.024760e-04	
169	1.800000e+00	3.037818e-04	
170	1.850000e+00	3.050493e-04	

Index   v-sweep         -i(vds)         
--------------------------------------------------------------------------------
171	1.900000e+00	3.062816e-04	
172	1.950000e+00	3.074815e-04	
173	2.000000e+00	3.086516e-04	
174	2.050000e+00	3.097942e-04	
175	2.100000e+00	3.109111e-04	
176	2.150000e+00	3.120042e-04	
177	2.200000e+00	3.130752e-04	
178	2.250000e+00	3.141254e-04	
179	2.300000e+00	3.151561e-04	
180	2.350000e+00	3.161687e-04	
181	2.400000e+00	3.171641e-04	
182	2.450000e+00	3.181435e-04	
183	2.500000e+00	3.191076e-04	
184	2.550000e+00	3.200574e-04	
185	2.600000e+00	3.209936e-04	
186	2.650000e+00	3.219170e-04	
187	2.700000e+00	3.228282e-04	
188	2.750000e+00	3.237278e-04	
189	2.800000e+00	3.246165e-04	
190	2.850000e+00	3.254948e-04	
191	2.900000e+00	3.263631e-04	
192	2.950000e+00	3.272220e-04	
193	3.000000e+00	3.280719e-04	
194	3.050000e+00	3.289132e-04	
195	3.100000e+00	3.297463e-04	
196	3.150000e+00	3.305716e-04	
197	3.200000e+00	3.313893e-04	
198	3.250000e+00	3.322000e-04	
199	3.300000e+00	3.330037e-04	
200	3.350000e+00	3.338009e-04	
201	3.400000e+00	3.345919e-04	
202	3.450000e+00	3.353768e-04	
203	3.500000e+00	3.361560e-04	
204	3.550000e+00	3.369296e-04	
205	3.600000e+00	3.376979e-04	
206	3.650000e+00	3.384612e-04	
207	3.700000e+00	3.392196e-04	
208	3.750000e+00	3.399732e-04	
209	3.800000e+00	3.407224e-04	
210	3.850000e+00	3.414673e-04	
211	3.900000e+00	3.422080e-04	
212	3.950000e+00	3.429447e-04	
213	4.000000e+00	3.436776e-04	
214	4.050000e+00	3.444068e-04	
215	4.100000e+00	3.451325e-04	
216	4.150000e+00	3.458548e-04	
217	4.200000e+00	3.465737e-04	
218	4.250000e+00	3.472896e-04	
219	4.300000e+00	3.480024e-04	
220	4.350000e+00	3.487123e-04	
221	4.400000e+00	3.494193e-04	
222	4.450000e+00	3.501237e-04	
223	4.500000e+00	3.508255e-04	
224	4.550000e+00	3.515248e-04	
225	4.600000e+00	3.522217e-04	
226	4.650000e+00	3.529163e-04	
227	4.700000e+00	3.536086e-04	
228	4.750000e+00	3.542988e-04	

Index   v-sweep         -i(vds)         
--------------------------------------------------------------------------------
229	4.800000e+00	3.549870e-04	
230	4.850000e+00	3.556731e-04	
231	4.900000e+00	3.563574e-04	
232	4.950000e+00	3.570398e-04	
233	5.000000e+00	3.577205e-04	
234	5.050000e+00	3.583994e-04	
235	5.100000e+00	3.590768e-04	
236	5.150000e+00	3.597525e-04	
237	5.200000e+00	3.604268e-04	
238	5.250000e+00	3.610996e-04	
239	5.300000e+00	3.617709e-04	
240	5.350000e+00	3.624410e-04	
241	5.400000e+00	3.631098e-04	
242	5.450000e+00	3.637773e-04	
243	5.500000e+00	3.644436e-04	
244	5.550000e+00	3.651088e-04	
245	5.600000e+00	3.657729e-04	
246	5.650000e+00	3.664359e-04	
247	5.700000e+00	3.670980e-04	
248	5.750000e+00	3.677590e-04	
249	5.800000e+00	3.684191e-04	
250	5.850000e+00	3.690784e-04	
251	5.900000e+00	3.697367e-04	
252	5.950000e+00	3.703943e-04	
253	6.000000e+00	3.710511e-04	
254	6.050000e+00	3.717071e-04	
255	6.100000e+00	3.723624e-04	
256	6.150000e+00	3.730170e-04	
257	6.200000e+00	3.736710e-04	
258	6.250000e+00	3.743243e-04	
259	6.300000e+00	3.749770e-04	
260	6.350000e+00	3.756292e-04	
261	6.400000e+00	3.762808e-04	
262	6.450000e+00	3.769319e-04	
263	6.500000e+00	3.775825e-04	
264	6.550000e+00	3.782327e-04	
265	6.600000e+00	3.788824e-04	
266	0.000000e+00	-0.000000e+00	
267	5.000000e-02	3.737707e-05	
268	1.000000e-01	7.351980e-05	
269	1.500000e-01	1.084537e-04	
270	2.000000e-01	1.422036e-04	
271	2.500000e-01	1.747935e-04	
272	3.000000e-01	2.062470e-04	
273	3.500000e-01	2.365866e-04	
274	4.000000e-01	2.658346e-04	
275	4.500000e-01	2.940122e-04	
276	5.000000e-01	3.211400e-04	
277	5.500000e-01	3.472379e-04	
278	6.000000e-01	3.723249e-04	
279	6.500000e-01	3.964188e-04	
280	7.000000e-01	4.195360e-04	
281	7.500000e-01	4.416903e-04	
282	8.000000e-01	4.628913e-04	
283	8.500000e-01	4.831398e-04	
284	9.000000e-01	5.024178e-04	
285	9.500000e-01	5.206651e-04	
286	1.000000e+00	5.377291e-04	

Index   v-sweep         -i(vds)         
--------------------------------------------------------------------------------
287	1.050000e+00	5.532997e-04	
288	1.100000e+00	5.669586e-04	
289	1.150000e+00	5.784832e-04	
290	1.200000e+00	5.880511e-04	
291	1.250000e+00	5.960518e-04	
292	1.300000e+00	6.028603e-04	
293	1.350000e+00	6.087647e-04	
294	1.400000e+00	6.139727e-04	
295	1.450000e+00	6.186326e-04	
296	1.500000e+00	6.228524e-04	
297	1.550000e+00	6.267122e-04	
298	1.600000e+00	6.302724e-04	
299	1.650000e+00	6.335800e-04	
300	1.700000e+00	6.366718e-04	
301	1.750000e+00	6.395771e-04	
302	1.800000e+00	6.423199e-04	
303	1.850000e+00	6.449197e-04	
304	1.900000e+00	6.473930e-04	
305	1.950000e+00	6.497533e-04	
306	2.000000e+00	6.520123e-04	
307	2.050000e+00	6.541799e-04	
308	2.100000e+00	6.562646e-04	
309	2.150000e+00	6.582738e-04	
310	2.200000e+00	6.602141e-04	
311	2.250000e+00	6.620910e-04	
312	2.300000e+00	6.639096e-04	
313	2.350000e+00	6.656744e-04	
314	2.400000e+00	6.673892e-04	
315	2.450000e+00	6.690576e-04	
316	2.500000e+00	6.706829e-04	
317	2.550000e+00	6.722678e-04	
318	2.600000e+00	6.738149e-04	
319	2.650000e+00	6.753268e-04	
320	2.700000e+00	6.768053e-04	
321	2.750000e+00	6.782527e-04	
322	2.800000e+00	6.796706e-04	
323	2.850000e+00	6.810607e-04	
324	2.900000e+00	6.824245e-04	
325	2.950000e+00	6.837634e-04	
326	3.000000e+00	6.850788e-04	
327	3.050000e+00	6.863719e-04	
328	3.100000e+00	6.876437e-04	
329	3.150000e+00	6.888954e-04	
330	3.200000e+00	6.901279e-04	
331	3.250000e+00	6.913421e-04	
332	3.300000e+00	6.925389e-04	
333	3.350000e+00	6.937191e-04	
334	3.400000e+00	6.948834e-04	
335	3.450000e+00	6.960326e-04	
336	3.500000e+00	6.971674e-04	
337	3.550000e+00	6.982883e-04	
338	3.600000e+00	6.993959e-04	
339	3.650000e+00	7.004909e-04	
340	3.700000e+00	7.015738e-04	
341	3.750000e+00	7.026450e-04	
342	3.800000e+00	7.037051e-04	
343	3.850000e+00	7.047546e-04	
344	3.900000e+00	7.057938e-04	

Index   v-sweep         -i(vds)         
--------------------------------------------------------------------------------
345	3.950000e+00	7.068231e-04	
346	4.000000e+00	7.078430e-04	
347	4.050000e+00	7.088539e-04	
348	4.100000e+00	7.098561e-04	
349	4.150000e+00	7.108499e-04	
350	4.200000e+00	7.118357e-04	
351	4.250000e+00	7.128137e-04	
352	4.300000e+00	7.137844e-04	
353	4.350000e+00	7.147479e-04	
354	4.400000e+00	7.157046e-04	
355	4.450000e+00	7.166547e-04	
356	4.500000e+00	7.175984e-04	
357	4.550000e+00	7.185360e-04	
358	4.600000e+00	7.194678e-04	
359	4.650000e+00	7.203939e-04	
360	4.700000e+00	7.213146e-04	
361	4.750000e+00	7.222300e-04	
362	4.800000e+00	7.231404e-04	
363	4.850000e+00	7.240460e-04	
364	4.900000e+00	7.249469e-04	
365	4.950000e+00	7.258432e-04	
366	5.000000e+00	7.267353e-04	
367	5.050000e+00	7.276232e-04	
368	5.100000e+00	7.285071e-04	
369	5.150000e+00	7.293871e-04	
370	5.200000e+00	7.302634e-04	
371	5.250000e+00	7.311361e-04	
372	5.300000e+00	7.320053e-04	
373	5.350000e+00	7.328712e-04	
374	5.400000e+00	7.337339e-04	
375	5.450000e+00	7.345936e-04	
376	5.500000e+00	7.354503e-04	
377	5.550000e+00	7.363041e-04	
378	5.600000e+00	7.371551e-04	
379	5.650000e+00	7.380035e-04	
380	5.700000e+00	7.388494e-04	
381	5.750000e+00	7.396928e-04	
382	5.800000e+00	7.405338e-04	
383	5.850000e+00	7.413726e-04	
384	5.900000e+00	7.422091e-04	
385	5.950000e+00	7.430436e-04	
386	6.000000e+00	7.438760e-04	
387	6.050000e+00	7.447065e-04	
388	6.100000e+00	7.455351e-04	
389	6.150000e+00	7.463619e-04	
390	6.200000e+00	7.471870e-04	
391	6.250000e+00	7.480104e-04	
392	6.300000e+00	7.488322e-04	
393	6.350000e+00	7.496524e-04	
394	6.400000e+00	7.504712e-04	
395	6.450000e+00	7.512886e-04	
396	6.500000e+00	7.521045e-04	
397	6.550000e+00	7.529192e-04	
398	6.600000e+00	7.537326e-04	
399	0.000000e+00	-0.000000e+00	
400	5.000000e-02	4.703512e-05	
401	1.000000e-01	9.285573e-05	
402	1.500000e-01	1.374854e-04	

Index   v-sweep         -i(vds)         
--------------------------------------------------------------------------------
403	2.000000e-01	1.809472e-04	
404	2.500000e-01	2.232634e-04	
405	3.000000e-01	2.644558e-04	
406	3.500000e-01	3.045457e-04	
407	4.000000e-01	3.435537e-04	
408	4.500000e-01	3.814998e-04	
409	5.000000e-01	4.184034e-04	
410	5.500000e-01	4.542836e-04	
411	6.000000e-01	4.891586e-04	
412	6.500000e-01	5.230461e-04	
413	7.000000e-01	5.559631e-04	
414	7.500000e-01	5.879262e-04	
415	8.000000e-01	6.189507e-04	
416	8.500000e-01	6.490514e-04	
417	9.000000e-01	6.782416e-04	
418	9.500000e-01	7.065327e-04	
419	1.000000e+00	7.339329e-04	
420	1.050000e+00	7.604451e-04	
421	1.100000e+00	7.860623e-04	
422	1.150000e+00	8.107571e-04	
423	1.200000e+00	8.344613e-04	
424	1.250000e+00	8.570239e-04	
425	1.300000e+00	8.781466e-04	
426	1.350000e+00	8.973611e-04	
427	1.400000e+00	9.142053e-04	
428	1.450000e+00	9.285471e-04	
429	1.500000e+00	9.406458e-04	
430	1.550000e+00	9.509248e-04	
431	1.600000e+00	9.597828e-04	
432	1.650000e+00	9.675344e-04	
433	1.700000e+00	9.744146e-04	
434	1.750000e+00	9.805967e-04	
435	1.800000e+00	9.862101e-04	
436	1.850000e+00	9.913529e-04	
437	1.900000e+00	9.961005e-04	
438	1.950000e+00	1.000512e-03	
439	2.000000e+00	1.004635e-03	
440	2.050000e+00	1.008506e-03	
441	2.100000e+00	1.012158e-03	
442	2.150000e+00	1.015616e-03	
443	2.200000e+00	1.018901e-03	
444	2.250000e+00	1.022031e-03	
445	2.300000e+00	1.025023e-03	
446	2.350000e+00	1.027889e-03	
447	2.400000e+00	1.030640e-03	
448	2.450000e+00	1.033287e-03	
449	2.500000e+00	1.035839e-03	
450	2.550000e+00	1.038303e-03	
451	2.600000e+00	1.040685e-03	
452	2.650000e+00	1.042993e-03	
453	2.700000e+00	1.045231e-03	
454	2.750000e+00	1.047405e-03	
455	2.800000e+00	1.049518e-03	
456	2.850000e+00	1.051574e-03	
457	2.900000e+00	1.053578e-03	
458	2.950000e+00	1.055532e-03	
459	3.000000e+00	1.057440e-03	
460	3.050000e+00	1.059304e-03	

Index   v-sweep         -i(vds)         
--------------------------------------------------------------------------------
461	3.100000e+00	1.061126e-03	
462	3.150000e+00	1.062909e-03	
463	3.200000e+00	1.064655e-03	
464	3.250000e+00	1.066366e-03	
465	3.300000e+00	1.068044e-03	
466	3.350000e+00	1.069691e-03	
467	3.400000e+00	1.071307e-03	
468	3.450000e+00	1.072895e-03	
469	3.500000e+00	1.074456e-03	
470	3.550000e+00	1.075991e-03	
471	3.600000e+00	1.077501e-03	
472	3.650000e+00	1.078988e-03	
473	3.700000e+00	1.080453e-03	
474	3.750000e+00	1.081896e-03	
475	3.800000e+00	1.083319e-03	
476	3.850000e+00	1.084722e-03	
477	3.900000e+00	1.086106e-03	
478	3.950000e+00	1.087473e-03	
479	4.000000e+00	1.088822e-03	
480	4.050000e+00	1.090155e-03	
481	4.100000e+00	1.091472e-03	
482	4.150000e+00	1.092773e-03	
483	4.200000e+00	1.094061e-03	
484	4.250000e+00	1.095334e-03	
485	4.300000e+00	1.096594e-03	
486	4.350000e+00	1.097842e-03	
487	4.400000e+00	1.099077e-03	
488	4.450000e+00	1.100300e-03	
489	4.500000e+00	1.101512e-03	
490	4.550000e+00	1.102713e-03	
491	4.600000e+00	1.103903e-03	
492	4.650000e+00	1.105083e-03	
493	4.700000e+00	1.106254e-03	
494	4.750000e+00	1.107415e-03	
495	4.800000e+00	1.108568e-03	
496	4.850000e+00	1.109711e-03	
497	4.900000e+00	1.110847e-03	
498	4.950000e+00	1.111974e-03	
499	5.000000e+00	1.113094e-03	
500	5.050000e+00	1.114206e-03	
501	5.100000e+00	1.115312e-03	
502	5.150000e+00	1.116410e-03	
503	5.200000e+00	1.117502e-03	
504	5.250000e+00	1.118587e-03	
505	5.300000e+00	1.119667e-03	
506	5.350000e+00	1.120740e-03	
507	5.400000e+00	1.121808e-03	
508	5.450000e+00	1.122870e-03	
509	5.500000e+00	1.123928e-03	
510	5.550000e+00	1.124980e-03	
511	5.600000e+00	1.126027e-03	
512	5.650000e+00	1.127070e-03	
513	5.700000e+00	1.128108e-03	
514	5.750000e+00	1.129141e-03	
515	5.800000e+00	1.130171e-03	
516	5.850000e+00	1.131197e-03	
517	5.900000e+00	1.132218e-03	
518	5.950000e+00	1.133236e-03	

Index   v-sweep         -i(vds)         
--------------------------------------------------------------------------------
519	6.000000e+00	1.134251e-03	
520	6.050000e+00	1.135262e-03	
521	6.100000e+00	1.136270e-03	
522	6.150000e+00	1.137274e-03	
523	6.200000e+00	1.138275e-03	
524	6.250000e+00	1.139274e-03	
525	6.300000e+00	1.140270e-03	
526	6.350000e+00	1.141262e-03	
527	6.400000e+00	1.142253e-03	
528	6.450000e+00	1.143240e-03	
529	6.500000e+00	1.144226e-03	
530	6.550000e+00	1.145209e-03	
531	6.600000e+00	1.146190e-03	
532	0.000000e+00	-0.000000e+00	
533	5.000000e-02	5.402546e-05	
534	1.000000e-01	1.068952e-04	
535	1.500000e-01	1.586298e-04	
536	2.000000e-01	2.092495e-04	
537	2.500000e-01	2.587738e-04	
538	3.000000e-01	3.072220e-04	
539	3.500000e-01	3.546127e-04	
540	4.000000e-01	4.009642e-04	
541	4.500000e-01	4.462943e-04	
542	5.000000e-01	4.906205e-04	
543	5.500000e-01	5.339594e-04	
544	6.000000e-01	5.763277e-04	
545	6.500000e-01	6.177412e-04	
546	7.000000e-01	6.582157e-04	
547	7.500000e-01	6.977660e-04	
548	8.000000e-01	7.364069e-04	
549	8.500000e-01	7.741526e-04	
550	9.000000e-01	8.110166e-04	
551	9.500000e-01	8.470120e-04	
552	1.000000e+00	8.821512e-04	
553	1.050000e+00	9.164460e-04	
554	1.100000e+00	9.499069e-04	
555	1.150000e+00	9.825432e-04	
556	1.200000e+00	1.014362e-03	
557	1.250000e+00	1.045367e-03	
558	1.300000e+00	1.075555e-03	
559	1.350000e+00	1.104914e-03	
560	1.400000e+00	1.133412e-03	
561	1.450000e+00	1.160976e-03	
562	1.500000e+00	1.187465e-03	
563	1.550000e+00	1.212605e-03	
564	1.600000e+00	1.235959e-03	
565	1.650000e+00	1.257006e-03	
566	1.700000e+00	1.275409e-03	
567	1.750000e+00	1.291216e-03	
568	1.800000e+00	1.304767e-03	
569	1.850000e+00	1.316479e-03	
570	1.900000e+00	1.326724e-03	
571	1.950000e+00	1.335799e-03	
572	2.000000e+00	1.343933e-03	
573	2.050000e+00	1.351298e-03	
574	2.100000e+00	1.358026e-03	
575	2.150000e+00	1.364219e-03	
576	2.200000e+00	1.369958e-03	

Index   v-sweep         -i(vds)         
--------------------------------------------------------------------------------
577	2.250000e+00	1.375307e-03	
578	2.300000e+00	1.380317e-03	
579	2.350000e+00	1.385031e-03	
580	2.400000e+00	1.389484e-03	
581	2.450000e+00	1.393704e-03	
582	2.500000e+00	1.397717e-03	
583	2.550000e+00	1.401544e-03	
584	2.600000e+00	1.405202e-03	
585	2.650000e+00	1.408707e-03	
586	2.700000e+00	1.412073e-03	
587	2.750000e+00	1.415310e-03	
588	2.800000e+00	1.418431e-03	
589	2.850000e+00	1.421443e-03	
590	2.900000e+00	1.424355e-03	
591	2.950000e+00	1.427174e-03	
592	3.000000e+00	1.429907e-03	
593	3.050000e+00	1.432560e-03	
594	3.100000e+00	1.435137e-03	
595	3.150000e+00	1.437644e-03	
596	3.200000e+00	1.440085e-03	
597	3.250000e+00	1.442464e-03	
598	3.300000e+00	1.444784e-03	
599	3.350000e+00	1.447050e-03	
600	3.400000e+00	1.449263e-03	
601	3.450000e+00	1.451428e-03	
602	3.500000e+00	1.453545e-03	
603	3.550000e+00	1.455619e-03	
604	3.600000e+00	1.457651e-03	
605	3.650000e+00	1.459643e-03	
606	3.700000e+00	1.461597e-03	
607	3.750000e+00	1.463516e-03	
608	3.800000e+00	1.465400e-03	
609	3.850000e+00	1.467251e-03	
610	3.900000e+00	1.469071e-03	
611	3.950000e+00	1.470862e-03	
612	4.000000e+00	1.472624e-03	
613	4.050000e+00	1.474359e-03	
614	4.100000e+00	1.476068e-03	
615	4.150000e+00	1.477752e-03	
616	4.200000e+00	1.479413e-03	
617	4.250000e+00	1.481050e-03	
618	4.300000e+00	1.482666e-03	
619	4.350000e+00	1.484261e-03	
620	4.400000e+00	1.485836e-03	
621	4.450000e+00	1.487392e-03	
622	4.500000e+00	1.488930e-03	
623	4.550000e+00	1.490449e-03	
624	4.600000e+00	1.491952e-03	
625	4.650000e+00	1.493439e-03	
626	4.700000e+00	1.494909e-03	
627	4.750000e+00	1.496365e-03	
628	4.800000e+00	1.497807e-03	
629	4.850000e+00	1.499234e-03	
630	4.900000e+00	1.500648e-03	
631	4.950000e+00	1.502050e-03	
632	5.000000e+00	1.503439e-03	
633	5.050000e+00	1.504816e-03	
634	5.100000e+00	1.506182e-03	

Index   v-sweep         -i(vds)         
--------------------------------------------------------------------------------
635	5.150000e+00	1.507537e-03	
636	5.200000e+00	1.508881e-03	
637	5.250000e+00	1.510215e-03	
638	5.300000e+00	1.511540e-03	
639	5.350000e+00	1.512855e-03	
640	5.400000e+00	1.514161e-03	
641	5.450000e+00	1.515459e-03	
642	5.500000e+00	1.516748e-03	
643	5.550000e+00	1.518029e-03	
644	5.600000e+00	1.519302e-03	
645	5.650000e+00	1.520568e-03	
646	5.700000e+00	1.521827e-03	
647	5.750000e+00	1.523079e-03	
648	5.800000e+00	1.524324e-03	
649	5.850000e+00	1.525563e-03	
650	5.900000e+00	1.526795e-03	
651	5.950000e+00	1.528022e-03	
652	6.000000e+00	1.529243e-03	
653	6.050000e+00	1.530459e-03	
654	6.100000e+00	1.531669e-03	
655	6.150000e+00	1.532874e-03	
656	6.200000e+00	1.534075e-03	
657	6.250000e+00	1.535270e-03	
658	6.300000e+00	1.536462e-03	
659	6.350000e+00	1.537649e-03	
660	6.400000e+00	1.538831e-03	
661	6.450000e+00	1.540010e-03	
662	6.500000e+00	1.541185e-03	
663	6.550000e+00	1.542356e-03	
664	6.600000e+00	1.543523e-03	
665	0.000000e+00	-0.000000e+00	
666	5.000000e-02	5.893815e-05	
667	1.000000e-01	1.168019e-04	
668	1.500000e-01	1.736087e-04	
669	2.000000e-01	2.293755e-04	
670	2.500000e-01	2.841192e-04	
671	3.000000e-01	3.378559e-04	
672	3.500000e-01	3.906017e-04	
673	4.000000e-01	4.423723e-04	
674	4.500000e-01	4.931828e-04	
675	5.000000e-01	5.430482e-04	
676	5.500000e-01	5.919831e-04	
677	6.000000e-01	6.400017e-04	
678	6.500000e-01	6.871180e-04	
679	7.000000e-01	7.333455e-04	
680	7.500000e-01	7.786975e-04	
681	8.000000e-01	8.231868e-04	
682	8.500000e-01	8.668260e-04	
683	9.000000e-01	9.096273e-04	
684	9.500000e-01	9.516026e-04	
685	1.000000e+00	9.927635e-04	
686	1.050000e+00	1.033121e-03	
687	1.100000e+00	1.072686e-03	
688	1.150000e+00	1.111469e-03	
689	1.200000e+00	1.149479e-03	
690	1.250000e+00	1.186727e-03	
691	1.300000e+00	1.223220e-03	
692	1.350000e+00	1.258966e-03	

Index   v-sweep         -i(vds)         
--------------------------------------------------------------------------------
693	1.400000e+00	1.293971e-03	
694	1.450000e+00	1.328241e-03	
695	1.500000e+00	1.361774e-03	
696	1.550000e+00	1.394568e-03	
697	1.600000e+00	1.426607e-03	
698	1.650000e+00	1.457863e-03	
699	1.700000e+00	1.488274e-03	
700	1.750000e+00	1.517724e-03	
701	1.800000e+00	1.546000e-03	
702	1.850000e+00	1.572746e-03	
703	1.900000e+00	1.597475e-03	
704	1.950000e+00	1.619723e-03	
705	2.000000e+00	1.639284e-03	
706	2.050000e+00	1.656295e-03	
707	2.100000e+00	1.671096e-03	
708	2.150000e+00	1.684070e-03	
709	2.200000e+00	1.695559e-03	
710	2.250000e+00	1.705839e-03	
711	2.300000e+00	1.715127e-03	
712	2.350000e+00	1.723592e-03	
713	2.400000e+00	1.731367e-03	
714	2.450000e+00	1.738555e-03	
715	2.500000e+00	1.745239e-03	
716	2.550000e+00	1.751487e-03	
717	2.600000e+00	1.757354e-03	
718	2.650000e+00	1.762885e-03	
719	2.700000e+00	1.768119e-03	
720	2.750000e+00	1.773086e-03	
721	2.800000e+00	1.777814e-03	
722	2.850000e+00	1.782327e-03	
723	2.900000e+00	1.786645e-03	
724	2.950000e+00	1.790784e-03	
725	3.000000e+00	1.794760e-03	
726	3.050000e+00	1.798587e-03	
727	3.100000e+00	1.802276e-03	
728	3.150000e+00	1.805837e-03	
729	3.200000e+00	1.809281e-03	
730	3.250000e+00	1.812614e-03	
731	3.300000e+00	1.815846e-03	
732	3.350000e+00	1.818982e-03	
733	3.400000e+00	1.822029e-03	
734	3.450000e+00	1.824992e-03	
735	3.500000e+00	1.827877e-03	
736	3.550000e+00	1.830688e-03	
737	3.600000e+00	1.833429e-03	
738	3.650000e+00	1.836104e-03	
739	3.700000e+00	1.838717e-03	
740	3.750000e+00	1.841270e-03	
741	3.800000e+00	1.843769e-03	
742	3.850000e+00	1.846214e-03	
743	3.900000e+00	1.848609e-03	
744	3.950000e+00	1.850956e-03	
745	4.000000e+00	1.853258e-03	
746	4.050000e+00	1.855516e-03	
747	4.100000e+00	1.857733e-03	
748	4.150000e+00	1.859911e-03	
749	4.200000e+00	1.862051e-03	
750	4.250000e+00	1.864155e-03	

Index   v-sweep         -i(vds)         
--------------------------------------------------------------------------------
751	4.300000e+00	1.866226e-03	
752	4.350000e+00	1.868263e-03	
753	4.400000e+00	1.870269e-03	
754	4.450000e+00	1.872245e-03	
755	4.500000e+00	1.874192e-03	
756	4.550000e+00	1.876112e-03	
757	4.600000e+00	1.878005e-03	
758	4.650000e+00	1.879873e-03	
759	4.700000e+00	1.881717e-03	
760	4.750000e+00	1.883538e-03	
761	4.800000e+00	1.885336e-03	
762	4.850000e+00	1.887113e-03	
763	4.900000e+00	1.888870e-03	
764	4.950000e+00	1.890606e-03	
765	5.000000e+00	1.892324e-03	
766	5.050000e+00	1.894024e-03	
767	5.100000e+00	1.895706e-03	
768	5.150000e+00	1.897371e-03	
769	5.200000e+00	1.899020e-03	
770	5.250000e+00	1.900654e-03	
771	5.300000e+00	1.902273e-03	
772	5.350000e+00	1.903877e-03	
773	5.400000e+00	1.905468e-03	
774	5.450000e+00	1.907045e-03	
775	5.500000e+00	1.908610e-03	
776	5.550000e+00	1.910162e-03	
777	5.600000e+00	1.911703e-03	
778	5.650000e+00	1.913232e-03	
779	5.700000e+00	1.914750e-03	
780	5.750000e+00	1.916258e-03	
781	5.800000e+00	1.917755e-03	
782	5.850000e+00	1.919243e-03	
783	5.900000e+00	1.920722e-03	
784	5.950000e+00	1.922191e-03	
785	6.000000e+00	1.923652e-03	
786	6.050000e+00	1.925104e-03	
787	6.100000e+00	1.926549e-03	
788	6.150000e+00	1.927985e-03	
789	6.200000e+00	1.929415e-03	
790	6.250000e+00	1.930837e-03	
791	6.300000e+00	1.932252e-03	
792	6.350000e+00	1.933661e-03	
793	6.400000e+00	1.935063e-03	
794	6.450000e+00	1.936459e-03	
795	6.500000e+00	1.937849e-03	
796	6.550000e+00	1.939234e-03	
797	6.600000e+00	1.940613e-03	
Note: No ".plot", ".print", or ".fourier" lines; no simulations run
