
Note: Compatibility modes selected: hs

Warning: m=xx on .subckt line will override multiplier m hierarchy!


Circuit: ***************************

Doing analysis at TEMP = 125.000000 and TNOM = 125.000000


No. of Data Rows : 798
                          ***************************
                          DC transfer characteristic  Mon Jan  9 13:58:05  2023
--------------------------------------------------------------------------------
Index   v-sweep         -i(vds)         
--------------------------------------------------------------------------------
0	0.000000e+00	-0.000000e+00	
1	5.000000e-02	4.819344e-06	
2	1.000000e-01	9.058740e-06	
3	1.500000e-01	1.276061e-05	
4	2.000000e-01	1.594261e-05	
5	2.500000e-01	1.861704e-05	
6	3.000000e-01	2.079733e-05	
7	3.500000e-01	2.250540e-05	
8	4.000000e-01	2.379215e-05	
9	4.500000e-01	2.476901e-05	
10	5.000000e-01	2.556664e-05	
11	5.500000e-01	2.625903e-05	
12	6.000000e-01	2.687924e-05	
13	6.500000e-01	2.744542e-05	
14	7.000000e-01	2.796941e-05	
15	7.500000e-01	2.845954e-05	
16	8.000000e-01	2.892191e-05	
17	8.500000e-01	2.936115e-05	
18	9.000000e-01	2.978082e-05	
19	9.500000e-01	3.018375e-05	
20	1.000000e+00	3.057220e-05	
21	1.050000e+00	3.094803e-05	
22	1.100000e+00	3.131274e-05	
23	1.150000e+00	3.166763e-05	
24	1.200000e+00	3.201374e-05	
25	1.250000e+00	3.235200e-05	
26	1.300000e+00	3.268319e-05	
27	1.350000e+00	3.300796e-05	
28	1.400000e+00	3.332692e-05	
29	1.450000e+00	3.364057e-05	
30	1.500000e+00	3.394937e-05	
31	1.550000e+00	3.425369e-05	
32	1.600000e+00	3.455391e-05	
33	1.650000e+00	3.485034e-05	
34	1.700000e+00	3.514325e-05	
35	1.750000e+00	3.543289e-05	
36	1.800000e+00	3.571951e-05	
37	1.850000e+00	3.600329e-05	
38	1.900000e+00	3.628443e-05	
39	1.950000e+00	3.656311e-05	
40	2.000000e+00	3.683947e-05	
41	2.050000e+00	3.711365e-05	
42	2.100000e+00	3.738580e-05	
43	2.150000e+00	3.765603e-05	
44	2.200000e+00	3.792444e-05	
45	2.250000e+00	3.819115e-05	
46	2.300000e+00	3.845624e-05	
47	2.350000e+00	3.871982e-05	
48	2.400000e+00	3.898195e-05	
49	2.450000e+00	3.924272e-05	
50	2.500000e+00	3.950219e-05	
51	2.550000e+00	3.976044e-05	
52	2.600000e+00	4.001752e-05	
53	2.650000e+00	4.027350e-05	
54	2.700000e+00	4.052843e-05	

Index   v-sweep         -i(vds)         
--------------------------------------------------------------------------------
55	2.750000e+00	4.078236e-05	
56	2.800000e+00	4.103534e-05	
57	2.850000e+00	4.128743e-05	
58	2.900000e+00	4.153865e-05	
59	2.950000e+00	4.178906e-05	
60	3.000000e+00	4.203868e-05	
61	3.050000e+00	4.228757e-05	
62	3.100000e+00	4.253576e-05	
63	3.150000e+00	4.278327e-05	
64	3.200000e+00	4.303014e-05	
65	3.250000e+00	4.327640e-05	
66	3.300000e+00	4.352209e-05	
67	3.350000e+00	4.376722e-05	
68	3.400000e+00	4.401182e-05	
69	3.450000e+00	4.425592e-05	
70	3.500000e+00	4.449955e-05	
71	3.550000e+00	4.474272e-05	
72	3.600000e+00	4.498546e-05	
73	3.650000e+00	4.522778e-05	
74	3.700000e+00	4.546972e-05	
75	3.750000e+00	4.571128e-05	
76	3.800000e+00	4.595250e-05	
77	3.850000e+00	4.619337e-05	
78	3.900000e+00	4.643393e-05	
79	3.950000e+00	4.667419e-05	
80	4.000000e+00	4.691416e-05	
81	4.050000e+00	4.715387e-05	
82	4.100000e+00	4.739331e-05	
83	4.150000e+00	4.763252e-05	
84	4.200000e+00	4.787150e-05	
85	4.250000e+00	4.811026e-05	
86	4.300000e+00	4.834882e-05	
87	4.350000e+00	4.858719e-05	
88	4.400000e+00	4.882538e-05	
89	4.450000e+00	4.906341e-05	
90	4.500000e+00	4.930127e-05	
91	4.550000e+00	4.953900e-05	
92	4.600000e+00	4.977658e-05	
93	4.650000e+00	5.001405e-05	
94	4.700000e+00	5.025139e-05	
95	4.750000e+00	5.048863e-05	
96	4.800000e+00	5.072577e-05	
97	4.850000e+00	5.096283e-05	
98	4.900000e+00	5.119980e-05	
99	4.950000e+00	5.143670e-05	
100	5.000000e+00	5.167353e-05	
101	5.050000e+00	5.191031e-05	
102	5.100000e+00	5.214703e-05	
103	5.150000e+00	5.238371e-05	
104	5.200000e+00	5.262036e-05	
105	5.250000e+00	5.285697e-05	
106	5.300000e+00	5.309357e-05	
107	5.350000e+00	5.333014e-05	
108	5.400000e+00	5.356671e-05	
109	5.450000e+00	5.380327e-05	
110	5.500000e+00	5.403982e-05	
111	5.550000e+00	5.427639e-05	
112	5.600000e+00	5.451297e-05	

Index   v-sweep         -i(vds)         
--------------------------------------------------------------------------------
113	5.650000e+00	5.474956e-05	
114	5.700000e+00	5.498617e-05	
115	5.750000e+00	5.522282e-05	
116	5.800000e+00	5.545949e-05	
117	5.850000e+00	5.569620e-05	
118	5.900000e+00	5.593294e-05	
119	5.950000e+00	5.616974e-05	
120	6.000000e+00	5.640658e-05	
121	6.050000e+00	5.664347e-05	
122	6.100000e+00	5.688043e-05	
123	6.150000e+00	5.711744e-05	
124	6.200000e+00	5.735452e-05	
125	6.250000e+00	5.759166e-05	
126	6.300000e+00	5.782888e-05	
127	6.350000e+00	5.806617e-05	
128	6.400000e+00	5.830354e-05	
129	6.450000e+00	5.854099e-05	
130	6.500000e+00	5.877853e-05	
131	6.550000e+00	5.901616e-05	
132	6.600000e+00	5.925388e-05	
133	0.000000e+00	-0.000000e+00	
134	5.000000e-02	1.346008e-05	
135	1.000000e-01	2.632321e-05	
136	1.500000e-01	3.863168e-05	
137	2.000000e-01	5.040260e-05	
138	2.500000e-01	6.164662e-05	
139	3.000000e-01	7.237263e-05	
140	3.500000e-01	8.258899e-05	
141	4.000000e-01	9.230377e-05	
142	4.500000e-01	1.015249e-04	
143	5.000000e-01	1.102602e-04	
144	5.500000e-01	1.185172e-04	
145	6.000000e-01	1.263037e-04	
146	6.500000e-01	1.336269e-04	
147	7.000000e-01	1.404944e-04	
148	7.500000e-01	1.469135e-04	
149	8.000000e-01	1.528916e-04	
150	8.500000e-01	1.584353e-04	
151	9.000000e-01	1.635501e-04	
152	9.500000e-01	1.682363e-04	
153	1.000000e+00	1.724845e-04	
154	1.050000e+00	1.762807e-04	
155	1.100000e+00	1.796351e-04	
156	1.150000e+00	1.825962e-04	
157	1.200000e+00	1.852301e-04	
158	1.250000e+00	1.875983e-04	
159	1.300000e+00	1.897505e-04	
160	1.350000e+00	1.917256e-04	
161	1.400000e+00	1.935534e-04	
162	1.450000e+00	1.952571e-04	
163	1.500000e+00	1.968550e-04	
164	1.550000e+00	1.983618e-04	
165	1.600000e+00	1.997893e-04	
166	1.650000e+00	2.011472e-04	
167	1.700000e+00	2.024436e-04	
168	1.750000e+00	2.036853e-04	
169	1.800000e+00	2.048780e-04	
170	1.850000e+00	2.060265e-04	

Index   v-sweep         -i(vds)         
--------------------------------------------------------------------------------
171	1.900000e+00	2.071350e-04	
172	1.950000e+00	2.082072e-04	
173	2.000000e+00	2.092463e-04	
174	2.050000e+00	2.102549e-04	
175	2.100000e+00	2.112355e-04	
176	2.150000e+00	2.121903e-04	
177	2.200000e+00	2.131213e-04	
178	2.250000e+00	2.140301e-04	
179	2.300000e+00	2.149182e-04	
180	2.350000e+00	2.157871e-04	
181	2.400000e+00	2.166381e-04	
182	2.450000e+00	2.174722e-04	
183	2.500000e+00	2.182905e-04	
184	2.550000e+00	2.190939e-04	
185	2.600000e+00	2.198833e-04	
186	2.650000e+00	2.206596e-04	
187	2.700000e+00	2.214234e-04	
188	2.750000e+00	2.221754e-04	
189	2.800000e+00	2.229162e-04	
190	2.850000e+00	2.236464e-04	
191	2.900000e+00	2.243666e-04	
192	2.950000e+00	2.250772e-04	
193	3.000000e+00	2.257787e-04	
194	3.050000e+00	2.264716e-04	
195	3.100000e+00	2.271562e-04	
196	3.150000e+00	2.278330e-04	
197	3.200000e+00	2.285022e-04	
198	3.250000e+00	2.291643e-04	
199	3.300000e+00	2.298195e-04	
200	3.350000e+00	2.304682e-04	
201	3.400000e+00	2.311105e-04	
202	3.450000e+00	2.317469e-04	
203	3.500000e+00	2.323775e-04	
204	3.550000e+00	2.330025e-04	
205	3.600000e+00	2.336223e-04	
206	3.650000e+00	2.342370e-04	
207	3.700000e+00	2.348468e-04	
208	3.750000e+00	2.354519e-04	
209	3.800000e+00	2.360526e-04	
210	3.850000e+00	2.366489e-04	
211	3.900000e+00	2.372410e-04	
212	3.950000e+00	2.378292e-04	
213	4.000000e+00	2.384135e-04	
214	4.050000e+00	2.389941e-04	
215	4.100000e+00	2.395711e-04	
216	4.150000e+00	2.401447e-04	
217	4.200000e+00	2.407150e-04	
218	4.250000e+00	2.412822e-04	
219	4.300000e+00	2.418462e-04	
220	4.350000e+00	2.424074e-04	
221	4.400000e+00	2.429657e-04	
222	4.450000e+00	2.435212e-04	
223	4.500000e+00	2.440741e-04	
224	4.550000e+00	2.446245e-04	
225	4.600000e+00	2.451724e-04	
226	4.650000e+00	2.457180e-04	
227	4.700000e+00	2.462613e-04	
228	4.750000e+00	2.468023e-04	

Index   v-sweep         -i(vds)         
--------------------------------------------------------------------------------
229	4.800000e+00	2.473413e-04	
230	4.850000e+00	2.478782e-04	
231	4.900000e+00	2.484132e-04	
232	4.950000e+00	2.489462e-04	
233	5.000000e+00	2.494774e-04	
234	5.050000e+00	2.500069e-04	
235	5.100000e+00	2.505346e-04	
236	5.150000e+00	2.510607e-04	
237	5.200000e+00	2.515852e-04	
238	5.250000e+00	2.521082e-04	
239	5.300000e+00	2.526297e-04	
240	5.350000e+00	2.531497e-04	
241	5.400000e+00	2.536684e-04	
242	5.450000e+00	2.541858e-04	
243	5.500000e+00	2.547018e-04	
244	5.550000e+00	2.552167e-04	
245	5.600000e+00	2.557303e-04	
246	5.650000e+00	2.562428e-04	
247	5.700000e+00	2.567542e-04	
248	5.750000e+00	2.572646e-04	
249	5.800000e+00	2.577739e-04	
250	5.850000e+00	2.582822e-04	
251	5.900000e+00	2.587895e-04	
252	5.950000e+00	2.592960e-04	
253	6.000000e+00	2.598015e-04	
254	6.050000e+00	2.603062e-04	
255	6.100000e+00	2.608101e-04	
256	6.150000e+00	2.613132e-04	
257	6.200000e+00	2.618155e-04	
258	6.250000e+00	2.623170e-04	
259	6.300000e+00	2.628179e-04	
260	6.350000e+00	2.633181e-04	
261	6.400000e+00	2.638176e-04	
262	6.450000e+00	2.643166e-04	
263	6.500000e+00	2.648149e-04	
264	6.550000e+00	2.653126e-04	
265	6.600000e+00	2.658098e-04	
266	0.000000e+00	-0.000000e+00	
267	5.000000e-02	1.937296e-05	
268	1.000000e-01	3.817317e-05	
269	1.500000e-01	5.644188e-05	
270	2.000000e-01	7.419514e-05	
271	2.500000e-01	9.144262e-05	
272	3.000000e-01	1.081922e-04	
273	3.500000e-01	1.244514e-04	
274	4.000000e-01	1.402272e-04	
275	4.500000e-01	1.555266e-04	
276	5.000000e-01	1.703566e-04	
277	5.500000e-01	1.847238e-04	
278	6.000000e-01	1.986348e-04	
279	6.500000e-01	2.120961e-04	
280	7.000000e-01	2.251141e-04	
281	7.500000e-01	2.376949e-04	
282	8.000000e-01	2.498448e-04	
283	8.500000e-01	2.615696e-04	
284	9.000000e-01	2.728754e-04	
285	9.500000e-01	2.837677e-04	
286	1.000000e+00	2.942523e-04	

Index   v-sweep         -i(vds)         
--------------------------------------------------------------------------------
287	1.050000e+00	3.043346e-04	
288	1.100000e+00	3.140195e-04	
289	1.150000e+00	3.233117e-04	
290	1.200000e+00	3.322148e-04	
291	1.250000e+00	3.407304e-04	
292	1.300000e+00	3.488558e-04	
293	1.350000e+00	3.565793e-04	
294	1.400000e+00	3.638708e-04	
295	1.450000e+00	3.706738e-04	
296	1.500000e+00	3.769161e-04	
297	1.550000e+00	3.825544e-04	
298	1.600000e+00	3.876072e-04	
299	1.650000e+00	3.921393e-04	
300	1.700000e+00	3.962288e-04	
301	1.750000e+00	3.999479e-04	
302	1.800000e+00	4.033568e-04	
303	1.850000e+00	4.065043e-04	
304	1.900000e+00	4.094294e-04	
305	1.950000e+00	4.121637e-04	
306	2.000000e+00	4.147326e-04	
307	2.050000e+00	4.171568e-04	
308	2.100000e+00	4.194537e-04	
309	2.150000e+00	4.216376e-04	
310	2.200000e+00	4.237207e-04	
311	2.250000e+00	4.257132e-04	
312	2.300000e+00	4.276240e-04	
313	2.350000e+00	4.294606e-04	
314	2.400000e+00	4.312297e-04	
315	2.450000e+00	4.329369e-04	
316	2.500000e+00	4.345875e-04	
317	2.550000e+00	4.361858e-04	
318	2.600000e+00	4.377358e-04	
319	2.650000e+00	4.392411e-04	
320	2.700000e+00	4.407048e-04	
321	2.750000e+00	4.421298e-04	
322	2.800000e+00	4.435186e-04	
323	2.850000e+00	4.448735e-04	
324	2.900000e+00	4.461967e-04	
325	2.950000e+00	4.474900e-04	
326	3.000000e+00	4.487553e-04	
327	3.050000e+00	4.499942e-04	
328	3.100000e+00	4.512080e-04	
329	3.150000e+00	4.523982e-04	
330	3.200000e+00	4.535661e-04	
331	3.250000e+00	4.547128e-04	
332	3.300000e+00	4.558393e-04	
333	3.350000e+00	4.569467e-04	
334	3.400000e+00	4.580359e-04	
335	3.450000e+00	4.591078e-04	
336	3.500000e+00	4.601631e-04	
337	3.550000e+00	4.612028e-04	
338	3.600000e+00	4.622274e-04	
339	3.650000e+00	4.632376e-04	
340	3.700000e+00	4.642341e-04	
341	3.750000e+00	4.652175e-04	
342	3.800000e+00	4.661883e-04	
343	3.850000e+00	4.671470e-04	
344	3.900000e+00	4.680942e-04	

Index   v-sweep         -i(vds)         
--------------------------------------------------------------------------------
345	3.950000e+00	4.690304e-04	
346	4.000000e+00	4.699559e-04	
347	4.050000e+00	4.708712e-04	
348	4.100000e+00	4.717767e-04	
349	4.150000e+00	4.726728e-04	
350	4.200000e+00	4.735599e-04	
351	4.250000e+00	4.744383e-04	
352	4.300000e+00	4.753084e-04	
353	4.350000e+00	4.761704e-04	
354	4.400000e+00	4.770247e-04	
355	4.450000e+00	4.778715e-04	
356	4.500000e+00	4.787111e-04	
357	4.550000e+00	4.795439e-04	
358	4.600000e+00	4.803700e-04	
359	4.650000e+00	4.811896e-04	
360	4.700000e+00	4.820031e-04	
361	4.750000e+00	4.828107e-04	
362	4.800000e+00	4.836124e-04	
363	4.850000e+00	4.844087e-04	
364	4.900000e+00	4.851996e-04	
365	4.950000e+00	4.859853e-04	
366	5.000000e+00	4.867661e-04	
367	5.050000e+00	4.875420e-04	
368	5.100000e+00	4.883133e-04	
369	5.150000e+00	4.890801e-04	
370	5.200000e+00	4.898426e-04	
371	5.250000e+00	4.906009e-04	
372	5.300000e+00	4.913552e-04	
373	5.350000e+00	4.921056e-04	
374	5.400000e+00	4.928522e-04	
375	5.450000e+00	4.935952e-04	
376	5.500000e+00	4.943347e-04	
377	5.550000e+00	4.950708e-04	
378	5.600000e+00	4.958036e-04	
379	5.650000e+00	4.965332e-04	
380	5.700000e+00	4.972597e-04	
381	5.750000e+00	4.979833e-04	
382	5.800000e+00	4.987040e-04	
383	5.850000e+00	4.994220e-04	
384	5.900000e+00	5.001373e-04	
385	5.950000e+00	5.008499e-04	
386	6.000000e+00	5.015601e-04	
387	6.050000e+00	5.022679e-04	
388	6.100000e+00	5.029733e-04	
389	6.150000e+00	5.036764e-04	
390	6.200000e+00	5.043774e-04	
391	6.250000e+00	5.050762e-04	
392	6.300000e+00	5.057730e-04	
393	6.350000e+00	5.064678e-04	
394	6.400000e+00	5.071607e-04	
395	6.450000e+00	5.078518e-04	
396	6.500000e+00	5.085410e-04	
397	6.550000e+00	5.092286e-04	
398	6.600000e+00	5.099144e-04	
399	0.000000e+00	-0.000000e+00	
400	5.000000e-02	2.347696e-05	
401	1.000000e-01	4.642074e-05	
402	1.500000e-01	6.887125e-05	

Index   v-sweep         -i(vds)         
--------------------------------------------------------------------------------
403	2.000000e-01	9.084329e-05	
404	2.500000e-01	1.123452e-04	
405	3.000000e-01	1.333838e-04	
406	3.500000e-01	1.539652e-04	
407	4.000000e-01	1.740955e-04	
408	4.500000e-01	1.937804e-04	
409	5.000000e-01	2.130258e-04	
410	5.500000e-01	2.318373e-04	
411	6.000000e-01	2.502205e-04	
412	6.500000e-01	2.681809e-04	
413	7.000000e-01	2.857239e-04	
414	7.500000e-01	3.028547e-04	
415	8.000000e-01	3.195785e-04	
416	8.500000e-01	3.359004e-04	
417	9.000000e-01	3.518256e-04	
418	9.500000e-01	3.673588e-04	
419	1.000000e+00	3.825050e-04	
420	1.050000e+00	3.972689e-04	
421	1.100000e+00	4.116553e-04	
422	1.150000e+00	4.256686e-04	
423	1.200000e+00	4.393135e-04	
424	1.250000e+00	4.525943e-04	
425	1.300000e+00	4.655153e-04	
426	1.350000e+00	4.780805e-04	
427	1.400000e+00	4.902939e-04	
428	1.450000e+00	5.021591e-04	
429	1.500000e+00	5.136792e-04	
430	1.550000e+00	5.248562e-04	
431	1.600000e+00	5.356909e-04	
432	1.650000e+00	5.461807e-04	
433	1.700000e+00	5.563176e-04	
434	1.750000e+00	5.660822e-04	
435	1.800000e+00	5.754350e-04	
436	1.850000e+00	5.843076e-04	
437	1.900000e+00	5.926070e-04	
438	1.950000e+00	6.002511e-04	
439	2.000000e+00	6.072119e-04	
440	2.050000e+00	6.135230e-04	
441	2.100000e+00	6.192542e-04	
442	2.150000e+00	6.244838e-04	
443	2.200000e+00	6.292846e-04	
444	2.250000e+00	6.337188e-04	
445	2.300000e+00	6.378381e-04	
446	2.350000e+00	6.416853e-04	
447	2.400000e+00	6.452954e-04	
448	2.450000e+00	6.486975e-04	
449	2.500000e+00	6.519159e-04	
450	2.550000e+00	6.549708e-04	
451	2.600000e+00	6.578796e-04	
452	2.650000e+00	6.606568e-04	
453	2.700000e+00	6.633152e-04	
454	2.750000e+00	6.658657e-04	
455	2.800000e+00	6.683176e-04	
456	2.850000e+00	6.706794e-04	
457	2.900000e+00	6.729584e-04	
458	2.950000e+00	6.751609e-04	
459	3.000000e+00	6.772928e-04	
460	3.050000e+00	6.793591e-04	

Index   v-sweep         -i(vds)         
--------------------------------------------------------------------------------
461	3.100000e+00	6.813646e-04	
462	3.150000e+00	6.833132e-04	
463	3.200000e+00	6.852087e-04	
464	3.250000e+00	6.870545e-04	
465	3.300000e+00	6.888537e-04	
466	3.350000e+00	6.906091e-04	
467	3.400000e+00	6.923231e-04	
468	3.450000e+00	6.939983e-04	
469	3.500000e+00	6.956366e-04	
470	3.550000e+00	6.972402e-04	
471	3.600000e+00	6.988108e-04	
472	3.650000e+00	7.003501e-04	
473	3.700000e+00	7.018598e-04	
474	3.750000e+00	7.033412e-04	
475	3.800000e+00	7.047958e-04	
476	3.850000e+00	7.062248e-04	
477	3.900000e+00	7.076295e-04	
478	3.950000e+00	7.090108e-04	
479	4.000000e+00	7.103699e-04	
480	4.050000e+00	7.117078e-04	
481	4.100000e+00	7.130254e-04	
482	4.150000e+00	7.143235e-04	
483	4.200000e+00	7.156031e-04	
484	4.250000e+00	7.168648e-04	
485	4.300000e+00	7.181093e-04	
486	4.350000e+00	7.193375e-04	
487	4.400000e+00	7.205500e-04	
488	4.450000e+00	7.217473e-04	
489	4.500000e+00	7.229301e-04	
490	4.550000e+00	7.240990e-04	
491	4.600000e+00	7.252544e-04	
492	4.650000e+00	7.263970e-04	
493	4.700000e+00	7.275271e-04	
494	4.750000e+00	7.286453e-04	
495	4.800000e+00	7.297520e-04	
496	4.850000e+00	7.308477e-04	
497	4.900000e+00	7.319327e-04	
498	4.950000e+00	7.330074e-04	
499	5.000000e+00	7.340722e-04	
500	5.050000e+00	7.351275e-04	
501	5.100000e+00	7.361736e-04	
502	5.150000e+00	7.372108e-04	
503	5.200000e+00	7.382394e-04	
504	5.250000e+00	7.392598e-04	
505	5.300000e+00	7.402722e-04	
506	5.350000e+00	7.412770e-04	
507	5.400000e+00	7.422743e-04	
508	5.450000e+00	7.432644e-04	
509	5.500000e+00	7.442476e-04	
510	5.550000e+00	7.452242e-04	
511	5.600000e+00	7.461943e-04	
512	5.650000e+00	7.471581e-04	
513	5.700000e+00	7.481159e-04	
514	5.750000e+00	7.490679e-04	
515	5.800000e+00	7.500143e-04	
516	5.850000e+00	7.509552e-04	
517	5.900000e+00	7.518909e-04	
518	5.950000e+00	7.528215e-04	

Index   v-sweep         -i(vds)         
--------------------------------------------------------------------------------
519	6.000000e+00	7.537471e-04	
520	6.050000e+00	7.546681e-04	
521	6.100000e+00	7.555844e-04	
522	6.150000e+00	7.564963e-04	
523	6.200000e+00	7.574038e-04	
524	6.250000e+00	7.583072e-04	
525	6.300000e+00	7.592066e-04	
526	6.350000e+00	7.601021e-04	
527	6.400000e+00	7.609939e-04	
528	6.450000e+00	7.618819e-04	
529	6.500000e+00	7.627665e-04	
530	6.550000e+00	7.636476e-04	
531	6.600000e+00	7.645255e-04	
532	0.000000e+00	-0.000000e+00	
533	5.000000e-02	2.629367e-05	
534	1.000000e-01	5.209973e-05	
535	1.500000e-01	7.745685e-05	
536	2.000000e-01	1.023786e-04	
537	2.500000e-01	1.268722e-04	
538	3.000000e-01	1.509432e-04	
539	3.500000e-01	1.745967e-04	
540	4.000000e-01	1.978375e-04	
541	4.500000e-01	2.206705e-04	
542	5.000000e-01	2.431004e-04	
543	5.500000e-01	2.651319e-04	
544	6.000000e-01	2.867695e-04	
545	6.500000e-01	3.080177e-04	
546	7.000000e-01	3.288811e-04	
547	7.500000e-01	3.493638e-04	
548	8.000000e-01	3.694703e-04	
549	8.500000e-01	3.892048e-04	
550	9.000000e-01	4.085715e-04	
551	9.500000e-01	4.275744e-04	
552	1.000000e+00	4.462177e-04	
553	1.050000e+00	4.645053e-04	
554	1.100000e+00	4.824411e-04	
555	1.150000e+00	5.000291e-04	
556	1.200000e+00	5.172729e-04	
557	1.250000e+00	5.341765e-04	
558	1.300000e+00	5.507434e-04	
559	1.350000e+00	5.669774e-04	
560	1.400000e+00	5.828819e-04	
561	1.450000e+00	5.984605e-04	
562	1.500000e+00	6.137166e-04	
563	1.550000e+00	6.286537e-04	
564	1.600000e+00	6.432750e-04	
565	1.650000e+00	6.575836e-04	
566	1.700000e+00	6.715826e-04	
567	1.750000e+00	6.852749e-04	
568	1.800000e+00	6.986631e-04	
569	1.850000e+00	7.117493e-04	
570	1.900000e+00	7.245351e-04	
571	1.950000e+00	7.370211e-04	
572	2.000000e+00	7.492056e-04	
573	2.050000e+00	7.610842e-04	
574	2.100000e+00	7.726458e-04	
575	2.150000e+00	7.838689e-04	
576	2.200000e+00	7.947132e-04	

Index   v-sweep         -i(vds)         
--------------------------------------------------------------------------------
577	2.250000e+00	8.051118e-04	
578	2.300000e+00	8.149716e-04	
579	2.350000e+00	8.241959e-04	
580	2.400000e+00	8.327232e-04	
581	2.450000e+00	8.405501e-04	
582	2.500000e+00	8.477215e-04	
583	2.550000e+00	8.543053e-04	
584	2.600000e+00	8.603740e-04	
585	2.650000e+00	8.659947e-04	
586	2.700000e+00	8.712257e-04	
587	2.750000e+00	8.761167e-04	
588	2.800000e+00	8.807096e-04	
589	2.850000e+00	8.850393e-04	
590	2.900000e+00	8.891356e-04	
591	2.950000e+00	8.930236e-04	
592	3.000000e+00	8.967245e-04	
593	3.050000e+00	9.002569e-04	
594	3.100000e+00	9.036365e-04	
595	3.150000e+00	9.068770e-04	
596	3.200000e+00	9.099904e-04	
597	3.250000e+00	9.129874e-04	
598	3.300000e+00	9.158771e-04	
599	3.350000e+00	9.186678e-04	
600	3.400000e+00	9.213669e-04	
601	3.450000e+00	9.239809e-04	
602	3.500000e+00	9.265156e-04	
603	3.550000e+00	9.289764e-04	
604	3.600000e+00	9.313680e-04	
605	3.650000e+00	9.336949e-04	
606	3.700000e+00	9.359609e-04	
607	3.750000e+00	9.381697e-04	
608	3.800000e+00	9.403245e-04	
609	3.850000e+00	9.424284e-04	
610	3.900000e+00	9.444842e-04	
611	3.950000e+00	9.464945e-04	
612	4.000000e+00	9.484615e-04	
613	4.050000e+00	9.503876e-04	
614	4.100000e+00	9.522748e-04	
615	4.150000e+00	9.541250e-04	
616	4.200000e+00	9.559399e-04	
617	4.250000e+00	9.577212e-04	
618	4.300000e+00	9.594705e-04	
619	4.350000e+00	9.611892e-04	
620	4.400000e+00	9.628786e-04	
621	4.450000e+00	9.645402e-04	
622	4.500000e+00	9.661750e-04	
623	4.550000e+00	9.677842e-04	
624	4.600000e+00	9.693689e-04	
625	4.650000e+00	9.709301e-04	
626	4.700000e+00	9.724687e-04	
627	4.750000e+00	9.739858e-04	
628	4.800000e+00	9.754820e-04	
629	4.850000e+00	9.769584e-04	
630	4.900000e+00	9.784156e-04	
631	4.950000e+00	9.798543e-04	
632	5.000000e+00	9.812754e-04	
633	5.050000e+00	9.826794e-04	
634	5.100000e+00	9.840671e-04	

Index   v-sweep         -i(vds)         
--------------------------------------------------------------------------------
635	5.150000e+00	9.854390e-04	
636	5.200000e+00	9.867957e-04	
637	5.250000e+00	9.881377e-04	
638	5.300000e+00	9.894657e-04	
639	5.350000e+00	9.907801e-04	
640	5.400000e+00	9.920814e-04	
641	5.450000e+00	9.933701e-04	
642	5.500000e+00	9.946466e-04	
643	5.550000e+00	9.959114e-04	
644	5.600000e+00	9.971648e-04	
645	5.650000e+00	9.984073e-04	
646	5.700000e+00	9.996393e-04	
647	5.750000e+00	1.000861e-03	
648	5.800000e+00	1.002073e-03	
649	5.850000e+00	1.003275e-03	
650	5.900000e+00	1.004469e-03	
651	5.950000e+00	1.005653e-03	
652	6.000000e+00	1.006829e-03	
653	6.050000e+00	1.007997e-03	
654	6.100000e+00	1.009156e-03	
655	6.150000e+00	1.010308e-03	
656	6.200000e+00	1.011452e-03	
657	6.250000e+00	1.012590e-03	
658	6.300000e+00	1.013720e-03	
659	6.350000e+00	1.014843e-03	
660	6.400000e+00	1.015960e-03	
661	6.450000e+00	1.017071e-03	
662	6.500000e+00	1.018175e-03	
663	6.550000e+00	1.019274e-03	
664	6.600000e+00	1.020367e-03	
665	0.000000e+00	-0.000000e+00	
666	5.000000e-02	2.818154e-05	
667	1.000000e-01	5.592152e-05	
668	1.500000e-01	8.325753e-05	
669	2.000000e-01	1.102021e-04	
670	2.500000e-01	1.367615e-04	
671	3.000000e-01	1.629402e-04	
672	3.500000e-01	1.887423e-04	
673	4.000000e-01	2.141719e-04	
674	4.500000e-01	2.392327e-04	
675	5.000000e-01	2.639286e-04	
676	5.500000e-01	2.882634e-04	
677	6.000000e-01	3.122407e-04	
678	6.500000e-01	3.358643e-04	
679	7.000000e-01	3.591377e-04	
680	7.500000e-01	3.820646e-04	
681	8.000000e-01	4.046483e-04	
682	8.500000e-01	4.268925e-04	
683	9.000000e-01	4.488004e-04	
684	9.500000e-01	4.703756e-04	
685	1.000000e+00	4.916212e-04	
686	1.050000e+00	5.125406e-04	
687	1.100000e+00	5.331371e-04	
688	1.150000e+00	5.534138e-04	
689	1.200000e+00	5.733738e-04	
690	1.250000e+00	5.930203e-04	
691	1.300000e+00	6.123564e-04	
692	1.350000e+00	6.313851e-04	

Index   v-sweep         -i(vds)         
--------------------------------------------------------------------------------
693	1.400000e+00	6.501093e-04	
694	1.450000e+00	6.685321e-04	
695	1.500000e+00	6.866563e-04	
696	1.550000e+00	7.044847e-04	
697	1.600000e+00	7.220203e-04	
698	1.650000e+00	7.392658e-04	
699	1.700000e+00	7.562239e-04	
700	1.750000e+00	7.728974e-04	
701	1.800000e+00	7.892889e-04	
702	1.850000e+00	8.054010e-04	
703	1.900000e+00	8.212363e-04	
704	1.950000e+00	8.367972e-04	
705	2.000000e+00	8.520861e-04	
706	2.050000e+00	8.671055e-04	
707	2.100000e+00	8.818573e-04	
708	2.150000e+00	8.963438e-04	
709	2.200000e+00	9.105664e-04	
710	2.250000e+00	9.245267e-04	
711	2.300000e+00	9.382254e-04	
712	2.350000e+00	9.516621e-04	
713	2.400000e+00	9.648349e-04	
714	2.450000e+00	9.777391e-04	
715	2.500000e+00	9.903650e-04	
716	2.550000e+00	1.002695e-03	
717	2.600000e+00	1.014696e-03	
718	2.650000e+00	1.026317e-03	
719	2.700000e+00	1.037478e-03	
720	2.750000e+00	1.048086e-03	
721	2.800000e+00	1.058052e-03	
722	2.850000e+00	1.067328e-03	
723	2.900000e+00	1.075918e-03	
724	2.950000e+00	1.083861e-03	
725	3.000000e+00	1.091217e-03	
726	3.050000e+00	1.098050e-03	
727	3.100000e+00	1.104423e-03	
728	3.150000e+00	1.110388e-03	
729	3.200000e+00	1.115993e-03	
730	3.250000e+00	1.121280e-03	
731	3.300000e+00	1.126282e-03	
732	3.350000e+00	1.131029e-03	
733	3.400000e+00	1.135547e-03	
734	3.450000e+00	1.139859e-03	
735	3.500000e+00	1.143982e-03	
736	3.550000e+00	1.147934e-03	
737	3.600000e+00	1.151730e-03	
738	3.650000e+00	1.155382e-03	
739	3.700000e+00	1.158901e-03	
740	3.750000e+00	1.162298e-03	
741	3.800000e+00	1.165581e-03	
742	3.850000e+00	1.168759e-03	
743	3.900000e+00	1.171839e-03	
744	3.950000e+00	1.174827e-03	
745	4.000000e+00	1.177730e-03	
746	4.050000e+00	1.180552e-03	
747	4.100000e+00	1.183298e-03	
748	4.150000e+00	1.185973e-03	
749	4.200000e+00	1.188582e-03	
750	4.250000e+00	1.191127e-03	

Index   v-sweep         -i(vds)         
--------------------------------------------------------------------------------
751	4.300000e+00	1.193612e-03	
752	4.350000e+00	1.196040e-03	
753	4.400000e+00	1.198415e-03	
754	4.450000e+00	1.200739e-03	
755	4.500000e+00	1.203014e-03	
756	4.550000e+00	1.205243e-03	
757	4.600000e+00	1.207429e-03	
758	4.650000e+00	1.209572e-03	
759	4.700000e+00	1.211676e-03	
760	4.750000e+00	1.213741e-03	
761	4.800000e+00	1.215770e-03	
762	4.850000e+00	1.217764e-03	
763	4.900000e+00	1.219724e-03	
764	4.950000e+00	1.221653e-03	
765	5.000000e+00	1.223551e-03	
766	5.050000e+00	1.225419e-03	
767	5.100000e+00	1.227260e-03	
768	5.150000e+00	1.229073e-03	
769	5.200000e+00	1.230861e-03	
770	5.250000e+00	1.232623e-03	
771	5.300000e+00	1.234362e-03	
772	5.350000e+00	1.236078e-03	
773	5.400000e+00	1.237771e-03	
774	5.450000e+00	1.239443e-03	
775	5.500000e+00	1.241095e-03	
776	5.550000e+00	1.242727e-03	
777	5.600000e+00	1.244339e-03	
778	5.650000e+00	1.245934e-03	
779	5.700000e+00	1.247511e-03	
780	5.750000e+00	1.249071e-03	
781	5.800000e+00	1.250614e-03	
782	5.850000e+00	1.252142e-03	
783	5.900000e+00	1.253654e-03	
784	5.950000e+00	1.255152e-03	
785	6.000000e+00	1.256635e-03	
786	6.050000e+00	1.258105e-03	
787	6.100000e+00	1.259561e-03	
788	6.150000e+00	1.261005e-03	
789	6.200000e+00	1.262437e-03	
790	6.250000e+00	1.263856e-03	
791	6.300000e+00	1.265264e-03	
792	6.350000e+00	1.266661e-03	
793	6.400000e+00	1.268047e-03	
794	6.450000e+00	1.269423e-03	
795	6.500000e+00	1.270788e-03	
796	6.550000e+00	1.272144e-03	
797	6.600000e+00	1.273491e-03	
Note: No ".plot", ".print", or ".fourier" lines; no simulations run
