
Note: Compatibility modes selected: hs

Warning: m=xx on .subckt line will override multiplier m hierarchy!


Circuit: ***************************

Doing analysis at TEMP = -40.000000 and TNOM = -40.000000


No. of Data Rows : 798
                          ***************************
                          DC transfer characteristic  Mon Jan  9 13:58:05  2023
--------------------------------------------------------------------------------
Index   v-sweep         -i(vds)         
--------------------------------------------------------------------------------
0	0.000000e+00	-0.000000e+00	
1	5.000000e-02	3.873547e-07	
2	1.000000e-01	6.860686e-07	
3	1.500000e-01	8.971050e-07	
4	2.000000e-01	1.023847e-06	
5	2.500000e-01	1.082072e-06	
6	3.000000e-01	1.107539e-06	
7	3.500000e-01	1.123673e-06	
8	4.000000e-01	1.136386e-06	
9	4.500000e-01	1.147165e-06	
10	5.000000e-01	1.156603e-06	
11	5.500000e-01	1.165025e-06	
12	6.000000e-01	1.172637e-06	
13	6.500000e-01	1.179588e-06	
14	7.000000e-01	1.185986e-06	
15	7.500000e-01	1.191912e-06	
16	8.000000e-01	1.197434e-06	
17	8.500000e-01	1.202602e-06	
18	9.000000e-01	1.207461e-06	
19	9.500000e-01	1.212045e-06	
20	1.000000e+00	1.216383e-06	
21	1.050000e+00	1.220502e-06	
22	1.100000e+00	1.224422e-06	
23	1.150000e+00	1.228161e-06	
24	1.200000e+00	1.231737e-06	
25	1.250000e+00	1.235161e-06	
26	1.300000e+00	1.238448e-06	
27	1.350000e+00	1.241607e-06	
28	1.400000e+00	1.244648e-06	
29	1.450000e+00	1.247579e-06	
30	1.500000e+00	1.250409e-06	
31	1.550000e+00	1.253144e-06	
32	1.600000e+00	1.255790e-06	
33	1.650000e+00	1.258354e-06	
34	1.700000e+00	1.260839e-06	
35	1.750000e+00	1.263251e-06	
36	1.800000e+00	1.265594e-06	
37	1.850000e+00	1.267871e-06	
38	1.900000e+00	1.270087e-06	
39	1.950000e+00	1.272245e-06	
40	2.000000e+00	1.274347e-06	
41	2.050000e+00	1.276397e-06	
42	2.100000e+00	1.278396e-06	
43	2.150000e+00	1.280349e-06	
44	2.200000e+00	1.282255e-06	
45	2.250000e+00	1.284119e-06	
46	2.300000e+00	1.285942e-06	
47	2.350000e+00	1.287725e-06	
48	2.400000e+00	1.289470e-06	
49	2.450000e+00	1.291180e-06	
50	2.500000e+00	1.292854e-06	
51	2.550000e+00	1.294496e-06	
52	2.600000e+00	1.296106e-06	
53	2.650000e+00	1.297685e-06	
54	2.700000e+00	1.299235e-06	

Index   v-sweep         -i(vds)         
--------------------------------------------------------------------------------
55	2.750000e+00	1.300757e-06	
56	2.800000e+00	1.302251e-06	
57	2.850000e+00	1.303719e-06	
58	2.900000e+00	1.305163e-06	
59	2.950000e+00	1.306581e-06	
60	3.000000e+00	1.307977e-06	
61	3.050000e+00	1.309350e-06	
62	3.100000e+00	1.310700e-06	
63	3.150000e+00	1.312030e-06	
64	3.200000e+00	1.313340e-06	
65	3.250000e+00	1.314630e-06	
66	3.300000e+00	1.315900e-06	
67	3.350000e+00	1.317152e-06	
68	3.400000e+00	1.318387e-06	
69	3.450000e+00	1.319604e-06	
70	3.500000e+00	1.320804e-06	
71	3.550000e+00	1.321988e-06	
72	3.600000e+00	1.323157e-06	
73	3.650000e+00	1.324310e-06	
74	3.700000e+00	1.325448e-06	
75	3.750000e+00	1.326572e-06	
76	3.800000e+00	1.327682e-06	
77	3.850000e+00	1.328778e-06	
78	3.900000e+00	1.329861e-06	
79	3.950000e+00	1.330931e-06	
80	4.000000e+00	1.331989e-06	
81	4.050000e+00	1.333035e-06	
82	4.100000e+00	1.334069e-06	
83	4.150000e+00	1.335091e-06	
84	4.200000e+00	1.336103e-06	
85	4.250000e+00	1.337103e-06	
86	4.300000e+00	1.338093e-06	
87	4.350000e+00	1.339073e-06	
88	4.400000e+00	1.340042e-06	
89	4.450000e+00	1.341002e-06	
90	4.500000e+00	1.341952e-06	
91	4.550000e+00	1.342893e-06	
92	4.600000e+00	1.343825e-06	
93	4.650000e+00	1.344748e-06	
94	4.700000e+00	1.345662e-06	
95	4.750000e+00	1.346568e-06	
96	4.800000e+00	1.347466e-06	
97	4.850000e+00	1.348355e-06	
98	4.900000e+00	1.349237e-06	
99	4.950000e+00	1.350111e-06	
100	5.000000e+00	1.350978e-06	
101	5.050000e+00	1.351837e-06	
102	5.100000e+00	1.352690e-06	
103	5.150000e+00	1.353535e-06	
104	5.200000e+00	1.354373e-06	
105	5.250000e+00	1.355205e-06	
106	5.300000e+00	1.356030e-06	
107	5.350000e+00	1.356849e-06	
108	5.400000e+00	1.357661e-06	
109	5.450000e+00	1.358468e-06	
110	5.500000e+00	1.359268e-06	
111	5.550000e+00	1.360063e-06	
112	5.600000e+00	1.360851e-06	

Index   v-sweep         -i(vds)         
--------------------------------------------------------------------------------
113	5.650000e+00	1.361634e-06	
114	5.700000e+00	1.362412e-06	
115	5.750000e+00	1.363184e-06	
116	5.800000e+00	1.363951e-06	
117	5.850000e+00	1.364713e-06	
118	5.900000e+00	1.365470e-06	
119	5.950000e+00	1.366221e-06	
120	6.000000e+00	1.366968e-06	
121	6.050000e+00	1.367710e-06	
122	6.100000e+00	1.368447e-06	
123	6.150000e+00	1.369180e-06	
124	6.200000e+00	1.369908e-06	
125	6.250000e+00	1.370632e-06	
126	6.300000e+00	1.371351e-06	
127	6.350000e+00	1.372066e-06	
128	6.400000e+00	1.372777e-06	
129	6.450000e+00	1.373484e-06	
130	6.500000e+00	1.374187e-06	
131	6.550000e+00	1.374885e-06	
132	6.600000e+00	1.375580e-06	
133	0.000000e+00	-0.000000e+00	
134	5.000000e-02	2.084020e-06	
135	1.000000e-01	4.080929e-06	
136	1.500000e-01	5.991280e-06	
137	2.000000e-01	7.815621e-06	
138	2.500000e-01	9.554496e-06	
139	3.000000e-01	1.120845e-05	
140	3.500000e-01	1.277800e-05	
141	4.000000e-01	1.426371e-05	
142	4.500000e-01	1.566608e-05	
143	5.000000e-01	1.698564e-05	
144	5.500000e-01	1.822292e-05	
145	6.000000e-01	1.937843e-05	
146	6.500000e-01	2.045269e-05	
147	7.000000e-01	2.144621e-05	
148	7.500000e-01	2.235951e-05	
149	8.000000e-01	2.319312e-05	
150	8.500000e-01	2.394755e-05	
151	9.000000e-01	2.462338e-05	
152	9.500000e-01	2.522124e-05	
153	1.000000e+00	2.574197e-05	
154	1.050000e+00	2.618712e-05	
155	1.100000e+00	2.656023e-05	
156	1.150000e+00	2.686888e-05	
157	1.200000e+00	2.712460e-05	
158	1.250000e+00	2.733953e-05	
159	1.300000e+00	2.752360e-05	
160	1.350000e+00	2.768406e-05	
161	1.400000e+00	2.782608e-05	
162	1.450000e+00	2.795337e-05	
163	1.500000e+00	2.806866e-05	
164	1.550000e+00	2.817400e-05	
165	1.600000e+00	2.827095e-05	
166	1.650000e+00	2.836074e-05	
167	1.700000e+00	2.844436e-05	
168	1.750000e+00	2.852260e-05	
169	1.800000e+00	2.859610e-05	
170	1.850000e+00	2.866540e-05	

Index   v-sweep         -i(vds)         
--------------------------------------------------------------------------------
171	1.900000e+00	2.873096e-05	
172	1.950000e+00	2.879317e-05	
173	2.000000e+00	2.885234e-05	
174	2.050000e+00	2.890875e-05	
175	2.100000e+00	2.896267e-05	
176	2.150000e+00	2.901429e-05	
177	2.200000e+00	2.906380e-05	
178	2.250000e+00	2.911137e-05	
179	2.300000e+00	2.915715e-05	
180	2.350000e+00	2.920126e-05	
181	2.400000e+00	2.924383e-05	
182	2.450000e+00	2.928495e-05	
183	2.500000e+00	2.932473e-05	
184	2.550000e+00	2.936324e-05	
185	2.600000e+00	2.940057e-05	
186	2.650000e+00	2.943679e-05	
187	2.700000e+00	2.947196e-05	
188	2.750000e+00	2.950613e-05	
189	2.800000e+00	2.953938e-05	
190	2.850000e+00	2.957174e-05	
191	2.900000e+00	2.960326e-05	
192	2.950000e+00	2.963399e-05	
193	3.000000e+00	2.966396e-05	
194	3.050000e+00	2.969321e-05	
195	3.100000e+00	2.972178e-05	
196	3.150000e+00	2.974970e-05	
197	3.200000e+00	2.977699e-05	
198	3.250000e+00	2.980369e-05	
199	3.300000e+00	2.982982e-05	
200	3.350000e+00	2.985540e-05	
201	3.400000e+00	2.988047e-05	
202	3.450000e+00	2.990503e-05	
203	3.500000e+00	2.992912e-05	
204	3.550000e+00	2.995275e-05	
205	3.600000e+00	2.997594e-05	
206	3.650000e+00	2.999870e-05	
207	3.700000e+00	3.002106e-05	
208	3.750000e+00	3.004302e-05	
209	3.800000e+00	3.006461e-05	
210	3.850000e+00	3.008583e-05	
211	3.900000e+00	3.010670e-05	
212	3.950000e+00	3.012724e-05	
213	4.000000e+00	3.014745e-05	
214	4.050000e+00	3.016734e-05	
215	4.100000e+00	3.018693e-05	
216	4.150000e+00	3.020623e-05	
217	4.200000e+00	3.022525e-05	
218	4.250000e+00	3.024399e-05	
219	4.300000e+00	3.026247e-05	
220	4.350000e+00	3.028069e-05	
221	4.400000e+00	3.029866e-05	
222	4.450000e+00	3.031640e-05	
223	4.500000e+00	3.033390e-05	
224	4.550000e+00	3.035117e-05	
225	4.600000e+00	3.036823e-05	
226	4.650000e+00	3.038508e-05	
227	4.700000e+00	3.040172e-05	
228	4.750000e+00	3.041816e-05	

Index   v-sweep         -i(vds)         
--------------------------------------------------------------------------------
229	4.800000e+00	3.043441e-05	
230	4.850000e+00	3.045047e-05	
231	4.900000e+00	3.046635e-05	
232	4.950000e+00	3.048205e-05	
233	5.000000e+00	3.049759e-05	
234	5.050000e+00	3.051295e-05	
235	5.100000e+00	3.052815e-05	
236	5.150000e+00	3.054320e-05	
237	5.200000e+00	3.055809e-05	
238	5.250000e+00	3.057284e-05	
239	5.300000e+00	3.058743e-05	
240	5.350000e+00	3.060189e-05	
241	5.400000e+00	3.061621e-05	
242	5.450000e+00	3.063040e-05	
243	5.500000e+00	3.064446e-05	
244	5.550000e+00	3.065839e-05	
245	5.600000e+00	3.067219e-05	
246	5.650000e+00	3.068588e-05	
247	5.700000e+00	3.069945e-05	
248	5.750000e+00	3.071290e-05	
249	5.800000e+00	3.072624e-05	
250	5.850000e+00	3.073948e-05	
251	5.900000e+00	3.075261e-05	
252	5.950000e+00	3.076563e-05	
253	6.000000e+00	3.077855e-05	
254	6.050000e+00	3.079138e-05	
255	6.100000e+00	3.080411e-05	
256	6.150000e+00	3.081674e-05	
257	6.200000e+00	3.082928e-05	
258	6.250000e+00	3.084174e-05	
259	6.300000e+00	3.085410e-05	
260	6.350000e+00	3.086638e-05	
261	6.400000e+00	3.087858e-05	
262	6.450000e+00	3.089070e-05	
263	6.500000e+00	3.090273e-05	
264	6.550000e+00	3.091469e-05	
265	6.600000e+00	3.092657e-05	
266	0.000000e+00	-0.000000e+00	
267	5.000000e-02	3.331628e-06	
268	1.000000e-01	6.583189e-06	
269	1.500000e-01	9.755222e-06	
270	2.000000e-01	1.284826e-05	
271	2.500000e-01	1.586284e-05	
272	3.000000e-01	1.879947e-05	
273	3.500000e-01	2.165869e-05	
274	4.000000e-01	2.444101e-05	
275	4.500000e-01	2.714693e-05	
276	5.000000e-01	2.977697e-05	
277	5.500000e-01	3.233162e-05	
278	6.000000e-01	3.481138e-05	
279	6.500000e-01	3.721676e-05	
280	7.000000e-01	3.954822e-05	
281	7.500000e-01	4.180627e-05	
282	8.000000e-01	4.399137e-05	
283	8.500000e-01	4.610400e-05	
284	9.000000e-01	4.814463e-05	
285	9.500000e-01	5.011374e-05	
286	1.000000e+00	5.201177e-05	

Index   v-sweep         -i(vds)         
--------------------------------------------------------------------------------
287	1.050000e+00	5.383918e-05	
288	1.100000e+00	5.559642e-05	
289	1.150000e+00	5.728393e-05	
290	1.200000e+00	5.890215e-05	
291	1.250000e+00	6.045150e-05	
292	1.300000e+00	6.193239e-05	
293	1.350000e+00	6.334520e-05	
294	1.400000e+00	6.469029e-05	
295	1.450000e+00	6.596797e-05	
296	1.500000e+00	6.717846e-05	
297	1.550000e+00	6.832185e-05	
298	1.600000e+00	6.939797e-05	
299	1.650000e+00	7.040617e-05	
300	1.700000e+00	7.134496e-05	
301	1.750000e+00	7.221150e-05	
302	1.800000e+00	7.300126e-05	
303	1.850000e+00	7.370926e-05	
304	1.900000e+00	7.433357e-05	
305	1.950000e+00	7.487847e-05	
306	2.000000e+00	7.535361e-05	
307	2.050000e+00	7.577042e-05	
308	2.100000e+00	7.613946e-05	
309	2.150000e+00	7.646946e-05	
310	2.200000e+00	7.676732e-05	
311	2.250000e+00	7.703845e-05	
312	2.300000e+00	7.728708e-05	
313	2.350000e+00	7.751655e-05	
314	2.400000e+00	7.772955e-05	
315	2.450000e+00	7.792824e-05	
316	2.500000e+00	7.811441e-05	
317	2.550000e+00	7.828951e-05	
318	2.600000e+00	7.845477e-05	
319	2.650000e+00	7.861125e-05	
320	2.700000e+00	7.875980e-05	
321	2.750000e+00	7.890121e-05	
322	2.800000e+00	7.903611e-05	
323	2.850000e+00	7.916508e-05	
324	2.900000e+00	7.928861e-05	
325	2.950000e+00	7.940715e-05	
326	3.000000e+00	7.952108e-05	
327	3.050000e+00	7.963075e-05	
328	3.100000e+00	7.973645e-05	
329	3.150000e+00	7.983848e-05	
330	3.200000e+00	7.993707e-05	
331	3.250000e+00	8.003245e-05	
332	3.300000e+00	8.012482e-05	
333	3.350000e+00	8.021437e-05	
334	3.400000e+00	8.030126e-05	
335	3.450000e+00	8.038565e-05	
336	3.500000e+00	8.046768e-05	
337	3.550000e+00	8.054747e-05	
338	3.600000e+00	8.062515e-05	
339	3.650000e+00	8.070083e-05	
340	3.700000e+00	8.077461e-05	
341	3.750000e+00	8.084658e-05	
342	3.800000e+00	8.091683e-05	
343	3.850000e+00	8.098545e-05	
344	3.900000e+00	8.105250e-05	

Index   v-sweep         -i(vds)         
--------------------------------------------------------------------------------
345	3.950000e+00	8.111807e-05	
346	4.000000e+00	8.118221e-05	
347	4.050000e+00	8.124500e-05	
348	4.100000e+00	8.130648e-05	
349	4.150000e+00	8.136671e-05	
350	4.200000e+00	8.142576e-05	
351	4.250000e+00	8.148366e-05	
352	4.300000e+00	8.154045e-05	
353	4.350000e+00	8.159620e-05	
354	4.400000e+00	8.165093e-05	
355	4.450000e+00	8.170469e-05	
356	4.500000e+00	8.175751e-05	
357	4.550000e+00	8.180942e-05	
358	4.600000e+00	8.186047e-05	
359	4.650000e+00	8.191068e-05	
360	4.700000e+00	8.196009e-05	
361	4.750000e+00	8.200872e-05	
362	4.800000e+00	8.205659e-05	
363	4.850000e+00	8.210375e-05	
364	4.900000e+00	8.215020e-05	
365	4.950000e+00	8.219597e-05	
366	5.000000e+00	8.224110e-05	
367	5.050000e+00	8.228559e-05	
368	5.100000e+00	8.232947e-05	
369	5.150000e+00	8.237276e-05	
370	5.200000e+00	8.241549e-05	
371	5.250000e+00	8.245765e-05	
372	5.300000e+00	8.249928e-05	
373	5.350000e+00	8.254039e-05	
374	5.400000e+00	8.258100e-05	
375	5.450000e+00	8.262113e-05	
376	5.500000e+00	8.266077e-05	
377	5.550000e+00	8.269996e-05	
378	5.600000e+00	8.273871e-05	
379	5.650000e+00	8.277702e-05	
380	5.700000e+00	8.281492e-05	
381	5.750000e+00	8.285241e-05	
382	5.800000e+00	8.288950e-05	
383	5.850000e+00	8.292621e-05	
384	5.900000e+00	8.296255e-05	
385	5.950000e+00	8.299852e-05	
386	6.000000e+00	8.303414e-05	
387	6.050000e+00	8.306942e-05	
388	6.100000e+00	8.310437e-05	
389	6.150000e+00	8.313899e-05	
390	6.200000e+00	8.317330e-05	
391	6.250000e+00	8.320730e-05	
392	6.300000e+00	8.324100e-05	
393	6.350000e+00	8.327441e-05	
394	6.400000e+00	8.330753e-05	
395	6.450000e+00	8.334038e-05	
396	6.500000e+00	8.337296e-05	
397	6.550000e+00	8.340528e-05	
398	6.600000e+00	8.343735e-05	
399	0.000000e+00	-0.000000e+00	
400	5.000000e-02	4.268123e-06	
401	1.000000e-01	8.463360e-06	
402	1.500000e-01	1.258618e-05	

Index   v-sweep         -i(vds)         
--------------------------------------------------------------------------------
403	2.000000e-01	1.663706e-05	
404	2.500000e-01	2.061646e-05	
405	3.000000e-01	2.452484e-05	
406	3.500000e-01	2.836266e-05	
407	4.000000e-01	3.213036e-05	
408	4.500000e-01	3.582841e-05	
409	5.000000e-01	3.945723e-05	
410	5.500000e-01	4.301728e-05	
411	6.000000e-01	4.650900e-05	
412	6.500000e-01	4.993280e-05	
413	7.000000e-01	5.328914e-05	
414	7.500000e-01	5.657842e-05	
415	8.000000e-01	5.980107e-05	
416	8.500000e-01	6.295752e-05	
417	9.000000e-01	6.604818e-05	
418	9.500000e-01	6.907345e-05	
419	1.000000e+00	7.203375e-05	
420	1.050000e+00	7.492948e-05	
421	1.100000e+00	7.776105e-05	
422	1.150000e+00	8.052884e-05	
423	1.200000e+00	8.323325e-05	
424	1.250000e+00	8.587468e-05	
425	1.300000e+00	8.845351e-05	
426	1.350000e+00	9.097012e-05	
427	1.400000e+00	9.342489e-05	
428	1.450000e+00	9.581819e-05	
429	1.500000e+00	9.815040e-05	
430	1.550000e+00	1.004219e-04	
431	1.600000e+00	1.026330e-04	
432	1.650000e+00	1.047841e-04	
433	1.700000e+00	1.068755e-04	
434	1.750000e+00	1.089076e-04	
435	1.800000e+00	1.108807e-04	
436	1.850000e+00	1.127951e-04	
437	1.900000e+00	1.146511e-04	
438	1.950000e+00	1.164490e-04	
439	2.000000e+00	1.181890e-04	
440	2.050000e+00	1.198713e-04	
441	2.100000e+00	1.214959e-04	
442	2.150000e+00	1.230629e-04	
443	2.200000e+00	1.245719e-04	
444	2.250000e+00	1.260222e-04	
445	2.300000e+00	1.274126e-04	
446	2.350000e+00	1.287407e-04	
447	2.400000e+00	1.300024e-04	
448	2.450000e+00	1.311913e-04	
449	2.500000e+00	1.322982e-04	
450	2.550000e+00	1.333137e-04	
451	2.600000e+00	1.342313e-04	
452	2.650000e+00	1.350514e-04	
453	2.700000e+00	1.357815e-04	
454	2.750000e+00	1.364324e-04	
455	2.800000e+00	1.370158e-04	
456	2.850000e+00	1.375422e-04	
457	2.900000e+00	1.380206e-04	
458	2.950000e+00	1.384584e-04	
459	3.000000e+00	1.388614e-04	
460	3.050000e+00	1.392346e-04	

Index   v-sweep         -i(vds)         
--------------------------------------------------------------------------------
461	3.100000e+00	1.395819e-04	
462	3.150000e+00	1.399066e-04	
463	3.200000e+00	1.402114e-04	
464	3.250000e+00	1.404984e-04	
465	3.300000e+00	1.407698e-04	
466	3.350000e+00	1.410269e-04	
467	3.400000e+00	1.412714e-04	
468	3.450000e+00	1.415042e-04	
469	3.500000e+00	1.417265e-04	
470	3.550000e+00	1.419392e-04	
471	3.600000e+00	1.421431e-04	
472	3.650000e+00	1.423388e-04	
473	3.700000e+00	1.425270e-04	
474	3.750000e+00	1.427083e-04	
475	3.800000e+00	1.428831e-04	
476	3.850000e+00	1.430519e-04	
477	3.900000e+00	1.432150e-04	
478	3.950000e+00	1.433729e-04	
479	4.000000e+00	1.435259e-04	
480	4.050000e+00	1.436742e-04	
481	4.100000e+00	1.438181e-04	
482	4.150000e+00	1.439580e-04	
483	4.200000e+00	1.440940e-04	
484	4.250000e+00	1.442263e-04	
485	4.300000e+00	1.443551e-04	
486	4.350000e+00	1.444806e-04	
487	4.400000e+00	1.446030e-04	
488	4.450000e+00	1.447225e-04	
489	4.500000e+00	1.448391e-04	
490	4.550000e+00	1.449530e-04	
491	4.600000e+00	1.450643e-04	
492	4.650000e+00	1.451732e-04	
493	4.700000e+00	1.452797e-04	
494	4.750000e+00	1.453840e-04	
495	4.800000e+00	1.454861e-04	
496	4.850000e+00	1.455862e-04	
497	4.900000e+00	1.456843e-04	
498	4.950000e+00	1.457805e-04	
499	5.000000e+00	1.458749e-04	
500	5.050000e+00	1.459676e-04	
501	5.100000e+00	1.460586e-04	
502	5.150000e+00	1.461480e-04	
503	5.200000e+00	1.462358e-04	
504	5.250000e+00	1.463222e-04	
505	5.300000e+00	1.464071e-04	
506	5.350000e+00	1.464906e-04	
507	5.400000e+00	1.465728e-04	
508	5.450000e+00	1.466538e-04	
509	5.500000e+00	1.467334e-04	
510	5.550000e+00	1.468119e-04	
511	5.600000e+00	1.468893e-04	
512	5.650000e+00	1.469655e-04	
513	5.700000e+00	1.470406e-04	
514	5.750000e+00	1.471147e-04	
515	5.800000e+00	1.471878e-04	
516	5.850000e+00	1.472599e-04	
517	5.900000e+00	1.473311e-04	
518	5.950000e+00	1.474014e-04	

Index   v-sweep         -i(vds)         
--------------------------------------------------------------------------------
519	6.000000e+00	1.474707e-04	
520	6.050000e+00	1.475393e-04	
521	6.100000e+00	1.476070e-04	
522	6.150000e+00	1.476738e-04	
523	6.200000e+00	1.477400e-04	
524	6.250000e+00	1.478053e-04	
525	6.300000e+00	1.478699e-04	
526	6.350000e+00	1.479339e-04	
527	6.400000e+00	1.479971e-04	
528	6.450000e+00	1.480596e-04	
529	6.500000e+00	1.481216e-04	
530	6.550000e+00	1.481828e-04	
531	6.600000e+00	1.482435e-04	
532	0.000000e+00	-0.000000e+00	
533	5.000000e-02	4.971149e-06	
534	1.000000e-01	9.876539e-06	
535	1.500000e-01	1.471657e-05	
536	2.000000e-01	1.949164e-05	
537	2.500000e-01	2.420213e-05	
538	3.000000e-01	2.884844e-05	
539	3.500000e-01	3.343094e-05	
540	4.000000e-01	3.795004e-05	
541	4.500000e-01	4.240609e-05	
542	5.000000e-01	4.679949e-05	
543	5.500000e-01	5.113060e-05	
544	6.000000e-01	5.539979e-05	
545	6.500000e-01	5.960743e-05	
546	7.000000e-01	6.375388e-05	
547	7.500000e-01	6.783952e-05	
548	8.000000e-01	7.186468e-05	
549	8.500000e-01	7.582974e-05	
550	9.000000e-01	7.973504e-05	
551	9.500000e-01	8.358094e-05	
552	1.000000e+00	8.736778e-05	
553	1.050000e+00	9.109590e-05	
554	1.100000e+00	9.476566e-05	
555	1.150000e+00	9.837737e-05	
556	1.200000e+00	1.019314e-04	
557	1.250000e+00	1.054281e-04	
558	1.300000e+00	1.088677e-04	
559	1.350000e+00	1.122506e-04	
560	1.400000e+00	1.155772e-04	
561	1.450000e+00	1.188476e-04	
562	1.500000e+00	1.220624e-04	
563	1.550000e+00	1.252217e-04	
564	1.600000e+00	1.283260e-04	
565	1.650000e+00	1.313754e-04	
566	1.700000e+00	1.343704e-04	
567	1.750000e+00	1.373112e-04	
568	1.800000e+00	1.401981e-04	
569	1.850000e+00	1.430315e-04	
570	1.900000e+00	1.458115e-04	
571	1.950000e+00	1.485387e-04	
572	2.000000e+00	1.512131e-04	
573	2.050000e+00	1.538351e-04	
574	2.100000e+00	1.564050e-04	
575	2.150000e+00	1.589231e-04	
576	2.200000e+00	1.613897e-04	

Index   v-sweep         -i(vds)         
--------------------------------------------------------------------------------
577	2.250000e+00	1.638049e-04	
578	2.300000e+00	1.661691e-04	
579	2.350000e+00	1.684826e-04	
580	2.400000e+00	1.707455e-04	
581	2.450000e+00	1.729581e-04	
582	2.500000e+00	1.751206e-04	
583	2.550000e+00	1.772332e-04	
584	2.600000e+00	1.792961e-04	
585	2.650000e+00	1.813092e-04	
586	2.700000e+00	1.832727e-04	
587	2.750000e+00	1.851865e-04	
588	2.800000e+00	1.870502e-04	
589	2.850000e+00	1.888633e-04	
590	2.900000e+00	1.906250e-04	
591	2.950000e+00	1.923335e-04	
592	3.000000e+00	1.939862e-04	
593	3.050000e+00	1.955787e-04	
594	3.100000e+00	1.971043e-04	
595	3.150000e+00	1.985537e-04	
596	3.200000e+00	1.999148e-04	
597	3.250000e+00	2.011762e-04	
598	3.300000e+00	2.023304e-04	
599	3.350000e+00	2.033770e-04	
600	3.400000e+00	2.043219e-04	
601	3.450000e+00	2.051753e-04	
602	3.500000e+00	2.059487e-04	
603	3.550000e+00	2.066529e-04	
604	3.600000e+00	2.072977e-04	
605	3.650000e+00	2.078913e-04	
606	3.700000e+00	2.084406e-04	
607	3.750000e+00	2.089514e-04	
608	3.800000e+00	2.094285e-04	
609	3.850000e+00	2.098759e-04	
610	3.900000e+00	2.102969e-04	
611	3.950000e+00	2.106944e-04	
612	4.000000e+00	2.110709e-04	
613	4.050000e+00	2.114284e-04	
614	4.100000e+00	2.117687e-04	
615	4.150000e+00	2.120933e-04	
616	4.200000e+00	2.124037e-04	
617	4.250000e+00	2.127010e-04	
618	4.300000e+00	2.129862e-04	
619	4.350000e+00	2.132604e-04	
620	4.400000e+00	2.135242e-04	
621	4.450000e+00	2.137785e-04	
622	4.500000e+00	2.140239e-04	
623	4.550000e+00	2.142610e-04	
624	4.600000e+00	2.144904e-04	
625	4.650000e+00	2.147125e-04	
626	4.700000e+00	2.149278e-04	
627	4.750000e+00	2.151367e-04	
628	4.800000e+00	2.153396e-04	
629	4.850000e+00	2.155367e-04	
630	4.900000e+00	2.157285e-04	
631	4.950000e+00	2.159152e-04	
632	5.000000e+00	2.160971e-04	
633	5.050000e+00	2.162743e-04	
634	5.100000e+00	2.164472e-04	

Index   v-sweep         -i(vds)         
--------------------------------------------------------------------------------
635	5.150000e+00	2.166160e-04	
636	5.200000e+00	2.167808e-04	
637	5.250000e+00	2.169419e-04	
638	5.300000e+00	2.170993e-04	
639	5.350000e+00	2.172534e-04	
640	5.400000e+00	2.174041e-04	
641	5.450000e+00	2.175518e-04	
642	5.500000e+00	2.176964e-04	
643	5.550000e+00	2.178381e-04	
644	5.600000e+00	2.179771e-04	
645	5.650000e+00	2.181135e-04	
646	5.700000e+00	2.182473e-04	
647	5.750000e+00	2.183787e-04	
648	5.800000e+00	2.185077e-04	
649	5.850000e+00	2.186345e-04	
650	5.900000e+00	2.187591e-04	
651	5.950000e+00	2.188816e-04	
652	6.000000e+00	2.190022e-04	
653	6.050000e+00	2.191207e-04	
654	6.100000e+00	2.192375e-04	
655	6.150000e+00	2.193524e-04	
656	6.200000e+00	2.194655e-04	
657	6.250000e+00	2.195770e-04	
658	6.300000e+00	2.196869e-04	
659	6.350000e+00	2.197952e-04	
660	6.400000e+00	2.199020e-04	
661	6.450000e+00	2.200074e-04	
662	6.500000e+00	2.201113e-04	
663	6.550000e+00	2.202139e-04	
664	6.600000e+00	2.203151e-04	
665	0.000000e+00	-0.000000e+00	
666	5.000000e-02	5.495858e-06	
667	1.000000e-01	1.093279e-05	
668	1.500000e-01	1.631111e-05	
669	2.000000e-01	2.163116e-05	
670	2.500000e-01	2.689326e-05	
671	3.000000e-01	3.209774e-05	
672	3.500000e-01	3.724490e-05	
673	4.000000e-01	4.233508e-05	
674	4.500000e-01	4.736858e-05	
675	5.000000e-01	5.234572e-05	
676	5.500000e-01	5.726680e-05	
677	6.000000e-01	6.213214e-05	
678	6.500000e-01	6.694205e-05	
679	7.000000e-01	7.169682e-05	
680	7.500000e-01	7.639675e-05	
681	8.000000e-01	8.104216e-05	
682	8.500000e-01	8.563332e-05	
683	9.000000e-01	9.017055e-05	
684	9.500000e-01	9.465412e-05	
685	1.000000e+00	9.908434e-05	
686	1.050000e+00	1.034615e-04	
687	1.100000e+00	1.077859e-04	
688	1.150000e+00	1.120577e-04	
689	1.200000e+00	1.162774e-04	
690	1.250000e+00	1.204451e-04	
691	1.300000e+00	1.245611e-04	
692	1.350000e+00	1.286258e-04	

Index   v-sweep         -i(vds)         
--------------------------------------------------------------------------------
693	1.400000e+00	1.326393e-04	
694	1.450000e+00	1.366020e-04	
695	1.500000e+00	1.405142e-04	
696	1.550000e+00	1.443760e-04	
697	1.600000e+00	1.481878e-04	
698	1.650000e+00	1.519499e-04	
699	1.700000e+00	1.556624e-04	
700	1.750000e+00	1.593257e-04	
701	1.800000e+00	1.629400e-04	
702	1.850000e+00	1.665055e-04	
703	1.900000e+00	1.700226e-04	
704	1.950000e+00	1.734915e-04	
705	2.000000e+00	1.769123e-04	
706	2.050000e+00	1.802855e-04	
707	2.100000e+00	1.836111e-04	
708	2.150000e+00	1.868895e-04	
709	2.200000e+00	1.901210e-04	
710	2.250000e+00	1.933056e-04	
711	2.300000e+00	1.964438e-04	
712	2.350000e+00	1.995356e-04	
713	2.400000e+00	2.025814e-04	
714	2.450000e+00	2.055815e-04	
715	2.500000e+00	2.085359e-04	
716	2.550000e+00	2.114449e-04	
717	2.600000e+00	2.143089e-04	
718	2.650000e+00	2.171279e-04	
719	2.700000e+00	2.199022e-04	
720	2.750000e+00	2.226320e-04	
721	2.800000e+00	2.253176e-04	
722	2.850000e+00	2.279591e-04	
723	2.900000e+00	2.305567e-04	
724	2.950000e+00	2.331107e-04	
725	3.000000e+00	2.356211e-04	
726	3.050000e+00	2.380883e-04	
727	3.100000e+00	2.405122e-04	
728	3.150000e+00	2.428931e-04	
729	3.200000e+00	2.452310e-04	
730	3.250000e+00	2.475261e-04	
731	3.300000e+00	2.497783e-04	
732	3.350000e+00	2.519876e-04	
733	3.400000e+00	2.541537e-04	
734	3.450000e+00	2.562765e-04	
735	3.500000e+00	2.583552e-04	
736	3.550000e+00	2.603889e-04	
737	3.600000e+00	2.623763e-04	
738	3.650000e+00	2.643149e-04	
739	3.700000e+00	2.662011e-04	
740	3.750000e+00	2.680297e-04	
741	3.800000e+00	2.697926e-04	
742	3.850000e+00	2.714793e-04	
743	3.900000e+00	2.730770e-04	
744	3.950000e+00	2.745732e-04	
745	4.000000e+00	2.759588e-04	
746	4.050000e+00	2.772309e-04	
747	4.100000e+00	2.783930e-04	
748	4.150000e+00	2.794532e-04	
749	4.200000e+00	2.804220e-04	
750	4.250000e+00	2.813102e-04	

Index   v-sweep         -i(vds)         
--------------------------------------------------------------------------------
751	4.300000e+00	2.821278e-04	
752	4.350000e+00	2.828838e-04	
753	4.400000e+00	2.835858e-04	
754	4.450000e+00	2.842405e-04	
755	4.500000e+00	2.848535e-04	
756	4.550000e+00	2.854295e-04	
757	4.600000e+00	2.859725e-04	
758	4.650000e+00	2.864860e-04	
759	4.700000e+00	2.869729e-04	
760	4.750000e+00	2.874358e-04	
761	4.800000e+00	2.878769e-04	
762	4.850000e+00	2.882980e-04	
763	4.900000e+00	2.887010e-04	
764	4.950000e+00	2.890873e-04	
765	5.000000e+00	2.894581e-04	
766	5.050000e+00	2.898148e-04	
767	5.100000e+00	2.901582e-04	
768	5.150000e+00	2.904894e-04	
769	5.200000e+00	2.908091e-04	
770	5.250000e+00	2.911182e-04	
771	5.300000e+00	2.914173e-04	
772	5.350000e+00	2.917071e-04	
773	5.400000e+00	2.919881e-04	
774	5.450000e+00	2.922608e-04	
775	5.500000e+00	2.925256e-04	
776	5.550000e+00	2.927832e-04	
777	5.600000e+00	2.930337e-04	
778	5.650000e+00	2.932777e-04	
779	5.700000e+00	2.935154e-04	
780	5.750000e+00	2.937472e-04	
781	5.800000e+00	2.939733e-04	
782	5.850000e+00	2.941940e-04	
783	5.900000e+00	2.944096e-04	
784	5.950000e+00	2.946204e-04	
785	6.000000e+00	2.948265e-04	
786	6.050000e+00	2.950281e-04	
787	6.100000e+00	2.952255e-04	
788	6.150000e+00	2.954188e-04	
789	6.200000e+00	2.956082e-04	
790	6.250000e+00	2.957938e-04	
791	6.300000e+00	2.959759e-04	
792	6.350000e+00	2.961545e-04	
793	6.400000e+00	2.963299e-04	
794	6.450000e+00	2.965021e-04	
795	6.500000e+00	2.966712e-04	
796	6.550000e+00	2.968374e-04	
797	6.600000e+00	2.970007e-04	
Note: No ".plot", ".print", or ".fourier" lines; no simulations run
