
Note: Compatibility modes selected: hs

Warning: m=xx on .subckt line will override multiplier m hierarchy!


Circuit: ***************************

Doing analysis at TEMP = 25.000000 and TNOM = 25.000000


No. of Data Rows : 798
                          ***************************
                          DC transfer characteristic  Mon Jan  9 13:58:05  2023
--------------------------------------------------------------------------------
Index   v-sweep         -i(vds)         
--------------------------------------------------------------------------------
0	0.000000e+00	-0.000000e+00	
1	5.000000e-02	3.820756e-07	
2	1.000000e-01	7.019084e-07	
3	1.500000e-01	9.598574e-07	
4	2.000000e-01	1.156459e-06	
5	2.500000e-01	1.292946e-06	
6	3.000000e-01	1.373752e-06	
7	3.500000e-01	1.413785e-06	
8	4.000000e-01	1.435558e-06	
9	4.500000e-01	1.451130e-06	
10	5.000000e-01	1.463930e-06	
11	5.500000e-01	1.475024e-06	
12	6.000000e-01	1.484887e-06	
13	6.500000e-01	1.493791e-06	
14	7.000000e-01	1.501917e-06	
15	7.500000e-01	1.509396e-06	
16	8.000000e-01	1.516326e-06	
17	8.500000e-01	1.522783e-06	
18	9.000000e-01	1.528829e-06	
19	9.500000e-01	1.534514e-06	
20	1.000000e+00	1.539878e-06	
21	1.050000e+00	1.544956e-06	
22	1.100000e+00	1.549778e-06	
23	1.150000e+00	1.554368e-06	
24	1.200000e+00	1.558748e-06	
25	1.250000e+00	1.562935e-06	
26	1.300000e+00	1.566947e-06	
27	1.350000e+00	1.570798e-06	
28	1.400000e+00	1.574499e-06	
29	1.450000e+00	1.578063e-06	
30	1.500000e+00	1.581499e-06	
31	1.550000e+00	1.584816e-06	
32	1.600000e+00	1.588022e-06	
33	1.650000e+00	1.591124e-06	
34	1.700000e+00	1.594129e-06	
35	1.750000e+00	1.597043e-06	
36	1.800000e+00	1.599871e-06	
37	1.850000e+00	1.602618e-06	
38	1.900000e+00	1.605289e-06	
39	1.950000e+00	1.607887e-06	
40	2.000000e+00	1.610417e-06	
41	2.050000e+00	1.612882e-06	
42	2.100000e+00	1.615286e-06	
43	2.150000e+00	1.617631e-06	
44	2.200000e+00	1.619921e-06	
45	2.250000e+00	1.622158e-06	
46	2.300000e+00	1.624343e-06	
47	2.350000e+00	1.626481e-06	
48	2.400000e+00	1.628572e-06	
49	2.450000e+00	1.630620e-06	
50	2.500000e+00	1.632624e-06	
51	2.550000e+00	1.634589e-06	
52	2.600000e+00	1.636514e-06	
53	2.650000e+00	1.638403e-06	
54	2.700000e+00	1.640255e-06	

Index   v-sweep         -i(vds)         
--------------------------------------------------------------------------------
55	2.750000e+00	1.642073e-06	
56	2.800000e+00	1.643858e-06	
57	2.850000e+00	1.645611e-06	
58	2.900000e+00	1.647333e-06	
59	2.950000e+00	1.649026e-06	
60	3.000000e+00	1.650690e-06	
61	3.050000e+00	1.652327e-06	
62	3.100000e+00	1.653937e-06	
63	3.150000e+00	1.655522e-06	
64	3.200000e+00	1.657082e-06	
65	3.250000e+00	1.658618e-06	
66	3.300000e+00	1.660131e-06	
67	3.350000e+00	1.661621e-06	
68	3.400000e+00	1.663090e-06	
69	3.450000e+00	1.664538e-06	
70	3.500000e+00	1.665966e-06	
71	3.550000e+00	1.667374e-06	
72	3.600000e+00	1.668763e-06	
73	3.650000e+00	1.670134e-06	
74	3.700000e+00	1.671486e-06	
75	3.750000e+00	1.672822e-06	
76	3.800000e+00	1.674140e-06	
77	3.850000e+00	1.675442e-06	
78	3.900000e+00	1.676729e-06	
79	3.950000e+00	1.678000e-06	
80	4.000000e+00	1.679255e-06	
81	4.050000e+00	1.680497e-06	
82	4.100000e+00	1.681724e-06	
83	4.150000e+00	1.682937e-06	
84	4.200000e+00	1.684137e-06	
85	4.250000e+00	1.685324e-06	
86	4.300000e+00	1.686498e-06	
87	4.350000e+00	1.687660e-06	
88	4.400000e+00	1.688810e-06	
89	4.450000e+00	1.689948e-06	
90	4.500000e+00	1.691074e-06	
91	4.550000e+00	1.692190e-06	
92	4.600000e+00	1.693294e-06	
93	4.650000e+00	1.694388e-06	
94	4.700000e+00	1.695472e-06	
95	4.750000e+00	1.696545e-06	
96	4.800000e+00	1.697609e-06	
97	4.850000e+00	1.698663e-06	
98	4.900000e+00	1.699708e-06	
99	4.950000e+00	1.700744e-06	
100	5.000000e+00	1.701770e-06	
101	5.050000e+00	1.702788e-06	
102	5.100000e+00	1.703798e-06	
103	5.150000e+00	1.704799e-06	
104	5.200000e+00	1.705792e-06	
105	5.250000e+00	1.706777e-06	
106	5.300000e+00	1.707754e-06	
107	5.350000e+00	1.708723e-06	
108	5.400000e+00	1.709686e-06	
109	5.450000e+00	1.710640e-06	
110	5.500000e+00	1.711588e-06	
111	5.550000e+00	1.712529e-06	
112	5.600000e+00	1.713463e-06	

Index   v-sweep         -i(vds)         
--------------------------------------------------------------------------------
113	5.650000e+00	1.714390e-06	
114	5.700000e+00	1.715311e-06	
115	5.750000e+00	1.716225e-06	
116	5.800000e+00	1.717133e-06	
117	5.850000e+00	1.718035e-06	
118	5.900000e+00	1.718931e-06	
119	5.950000e+00	1.719821e-06	
120	6.000000e+00	1.720705e-06	
121	6.050000e+00	1.721583e-06	
122	6.100000e+00	1.722456e-06	
123	6.150000e+00	1.723324e-06	
124	6.200000e+00	1.724186e-06	
125	6.250000e+00	1.725043e-06	
126	6.300000e+00	1.725894e-06	
127	6.350000e+00	1.726741e-06	
128	6.400000e+00	1.727583e-06	
129	6.450000e+00	1.728420e-06	
130	6.500000e+00	1.729252e-06	
131	6.550000e+00	1.730079e-06	
132	6.600000e+00	1.730902e-06	
133	0.000000e+00	-0.000000e+00	
134	5.000000e-02	1.548538e-06	
135	1.000000e-01	3.037224e-06	
136	1.500000e-01	4.466393e-06	
137	2.000000e-01	5.836377e-06	
138	2.500000e-01	7.147505e-06	
139	3.000000e-01	8.400105e-06	
140	3.500000e-01	9.594503e-06	
141	4.000000e-01	1.073102e-05	
142	4.500000e-01	1.180998e-05	
143	5.000000e-01	1.283170e-05	
144	5.500000e-01	1.379650e-05	
145	6.000000e-01	1.470469e-05	
146	6.500000e-01	1.555659e-05	
147	7.000000e-01	1.635251e-05	
148	7.500000e-01	1.709277e-05	
149	8.000000e-01	1.777770e-05	
150	8.500000e-01	1.840761e-05	
151	9.000000e-01	1.898284e-05	
152	9.500000e-01	1.950376e-05	
153	1.000000e+00	1.997079e-05	
154	1.050000e+00	2.038447e-05	
155	1.100000e+00	2.074564e-05	
156	1.150000e+00	2.105582e-05	
157	1.200000e+00	2.131801e-05	
158	1.250000e+00	2.153768e-05	
159	1.300000e+00	2.172243e-05	
160	1.350000e+00	2.188005e-05	
161	1.400000e+00	2.201689e-05	
162	1.450000e+00	2.213758e-05	
163	1.500000e+00	2.224548e-05	
164	1.550000e+00	2.234301e-05	
165	1.600000e+00	2.243198e-05	
166	1.650000e+00	2.251376e-05	
167	1.700000e+00	2.258943e-05	
168	1.750000e+00	2.265983e-05	
169	1.800000e+00	2.272566e-05	
170	1.850000e+00	2.278746e-05	

Index   v-sweep         -i(vds)         
--------------------------------------------------------------------------------
171	1.900000e+00	2.284570e-05	
172	1.950000e+00	2.290078e-05	
173	2.000000e+00	2.295301e-05	
174	2.050000e+00	2.300267e-05	
175	2.100000e+00	2.305002e-05	
176	2.150000e+00	2.309524e-05	
177	2.200000e+00	2.313853e-05	
178	2.250000e+00	2.318005e-05	
179	2.300000e+00	2.321992e-05	
180	2.350000e+00	2.325829e-05	
181	2.400000e+00	2.329525e-05	
182	2.450000e+00	2.333091e-05	
183	2.500000e+00	2.336536e-05	
184	2.550000e+00	2.339867e-05	
185	2.600000e+00	2.343093e-05	
186	2.650000e+00	2.346218e-05	
187	2.700000e+00	2.349250e-05	
188	2.750000e+00	2.352194e-05	
189	2.800000e+00	2.355055e-05	
190	2.850000e+00	2.357837e-05	
191	2.900000e+00	2.360545e-05	
192	2.950000e+00	2.363183e-05	
193	3.000000e+00	2.365753e-05	
194	3.050000e+00	2.368261e-05	
195	3.100000e+00	2.370708e-05	
196	3.150000e+00	2.373097e-05	
197	3.200000e+00	2.375432e-05	
198	3.250000e+00	2.377714e-05	
199	3.300000e+00	2.379946e-05	
200	3.350000e+00	2.382131e-05	
201	3.400000e+00	2.384270e-05	
202	3.450000e+00	2.386365e-05	
203	3.500000e+00	2.388419e-05	
204	3.550000e+00	2.390432e-05	
205	3.600000e+00	2.392406e-05	
206	3.650000e+00	2.394344e-05	
207	3.700000e+00	2.396246e-05	
208	3.750000e+00	2.398113e-05	
209	3.800000e+00	2.399948e-05	
210	3.850000e+00	2.401751e-05	
211	3.900000e+00	2.403524e-05	
212	3.950000e+00	2.405267e-05	
213	4.000000e+00	2.406981e-05	
214	4.050000e+00	2.408669e-05	
215	4.100000e+00	2.410330e-05	
216	4.150000e+00	2.411965e-05	
217	4.200000e+00	2.413576e-05	
218	4.250000e+00	2.415163e-05	
219	4.300000e+00	2.416727e-05	
220	4.350000e+00	2.418268e-05	
221	4.400000e+00	2.419789e-05	
222	4.450000e+00	2.421288e-05	
223	4.500000e+00	2.422767e-05	
224	4.550000e+00	2.424227e-05	
225	4.600000e+00	2.425667e-05	
226	4.650000e+00	2.427090e-05	
227	4.700000e+00	2.428494e-05	
228	4.750000e+00	2.429881e-05	

Index   v-sweep         -i(vds)         
--------------------------------------------------------------------------------
229	4.800000e+00	2.431252e-05	
230	4.850000e+00	2.432606e-05	
231	4.900000e+00	2.433945e-05	
232	4.950000e+00	2.435268e-05	
233	5.000000e+00	2.436576e-05	
234	5.050000e+00	2.437870e-05	
235	5.100000e+00	2.439150e-05	
236	5.150000e+00	2.440416e-05	
237	5.200000e+00	2.441669e-05	
238	5.250000e+00	2.442909e-05	
239	5.300000e+00	2.444136e-05	
240	5.350000e+00	2.445352e-05	
241	5.400000e+00	2.446555e-05	
242	5.450000e+00	2.447747e-05	
243	5.500000e+00	2.448927e-05	
244	5.550000e+00	2.450097e-05	
245	5.600000e+00	2.451256e-05	
246	5.650000e+00	2.452404e-05	
247	5.700000e+00	2.453543e-05	
248	5.750000e+00	2.454671e-05	
249	5.800000e+00	2.455790e-05	
250	5.850000e+00	2.456899e-05	
251	5.900000e+00	2.458000e-05	
252	5.950000e+00	2.459091e-05	
253	6.000000e+00	2.460174e-05	
254	6.050000e+00	2.461248e-05	
255	6.100000e+00	2.462313e-05	
256	6.150000e+00	2.463371e-05	
257	6.200000e+00	2.464421e-05	
258	6.250000e+00	2.465463e-05	
259	6.300000e+00	2.466497e-05	
260	6.350000e+00	2.467524e-05	
261	6.400000e+00	2.468544e-05	
262	6.450000e+00	2.469556e-05	
263	6.500000e+00	2.470562e-05	
264	6.550000e+00	2.471561e-05	
265	6.600000e+00	2.472553e-05	
266	0.000000e+00	-0.000000e+00	
267	5.000000e-02	2.395911e-06	
268	1.000000e-01	4.737981e-06	
269	1.500000e-01	7.026513e-06	
270	2.000000e-01	9.261805e-06	
271	2.500000e-01	1.144416e-05	
272	3.000000e-01	1.357386e-05	
273	3.500000e-01	1.565121e-05	
274	4.000000e-01	1.767650e-05	
275	4.500000e-01	1.965002e-05	
276	5.000000e-01	2.157206e-05	
277	5.500000e-01	2.344289e-05	
278	6.000000e-01	2.526281e-05	
279	6.500000e-01	2.703208e-05	
280	7.000000e-01	2.875100e-05	
281	7.500000e-01	3.041984e-05	
282	8.000000e-01	3.203886e-05	
283	8.500000e-01	3.360835e-05	
284	9.000000e-01	3.512858e-05	
285	9.500000e-01	3.659981e-05	
286	1.000000e+00	3.802231e-05	

Index   v-sweep         -i(vds)         
--------------------------------------------------------------------------------
287	1.050000e+00	3.939634e-05	
288	1.100000e+00	4.072217e-05	
289	1.150000e+00	4.200005e-05	
290	1.200000e+00	4.323024e-05	
291	1.250000e+00	4.441301e-05	
292	1.300000e+00	4.554860e-05	
293	1.350000e+00	4.663726e-05	
294	1.400000e+00	4.767924e-05	
295	1.450000e+00	4.867478e-05	
296	1.500000e+00	4.962412e-05	
297	1.550000e+00	5.052749e-05	
298	1.600000e+00	5.138511e-05	
299	1.650000e+00	5.219718e-05	
300	1.700000e+00	5.296387e-05	
301	1.750000e+00	5.368530e-05	
302	1.800000e+00	5.436151e-05	
303	1.850000e+00	5.499239e-05	
304	1.900000e+00	5.557757e-05	
305	1.950000e+00	5.611633e-05	
306	2.000000e+00	5.660765e-05	
307	2.050000e+00	5.705090e-05	
308	2.100000e+00	5.744700e-05	
309	2.150000e+00	5.779933e-05	
310	2.200000e+00	5.811307e-05	
311	2.250000e+00	5.839395e-05	
312	2.300000e+00	5.864723e-05	
313	2.350000e+00	5.887734e-05	
314	2.400000e+00	5.908791e-05	
315	2.450000e+00	5.928186e-05	
316	2.500000e+00	5.946154e-05	
317	2.550000e+00	5.962885e-05	
318	2.600000e+00	5.978537e-05	
319	2.650000e+00	5.993237e-05	
320	2.700000e+00	6.007095e-05	
321	2.750000e+00	6.020199e-05	
322	2.800000e+00	6.032628e-05	
323	2.850000e+00	6.044448e-05	
324	2.900000e+00	6.055714e-05	
325	2.950000e+00	6.066477e-05	
326	3.000000e+00	6.076778e-05	
327	3.050000e+00	6.086657e-05	
328	3.100000e+00	6.096145e-05	
329	3.150000e+00	6.105274e-05	
330	3.200000e+00	6.114068e-05	
331	3.250000e+00	6.122552e-05	
332	3.300000e+00	6.130747e-05	
333	3.350000e+00	6.138672e-05	
334	3.400000e+00	6.146343e-05	
335	3.450000e+00	6.153777e-05	
336	3.500000e+00	6.160989e-05	
337	3.550000e+00	6.167990e-05	
338	3.600000e+00	6.174793e-05	
339	3.650000e+00	6.181409e-05	
340	3.700000e+00	6.187848e-05	
341	3.750000e+00	6.194119e-05	
342	3.800000e+00	6.200231e-05	
343	3.850000e+00	6.206191e-05	
344	3.900000e+00	6.212008e-05	

Index   v-sweep         -i(vds)         
--------------------------------------------------------------------------------
345	3.950000e+00	6.217688e-05	
346	4.000000e+00	6.223238e-05	
347	4.050000e+00	6.228663e-05	
348	4.100000e+00	6.233969e-05	
349	4.150000e+00	6.239161e-05	
350	4.200000e+00	6.244245e-05	
351	4.250000e+00	6.249224e-05	
352	4.300000e+00	6.254104e-05	
353	4.350000e+00	6.258888e-05	
354	4.400000e+00	6.263581e-05	
355	4.450000e+00	6.268185e-05	
356	4.500000e+00	6.272704e-05	
357	4.550000e+00	6.277142e-05	
358	4.600000e+00	6.281502e-05	
359	4.650000e+00	6.285787e-05	
360	4.700000e+00	6.289999e-05	
361	4.750000e+00	6.294141e-05	
362	4.800000e+00	6.298215e-05	
363	4.850000e+00	6.302225e-05	
364	4.900000e+00	6.306172e-05	
365	4.950000e+00	6.310058e-05	
366	5.000000e+00	6.313886e-05	
367	5.050000e+00	6.317657e-05	
368	5.100000e+00	6.321374e-05	
369	5.150000e+00	6.325038e-05	
370	5.200000e+00	6.328651e-05	
371	5.250000e+00	6.332214e-05	
372	5.300000e+00	6.335730e-05	
373	5.350000e+00	6.339200e-05	
374	5.400000e+00	6.342624e-05	
375	5.450000e+00	6.346006e-05	
376	5.500000e+00	6.349345e-05	
377	5.550000e+00	6.352643e-05	
378	5.600000e+00	6.355902e-05	
379	5.650000e+00	6.359122e-05	
380	5.700000e+00	6.362306e-05	
381	5.750000e+00	6.365453e-05	
382	5.800000e+00	6.368565e-05	
383	5.850000e+00	6.371643e-05	
384	5.900000e+00	6.374687e-05	
385	5.950000e+00	6.377700e-05	
386	6.000000e+00	6.380682e-05	
387	6.050000e+00	6.383633e-05	
388	6.100000e+00	6.386554e-05	
389	6.150000e+00	6.389447e-05	
390	6.200000e+00	6.392312e-05	
391	6.250000e+00	6.395150e-05	
392	6.300000e+00	6.397961e-05	
393	6.350000e+00	6.400746e-05	
394	6.400000e+00	6.403507e-05	
395	6.450000e+00	6.406243e-05	
396	6.500000e+00	6.408955e-05	
397	6.550000e+00	6.411644e-05	
398	6.600000e+00	6.414310e-05	
399	0.000000e+00	-0.000000e+00	
400	5.000000e-02	3.024125e-06	
401	1.000000e-01	6.000206e-06	
402	1.500000e-01	8.928495e-06	

Index   v-sweep         -i(vds)         
--------------------------------------------------------------------------------
403	2.000000e-01	1.180924e-05	
404	2.500000e-01	1.464271e-05	
405	3.000000e-01	1.742913e-05	
406	3.500000e-01	2.016875e-05	
407	4.000000e-01	2.286183e-05	
408	4.500000e-01	2.550861e-05	
409	5.000000e-01	2.810932e-05	
410	5.500000e-01	3.066420e-05	
411	6.000000e-01	3.317351e-05	
412	6.500000e-01	3.563746e-05	
413	7.000000e-01	3.805630e-05	
414	7.500000e-01	4.043026e-05	
415	8.000000e-01	4.275957e-05	
416	8.500000e-01	4.504446e-05	
417	9.000000e-01	4.728516e-05	
418	9.500000e-01	4.948190e-05	
419	1.000000e+00	5.163491e-05	
420	1.050000e+00	5.374440e-05	
421	1.100000e+00	5.581059e-05	
422	1.150000e+00	5.783372e-05	
423	1.200000e+00	5.981400e-05	
424	1.250000e+00	6.175164e-05	
425	1.300000e+00	6.364687e-05	
426	1.350000e+00	6.549989e-05	
427	1.400000e+00	6.731092e-05	
428	1.450000e+00	6.908018e-05	
429	1.500000e+00	7.080786e-05	
430	1.550000e+00	7.249419e-05	
431	1.600000e+00	7.413936e-05	
432	1.650000e+00	7.574358e-05	
433	1.700000e+00	7.730706e-05	
434	1.750000e+00	7.883000e-05	
435	1.800000e+00	8.031259e-05	
436	1.850000e+00	8.175504e-05	
437	1.900000e+00	8.315753e-05	
438	1.950000e+00	8.452027e-05	
439	2.000000e+00	8.584344e-05	
440	2.050000e+00	8.712722e-05	
441	2.100000e+00	8.837180e-05	
442	2.150000e+00	8.957735e-05	
443	2.200000e+00	9.074403e-05	
444	2.250000e+00	9.187200e-05	
445	2.300000e+00	9.296139e-05	
446	2.350000e+00	9.401230e-05	
447	2.400000e+00	9.502481e-05	
448	2.450000e+00	9.599892e-05	
449	2.500000e+00	9.693453e-05	
450	2.550000e+00	9.783135e-05	
451	2.600000e+00	9.868885e-05	
452	2.650000e+00	9.950601e-05	
453	2.700000e+00	1.002811e-04	
454	2.750000e+00	1.010116e-04	
455	2.800000e+00	1.016942e-04	
456	2.850000e+00	1.023253e-04	
457	2.900000e+00	1.029033e-04	
458	2.950000e+00	1.034292e-04	
459	3.000000e+00	1.039065e-04	
460	3.050000e+00	1.043403e-04	

Index   v-sweep         -i(vds)         
--------------------------------------------------------------------------------
461	3.100000e+00	1.047361e-04	
462	3.150000e+00	1.050989e-04	
463	3.200000e+00	1.054333e-04	
464	3.250000e+00	1.057431e-04	
465	3.300000e+00	1.060314e-04	
466	3.350000e+00	1.063008e-04	
467	3.400000e+00	1.065537e-04	
468	3.450000e+00	1.067919e-04	
469	3.500000e+00	1.070169e-04	
470	3.550000e+00	1.072302e-04	
471	3.600000e+00	1.074328e-04	
472	3.650000e+00	1.076258e-04	
473	3.700000e+00	1.078100e-04	
474	3.750000e+00	1.079862e-04	
475	3.800000e+00	1.081551e-04	
476	3.850000e+00	1.083171e-04	
477	3.900000e+00	1.084730e-04	
478	3.950000e+00	1.086230e-04	
479	4.000000e+00	1.087677e-04	
480	4.050000e+00	1.089074e-04	
481	4.100000e+00	1.090424e-04	
482	4.150000e+00	1.091731e-04	
483	4.200000e+00	1.092996e-04	
484	4.250000e+00	1.094223e-04	
485	4.300000e+00	1.095414e-04	
486	4.350000e+00	1.096571e-04	
487	4.400000e+00	1.097696e-04	
488	4.450000e+00	1.098790e-04	
489	4.500000e+00	1.099855e-04	
490	4.550000e+00	1.100893e-04	
491	4.600000e+00	1.101905e-04	
492	4.650000e+00	1.102892e-04	
493	4.700000e+00	1.103856e-04	
494	4.750000e+00	1.104797e-04	
495	4.800000e+00	1.105717e-04	
496	4.850000e+00	1.106617e-04	
497	4.900000e+00	1.107497e-04	
498	4.950000e+00	1.108359e-04	
499	5.000000e+00	1.109202e-04	
500	5.050000e+00	1.110029e-04	
501	5.100000e+00	1.110839e-04	
502	5.150000e+00	1.111634e-04	
503	5.200000e+00	1.112414e-04	
504	5.250000e+00	1.113179e-04	
505	5.300000e+00	1.113930e-04	
506	5.350000e+00	1.114668e-04	
507	5.400000e+00	1.115393e-04	
508	5.450000e+00	1.116105e-04	
509	5.500000e+00	1.116806e-04	
510	5.550000e+00	1.117495e-04	
511	5.600000e+00	1.118173e-04	
512	5.650000e+00	1.118840e-04	
513	5.700000e+00	1.119497e-04	
514	5.750000e+00	1.120145e-04	
515	5.800000e+00	1.120782e-04	
516	5.850000e+00	1.121410e-04	
517	5.900000e+00	1.122029e-04	
518	5.950000e+00	1.122640e-04	

Index   v-sweep         -i(vds)         
--------------------------------------------------------------------------------
519	6.000000e+00	1.123242e-04	
520	6.050000e+00	1.123836e-04	
521	6.100000e+00	1.124422e-04	
522	6.150000e+00	1.125001e-04	
523	6.200000e+00	1.125572e-04	
524	6.250000e+00	1.126136e-04	
525	6.300000e+00	1.126693e-04	
526	6.350000e+00	1.127243e-04	
527	6.400000e+00	1.127787e-04	
528	6.450000e+00	1.128325e-04	
529	6.500000e+00	1.128856e-04	
530	6.550000e+00	1.129382e-04	
531	6.600000e+00	1.129901e-04	
532	0.000000e+00	-0.000000e+00	
533	5.000000e-02	3.492880e-06	
534	1.000000e-01	6.943100e-06	
535	1.500000e-01	1.035087e-05	
536	2.000000e-01	1.371640e-05	
537	2.500000e-01	1.703988e-05	
538	3.000000e-01	2.032153e-05	
539	3.500000e-01	2.356155e-05	
540	4.000000e-01	2.676014e-05	
541	4.500000e-01	2.991750e-05	
542	5.000000e-01	3.303382e-05	
543	5.500000e-01	3.610931e-05	
544	6.000000e-01	3.914416e-05	
545	6.500000e-01	4.213856e-05	
546	7.000000e-01	4.509272e-05	
547	7.500000e-01	4.800682e-05	
548	8.000000e-01	5.088105e-05	
549	8.500000e-01	5.371560e-05	
550	9.000000e-01	5.651067e-05	
551	9.500000e-01	5.926644e-05	
552	1.000000e+00	6.198309e-05	
553	1.050000e+00	6.466081e-05	
554	1.100000e+00	6.729979e-05	
555	1.150000e+00	6.990021e-05	
556	1.200000e+00	7.246224e-05	
557	1.250000e+00	7.498608e-05	
558	1.300000e+00	7.747190e-05	
559	1.350000e+00	7.991987e-05	
560	1.400000e+00	8.233018e-05	
561	1.450000e+00	8.470300e-05	
562	1.500000e+00	8.703851e-05	
563	1.550000e+00	8.933687e-05	
564	1.600000e+00	9.159827e-05	
565	1.650000e+00	9.382287e-05	
566	1.700000e+00	9.601085e-05	
567	1.750000e+00	9.816237e-05	
568	1.800000e+00	1.002776e-04	
569	1.850000e+00	1.023567e-04	
570	1.900000e+00	1.043999e-04	
571	1.950000e+00	1.064072e-04	
572	2.000000e+00	1.083790e-04	
573	2.050000e+00	1.103152e-04	
574	2.100000e+00	1.122162e-04	
575	2.150000e+00	1.140820e-04	
576	2.200000e+00	1.159129e-04	

Index   v-sweep         -i(vds)         
--------------------------------------------------------------------------------
577	2.250000e+00	1.177089e-04	
578	2.300000e+00	1.194703e-04	
579	2.350000e+00	1.211971e-04	
580	2.400000e+00	1.228896e-04	
581	2.450000e+00	1.245479e-04	
582	2.500000e+00	1.261721e-04	
583	2.550000e+00	1.277624e-04	
584	2.600000e+00	1.293189e-04	
585	2.650000e+00	1.308419e-04	
586	2.700000e+00	1.323313e-04	
587	2.750000e+00	1.337874e-04	
588	2.800000e+00	1.352103e-04	
589	2.850000e+00	1.366001e-04	
590	2.900000e+00	1.379569e-04	
591	2.950000e+00	1.392809e-04	
592	3.000000e+00	1.405721e-04	
593	3.050000e+00	1.418305e-04	
594	3.100000e+00	1.430563e-04	
595	3.150000e+00	1.442493e-04	
596	3.200000e+00	1.454095e-04	
597	3.250000e+00	1.465367e-04	
598	3.300000e+00	1.476305e-04	
599	3.350000e+00	1.486902e-04	
600	3.400000e+00	1.497147e-04	
601	3.450000e+00	1.507023e-04	
602	3.500000e+00	1.516503e-04	
603	3.550000e+00	1.525549e-04	
604	3.600000e+00	1.534114e-04	
605	3.650000e+00	1.542152e-04	
606	3.700000e+00	1.549625e-04	
607	3.750000e+00	1.556527e-04	
608	3.800000e+00	1.562877e-04	
609	3.850000e+00	1.568713e-04	
610	3.900000e+00	1.574088e-04	
611	3.950000e+00	1.579052e-04	
612	4.000000e+00	1.583653e-04	
613	4.050000e+00	1.587936e-04	
614	4.100000e+00	1.591938e-04	
615	4.150000e+00	1.595690e-04	
616	4.200000e+00	1.599221e-04	
617	4.250000e+00	1.602555e-04	
618	4.300000e+00	1.605711e-04	
619	4.350000e+00	1.608706e-04	
620	4.400000e+00	1.611557e-04	
621	4.450000e+00	1.614277e-04	
622	4.500000e+00	1.616876e-04	
623	4.550000e+00	1.619364e-04	
624	4.600000e+00	1.621751e-04	
625	4.650000e+00	1.624045e-04	
626	4.700000e+00	1.626252e-04	
627	4.750000e+00	1.628379e-04	
628	4.800000e+00	1.630431e-04	
629	4.850000e+00	1.632413e-04	
630	4.900000e+00	1.634330e-04	
631	4.950000e+00	1.636187e-04	
632	5.000000e+00	1.637986e-04	
633	5.050000e+00	1.639731e-04	
634	5.100000e+00	1.641426e-04	

Index   v-sweep         -i(vds)         
--------------------------------------------------------------------------------
635	5.150000e+00	1.643072e-04	
636	5.200000e+00	1.644674e-04	
637	5.250000e+00	1.646233e-04	
638	5.300000e+00	1.647751e-04	
639	5.350000e+00	1.649231e-04	
640	5.400000e+00	1.650674e-04	
641	5.450000e+00	1.652082e-04	
642	5.500000e+00	1.653457e-04	
643	5.550000e+00	1.654801e-04	
644	5.600000e+00	1.656115e-04	
645	5.650000e+00	1.657400e-04	
646	5.700000e+00	1.658657e-04	
647	5.750000e+00	1.659888e-04	
648	5.800000e+00	1.661094e-04	
649	5.850000e+00	1.662276e-04	
650	5.900000e+00	1.663434e-04	
651	5.950000e+00	1.664570e-04	
652	6.000000e+00	1.665685e-04	
653	6.050000e+00	1.666780e-04	
654	6.100000e+00	1.667855e-04	
655	6.150000e+00	1.668911e-04	
656	6.200000e+00	1.669948e-04	
657	6.250000e+00	1.670969e-04	
658	6.300000e+00	1.671972e-04	
659	6.350000e+00	1.672959e-04	
660	6.400000e+00	1.673930e-04	
661	6.450000e+00	1.674886e-04	
662	6.500000e+00	1.675827e-04	
663	6.550000e+00	1.676755e-04	
664	6.600000e+00	1.677668e-04	
665	0.000000e+00	-0.000000e+00	
666	5.000000e-02	3.842853e-06	
667	1.000000e-01	7.647948e-06	
668	1.500000e-01	1.141545e-05	
669	2.000000e-01	1.514554e-05	
670	2.500000e-01	1.883837e-05	
671	3.000000e-01	2.249411e-05	
672	3.500000e-01	2.611292e-05	
673	4.000000e-01	2.969498e-05	
674	4.500000e-01	3.324044e-05	
675	5.000000e-01	3.674946e-05	
676	5.500000e-01	4.022221e-05	
677	6.000000e-01	4.365884e-05	
678	6.500000e-01	4.705952e-05	
679	7.000000e-01	5.042439e-05	
680	7.500000e-01	5.375363e-05	
681	8.000000e-01	5.704739e-05	
682	8.500000e-01	6.030581e-05	
683	9.000000e-01	6.352906e-05	
684	9.500000e-01	6.671729e-05	
685	1.000000e+00	6.987065e-05	
686	1.050000e+00	7.298930e-05	
687	1.100000e+00	7.607338e-05	
688	1.150000e+00	7.912304e-05	
689	1.200000e+00	8.213844e-05	
690	1.250000e+00	8.511971e-05	
691	1.300000e+00	8.806702e-05	
692	1.350000e+00	9.098050e-05	

Index   v-sweep         -i(vds)         
--------------------------------------------------------------------------------
693	1.400000e+00	9.386030e-05	
694	1.450000e+00	9.670657e-05	
695	1.500000e+00	9.951945e-05	
696	1.550000e+00	1.022991e-04	
697	1.600000e+00	1.050456e-04	
698	1.650000e+00	1.077592e-04	
699	1.700000e+00	1.104399e-04	
700	1.750000e+00	1.130880e-04	
701	1.800000e+00	1.157035e-04	
702	1.850000e+00	1.182866e-04	
703	1.900000e+00	1.208374e-04	
704	1.950000e+00	1.233562e-04	
705	2.000000e+00	1.258429e-04	
706	2.050000e+00	1.282977e-04	
707	2.100000e+00	1.307209e-04	
708	2.150000e+00	1.331124e-04	
709	2.200000e+00	1.354725e-04	
710	2.250000e+00	1.378012e-04	
711	2.300000e+00	1.400988e-04	
712	2.350000e+00	1.423653e-04	
713	2.400000e+00	1.446008e-04	
714	2.450000e+00	1.468056e-04	
715	2.500000e+00	1.489796e-04	
716	2.550000e+00	1.511231e-04	
717	2.600000e+00	1.532362e-04	
718	2.650000e+00	1.553190e-04	
719	2.700000e+00	1.573716e-04	
720	2.750000e+00	1.593942e-04	
721	2.800000e+00	1.613868e-04	
722	2.850000e+00	1.633496e-04	
723	2.900000e+00	1.652828e-04	
724	2.950000e+00	1.671863e-04	
725	3.000000e+00	1.690605e-04	
726	3.050000e+00	1.709053e-04	
727	3.100000e+00	1.727209e-04	
728	3.150000e+00	1.745074e-04	
729	3.200000e+00	1.762649e-04	
730	3.250000e+00	1.779935e-04	
731	3.300000e+00	1.796934e-04	
732	3.350000e+00	1.813647e-04	
733	3.400000e+00	1.830074e-04	
734	3.450000e+00	1.846216e-04	
735	3.500000e+00	1.862075e-04	
736	3.550000e+00	1.877652e-04	
737	3.600000e+00	1.892947e-04	
738	3.650000e+00	1.907961e-04	
739	3.700000e+00	1.922695e-04	
740	3.750000e+00	1.937149e-04	
741	3.800000e+00	1.951323e-04	
742	3.850000e+00	1.965218e-04	
743	3.900000e+00	1.978834e-04	
744	3.950000e+00	1.992168e-04	
745	4.000000e+00	2.005220e-04	
746	4.050000e+00	2.017985e-04	
747	4.100000e+00	2.030460e-04	
748	4.150000e+00	2.042635e-04	
749	4.200000e+00	2.054499e-04	
750	4.250000e+00	2.066033e-04	

Index   v-sweep         -i(vds)         
--------------------------------------------------------------------------------
751	4.300000e+00	2.077210e-04	
752	4.350000e+00	2.087992e-04	
753	4.400000e+00	2.098330e-04	
754	4.450000e+00	2.108170e-04	
755	4.500000e+00	2.117459e-04	
756	4.550000e+00	2.126163e-04	
757	4.600000e+00	2.134273e-04	
758	4.650000e+00	2.141804e-04	
759	4.700000e+00	2.148792e-04	
760	4.750000e+00	2.155283e-04	
761	4.800000e+00	2.161326e-04	
762	4.850000e+00	2.166966e-04	
763	4.900000e+00	2.172247e-04	
764	4.950000e+00	2.177207e-04	
765	5.000000e+00	2.181880e-04	
766	5.050000e+00	2.186296e-04	
767	5.100000e+00	2.190479e-04	
768	5.150000e+00	2.194452e-04	
769	5.200000e+00	2.198234e-04	
770	5.250000e+00	2.201843e-04	
771	5.300000e+00	2.205293e-04	
772	5.350000e+00	2.208598e-04	
773	5.400000e+00	2.211768e-04	
774	5.450000e+00	2.214815e-04	
775	5.500000e+00	2.217746e-04	
776	5.550000e+00	2.220572e-04	
777	5.600000e+00	2.223298e-04	
778	5.650000e+00	2.225933e-04	
779	5.700000e+00	2.228480e-04	
780	5.750000e+00	2.230947e-04	
781	5.800000e+00	2.233338e-04	
782	5.850000e+00	2.235657e-04	
783	5.900000e+00	2.237910e-04	
784	5.950000e+00	2.240098e-04	
785	6.000000e+00	2.242227e-04	
786	6.050000e+00	2.244299e-04	
787	6.100000e+00	2.246317e-04	
788	6.150000e+00	2.248283e-04	
789	6.200000e+00	2.250202e-04	
790	6.250000e+00	2.252074e-04	
791	6.300000e+00	2.253902e-04	
792	6.350000e+00	2.255688e-04	
793	6.400000e+00	2.257434e-04	
794	6.450000e+00	2.259141e-04	
795	6.500000e+00	2.260813e-04	
796	6.550000e+00	2.262449e-04	
797	6.600000e+00	2.264052e-04	
Note: No ".plot", ".print", or ".fourier" lines; no simulations run
