
Note: Compatibility modes selected: hs

Warning: m=xx on .subckt line will override multiplier m hierarchy!


Circuit: ***************************

Doing analysis at TEMP = 25.000000 and TNOM = 25.000000


No. of Data Rows : 798
                          ***************************
                          DC transfer characteristic  Mon Jan  9 13:58:05  2023
--------------------------------------------------------------------------------
Index   v-sweep         -i(vds)         
--------------------------------------------------------------------------------
0	0.000000e+00	-0.000000e+00	
1	5.000000e-02	7.166504e-07	
2	1.000000e-01	1.319339e-06	
3	1.500000e-01	1.809047e-06	
4	2.000000e-01	2.187090e-06	
5	2.500000e-01	2.456108e-06	
6	3.000000e-01	2.624769e-06	
7	3.500000e-01	2.720474e-06	
8	4.000000e-01	2.782095e-06	
9	4.500000e-01	2.829914e-06	
10	5.000000e-01	2.870261e-06	
11	5.500000e-01	2.905546e-06	
12	6.000000e-01	2.937040e-06	
13	6.500000e-01	2.965544e-06	
14	7.000000e-01	2.991618e-06	
15	7.500000e-01	3.015671e-06	
16	8.000000e-01	3.038015e-06	
17	8.500000e-01	3.058895e-06	
18	9.000000e-01	3.078505e-06	
19	9.500000e-01	3.097004e-06	
20	1.000000e+00	3.114522e-06	
21	1.050000e+00	3.131167e-06	
22	1.100000e+00	3.147031e-06	
23	1.150000e+00	3.162191e-06	
24	1.200000e+00	3.176715e-06	
25	1.250000e+00	3.190660e-06	
26	1.300000e+00	3.204076e-06	
27	1.350000e+00	3.217007e-06	
28	1.400000e+00	3.229492e-06	
29	1.450000e+00	3.241565e-06	
30	1.500000e+00	3.253256e-06	
31	1.550000e+00	3.264593e-06	
32	1.600000e+00	3.275601e-06	
33	1.650000e+00	3.286300e-06	
34	1.700000e+00	3.296712e-06	
35	1.750000e+00	3.306854e-06	
36	1.800000e+00	3.316742e-06	
37	1.850000e+00	3.326392e-06	
38	1.900000e+00	3.335816e-06	
39	1.950000e+00	3.345029e-06	
40	2.000000e+00	3.354040e-06	
41	2.050000e+00	3.362862e-06	
42	2.100000e+00	3.371503e-06	
43	2.150000e+00	3.379973e-06	
44	2.200000e+00	3.388281e-06	
45	2.250000e+00	3.396433e-06	
46	2.300000e+00	3.404438e-06	
47	2.350000e+00	3.412302e-06	
48	2.400000e+00	3.420032e-06	
49	2.450000e+00	3.427634e-06	
50	2.500000e+00	3.435113e-06	
51	2.550000e+00	3.442475e-06	
52	2.600000e+00	3.449724e-06	
53	2.650000e+00	3.456865e-06	
54	2.700000e+00	3.463903e-06	

Index   v-sweep         -i(vds)         
--------------------------------------------------------------------------------
55	2.750000e+00	3.470842e-06	
56	2.800000e+00	3.477685e-06	
57	2.850000e+00	3.484437e-06	
58	2.900000e+00	3.491101e-06	
59	2.950000e+00	3.497679e-06	
60	3.000000e+00	3.504176e-06	
61	3.050000e+00	3.510595e-06	
62	3.100000e+00	3.516938e-06	
63	3.150000e+00	3.523207e-06	
64	3.200000e+00	3.529407e-06	
65	3.250000e+00	3.535538e-06	
66	3.300000e+00	3.541603e-06	
67	3.350000e+00	3.547605e-06	
68	3.400000e+00	3.553546e-06	
69	3.450000e+00	3.559428e-06	
70	3.500000e+00	3.565252e-06	
71	3.550000e+00	3.571021e-06	
72	3.600000e+00	3.576737e-06	
73	3.650000e+00	3.582400e-06	
74	3.700000e+00	3.588013e-06	
75	3.750000e+00	3.593578e-06	
76	3.800000e+00	3.599095e-06	
77	3.850000e+00	3.604567e-06	
78	3.900000e+00	3.609995e-06	
79	3.950000e+00	3.615379e-06	
80	4.000000e+00	3.620722e-06	
81	4.050000e+00	3.626024e-06	
82	4.100000e+00	3.631287e-06	
83	4.150000e+00	3.636512e-06	
84	4.200000e+00	3.641700e-06	
85	4.250000e+00	3.646853e-06	
86	4.300000e+00	3.651970e-06	
87	4.350000e+00	3.657053e-06	
88	4.400000e+00	3.662103e-06	
89	4.450000e+00	3.667122e-06	
90	4.500000e+00	3.672109e-06	
91	4.550000e+00	3.677066e-06	
92	4.600000e+00	3.681993e-06	
93	4.650000e+00	3.686892e-06	
94	4.700000e+00	3.691763e-06	
95	4.750000e+00	3.696606e-06	
96	4.800000e+00	3.701423e-06	
97	4.850000e+00	3.706215e-06	
98	4.900000e+00	3.710981e-06	
99	4.950000e+00	3.715723e-06	
100	5.000000e+00	3.720441e-06	
101	5.050000e+00	3.725136e-06	
102	5.100000e+00	3.729808e-06	
103	5.150000e+00	3.734458e-06	
104	5.200000e+00	3.739087e-06	
105	5.250000e+00	3.743694e-06	
106	5.300000e+00	3.748282e-06	
107	5.350000e+00	3.752849e-06	
108	5.400000e+00	3.757397e-06	
109	5.450000e+00	3.761926e-06	
110	5.500000e+00	3.766436e-06	
111	5.550000e+00	3.770929e-06	
112	5.600000e+00	3.775403e-06	

Index   v-sweep         -i(vds)         
--------------------------------------------------------------------------------
113	5.650000e+00	3.779861e-06	
114	5.700000e+00	3.784301e-06	
115	5.750000e+00	3.788725e-06	
116	5.800000e+00	3.793134e-06	
117	5.850000e+00	3.797526e-06	
118	5.900000e+00	3.801903e-06	
119	5.950000e+00	3.806265e-06	
120	6.000000e+00	3.810613e-06	
121	6.050000e+00	3.814946e-06	
122	6.100000e+00	3.819266e-06	
123	6.150000e+00	3.823571e-06	
124	6.200000e+00	3.827863e-06	
125	6.250000e+00	3.832143e-06	
126	6.300000e+00	3.836409e-06	
127	6.350000e+00	3.840663e-06	
128	6.400000e+00	3.844905e-06	
129	6.450000e+00	3.849135e-06	
130	6.500000e+00	3.853353e-06	
131	6.550000e+00	3.857559e-06	
132	6.600000e+00	3.861755e-06	
133	0.000000e+00	-0.000000e+00	
134	5.000000e-02	2.744840e-06	
135	1.000000e-01	5.377396e-06	
136	1.500000e-01	7.898706e-06	
137	2.000000e-01	1.030980e-05	
138	2.500000e-01	1.261168e-05	
139	3.000000e-01	1.480537e-05	
140	3.500000e-01	1.689184e-05	
141	4.000000e-01	1.887207e-05	
142	4.500000e-01	2.074704e-05	
143	5.000000e-01	2.251769e-05	
144	5.500000e-01	2.418499e-05	
145	6.000000e-01	2.574985e-05	
146	6.500000e-01	2.721322e-05	
147	7.000000e-01	2.857601e-05	
148	7.500000e-01	2.983913e-05	
149	8.000000e-01	3.100348e-05	
150	8.500000e-01	3.206995e-05	
151	9.000000e-01	3.303939e-05	
152	9.500000e-01	3.391260e-05	
153	1.000000e+00	3.469027e-05	
154	1.050000e+00	3.537325e-05	
155	1.100000e+00	3.596403e-05	
156	1.150000e+00	3.646981e-05	
157	1.200000e+00	3.690320e-05	
158	1.250000e+00	3.727837e-05	
159	1.300000e+00	3.760757e-05	
160	1.350000e+00	3.790025e-05	
161	1.400000e+00	3.816350e-05	
162	1.450000e+00	3.840263e-05	
163	1.500000e+00	3.862168e-05	
164	1.550000e+00	3.882376e-05	
165	1.600000e+00	3.901135e-05	
166	1.650000e+00	3.918640e-05	
167	1.700000e+00	3.935051e-05	
168	1.750000e+00	3.950499e-05	
169	1.800000e+00	3.965093e-05	
170	1.850000e+00	3.978925e-05	

Index   v-sweep         -i(vds)         
--------------------------------------------------------------------------------
171	1.900000e+00	3.992072e-05	
172	1.950000e+00	4.004602e-05	
173	2.000000e+00	4.016570e-05	
174	2.050000e+00	4.028026e-05	
175	2.100000e+00	4.039015e-05	
176	2.150000e+00	4.049573e-05	
177	2.200000e+00	4.059735e-05	
178	2.250000e+00	4.069531e-05	
179	2.300000e+00	4.078986e-05	
180	2.350000e+00	4.088126e-05	
181	2.400000e+00	4.096970e-05	
182	2.450000e+00	4.105539e-05	
183	2.500000e+00	4.113851e-05	
184	2.550000e+00	4.121920e-05	
185	2.600000e+00	4.129762e-05	
186	2.650000e+00	4.137389e-05	
187	2.700000e+00	4.144814e-05	
188	2.750000e+00	4.152048e-05	
189	2.800000e+00	4.159101e-05	
190	2.850000e+00	4.165983e-05	
191	2.900000e+00	4.172702e-05	
192	2.950000e+00	4.179267e-05	
193	3.000000e+00	4.185685e-05	
194	3.050000e+00	4.191962e-05	
195	3.100000e+00	4.198107e-05	
196	3.150000e+00	4.204124e-05	
197	3.200000e+00	4.210020e-05	
198	3.250000e+00	4.215799e-05	
199	3.300000e+00	4.221467e-05	
200	3.350000e+00	4.227029e-05	
201	3.400000e+00	4.232490e-05	
202	3.450000e+00	4.237852e-05	
203	3.500000e+00	4.243121e-05	
204	3.550000e+00	4.248299e-05	
205	3.600000e+00	4.253392e-05	
206	3.650000e+00	4.258401e-05	
207	3.700000e+00	4.263330e-05	
208	3.750000e+00	4.268183e-05	
209	3.800000e+00	4.272961e-05	
210	3.850000e+00	4.277668e-05	
211	3.900000e+00	4.282307e-05	
212	3.950000e+00	4.286879e-05	
213	4.000000e+00	4.291387e-05	
214	4.050000e+00	4.295834e-05	
215	4.100000e+00	4.300221e-05	
216	4.150000e+00	4.304551e-05	
217	4.200000e+00	4.308826e-05	
218	4.250000e+00	4.313047e-05	
219	4.300000e+00	4.317216e-05	
220	4.350000e+00	4.321335e-05	
221	4.400000e+00	4.325405e-05	
222	4.450000e+00	4.329429e-05	
223	4.500000e+00	4.333407e-05	
224	4.550000e+00	4.337341e-05	
225	4.600000e+00	4.341233e-05	
226	4.650000e+00	4.345083e-05	
227	4.700000e+00	4.348893e-05	
228	4.750000e+00	4.352665e-05	

Index   v-sweep         -i(vds)         
--------------------------------------------------------------------------------
229	4.800000e+00	4.356399e-05	
230	4.850000e+00	4.360097e-05	
231	4.900000e+00	4.363759e-05	
232	4.950000e+00	4.367388e-05	
233	5.000000e+00	4.370982e-05	
234	5.050000e+00	4.374545e-05	
235	5.100000e+00	4.378076e-05	
236	5.150000e+00	4.381577e-05	
237	5.200000e+00	4.385048e-05	
238	5.250000e+00	4.388490e-05	
239	5.300000e+00	4.391905e-05	
240	5.350000e+00	4.395292e-05	
241	5.400000e+00	4.398653e-05	
242	5.450000e+00	4.401988e-05	
243	5.500000e+00	4.405298e-05	
244	5.550000e+00	4.408584e-05	
245	5.600000e+00	4.411846e-05	
246	5.650000e+00	4.415085e-05	
247	5.700000e+00	4.418302e-05	
248	5.750000e+00	4.421497e-05	
249	5.800000e+00	4.424670e-05	
250	5.850000e+00	4.427823e-05	
251	5.900000e+00	4.430956e-05	
252	5.950000e+00	4.434069e-05	
253	6.000000e+00	4.437163e-05	
254	6.050000e+00	4.440238e-05	
255	6.100000e+00	4.443295e-05	
256	6.150000e+00	4.446335e-05	
257	6.200000e+00	4.449357e-05	
258	6.250000e+00	4.452362e-05	
259	6.300000e+00	4.455351e-05	
260	6.350000e+00	4.458323e-05	
261	6.400000e+00	4.461280e-05	
262	6.450000e+00	4.464222e-05	
263	6.500000e+00	4.467149e-05	
264	6.550000e+00	4.470061e-05	
265	6.600000e+00	4.472959e-05	
266	0.000000e+00	-0.000000e+00	
267	5.000000e-02	4.194417e-06	
268	1.000000e-01	8.284029e-06	
269	1.500000e-01	1.226981e-05	
270	2.000000e-01	1.615272e-05	
271	2.500000e-01	1.993370e-05	
272	3.000000e-01	2.361369e-05	
273	3.500000e-01	2.719362e-05	
274	4.000000e-01	3.067440e-05	
275	4.500000e-01	3.405694e-05	
276	5.000000e-01	3.734211e-05	
277	5.500000e-01	4.053081e-05	
278	6.000000e-01	4.362391e-05	
279	6.500000e-01	4.662225e-05	
280	7.000000e-01	4.952670e-05	
281	7.500000e-01	5.233808e-05	
282	8.000000e-01	5.505723e-05	
283	8.500000e-01	5.768496e-05	
284	9.000000e-01	6.022208e-05	
285	9.500000e-01	6.266938e-05	
286	1.000000e+00	6.502765e-05	

Index   v-sweep         -i(vds)         
--------------------------------------------------------------------------------
287	1.050000e+00	6.729764e-05	
288	1.100000e+00	6.948012e-05	
289	1.150000e+00	7.157581e-05	
290	1.200000e+00	7.358543e-05	
291	1.250000e+00	7.550965e-05	
292	1.300000e+00	7.734907e-05	
293	1.350000e+00	7.910424e-05	
294	1.400000e+00	8.077550e-05	
295	1.450000e+00	8.236294e-05	
296	1.500000e+00	8.386608e-05	
297	1.550000e+00	8.528337e-05	
298	1.600000e+00	8.661134e-05	
299	1.650000e+00	8.784348e-05	
300	1.700000e+00	8.897060e-05	
301	1.750000e+00	8.998493e-05	
302	1.800000e+00	9.088648e-05	
303	1.850000e+00	9.168453e-05	
304	1.900000e+00	9.239329e-05	
305	1.950000e+00	9.302725e-05	
306	2.000000e+00	9.359903e-05	
307	2.050000e+00	9.411895e-05	
308	2.100000e+00	9.459523e-05	
309	2.150000e+00	9.503443e-05	
310	2.200000e+00	9.544181e-05	
311	2.250000e+00	9.582163e-05	
312	2.300000e+00	9.617736e-05	
313	2.350000e+00	9.651187e-05	
314	2.400000e+00	9.682757e-05	
315	2.450000e+00	9.712646e-05	
316	2.500000e+00	9.741026e-05	
317	2.550000e+00	9.768043e-05	
318	2.600000e+00	9.793824e-05	
319	2.650000e+00	9.818479e-05	
320	2.700000e+00	9.842103e-05	
321	2.750000e+00	9.864780e-05	
322	2.800000e+00	9.886585e-05	
323	2.850000e+00	9.907583e-05	
324	2.900000e+00	9.927834e-05	
325	2.950000e+00	9.947390e-05	
326	3.000000e+00	9.966298e-05	
327	3.050000e+00	9.984601e-05	
328	3.100000e+00	1.000234e-04	
329	3.150000e+00	1.001954e-04	
330	3.200000e+00	1.003625e-04	
331	3.250000e+00	1.005248e-04	
332	3.300000e+00	1.006827e-04	
333	3.350000e+00	1.008364e-04	
334	3.400000e+00	1.009862e-04	
335	3.450000e+00	1.011321e-04	
336	3.500000e+00	1.012746e-04	
337	3.550000e+00	1.014136e-04	
338	3.600000e+00	1.015494e-04	
339	3.650000e+00	1.016822e-04	
340	3.700000e+00	1.018120e-04	
341	3.750000e+00	1.019390e-04	
342	3.800000e+00	1.020634e-04	
343	3.850000e+00	1.021852e-04	
344	3.900000e+00	1.023046e-04	

Index   v-sweep         -i(vds)         
--------------------------------------------------------------------------------
345	3.950000e+00	1.024217e-04	
346	4.000000e+00	1.025365e-04	
347	4.050000e+00	1.026492e-04	
348	4.100000e+00	1.027599e-04	
349	4.150000e+00	1.028686e-04	
350	4.200000e+00	1.029754e-04	
351	4.250000e+00	1.030803e-04	
352	4.300000e+00	1.031836e-04	
353	4.350000e+00	1.032851e-04	
354	4.400000e+00	1.033851e-04	
355	4.450000e+00	1.034835e-04	
356	4.500000e+00	1.035804e-04	
357	4.550000e+00	1.036758e-04	
358	4.600000e+00	1.037699e-04	
359	4.650000e+00	1.038626e-04	
360	4.700000e+00	1.039540e-04	
361	4.750000e+00	1.040441e-04	
362	4.800000e+00	1.041331e-04	
363	4.850000e+00	1.042209e-04	
364	4.900000e+00	1.043076e-04	
365	4.950000e+00	1.043931e-04	
366	5.000000e+00	1.044777e-04	
367	5.050000e+00	1.045612e-04	
368	5.100000e+00	1.046437e-04	
369	5.150000e+00	1.047252e-04	
370	5.200000e+00	1.048059e-04	
371	5.250000e+00	1.048856e-04	
372	5.300000e+00	1.049645e-04	
373	5.350000e+00	1.050425e-04	
374	5.400000e+00	1.051198e-04	
375	5.450000e+00	1.051962e-04	
376	5.500000e+00	1.052719e-04	
377	5.550000e+00	1.053468e-04	
378	5.600000e+00	1.054210e-04	
379	5.650000e+00	1.054946e-04	
380	5.700000e+00	1.055674e-04	
381	5.750000e+00	1.056396e-04	
382	5.800000e+00	1.057111e-04	
383	5.850000e+00	1.057821e-04	
384	5.900000e+00	1.058524e-04	
385	5.950000e+00	1.059221e-04	
386	6.000000e+00	1.059913e-04	
387	6.050000e+00	1.060599e-04	
388	6.100000e+00	1.061280e-04	
389	6.150000e+00	1.061956e-04	
390	6.200000e+00	1.062627e-04	
391	6.250000e+00	1.063292e-04	
392	6.300000e+00	1.063953e-04	
393	6.350000e+00	1.064609e-04	
394	6.400000e+00	1.065261e-04	
395	6.450000e+00	1.065908e-04	
396	6.500000e+00	1.066551e-04	
397	6.550000e+00	1.067190e-04	
398	6.600000e+00	1.067824e-04	
399	0.000000e+00	-0.000000e+00	
400	5.000000e-02	5.252472e-06	
401	1.000000e-01	1.040878e-05	
402	1.500000e-01	1.546977e-05	

Index   v-sweep         -i(vds)         
--------------------------------------------------------------------------------
403	2.000000e-01	2.043625e-05	
404	2.500000e-01	2.530905e-05	
405	3.000000e-01	3.008898e-05	
406	3.500000e-01	3.477683e-05	
407	4.000000e-01	3.937339e-05	
408	4.500000e-01	4.387945e-05	
409	5.000000e-01	4.829577e-05	
410	5.500000e-01	5.262311e-05	
411	6.000000e-01	5.686224e-05	
412	6.500000e-01	6.101389e-05	
413	7.000000e-01	6.507880e-05	
414	7.500000e-01	6.905770e-05	
415	8.000000e-01	7.295130e-05	
416	8.500000e-01	7.676033e-05	
417	9.000000e-01	8.048548e-05	
418	9.500000e-01	8.412745e-05	
419	1.000000e+00	8.768693e-05	
420	1.050000e+00	9.116459e-05	
421	1.100000e+00	9.456111e-05	
422	1.150000e+00	9.787714e-05	
423	1.200000e+00	1.011133e-04	
424	1.250000e+00	1.042704e-04	
425	1.300000e+00	1.073489e-04	
426	1.350000e+00	1.103494e-04	
427	1.400000e+00	1.132727e-04	
428	1.450000e+00	1.161193e-04	
429	1.500000e+00	1.188898e-04	
430	1.550000e+00	1.215848e-04	
431	1.600000e+00	1.242048e-04	
432	1.650000e+00	1.267504e-04	
433	1.700000e+00	1.292222e-04	
434	1.750000e+00	1.316204e-04	
435	1.800000e+00	1.339457e-04	
436	1.850000e+00	1.361982e-04	
437	1.900000e+00	1.383780e-04	
438	1.950000e+00	1.404851e-04	
439	2.000000e+00	1.425186e-04	
440	2.050000e+00	1.444772e-04	
441	2.100000e+00	1.463576e-04	
442	2.150000e+00	1.481544e-04	
443	2.200000e+00	1.498579e-04	
444	2.250000e+00	1.514546e-04	
445	2.300000e+00	1.529297e-04	
446	2.350000e+00	1.542734e-04	
447	2.400000e+00	1.554863e-04	
448	2.450000e+00	1.565781e-04	
449	2.500000e+00	1.575632e-04	
450	2.550000e+00	1.584564e-04	
451	2.600000e+00	1.592712e-04	
452	2.650000e+00	1.600192e-04	
453	2.700000e+00	1.607098e-04	
454	2.750000e+00	1.613508e-04	
455	2.800000e+00	1.619487e-04	
456	2.850000e+00	1.625087e-04	
457	2.900000e+00	1.630354e-04	
458	2.950000e+00	1.635325e-04	
459	3.000000e+00	1.640030e-04	
460	3.050000e+00	1.644497e-04	

Index   v-sweep         -i(vds)         
--------------------------------------------------------------------------------
461	3.100000e+00	1.648749e-04	
462	3.150000e+00	1.652805e-04	
463	3.200000e+00	1.656683e-04	
464	3.250000e+00	1.660398e-04	
465	3.300000e+00	1.663963e-04	
466	3.350000e+00	1.667390e-04	
467	3.400000e+00	1.670689e-04	
468	3.450000e+00	1.673870e-04	
469	3.500000e+00	1.676940e-04	
470	3.550000e+00	1.679909e-04	
471	3.600000e+00	1.682781e-04	
472	3.650000e+00	1.685563e-04	
473	3.700000e+00	1.688261e-04	
474	3.750000e+00	1.690880e-04	
475	3.800000e+00	1.693425e-04	
476	3.850000e+00	1.695899e-04	
477	3.900000e+00	1.698306e-04	
478	3.950000e+00	1.700651e-04	
479	4.000000e+00	1.702936e-04	
480	4.050000e+00	1.705165e-04	
481	4.100000e+00	1.707340e-04	
482	4.150000e+00	1.709464e-04	
483	4.200000e+00	1.711540e-04	
484	4.250000e+00	1.713569e-04	
485	4.300000e+00	1.715554e-04	
486	4.350000e+00	1.717496e-04	
487	4.400000e+00	1.719399e-04	
488	4.450000e+00	1.721263e-04	
489	4.500000e+00	1.723090e-04	
490	4.550000e+00	1.724881e-04	
491	4.600000e+00	1.726639e-04	
492	4.650000e+00	1.728365e-04	
493	4.700000e+00	1.730059e-04	
494	4.750000e+00	1.731723e-04	
495	4.800000e+00	1.733359e-04	
496	4.850000e+00	1.734967e-04	
497	4.900000e+00	1.736548e-04	
498	4.950000e+00	1.738104e-04	
499	5.000000e+00	1.739635e-04	
500	5.050000e+00	1.741143e-04	
501	5.100000e+00	1.742627e-04	
502	5.150000e+00	1.744090e-04	
503	5.200000e+00	1.745531e-04	
504	5.250000e+00	1.746952e-04	
505	5.300000e+00	1.748353e-04	
506	5.350000e+00	1.749736e-04	
507	5.400000e+00	1.751099e-04	
508	5.450000e+00	1.752445e-04	
509	5.500000e+00	1.753774e-04	
510	5.550000e+00	1.755086e-04	
511	5.600000e+00	1.756382e-04	
512	5.650000e+00	1.757662e-04	
513	5.700000e+00	1.758927e-04	
514	5.750000e+00	1.760178e-04	
515	5.800000e+00	1.761415e-04	
516	5.850000e+00	1.762638e-04	
517	5.900000e+00	1.763848e-04	
518	5.950000e+00	1.765045e-04	

Index   v-sweep         -i(vds)         
--------------------------------------------------------------------------------
519	6.000000e+00	1.766229e-04	
520	6.050000e+00	1.767402e-04	
521	6.100000e+00	1.768563e-04	
522	6.150000e+00	1.769712e-04	
523	6.200000e+00	1.770851e-04	
524	6.250000e+00	1.771979e-04	
525	6.300000e+00	1.773097e-04	
526	6.350000e+00	1.774204e-04	
527	6.400000e+00	1.775302e-04	
528	6.450000e+00	1.776391e-04	
529	6.500000e+00	1.777470e-04	
530	6.550000e+00	1.778541e-04	
531	6.600000e+00	1.779603e-04	
532	0.000000e+00	-0.000000e+00	
533	5.000000e-02	6.022765e-06	
534	1.000000e-01	1.195843e-05	
535	1.500000e-01	1.780769e-05	
536	2.000000e-01	2.357124e-05	
537	2.500000e-01	2.924975e-05	
538	3.000000e-01	3.484390e-05	
539	3.500000e-01	4.035436e-05	
540	4.000000e-01	4.578178e-05	
541	4.500000e-01	5.112682e-05	
542	5.000000e-01	5.639012e-05	
543	5.500000e-01	6.157233e-05	
544	6.000000e-01	6.667406e-05	
545	6.500000e-01	7.169596e-05	
546	7.000000e-01	7.663864e-05	
547	7.500000e-01	8.150270e-05	
548	8.000000e-01	8.628877e-05	
549	8.500000e-01	9.099742e-05	
550	9.000000e-01	9.562927e-05	
551	9.500000e-01	1.001849e-04	
552	1.000000e+00	1.046649e-04	
553	1.050000e+00	1.090698e-04	
554	1.100000e+00	1.134002e-04	
555	1.150000e+00	1.176567e-04	
556	1.200000e+00	1.218398e-04	
557	1.250000e+00	1.259501e-04	
558	1.300000e+00	1.299881e-04	
559	1.350000e+00	1.339544e-04	
560	1.400000e+00	1.378494e-04	
561	1.450000e+00	1.416738e-04	
562	1.500000e+00	1.454280e-04	
563	1.550000e+00	1.491126e-04	
564	1.600000e+00	1.527280e-04	
565	1.650000e+00	1.562748e-04	
566	1.700000e+00	1.597535e-04	
567	1.750000e+00	1.631645e-04	
568	1.800000e+00	1.665084e-04	
569	1.850000e+00	1.697856e-04	
570	1.900000e+00	1.729966e-04	
571	1.950000e+00	1.761419e-04	
572	2.000000e+00	1.792218e-04	
573	2.050000e+00	1.822369e-04	
574	2.100000e+00	1.851875e-04	
575	2.150000e+00	1.880740e-04	
576	2.200000e+00	1.908968e-04	

Index   v-sweep         -i(vds)         
--------------------------------------------------------------------------------
577	2.250000e+00	1.936562e-04	
578	2.300000e+00	1.963524e-04	
579	2.350000e+00	1.989856e-04	
580	2.400000e+00	2.015557e-04	
581	2.450000e+00	2.040625e-04	
582	2.500000e+00	2.065054e-04	
583	2.550000e+00	2.088831e-04	
584	2.600000e+00	2.111931e-04	
585	2.650000e+00	2.134313e-04	
586	2.700000e+00	2.155909e-04	
587	2.750000e+00	2.176607e-04	
588	2.800000e+00	2.196257e-04	
589	2.850000e+00	2.214684e-04	
590	2.900000e+00	2.231747e-04	
591	2.950000e+00	2.247390e-04	
592	3.000000e+00	2.261655e-04	
593	3.050000e+00	2.274655e-04	
594	3.100000e+00	2.286532e-04	
595	3.150000e+00	2.297426e-04	
596	3.200000e+00	2.307468e-04	
597	3.250000e+00	2.316768e-04	
598	3.300000e+00	2.325422e-04	
599	3.350000e+00	2.333510e-04	
600	3.400000e+00	2.341098e-04	
601	3.450000e+00	2.348243e-04	
602	3.500000e+00	2.354993e-04	
603	3.550000e+00	2.361388e-04	
604	3.600000e+00	2.367464e-04	
605	3.650000e+00	2.373251e-04	
606	3.700000e+00	2.378775e-04	
607	3.750000e+00	2.384059e-04	
608	3.800000e+00	2.389122e-04	
609	3.850000e+00	2.393984e-04	
610	3.900000e+00	2.398658e-04	
611	3.950000e+00	2.403159e-04	
612	4.000000e+00	2.407500e-04	
613	4.050000e+00	2.411691e-04	
614	4.100000e+00	2.415743e-04	
615	4.150000e+00	2.419665e-04	
616	4.200000e+00	2.423464e-04	
617	4.250000e+00	2.427149e-04	
618	4.300000e+00	2.430726e-04	
619	4.350000e+00	2.434202e-04	
620	4.400000e+00	2.437582e-04	
621	4.450000e+00	2.440871e-04	
622	4.500000e+00	2.444074e-04	
623	4.550000e+00	2.447196e-04	
624	4.600000e+00	2.450241e-04	
625	4.650000e+00	2.453213e-04	
626	4.700000e+00	2.456114e-04	
627	4.750000e+00	2.458950e-04	
628	4.800000e+00	2.461722e-04	
629	4.850000e+00	2.464434e-04	
630	4.900000e+00	2.467088e-04	
631	4.950000e+00	2.469686e-04	
632	5.000000e+00	2.472233e-04	
633	5.050000e+00	2.474728e-04	
634	5.100000e+00	2.477176e-04	

Index   v-sweep         -i(vds)         
--------------------------------------------------------------------------------
635	5.150000e+00	2.479577e-04	
636	5.200000e+00	2.481933e-04	
637	5.250000e+00	2.484247e-04	
638	5.300000e+00	2.486520e-04	
639	5.350000e+00	2.488753e-04	
640	5.400000e+00	2.490949e-04	
641	5.450000e+00	2.493108e-04	
642	5.500000e+00	2.495233e-04	
643	5.550000e+00	2.497323e-04	
644	5.600000e+00	2.499381e-04	
645	5.650000e+00	2.501408e-04	
646	5.700000e+00	2.503404e-04	
647	5.750000e+00	2.505372e-04	
648	5.800000e+00	2.507311e-04	
649	5.850000e+00	2.509224e-04	
650	5.900000e+00	2.511110e-04	
651	5.950000e+00	2.512971e-04	
652	6.000000e+00	2.514807e-04	
653	6.050000e+00	2.516620e-04	
654	6.100000e+00	2.518410e-04	
655	6.150000e+00	2.520178e-04	
656	6.200000e+00	2.521925e-04	
657	6.250000e+00	2.523652e-04	
658	6.300000e+00	2.525358e-04	
659	6.350000e+00	2.527045e-04	
660	6.400000e+00	2.528713e-04	
661	6.450000e+00	2.530364e-04	
662	6.500000e+00	2.531996e-04	
663	6.550000e+00	2.533612e-04	
664	6.600000e+00	2.535211e-04	
665	0.000000e+00	-0.000000e+00	
666	5.000000e-02	6.577836e-06	
667	1.000000e-01	1.307747e-05	
668	1.500000e-01	1.949947e-05	
669	2.000000e-01	2.584440e-05	
670	2.500000e-01	3.211282e-05	
671	3.000000e-01	3.830528e-05	
672	3.500000e-01	4.442233e-05	
673	4.000000e-01	5.046451e-05	
674	4.500000e-01	5.643236e-05	
675	5.000000e-01	6.232641e-05	
676	5.500000e-01	6.814718e-05	
677	6.000000e-01	7.389521e-05	
678	6.500000e-01	7.957100e-05	
679	7.000000e-01	8.517506e-05	
680	7.500000e-01	9.070792e-05	
681	8.000000e-01	9.617006e-05	
682	8.500000e-01	1.015620e-04	
683	9.000000e-01	1.068842e-04	
684	9.500000e-01	1.121371e-04	
685	1.000000e+00	1.173214e-04	
686	1.050000e+00	1.224373e-04	
687	1.100000e+00	1.274854e-04	
688	1.150000e+00	1.324662e-04	
689	1.200000e+00	1.373802e-04	
690	1.250000e+00	1.422277e-04	
691	1.300000e+00	1.470093e-04	
692	1.350000e+00	1.517254e-04	

Index   v-sweep         -i(vds)         
--------------------------------------------------------------------------------
693	1.400000e+00	1.563765e-04	
694	1.450000e+00	1.609629e-04	
695	1.500000e+00	1.654852e-04	
696	1.550000e+00	1.699437e-04	
697	1.600000e+00	1.743390e-04	
698	1.650000e+00	1.786713e-04	
699	1.700000e+00	1.829413e-04	
700	1.750000e+00	1.871492e-04	
701	1.800000e+00	1.912954e-04	
702	1.850000e+00	1.953805e-04	
703	1.900000e+00	1.994048e-04	
704	1.950000e+00	2.033686e-04	
705	2.000000e+00	2.072725e-04	
706	2.050000e+00	2.111167e-04	
707	2.100000e+00	2.149018e-04	
708	2.150000e+00	2.186280e-04	
709	2.200000e+00	2.222957e-04	
710	2.250000e+00	2.259053e-04	
711	2.300000e+00	2.294573e-04	
712	2.350000e+00	2.329519e-04	
713	2.400000e+00	2.363894e-04	
714	2.450000e+00	2.397704e-04	
715	2.500000e+00	2.430950e-04	
716	2.550000e+00	2.463636e-04	
717	2.600000e+00	2.495765e-04	
718	2.650000e+00	2.527340e-04	
719	2.700000e+00	2.558363e-04	
720	2.750000e+00	2.588837e-04	
721	2.800000e+00	2.618763e-04	
722	2.850000e+00	2.648143e-04	
723	2.900000e+00	2.676975e-04	
724	2.950000e+00	2.705258e-04	
725	3.000000e+00	2.732987e-04	
726	3.050000e+00	2.760154e-04	
727	3.100000e+00	2.786743e-04	
728	3.150000e+00	2.812729e-04	
729	3.200000e+00	2.838070e-04	
730	3.250000e+00	2.862700e-04	
731	3.300000e+00	2.886517e-04	
732	3.350000e+00	2.909379e-04	
733	3.400000e+00	2.931111e-04	
734	3.450000e+00	2.951542e-04	
735	3.500000e+00	2.970555e-04	
736	3.550000e+00	2.988118e-04	
737	3.600000e+00	3.004286e-04	
738	3.650000e+00	3.019164e-04	
739	3.700000e+00	3.032884e-04	
740	3.750000e+00	3.045577e-04	
741	3.800000e+00	3.057366e-04	
742	3.850000e+00	3.068356e-04	
743	3.900000e+00	3.078643e-04	
744	3.950000e+00	3.088305e-04	
745	4.000000e+00	3.097411e-04	
746	4.050000e+00	3.106019e-04	
747	4.100000e+00	3.114180e-04	
748	4.150000e+00	3.121936e-04	
749	4.200000e+00	3.129326e-04	
750	4.250000e+00	3.136383e-04	

Index   v-sweep         -i(vds)         
--------------------------------------------------------------------------------
751	4.300000e+00	3.143134e-04	
752	4.350000e+00	3.149605e-04	
753	4.400000e+00	3.155819e-04	
754	4.450000e+00	3.161794e-04	
755	4.500000e+00	3.167549e-04	
756	4.550000e+00	3.173100e-04	
757	4.600000e+00	3.178459e-04	
758	4.650000e+00	3.183641e-04	
759	4.700000e+00	3.188656e-04	
760	4.750000e+00	3.193515e-04	
761	4.800000e+00	3.198228e-04	
762	4.850000e+00	3.202803e-04	
763	4.900000e+00	3.207248e-04	
764	4.950000e+00	3.211571e-04	
765	5.000000e+00	3.215777e-04	
766	5.050000e+00	3.219874e-04	
767	5.100000e+00	3.223866e-04	
768	5.150000e+00	3.227760e-04	
769	5.200000e+00	3.231560e-04	
770	5.250000e+00	3.235271e-04	
771	5.300000e+00	3.238897e-04	
772	5.350000e+00	3.242441e-04	
773	5.400000e+00	3.245908e-04	
774	5.450000e+00	3.249302e-04	
775	5.500000e+00	3.252624e-04	
776	5.550000e+00	3.255879e-04	
777	5.600000e+00	3.259069e-04	
778	5.650000e+00	3.262198e-04	
779	5.700000e+00	3.265266e-04	
780	5.750000e+00	3.268278e-04	
781	5.800000e+00	3.271235e-04	
782	5.850000e+00	3.274140e-04	
783	5.900000e+00	3.276994e-04	
784	5.950000e+00	3.279799e-04	
785	6.000000e+00	3.282558e-04	
786	6.050000e+00	3.285272e-04	
787	6.100000e+00	3.287942e-04	
788	6.150000e+00	3.290571e-04	
789	6.200000e+00	3.293160e-04	
790	6.250000e+00	3.295710e-04	
791	6.300000e+00	3.298223e-04	
792	6.350000e+00	3.300699e-04	
793	6.400000e+00	3.303141e-04	
794	6.450000e+00	3.305550e-04	
795	6.500000e+00	3.307926e-04	
796	6.550000e+00	3.310270e-04	
797	6.600000e+00	3.312585e-04	
Note: No ".plot", ".print", or ".fourier" lines; no simulations run
