
Note: Compatibility modes selected: hs

Warning: m=xx on .subckt line will override multiplier m hierarchy!


Circuit: ***************************

Doing analysis at TEMP = 125.000000 and TNOM = 125.000000


No. of Data Rows : 798
                          ***************************
                          DC transfer characteristic  Mon Jan  9 13:58:05  2023
--------------------------------------------------------------------------------
Index   v-sweep         -i(vds)         
--------------------------------------------------------------------------------
0	0.000000e+00	-0.000000e+00	
1	5.000000e-02	2.252156e-06	
2	1.000000e-01	4.125798e-06	
3	1.500000e-01	5.732963e-06	
4	2.000000e-01	7.102365e-06	
5	2.500000e-01	8.241946e-06	
6	3.000000e-01	9.154811e-06	
7	3.500000e-01	9.844004e-06	
8	4.000000e-01	1.031661e-05	
9	4.500000e-01	1.059508e-05	
10	5.000000e-01	1.073667e-05	
11	5.500000e-01	1.081390e-05	
12	6.000000e-01	1.086719e-05	
13	6.500000e-01	1.091013e-05	
14	7.000000e-01	1.094722e-05	
15	7.500000e-01	1.098030e-05	
16	8.000000e-01	1.101034e-05	
17	8.500000e-01	1.103793e-05	
18	9.000000e-01	1.106349e-05	
19	9.500000e-01	1.108731e-05	
20	1.000000e+00	1.110962e-05	
21	1.050000e+00	1.113061e-05	
22	1.100000e+00	1.115044e-05	
23	1.150000e+00	1.116923e-05	
24	1.200000e+00	1.118708e-05	
25	1.250000e+00	1.120409e-05	
26	1.300000e+00	1.122033e-05	
27	1.350000e+00	1.123587e-05	
28	1.400000e+00	1.125076e-05	
29	1.450000e+00	1.126507e-05	
30	1.500000e+00	1.127883e-05	
31	1.550000e+00	1.129208e-05	
32	1.600000e+00	1.130487e-05	
33	1.650000e+00	1.131722e-05	
34	1.700000e+00	1.132916e-05	
35	1.750000e+00	1.134071e-05	
36	1.800000e+00	1.135192e-05	
37	1.850000e+00	1.136278e-05	
38	1.900000e+00	1.137333e-05	
39	1.950000e+00	1.138358e-05	
40	2.000000e+00	1.139355e-05	
41	2.050000e+00	1.140325e-05	
42	2.100000e+00	1.141269e-05	
43	2.150000e+00	1.142190e-05	
44	2.200000e+00	1.143088e-05	
45	2.250000e+00	1.143964e-05	
46	2.300000e+00	1.144820e-05	
47	2.350000e+00	1.145656e-05	
48	2.400000e+00	1.146473e-05	
49	2.450000e+00	1.147273e-05	
50	2.500000e+00	1.148055e-05	
51	2.550000e+00	1.148820e-05	
52	2.600000e+00	1.149570e-05	
53	2.650000e+00	1.150305e-05	
54	2.700000e+00	1.151026e-05	

Index   v-sweep         -i(vds)         
--------------------------------------------------------------------------------
55	2.750000e+00	1.151732e-05	
56	2.800000e+00	1.152425e-05	
57	2.850000e+00	1.153106e-05	
58	2.900000e+00	1.153774e-05	
59	2.950000e+00	1.154430e-05	
60	3.000000e+00	1.155074e-05	
61	3.050000e+00	1.155708e-05	
62	3.100000e+00	1.156331e-05	
63	3.150000e+00	1.156943e-05	
64	3.200000e+00	1.157546e-05	
65	3.250000e+00	1.158139e-05	
66	3.300000e+00	1.158723e-05	
67	3.350000e+00	1.159298e-05	
68	3.400000e+00	1.159864e-05	
69	3.450000e+00	1.160422e-05	
70	3.500000e+00	1.160972e-05	
71	3.550000e+00	1.161514e-05	
72	3.600000e+00	1.162048e-05	
73	3.650000e+00	1.162575e-05	
74	3.700000e+00	1.163095e-05	
75	3.750000e+00	1.163608e-05	
76	3.800000e+00	1.164114e-05	
77	3.850000e+00	1.164613e-05	
78	3.900000e+00	1.165107e-05	
79	3.950000e+00	1.165594e-05	
80	4.000000e+00	1.166075e-05	
81	4.050000e+00	1.166550e-05	
82	4.100000e+00	1.167020e-05	
83	4.150000e+00	1.167484e-05	
84	4.200000e+00	1.167942e-05	
85	4.250000e+00	1.168396e-05	
86	4.300000e+00	1.168844e-05	
87	4.350000e+00	1.169288e-05	
88	4.400000e+00	1.169726e-05	
89	4.450000e+00	1.170160e-05	
90	4.500000e+00	1.170590e-05	
91	4.550000e+00	1.171015e-05	
92	4.600000e+00	1.171436e-05	
93	4.650000e+00	1.171852e-05	
94	4.700000e+00	1.172264e-05	
95	4.750000e+00	1.172672e-05	
96	4.800000e+00	1.173077e-05	
97	4.850000e+00	1.173477e-05	
98	4.900000e+00	1.173874e-05	
99	4.950000e+00	1.174267e-05	
100	5.000000e+00	1.174657e-05	
101	5.050000e+00	1.175043e-05	
102	5.100000e+00	1.175425e-05	
103	5.150000e+00	1.175805e-05	
104	5.200000e+00	1.176181e-05	
105	5.250000e+00	1.176553e-05	
106	5.300000e+00	1.176923e-05	
107	5.350000e+00	1.177290e-05	
108	5.400000e+00	1.177653e-05	
109	5.450000e+00	1.178014e-05	
110	5.500000e+00	1.178372e-05	
111	5.550000e+00	1.178727e-05	
112	5.600000e+00	1.179080e-05	

Index   v-sweep         -i(vds)         
--------------------------------------------------------------------------------
113	5.650000e+00	1.179429e-05	
114	5.700000e+00	1.179777e-05	
115	5.750000e+00	1.180121e-05	
116	5.800000e+00	1.180463e-05	
117	5.850000e+00	1.180803e-05	
118	5.900000e+00	1.181140e-05	
119	5.950000e+00	1.181474e-05	
120	6.000000e+00	1.181807e-05	
121	6.050000e+00	1.182137e-05	
122	6.100000e+00	1.182465e-05	
123	6.150000e+00	1.182791e-05	
124	6.200000e+00	1.183114e-05	
125	6.250000e+00	1.183436e-05	
126	6.300000e+00	1.183755e-05	
127	6.350000e+00	1.184072e-05	
128	6.400000e+00	1.184388e-05	
129	6.450000e+00	1.184701e-05	
130	6.500000e+00	1.185013e-05	
131	6.550000e+00	1.185322e-05	
132	6.600000e+00	1.185630e-05	
133	0.000000e+00	-0.000000e+00	
134	5.000000e-02	6.677464e-06	
135	1.000000e-01	1.299486e-05	
136	1.500000e-01	1.906412e-05	
137	2.000000e-01	2.491377e-05	
138	2.500000e-01	3.055142e-05	
139	3.000000e-01	3.597942e-05	
140	3.500000e-01	4.119881e-05	
141	4.000000e-01	4.621029e-05	
142	4.500000e-01	5.101446e-05	
143	5.000000e-01	5.561193e-05	
144	5.500000e-01	6.000327e-05	
145	6.000000e-01	6.418908e-05	
146	6.500000e-01	6.816993e-05	
147	7.000000e-01	7.194641e-05	
148	7.500000e-01	7.551911e-05	
149	8.000000e-01	7.888860e-05	
150	8.500000e-01	8.205547e-05	
151	9.000000e-01	8.502033e-05	
152	9.500000e-01	8.778377e-05	
153	1.000000e+00	9.034642e-05	
154	1.050000e+00	9.270892e-05	
155	1.100000e+00	9.487198e-05	
156	1.150000e+00	9.683636e-05	
157	1.200000e+00	9.860299e-05	
158	1.250000e+00	1.001731e-04	
159	1.300000e+00	1.015484e-04	
160	1.350000e+00	1.027318e-04	
161	1.400000e+00	1.037286e-04	
162	1.450000e+00	1.045489e-04	
163	1.500000e+00	1.052116e-04	
164	1.550000e+00	1.057450e-04	
165	1.600000e+00	1.061822e-04	
166	1.650000e+00	1.065513e-04	
167	1.700000e+00	1.068719e-04	
168	1.750000e+00	1.071563e-04	
169	1.800000e+00	1.074127e-04	
170	1.850000e+00	1.076463e-04	

Index   v-sweep         -i(vds)         
--------------------------------------------------------------------------------
171	1.900000e+00	1.078612e-04	
172	1.950000e+00	1.080603e-04	
173	2.000000e+00	1.082457e-04	
174	2.050000e+00	1.084194e-04	
175	2.100000e+00	1.085826e-04	
176	2.150000e+00	1.087367e-04	
177	2.200000e+00	1.088826e-04	
178	2.250000e+00	1.090211e-04	
179	2.300000e+00	1.091530e-04	
180	2.350000e+00	1.092788e-04	
181	2.400000e+00	1.093991e-04	
182	2.450000e+00	1.095144e-04	
183	2.500000e+00	1.096251e-04	
184	2.550000e+00	1.097315e-04	
185	2.600000e+00	1.098339e-04	
186	2.650000e+00	1.099326e-04	
187	2.700000e+00	1.100280e-04	
188	2.750000e+00	1.101201e-04	
189	2.800000e+00	1.102093e-04	
190	2.850000e+00	1.102957e-04	
191	2.900000e+00	1.103795e-04	
192	2.950000e+00	1.104608e-04	
193	3.000000e+00	1.105397e-04	
194	3.050000e+00	1.106165e-04	
195	3.100000e+00	1.106912e-04	
196	3.150000e+00	1.107639e-04	
197	3.200000e+00	1.108348e-04	
198	3.250000e+00	1.109039e-04	
199	3.300000e+00	1.109713e-04	
200	3.350000e+00	1.110371e-04	
201	3.400000e+00	1.111014e-04	
202	3.450000e+00	1.111642e-04	
203	3.500000e+00	1.112257e-04	
204	3.550000e+00	1.112858e-04	
205	3.600000e+00	1.113446e-04	
206	3.650000e+00	1.114022e-04	
207	3.700000e+00	1.114587e-04	
208	3.750000e+00	1.115140e-04	
209	3.800000e+00	1.115682e-04	
210	3.850000e+00	1.116215e-04	
211	3.900000e+00	1.116737e-04	
212	3.950000e+00	1.117250e-04	
213	4.000000e+00	1.117753e-04	
214	4.050000e+00	1.118248e-04	
215	4.100000e+00	1.118734e-04	
216	4.150000e+00	1.119212e-04	
217	4.200000e+00	1.119682e-04	
218	4.250000e+00	1.120145e-04	
219	4.300000e+00	1.120600e-04	
220	4.350000e+00	1.121048e-04	
221	4.400000e+00	1.121489e-04	
222	4.450000e+00	1.121924e-04	
223	4.500000e+00	1.122352e-04	
224	4.550000e+00	1.122774e-04	
225	4.600000e+00	1.123190e-04	
226	4.650000e+00	1.123600e-04	
227	4.700000e+00	1.124004e-04	
228	4.750000e+00	1.124403e-04	

Index   v-sweep         -i(vds)         
--------------------------------------------------------------------------------
229	4.800000e+00	1.124797e-04	
230	4.850000e+00	1.125185e-04	
231	4.900000e+00	1.125569e-04	
232	4.950000e+00	1.125947e-04	
233	5.000000e+00	1.126321e-04	
234	5.050000e+00	1.126691e-04	
235	5.100000e+00	1.127056e-04	
236	5.150000e+00	1.127416e-04	
237	5.200000e+00	1.127773e-04	
238	5.250000e+00	1.128125e-04	
239	5.300000e+00	1.128474e-04	
240	5.350000e+00	1.128818e-04	
241	5.400000e+00	1.129159e-04	
242	5.450000e+00	1.129497e-04	
243	5.500000e+00	1.129830e-04	
244	5.550000e+00	1.130161e-04	
245	5.600000e+00	1.130487e-04	
246	5.650000e+00	1.130811e-04	
247	5.700000e+00	1.131132e-04	
248	5.750000e+00	1.131449e-04	
249	5.800000e+00	1.131763e-04	
250	5.850000e+00	1.132075e-04	
251	5.900000e+00	1.132383e-04	
252	5.950000e+00	1.132689e-04	
253	6.000000e+00	1.132992e-04	
254	6.050000e+00	1.133292e-04	
255	6.100000e+00	1.133590e-04	
256	6.150000e+00	1.133885e-04	
257	6.200000e+00	1.134178e-04	
258	6.250000e+00	1.134468e-04	
259	6.300000e+00	1.134756e-04	
260	6.350000e+00	1.135041e-04	
261	6.400000e+00	1.135324e-04	
262	6.450000e+00	1.135605e-04	
263	6.500000e+00	1.135884e-04	
264	6.550000e+00	1.136161e-04	
265	6.600000e+00	1.136436e-04	
266	0.000000e+00	-0.000000e+00	
267	5.000000e-02	9.846132e-06	
268	1.000000e-01	1.936119e-05	
269	1.500000e-01	2.865698e-05	
270	2.000000e-01	3.776193e-05	
271	2.500000e-01	4.668353e-05	
272	3.000000e-01	5.542400e-05	
273	3.500000e-01	6.398427e-05	
274	4.000000e-01	7.236492e-05	
275	4.500000e-01	8.056646e-05	
276	5.000000e-01	8.858934e-05	
277	5.500000e-01	9.643406e-05	
278	6.000000e-01	1.041011e-04	
279	6.500000e-01	1.115908e-04	
280	7.000000e-01	1.189038e-04	
281	7.500000e-01	1.260405e-04	
282	8.000000e-01	1.330013e-04	
283	8.500000e-01	1.397868e-04	
284	9.000000e-01	1.463973e-04	
285	9.500000e-01	1.528333e-04	
286	1.000000e+00	1.590953e-04	

Index   v-sweep         -i(vds)         
--------------------------------------------------------------------------------
287	1.050000e+00	1.651837e-04	
288	1.100000e+00	1.710990e-04	
289	1.150000e+00	1.768416e-04	
290	1.200000e+00	1.824120e-04	
291	1.250000e+00	1.878106e-04	
292	1.300000e+00	1.930379e-04	
293	1.350000e+00	1.980943e-04	
294	1.400000e+00	2.029803e-04	
295	1.450000e+00	2.076962e-04	
296	1.500000e+00	2.122426e-04	
297	1.550000e+00	2.166199e-04	
298	1.600000e+00	2.208285e-04	
299	1.650000e+00	2.248689e-04	
300	1.700000e+00	2.287415e-04	
301	1.750000e+00	2.324467e-04	
302	1.800000e+00	2.359851e-04	
303	1.850000e+00	2.393569e-04	
304	1.900000e+00	2.425627e-04	
305	1.950000e+00	2.456030e-04	
306	2.000000e+00	2.484781e-04	
307	2.050000e+00	2.511886e-04	
308	2.100000e+00	2.537350e-04	
309	2.150000e+00	2.561178e-04	
310	2.200000e+00	2.583376e-04	
311	2.250000e+00	2.603951e-04	
312	2.300000e+00	2.622911e-04	
313	2.350000e+00	2.640270e-04	
314	2.400000e+00	2.656044e-04	
315	2.450000e+00	2.670263e-04	
316	2.500000e+00	2.682976e-04	
317	2.550000e+00	2.694264e-04	
318	2.600000e+00	2.704246e-04	
319	2.650000e+00	2.713081e-04	
320	2.700000e+00	2.720941e-04	
321	2.750000e+00	2.727988e-04	
322	2.800000e+00	2.734361e-04	
323	2.850000e+00	2.740173e-04	
324	2.900000e+00	2.745511e-04	
325	2.950000e+00	2.750447e-04	
326	3.000000e+00	2.755036e-04	
327	3.050000e+00	2.759324e-04	
328	3.100000e+00	2.763347e-04	
329	3.150000e+00	2.767137e-04	
330	3.200000e+00	2.770719e-04	
331	3.250000e+00	2.774114e-04	
332	3.300000e+00	2.777341e-04	
333	3.350000e+00	2.780416e-04	
334	3.400000e+00	2.783353e-04	
335	3.450000e+00	2.786164e-04	
336	3.500000e+00	2.788858e-04	
337	3.550000e+00	2.791445e-04	
338	3.600000e+00	2.793934e-04	
339	3.650000e+00	2.796331e-04	
340	3.700000e+00	2.798643e-04	
341	3.750000e+00	2.800877e-04	
342	3.800000e+00	2.803036e-04	
343	3.850000e+00	2.805126e-04	
344	3.900000e+00	2.807151e-04	

Index   v-sweep         -i(vds)         
--------------------------------------------------------------------------------
345	3.950000e+00	2.809116e-04	
346	4.000000e+00	2.811023e-04	
347	4.050000e+00	2.812875e-04	
348	4.100000e+00	2.814677e-04	
349	4.150000e+00	2.816430e-04	
350	4.200000e+00	2.818138e-04	
351	4.250000e+00	2.819802e-04	
352	4.300000e+00	2.821425e-04	
353	4.350000e+00	2.823008e-04	
354	4.400000e+00	2.824554e-04	
355	4.450000e+00	2.826065e-04	
356	4.500000e+00	2.827541e-04	
357	4.550000e+00	2.828985e-04	
358	4.600000e+00	2.830398e-04	
359	4.650000e+00	2.831781e-04	
360	4.700000e+00	2.833136e-04	
361	4.750000e+00	2.834463e-04	
362	4.800000e+00	2.835764e-04	
363	4.850000e+00	2.837040e-04	
364	4.900000e+00	2.838292e-04	
365	4.950000e+00	2.839521e-04	
366	5.000000e+00	2.840727e-04	
367	5.050000e+00	2.841912e-04	
368	5.100000e+00	2.843076e-04	
369	5.150000e+00	2.844221e-04	
370	5.200000e+00	2.845346e-04	
371	5.250000e+00	2.846453e-04	
372	5.300000e+00	2.847541e-04	
373	5.350000e+00	2.848613e-04	
374	5.400000e+00	2.849668e-04	
375	5.450000e+00	2.850707e-04	
376	5.500000e+00	2.851730e-04	
377	5.550000e+00	2.852738e-04	
378	5.600000e+00	2.853732e-04	
379	5.650000e+00	2.854711e-04	
380	5.700000e+00	2.855677e-04	
381	5.750000e+00	2.856630e-04	
382	5.800000e+00	2.857570e-04	
383	5.850000e+00	2.858498e-04	
384	5.900000e+00	2.859413e-04	
385	5.950000e+00	2.860317e-04	
386	6.000000e+00	2.861210e-04	
387	6.050000e+00	2.862091e-04	
388	6.100000e+00	2.862962e-04	
389	6.150000e+00	2.863823e-04	
390	6.200000e+00	2.864674e-04	
391	6.250000e+00	2.865514e-04	
392	6.300000e+00	2.866346e-04	
393	6.350000e+00	2.867168e-04	
394	6.400000e+00	2.867981e-04	
395	6.450000e+00	2.868785e-04	
396	6.500000e+00	2.869581e-04	
397	6.550000e+00	2.870369e-04	
398	6.600000e+00	2.871148e-04	
399	0.000000e+00	-0.000000e+00	
400	5.000000e-02	1.219531e-05	
401	1.000000e-01	2.408444e-05	
402	1.500000e-01	3.577911e-05	

Index   v-sweep         -i(vds)         
--------------------------------------------------------------------------------
403	2.000000e-01	4.730763e-05	
404	2.500000e-01	5.867739e-05	
405	3.000000e-01	6.989053e-05	
406	3.500000e-01	8.094785e-05	
407	4.000000e-01	9.184986e-05	
408	4.500000e-01	1.025969e-04	
409	5.000000e-01	1.131895e-04	
410	5.500000e-01	1.236278e-04	
411	6.000000e-01	1.339124e-04	
412	6.500000e-01	1.440435e-04	
413	7.000000e-01	1.540215e-04	
414	7.500000e-01	1.638468e-04	
415	8.000000e-01	1.735198e-04	
416	8.500000e-01	1.830408e-04	
417	9.000000e-01	1.924102e-04	
418	9.500000e-01	2.016283e-04	
419	1.000000e+00	2.106955e-04	
420	1.050000e+00	2.196122e-04	
421	1.100000e+00	2.283787e-04	
422	1.150000e+00	2.369953e-04	
423	1.200000e+00	2.454625e-04	
424	1.250000e+00	2.537806e-04	
425	1.300000e+00	2.619499e-04	
426	1.350000e+00	2.699708e-04	
427	1.400000e+00	2.778436e-04	
428	1.450000e+00	2.855687e-04	
429	1.500000e+00	2.931464e-04	
430	1.550000e+00	3.005771e-04	
431	1.600000e+00	3.078612e-04	
432	1.650000e+00	3.149989e-04	
433	1.700000e+00	3.219906e-04	
434	1.750000e+00	3.288366e-04	
435	1.800000e+00	3.355374e-04	
436	1.850000e+00	3.420932e-04	
437	1.900000e+00	3.485044e-04	
438	1.950000e+00	3.547713e-04	
439	2.000000e+00	3.608943e-04	
440	2.050000e+00	3.668736e-04	
441	2.100000e+00	3.727097e-04	
442	2.150000e+00	3.784028e-04	
443	2.200000e+00	3.839533e-04	
444	2.250000e+00	3.893616e-04	
445	2.300000e+00	3.946279e-04	
446	2.350000e+00	3.997526e-04	
447	2.400000e+00	4.047360e-04	
448	2.450000e+00	4.095785e-04	
449	2.500000e+00	4.142803e-04	
450	2.550000e+00	4.188418e-04	
451	2.600000e+00	4.232634e-04	
452	2.650000e+00	4.275453e-04	
453	2.700000e+00	4.316878e-04	
454	2.750000e+00	4.356914e-04	
455	2.800000e+00	4.395563e-04	
456	2.850000e+00	4.432828e-04	
457	2.900000e+00	4.468712e-04	
458	2.950000e+00	4.503219e-04	
459	3.000000e+00	4.536352e-04	
460	3.050000e+00	4.568114e-04	

Index   v-sweep         -i(vds)         
--------------------------------------------------------------------------------
461	3.100000e+00	4.598507e-04	
462	3.150000e+00	4.627535e-04	
463	3.200000e+00	4.655201e-04	
464	3.250000e+00	4.681508e-04	
465	3.300000e+00	4.706458e-04	
466	3.350000e+00	4.730054e-04	
467	3.400000e+00	4.752298e-04	
468	3.450000e+00	4.773192e-04	
469	3.500000e+00	4.792740e-04	
470	3.550000e+00	4.810946e-04	
471	3.600000e+00	4.827820e-04	
472	3.650000e+00	4.843383e-04	
473	3.700000e+00	4.857674e-04	
474	3.750000e+00	4.870762e-04	
475	3.800000e+00	4.882738e-04	
476	3.850000e+00	4.893712e-04	
477	3.900000e+00	4.903799e-04	
478	3.950000e+00	4.913108e-04	
479	4.000000e+00	4.921736e-04	
480	4.050000e+00	4.929769e-04	
481	4.100000e+00	4.937277e-04	
482	4.150000e+00	4.944323e-04	
483	4.200000e+00	4.950958e-04	
484	4.250000e+00	4.957226e-04	
485	4.300000e+00	4.963166e-04	
486	4.350000e+00	4.968808e-04	
487	4.400000e+00	4.974182e-04	
488	4.450000e+00	4.979311e-04	
489	4.500000e+00	4.984217e-04	
490	4.550000e+00	4.988918e-04	
491	4.600000e+00	4.993430e-04	
492	4.650000e+00	4.997767e-04	
493	4.700000e+00	5.001944e-04	
494	4.750000e+00	5.005971e-04	
495	4.800000e+00	5.009858e-04	
496	4.850000e+00	5.013616e-04	
497	4.900000e+00	5.017252e-04	
498	4.950000e+00	5.020773e-04	
499	5.000000e+00	5.024188e-04	
500	5.050000e+00	5.027501e-04	
501	5.100000e+00	5.030720e-04	
502	5.150000e+00	5.033849e-04	
503	5.200000e+00	5.036893e-04	
504	5.250000e+00	5.039857e-04	
505	5.300000e+00	5.042744e-04	
506	5.350000e+00	5.045559e-04	
507	5.400000e+00	5.048306e-04	
508	5.450000e+00	5.050987e-04	
509	5.500000e+00	5.053605e-04	
510	5.550000e+00	5.056164e-04	
511	5.600000e+00	5.058666e-04	
512	5.650000e+00	5.061114e-04	
513	5.700000e+00	5.063510e-04	
514	5.750000e+00	5.065856e-04	
515	5.800000e+00	5.068154e-04	
516	5.850000e+00	5.070407e-04	
517	5.900000e+00	5.072616e-04	
518	5.950000e+00	5.074783e-04	

Index   v-sweep         -i(vds)         
--------------------------------------------------------------------------------
519	6.000000e+00	5.076909e-04	
520	6.050000e+00	5.078996e-04	
521	6.100000e+00	5.081046e-04	
522	6.150000e+00	5.083060e-04	
523	6.200000e+00	5.085039e-04	
524	6.250000e+00	5.086985e-04	
525	6.300000e+00	5.088898e-04	
526	6.350000e+00	5.090780e-04	
527	6.400000e+00	5.092632e-04	
528	6.450000e+00	5.094456e-04	
529	6.500000e+00	5.096251e-04	
530	6.550000e+00	5.098019e-04	
531	6.600000e+00	5.099761e-04	
532	0.000000e+00	-0.000000e+00	
533	5.000000e-02	1.398263e-05	
534	1.000000e-01	2.768000e-05	
535	1.500000e-01	4.120373e-05	
536	2.000000e-01	5.458206e-05	
537	2.500000e-01	6.782231e-05	
538	3.000000e-01	8.092651e-05	
539	3.500000e-01	9.389542e-05	
540	4.000000e-01	1.067294e-04	
541	4.500000e-01	1.194289e-04	
542	5.000000e-01	1.319941e-04	
543	5.500000e-01	1.444252e-04	
544	6.000000e-01	1.567228e-04	
545	6.500000e-01	1.688869e-04	
546	7.000000e-01	1.809179e-04	
547	7.500000e-01	1.928161e-04	
548	8.000000e-01	2.045817e-04	
549	8.500000e-01	2.162152e-04	
550	9.000000e-01	2.277166e-04	
551	9.500000e-01	2.390864e-04	
552	1.000000e+00	2.503249e-04	
553	1.050000e+00	2.614322e-04	
554	1.100000e+00	2.724087e-04	
555	1.150000e+00	2.832546e-04	
556	1.200000e+00	2.939703e-04	
557	1.250000e+00	3.045561e-04	
558	1.300000e+00	3.150121e-04	
559	1.350000e+00	3.253387e-04	
560	1.400000e+00	3.355362e-04	
561	1.450000e+00	3.456049e-04	
562	1.500000e+00	3.555449e-04	
563	1.550000e+00	3.653567e-04	
564	1.600000e+00	3.750404e-04	
565	1.650000e+00	3.845963e-04	
566	1.700000e+00	3.940248e-04	
567	1.750000e+00	4.033261e-04	
568	1.800000e+00	4.125004e-04	
569	1.850000e+00	4.215481e-04	
570	1.900000e+00	4.304693e-04	
571	1.950000e+00	4.392645e-04	
572	2.000000e+00	4.479337e-04	
573	2.050000e+00	4.564774e-04	
574	2.100000e+00	4.648958e-04	
575	2.150000e+00	4.731891e-04	
576	2.200000e+00	4.813576e-04	

Index   v-sweep         -i(vds)         
--------------------------------------------------------------------------------
577	2.250000e+00	4.894016e-04	
578	2.300000e+00	4.973213e-04	
579	2.350000e+00	5.051170e-04	
580	2.400000e+00	5.127890e-04	
581	2.450000e+00	5.203375e-04	
582	2.500000e+00	5.277628e-04	
583	2.550000e+00	5.350652e-04	
584	2.600000e+00	5.422448e-04	
585	2.650000e+00	5.493020e-04	
586	2.700000e+00	5.562371e-04	
587	2.750000e+00	5.630502e-04	
588	2.800000e+00	5.697417e-04	
589	2.850000e+00	5.763118e-04	
590	2.900000e+00	5.827607e-04	
591	2.950000e+00	5.890887e-04	
592	3.000000e+00	5.952961e-04	
593	3.050000e+00	6.013830e-04	
594	3.100000e+00	6.073499e-04	
595	3.150000e+00	6.131969e-04	
596	3.200000e+00	6.189242e-04	
597	3.250000e+00	6.245321e-04	
598	3.300000e+00	6.300209e-04	
599	3.350000e+00	6.353908e-04	
600	3.400000e+00	6.406421e-04	
601	3.450000e+00	6.457750e-04	
602	3.500000e+00	6.507897e-04	
603	3.550000e+00	6.556865e-04	
604	3.600000e+00	6.604656e-04	
605	3.650000e+00	6.651273e-04	
606	3.700000e+00	6.696718e-04	
607	3.750000e+00	6.740994e-04	
608	3.800000e+00	6.784102e-04	
609	3.850000e+00	6.826046e-04	
610	3.900000e+00	6.866826e-04	
611	3.950000e+00	6.906447e-04	
612	4.000000e+00	6.944909e-04	
613	4.050000e+00	6.982215e-04	
614	4.100000e+00	7.018367e-04	
615	4.150000e+00	7.053366e-04	
616	4.200000e+00	7.087215e-04	
617	4.250000e+00	7.119914e-04	
618	4.300000e+00	7.151466e-04	
619	4.350000e+00	7.181869e-04	
620	4.400000e+00	7.211125e-04	
621	4.450000e+00	7.239232e-04	
622	4.500000e+00	7.266187e-04	
623	4.550000e+00	7.291985e-04	
624	4.600000e+00	7.316619e-04	
625	4.650000e+00	7.340078e-04	
626	4.700000e+00	7.362346e-04	
627	4.750000e+00	7.383405e-04	
628	4.800000e+00	7.403237e-04	
629	4.850000e+00	7.421833e-04	
630	4.900000e+00	7.439201e-04	
631	4.950000e+00	7.455377e-04	
632	5.000000e+00	7.470422e-04	
633	5.050000e+00	7.484418e-04	
634	5.100000e+00	7.497456e-04	

Index   v-sweep         -i(vds)         
--------------------------------------------------------------------------------
635	5.150000e+00	7.509630e-04	
636	5.200000e+00	7.521029e-04	
637	5.250000e+00	7.531733e-04	
638	5.300000e+00	7.541815e-04	
639	5.350000e+00	7.551339e-04	
640	5.400000e+00	7.560358e-04	
641	5.450000e+00	7.568923e-04	
642	5.500000e+00	7.577074e-04	
643	5.550000e+00	7.584849e-04	
644	5.600000e+00	7.592281e-04	
645	5.650000e+00	7.599398e-04	
646	5.700000e+00	7.606224e-04	
647	5.750000e+00	7.612783e-04	
648	5.800000e+00	7.619095e-04	
649	5.850000e+00	7.625177e-04	
650	5.900000e+00	7.631045e-04	
651	5.950000e+00	7.636714e-04	
652	6.000000e+00	7.642196e-04	
653	6.050000e+00	7.647504e-04	
654	6.100000e+00	7.652648e-04	
655	6.150000e+00	7.657638e-04	
656	6.200000e+00	7.662483e-04	
657	6.250000e+00	7.667191e-04	
658	6.300000e+00	7.671770e-04	
659	6.350000e+00	7.676226e-04	
660	6.400000e+00	7.680567e-04	
661	6.450000e+00	7.684797e-04	
662	6.500000e+00	7.688922e-04	
663	6.550000e+00	7.692948e-04	
664	6.600000e+00	7.696879e-04	
665	0.000000e+00	-0.000000e+00	
666	5.000000e-02	1.536853e-05	
667	1.000000e-01	3.046941e-05	
668	1.500000e-01	4.541421e-05	
669	2.000000e-01	6.023111e-05	
670	2.500000e-01	7.492735e-05	
671	3.000000e-01	8.950493e-05	
672	3.500000e-01	1.039645e-04	
673	4.000000e-01	1.183065e-04	
674	4.500000e-01	1.325310e-04	
675	5.000000e-01	1.466385e-04	
676	5.500000e-01	1.606290e-04	
677	6.000000e-01	1.745028e-04	
678	6.500000e-01	1.882603e-04	
679	7.000000e-01	2.019015e-04	
680	7.500000e-01	2.154267e-04	
681	8.000000e-01	2.288361e-04	
682	8.500000e-01	2.421301e-04	
683	9.000000e-01	2.553087e-04	
684	9.500000e-01	2.683723e-04	
685	1.000000e+00	2.813211e-04	
686	1.050000e+00	2.941552e-04	
687	1.100000e+00	3.068749e-04	
688	1.150000e+00	3.194805e-04	
689	1.200000e+00	3.319722e-04	
690	1.250000e+00	3.443501e-04	
691	1.300000e+00	3.566145e-04	
692	1.350000e+00	3.687657e-04	

Index   v-sweep         -i(vds)         
--------------------------------------------------------------------------------
693	1.400000e+00	3.808038e-04	
694	1.450000e+00	3.927291e-04	
695	1.500000e+00	4.045418e-04	
696	1.550000e+00	4.162422e-04	
697	1.600000e+00	4.278303e-04	
698	1.650000e+00	4.393066e-04	
699	1.700000e+00	4.506711e-04	
700	1.750000e+00	4.619240e-04	
701	1.800000e+00	4.730658e-04	
702	1.850000e+00	4.840964e-04	
703	1.900000e+00	4.950162e-04	
704	1.950000e+00	5.058253e-04	
705	2.000000e+00	5.165241e-04	
706	2.050000e+00	5.271126e-04	
707	2.100000e+00	5.375911e-04	
708	2.150000e+00	5.479599e-04	
709	2.200000e+00	5.582190e-04	
710	2.250000e+00	5.683689e-04	
711	2.300000e+00	5.784096e-04	
712	2.350000e+00	5.883413e-04	
713	2.400000e+00	5.981644e-04	
714	2.450000e+00	6.078789e-04	
715	2.500000e+00	6.174852e-04	
716	2.550000e+00	6.269833e-04	
717	2.600000e+00	6.363736e-04	
718	2.650000e+00	6.456562e-04	
719	2.700000e+00	6.548313e-04	
720	2.750000e+00	6.638992e-04	
721	2.800000e+00	6.728601e-04	
722	2.850000e+00	6.817141e-04	
723	2.900000e+00	6.904614e-04	
724	2.950000e+00	6.991023e-04	
725	3.000000e+00	7.076370e-04	
726	3.050000e+00	7.160657e-04	
727	3.100000e+00	7.243886e-04	
728	3.150000e+00	7.326058e-04	
729	3.200000e+00	7.407176e-04	
730	3.250000e+00	7.487242e-04	
731	3.300000e+00	7.566258e-04	
732	3.350000e+00	7.644226e-04	
733	3.400000e+00	7.721148e-04	
734	3.450000e+00	7.797025e-04	
735	3.500000e+00	7.871861e-04	
736	3.550000e+00	7.945656e-04	
737	3.600000e+00	8.018413e-04	
738	3.650000e+00	8.090134e-04	
739	3.700000e+00	8.160821e-04	
740	3.750000e+00	8.230476e-04	
741	3.800000e+00	8.299100e-04	
742	3.850000e+00	8.366696e-04	
743	3.900000e+00	8.433266e-04	
744	3.950000e+00	8.498811e-04	
745	4.000000e+00	8.563334e-04	
746	4.050000e+00	8.626836e-04	
747	4.100000e+00	8.689319e-04	
748	4.150000e+00	8.750786e-04	
749	4.200000e+00	8.811238e-04	
750	4.250000e+00	8.870677e-04	

Index   v-sweep         -i(vds)         
--------------------------------------------------------------------------------
751	4.300000e+00	8.929105e-04	
752	4.350000e+00	8.986523e-04	
753	4.400000e+00	9.042935e-04	
754	4.450000e+00	9.098341e-04	
755	4.500000e+00	9.152744e-04	
756	4.550000e+00	9.206145e-04	
757	4.600000e+00	9.258546e-04	
758	4.650000e+00	9.309949e-04	
759	4.700000e+00	9.360356e-04	
760	4.750000e+00	9.409769e-04	
761	4.800000e+00	9.458188e-04	
762	4.850000e+00	9.505617e-04	
763	4.900000e+00	9.552057e-04	
764	4.950000e+00	9.597510e-04	
765	5.000000e+00	9.641976e-04	
766	5.050000e+00	9.685458e-04	
767	5.100000e+00	9.727958e-04	
768	5.150000e+00	9.769476e-04	
769	5.200000e+00	9.810015e-04	
770	5.250000e+00	9.849574e-04	
771	5.300000e+00	9.888156e-04	
772	5.350000e+00	9.925761e-04	
773	5.400000e+00	9.962390e-04	
774	5.450000e+00	9.998043e-04	
775	5.500000e+00	1.003272e-03	
776	5.550000e+00	1.006642e-03	
777	5.600000e+00	1.009913e-03	
778	5.650000e+00	1.013087e-03	
779	5.700000e+00	1.016161e-03	
780	5.750000e+00	1.019135e-03	
781	5.800000e+00	1.022008e-03	
782	5.850000e+00	1.024778e-03	
783	5.900000e+00	1.027442e-03	
784	5.950000e+00	1.029997e-03	
785	6.000000e+00	1.032440e-03	
786	6.050000e+00	1.034766e-03	
787	6.100000e+00	1.036972e-03	
788	6.150000e+00	1.039056e-03	
789	6.200000e+00	1.041019e-03	
790	6.250000e+00	1.042864e-03	
791	6.300000e+00	1.044598e-03	
792	6.350000e+00	1.046226e-03	
793	6.400000e+00	1.047759e-03	
794	6.450000e+00	1.049203e-03	
795	6.500000e+00	1.050567e-03	
796	6.550000e+00	1.051857e-03	
797	6.600000e+00	1.053082e-03	
Note: No ".plot", ".print", or ".fourier" lines; no simulations run
