
Note: Compatibility modes selected: hs

Warning: m=xx on .subckt line will override multiplier m hierarchy!


Circuit: ***************************

Doing analysis at TEMP = 125.000000 and TNOM = 125.000000


No. of Data Rows : 798
                          ***************************
                          DC transfer characteristic  Mon Jan  9 13:58:05  2023
--------------------------------------------------------------------------------
Index   v-sweep         -i(vds)         
--------------------------------------------------------------------------------
0	0.000000e+00	-0.000000e+00	
1	5.000000e-02	1.314351e-06	
2	1.000000e-01	2.472425e-06	
3	1.500000e-01	3.484951e-06	
4	2.000000e-01	4.356076e-06	
5	2.500000e-01	5.088521e-06	
6	3.000000e-01	5.685284e-06	
7	3.500000e-01	6.151466e-06	
8	4.000000e-01	6.499440e-06	
9	4.500000e-01	6.758584e-06	
10	5.000000e-01	6.967562e-06	
11	5.500000e-01	7.149402e-06	
12	6.000000e-01	7.313359e-06	
13	6.500000e-01	7.463961e-06	
14	7.000000e-01	7.604049e-06	
15	7.500000e-01	7.735618e-06	
16	8.000000e-01	7.860145e-06	
17	8.500000e-01	7.978759e-06	
18	9.000000e-01	8.092343e-06	
19	9.500000e-01	8.201597e-06	
20	1.000000e+00	8.307092e-06	
21	1.050000e+00	8.409293e-06	
22	1.100000e+00	8.508586e-06	
23	1.150000e+00	8.605295e-06	
24	1.200000e+00	8.699696e-06	
25	1.250000e+00	8.792022e-06	
26	1.300000e+00	8.882476e-06	
27	1.350000e+00	8.971230e-06	
28	1.400000e+00	9.058438e-06	
29	1.450000e+00	9.144234e-06	
30	1.500000e+00	9.228733e-06	
31	1.550000e+00	9.312042e-06	
32	1.600000e+00	9.394251e-06	
33	1.650000e+00	9.475444e-06	
34	1.700000e+00	9.555696e-06	
35	1.750000e+00	9.635072e-06	
36	1.800000e+00	9.713633e-06	
37	1.850000e+00	9.791435e-06	
38	1.900000e+00	9.868525e-06	
39	1.950000e+00	9.944951e-06	
40	2.000000e+00	1.002075e-05	
41	2.050000e+00	1.009597e-05	
42	2.100000e+00	1.017063e-05	
43	2.150000e+00	1.024478e-05	
44	2.200000e+00	1.031844e-05	
45	2.250000e+00	1.039164e-05	
46	2.300000e+00	1.046440e-05	
47	2.350000e+00	1.053675e-05	
48	2.400000e+00	1.060870e-05	
49	2.450000e+00	1.068029e-05	
50	2.500000e+00	1.075153e-05	
51	2.550000e+00	1.082244e-05	
52	2.600000e+00	1.089303e-05	
53	2.650000e+00	1.096332e-05	
54	2.700000e+00	1.103332e-05	

Index   v-sweep         -i(vds)         
--------------------------------------------------------------------------------
55	2.750000e+00	1.110306e-05	
56	2.800000e+00	1.117254e-05	
57	2.850000e+00	1.124177e-05	
58	2.900000e+00	1.131077e-05	
59	2.950000e+00	1.137955e-05	
60	3.000000e+00	1.144811e-05	
61	3.050000e+00	1.151648e-05	
62	3.100000e+00	1.158465e-05	
63	3.150000e+00	1.165264e-05	
64	3.200000e+00	1.172046e-05	
65	3.250000e+00	1.178811e-05	
66	3.300000e+00	1.185560e-05	
67	3.350000e+00	1.192294e-05	
68	3.400000e+00	1.199014e-05	
69	3.450000e+00	1.205721e-05	
70	3.500000e+00	1.212414e-05	
71	3.550000e+00	1.219095e-05	
72	3.600000e+00	1.225764e-05	
73	3.650000e+00	1.232422e-05	
74	3.700000e+00	1.239069e-05	
75	3.750000e+00	1.245707e-05	
76	3.800000e+00	1.252334e-05	
77	3.850000e+00	1.258953e-05	
78	3.900000e+00	1.265562e-05	
79	3.950000e+00	1.272164e-05	
80	4.000000e+00	1.278758e-05	
81	4.050000e+00	1.285344e-05	
82	4.100000e+00	1.291924e-05	
83	4.150000e+00	1.298497e-05	
84	4.200000e+00	1.305063e-05	
85	4.250000e+00	1.311624e-05	
86	4.300000e+00	1.318180e-05	
87	4.350000e+00	1.324730e-05	
88	4.400000e+00	1.331275e-05	
89	4.450000e+00	1.337816e-05	
90	4.500000e+00	1.344352e-05	
91	4.550000e+00	1.350885e-05	
92	4.600000e+00	1.357414e-05	
93	4.650000e+00	1.363939e-05	
94	4.700000e+00	1.370462e-05	
95	4.750000e+00	1.376981e-05	
96	4.800000e+00	1.383498e-05	
97	4.850000e+00	1.390012e-05	
98	4.900000e+00	1.396524e-05	
99	4.950000e+00	1.403035e-05	
100	5.000000e+00	1.409543e-05	
101	5.050000e+00	1.416050e-05	
102	5.100000e+00	1.422555e-05	
103	5.150000e+00	1.429060e-05	
104	5.200000e+00	1.435563e-05	
105	5.250000e+00	1.442066e-05	
106	5.300000e+00	1.448568e-05	
107	5.350000e+00	1.455069e-05	
108	5.400000e+00	1.461570e-05	
109	5.450000e+00	1.468072e-05	
110	5.500000e+00	1.474573e-05	
111	5.550000e+00	1.481074e-05	
112	5.600000e+00	1.487576e-05	

Index   v-sweep         -i(vds)         
--------------------------------------------------------------------------------
113	5.650000e+00	1.494078e-05	
114	5.700000e+00	1.500581e-05	
115	5.750000e+00	1.507084e-05	
116	5.800000e+00	1.513588e-05	
117	5.850000e+00	1.520094e-05	
118	5.900000e+00	1.526600e-05	
119	5.950000e+00	1.533108e-05	
120	6.000000e+00	1.539617e-05	
121	6.050000e+00	1.546128e-05	
122	6.100000e+00	1.552640e-05	
123	6.150000e+00	1.559154e-05	
124	6.200000e+00	1.565669e-05	
125	6.250000e+00	1.572187e-05	
126	6.300000e+00	1.578706e-05	
127	6.350000e+00	1.585228e-05	
128	6.400000e+00	1.591752e-05	
129	6.450000e+00	1.598278e-05	
130	6.500000e+00	1.604806e-05	
131	6.550000e+00	1.611337e-05	
132	6.600000e+00	1.617870e-05	
133	0.000000e+00	-0.000000e+00	
134	5.000000e-02	3.616058e-06	
135	1.000000e-01	7.076883e-06	
136	1.500000e-01	1.039324e-05	
137	2.000000e-01	1.356919e-05	
138	2.500000e-01	1.660708e-05	
139	3.000000e-01	1.950883e-05	
140	3.500000e-01	2.227622e-05	
141	4.000000e-01	2.491097e-05	
142	4.500000e-01	2.741477e-05	
143	5.000000e-01	2.978931e-05	
144	5.500000e-01	3.203623e-05	
145	6.000000e-01	3.415720e-05	
146	6.500000e-01	3.615385e-05	
147	7.000000e-01	3.802783e-05	
148	7.500000e-01	3.978083e-05	
149	8.000000e-01	4.141458e-05	
150	8.500000e-01	4.293092e-05	
151	9.000000e-01	4.433184e-05	
152	9.500000e-01	4.561952e-05	
153	1.000000e+00	4.679616e-05	
154	1.050000e+00	4.786361e-05	
155	1.100000e+00	4.882395e-05	
156	1.150000e+00	4.968295e-05	
157	1.200000e+00	5.045197e-05	
158	1.250000e+00	5.114498e-05	
159	1.300000e+00	5.177507e-05	
160	1.350000e+00	5.235307e-05	
161	1.400000e+00	5.288762e-05	
162	1.450000e+00	5.338555e-05	
163	1.500000e+00	5.385225e-05	
164	1.550000e+00	5.429207e-05	
165	1.600000e+00	5.470852e-05	
166	1.650000e+00	5.510449e-05	
167	1.700000e+00	5.548237e-05	
168	1.750000e+00	5.584415e-05	
169	1.800000e+00	5.619153e-05	
170	1.850000e+00	5.652595e-05	

Index   v-sweep         -i(vds)         
--------------------------------------------------------------------------------
171	1.900000e+00	5.684864e-05	
172	1.950000e+00	5.716069e-05	
173	2.000000e+00	5.746302e-05	
174	2.050000e+00	5.775645e-05	
175	2.100000e+00	5.804169e-05	
176	2.150000e+00	5.831939e-05	
177	2.200000e+00	5.859010e-05	
178	2.250000e+00	5.885434e-05	
179	2.300000e+00	5.911256e-05	
180	2.350000e+00	5.936517e-05	
181	2.400000e+00	5.961252e-05	
182	2.450000e+00	5.985497e-05	
183	2.500000e+00	6.009281e-05	
184	2.550000e+00	6.032632e-05	
185	2.600000e+00	6.055575e-05	
186	2.650000e+00	6.078133e-05	
187	2.700000e+00	6.100329e-05	
188	2.750000e+00	6.122181e-05	
189	2.800000e+00	6.143708e-05	
190	2.850000e+00	6.164926e-05	
191	2.900000e+00	6.185852e-05	
192	2.950000e+00	6.206500e-05	
193	3.000000e+00	6.226883e-05	
194	3.050000e+00	6.247014e-05	
195	3.100000e+00	6.266906e-05	
196	3.150000e+00	6.286568e-05	
197	3.200000e+00	6.306012e-05	
198	3.250000e+00	6.325247e-05	
199	3.300000e+00	6.344282e-05	
200	3.350000e+00	6.363127e-05	
201	3.400000e+00	6.381788e-05	
202	3.450000e+00	6.400275e-05	
203	3.500000e+00	6.418594e-05	
204	3.550000e+00	6.436753e-05	
205	3.600000e+00	6.454757e-05	
206	3.650000e+00	6.472613e-05	
207	3.700000e+00	6.490328e-05	
208	3.750000e+00	6.507906e-05	
209	3.800000e+00	6.525352e-05	
210	3.850000e+00	6.542673e-05	
211	3.900000e+00	6.559873e-05	
212	3.950000e+00	6.576957e-05	
213	4.000000e+00	6.593928e-05	
214	4.050000e+00	6.610792e-05	
215	4.100000e+00	6.627552e-05	
216	4.150000e+00	6.644212e-05	
217	4.200000e+00	6.660776e-05	
218	4.250000e+00	6.677247e-05	
219	4.300000e+00	6.693629e-05	
220	4.350000e+00	6.709925e-05	
221	4.400000e+00	6.726139e-05	
222	4.450000e+00	6.742272e-05	
223	4.500000e+00	6.758329e-05	
224	4.550000e+00	6.774311e-05	
225	4.600000e+00	6.790222e-05	
226	4.650000e+00	6.806064e-05	
227	4.700000e+00	6.821839e-05	
228	4.750000e+00	6.837550e-05	

Index   v-sweep         -i(vds)         
--------------------------------------------------------------------------------
229	4.800000e+00	6.853199e-05	
230	4.850000e+00	6.868788e-05	
231	4.900000e+00	6.884320e-05	
232	4.950000e+00	6.899796e-05	
233	5.000000e+00	6.915219e-05	
234	5.050000e+00	6.930590e-05	
235	5.100000e+00	6.945910e-05	
236	5.150000e+00	6.961183e-05	
237	5.200000e+00	6.976409e-05	
238	5.250000e+00	6.991591e-05	
239	5.300000e+00	7.006728e-05	
240	5.350000e+00	7.021825e-05	
241	5.400000e+00	7.036881e-05	
242	5.450000e+00	7.051898e-05	
243	5.500000e+00	7.066877e-05	
244	5.550000e+00	7.081820e-05	
245	5.600000e+00	7.096729e-05	
246	5.650000e+00	7.111603e-05	
247	5.700000e+00	7.126445e-05	
248	5.750000e+00	7.141256e-05	
249	5.800000e+00	7.156037e-05	
250	5.850000e+00	7.170788e-05	
251	5.900000e+00	7.185511e-05	
252	5.950000e+00	7.200207e-05	
253	6.000000e+00	7.214877e-05	
254	6.050000e+00	7.229522e-05	
255	6.100000e+00	7.244143e-05	
256	6.150000e+00	7.258740e-05	
257	6.200000e+00	7.273315e-05	
258	6.250000e+00	7.287868e-05	
259	6.300000e+00	7.302400e-05	
260	6.350000e+00	7.316913e-05	
261	6.400000e+00	7.331406e-05	
262	6.450000e+00	7.345880e-05	
263	6.500000e+00	7.360336e-05	
264	6.550000e+00	7.374776e-05	
265	6.600000e+00	7.389199e-05	
266	0.000000e+00	-0.000000e+00	
267	5.000000e-02	5.190180e-06	
268	1.000000e-01	1.023408e-05	
269	1.500000e-01	1.514224e-05	
270	2.000000e-01	1.991852e-05	
271	2.500000e-01	2.456508e-05	
272	3.000000e-01	2.908363e-05	
273	3.500000e-01	3.347573e-05	
274	4.000000e-01	3.774292e-05	
275	4.500000e-01	4.188670e-05	
276	5.000000e-01	4.590854e-05	
277	5.500000e-01	4.980989e-05	
278	6.000000e-01	5.359217e-05	
279	6.500000e-01	5.725679e-05	
280	7.000000e-01	6.080514e-05	
281	7.500000e-01	6.423857e-05	
282	8.000000e-01	6.755845e-05	
283	8.500000e-01	7.076608e-05	
284	9.000000e-01	7.386278e-05	
285	9.500000e-01	7.684985e-05	
286	1.000000e+00	7.972855e-05	

Index   v-sweep         -i(vds)         
--------------------------------------------------------------------------------
287	1.050000e+00	8.250014e-05	
288	1.100000e+00	8.516586e-05	
289	1.150000e+00	8.772692e-05	
290	1.200000e+00	9.018449e-05	
291	1.250000e+00	9.253968e-05	
292	1.300000e+00	9.479346e-05	
293	1.350000e+00	9.694652e-05	
294	1.400000e+00	9.899889e-05	
295	1.450000e+00	1.009492e-04	
296	1.500000e+00	1.027930e-04	
297	1.550000e+00	1.045215e-04	
298	1.600000e+00	1.061226e-04	
299	1.650000e+00	1.075882e-04	
300	1.700000e+00	1.089207e-04	
301	1.750000e+00	1.101320e-04	
302	1.800000e+00	1.112377e-04	
303	1.850000e+00	1.122532e-04	
304	1.900000e+00	1.131917e-04	
305	1.950000e+00	1.140643e-04	
306	2.000000e+00	1.148802e-04	
307	2.050000e+00	1.156469e-04	
308	2.100000e+00	1.163704e-04	
309	2.150000e+00	1.170559e-04	
310	2.200000e+00	1.177076e-04	
311	2.250000e+00	1.183293e-04	
312	2.300000e+00	1.189239e-04	
313	2.350000e+00	1.194942e-04	
314	2.400000e+00	1.200423e-04	
315	2.450000e+00	1.205703e-04	
316	2.500000e+00	1.210798e-04	
317	2.550000e+00	1.215724e-04	
318	2.600000e+00	1.220494e-04	
319	2.650000e+00	1.225120e-04	
320	2.700000e+00	1.229613e-04	
321	2.750000e+00	1.233981e-04	
322	2.800000e+00	1.238235e-04	
323	2.850000e+00	1.242380e-04	
324	2.900000e+00	1.246425e-04	
325	2.950000e+00	1.250375e-04	
326	3.000000e+00	1.254236e-04	
327	3.050000e+00	1.258013e-04	
328	3.100000e+00	1.261712e-04	
329	3.150000e+00	1.265336e-04	
330	3.200000e+00	1.268889e-04	
331	3.250000e+00	1.272377e-04	
332	3.300000e+00	1.275801e-04	
333	3.350000e+00	1.279165e-04	
334	3.400000e+00	1.282472e-04	
335	3.450000e+00	1.285724e-04	
336	3.500000e+00	1.288925e-04	
337	3.550000e+00	1.292077e-04	
338	3.600000e+00	1.295182e-04	
339	3.650000e+00	1.298243e-04	
340	3.700000e+00	1.301260e-04	
341	3.750000e+00	1.304237e-04	
342	3.800000e+00	1.307174e-04	
343	3.850000e+00	1.310074e-04	
344	3.900000e+00	1.312938e-04	

Index   v-sweep         -i(vds)         
--------------------------------------------------------------------------------
345	3.950000e+00	1.315767e-04	
346	4.000000e+00	1.318563e-04	
347	4.050000e+00	1.321328e-04	
348	4.100000e+00	1.324062e-04	
349	4.150000e+00	1.326767e-04	
350	4.200000e+00	1.329444e-04	
351	4.250000e+00	1.332094e-04	
352	4.300000e+00	1.334718e-04	
353	4.350000e+00	1.337317e-04	
354	4.400000e+00	1.339892e-04	
355	4.450000e+00	1.342444e-04	
356	4.500000e+00	1.344974e-04	
357	4.550000e+00	1.347482e-04	
358	4.600000e+00	1.349969e-04	
359	4.650000e+00	1.352437e-04	
360	4.700000e+00	1.354885e-04	
361	4.750000e+00	1.357315e-04	
362	4.800000e+00	1.359727e-04	
363	4.850000e+00	1.362122e-04	
364	4.900000e+00	1.364500e-04	
365	4.950000e+00	1.366862e-04	
366	5.000000e+00	1.369209e-04	
367	5.050000e+00	1.371540e-04	
368	5.100000e+00	1.373857e-04	
369	5.150000e+00	1.376161e-04	
370	5.200000e+00	1.378451e-04	
371	5.250000e+00	1.380727e-04	
372	5.300000e+00	1.382992e-04	
373	5.350000e+00	1.385244e-04	
374	5.400000e+00	1.387484e-04	
375	5.450000e+00	1.389713e-04	
376	5.500000e+00	1.391931e-04	
377	5.550000e+00	1.394139e-04	
378	5.600000e+00	1.396336e-04	
379	5.650000e+00	1.398524e-04	
380	5.700000e+00	1.400701e-04	
381	5.750000e+00	1.402870e-04	
382	5.800000e+00	1.405030e-04	
383	5.850000e+00	1.407181e-04	
384	5.900000e+00	1.409323e-04	
385	5.950000e+00	1.411458e-04	
386	6.000000e+00	1.413584e-04	
387	6.050000e+00	1.415704e-04	
388	6.100000e+00	1.417815e-04	
389	6.150000e+00	1.419920e-04	
390	6.200000e+00	1.422018e-04	
391	6.250000e+00	1.424109e-04	
392	6.300000e+00	1.426194e-04	
393	6.350000e+00	1.428272e-04	
394	6.400000e+00	1.430345e-04	
395	6.450000e+00	1.432412e-04	
396	6.500000e+00	1.434473e-04	
397	6.550000e+00	1.436529e-04	
398	6.600000e+00	1.438579e-04	
399	0.000000e+00	-0.000000e+00	
400	5.000000e-02	6.281630e-06	
401	1.000000e-01	1.242859e-05	
402	1.500000e-01	1.845115e-05	

Index   v-sweep         -i(vds)         
--------------------------------------------------------------------------------
403	2.000000e-01	2.435289e-05	
404	2.500000e-01	3.013570e-05	
405	3.000000e-01	3.580102e-05	
406	3.500000e-01	4.135019e-05	
407	4.000000e-01	4.678448e-05	
408	4.500000e-01	5.210513e-05	
409	5.000000e-01	5.731339e-05	
410	5.500000e-01	6.241047e-05	
411	6.000000e-01	6.739757e-05	
412	6.500000e-01	7.227587e-05	
413	7.000000e-01	7.704653e-05	
414	7.500000e-01	8.171070e-05	
415	8.000000e-01	8.626951e-05	
416	8.500000e-01	9.072408e-05	
417	9.000000e-01	9.507550e-05	
418	9.500000e-01	9.932487e-05	
419	1.000000e+00	1.034733e-04	
420	1.050000e+00	1.075217e-04	
421	1.100000e+00	1.114713e-04	
422	1.150000e+00	1.153229e-04	
423	1.200000e+00	1.190778e-04	
424	1.250000e+00	1.227368e-04	
425	1.300000e+00	1.263009e-04	
426	1.350000e+00	1.297711e-04	
427	1.400000e+00	1.331483e-04	
428	1.450000e+00	1.364336e-04	
429	1.500000e+00	1.396277e-04	
430	1.550000e+00	1.427316e-04	
431	1.600000e+00	1.457461e-04	
432	1.650000e+00	1.486719e-04	
433	1.700000e+00	1.515097e-04	
434	1.750000e+00	1.542597e-04	
435	1.800000e+00	1.569218e-04	
436	1.850000e+00	1.594948e-04	
437	1.900000e+00	1.619759e-04	
438	1.950000e+00	1.643585e-04	
439	2.000000e+00	1.666311e-04	
440	2.050000e+00	1.687771e-04	
441	2.100000e+00	1.707795e-04	
442	2.150000e+00	1.726295e-04	
443	2.200000e+00	1.743303e-04	
444	2.250000e+00	1.758938e-04	
445	2.300000e+00	1.773352e-04	
446	2.350000e+00	1.786699e-04	
447	2.400000e+00	1.799119e-04	
448	2.450000e+00	1.810729e-04	
449	2.500000e+00	1.821633e-04	
450	2.550000e+00	1.831913e-04	
451	2.600000e+00	1.841642e-04	
452	2.650000e+00	1.850879e-04	
453	2.700000e+00	1.859677e-04	
454	2.750000e+00	1.868078e-04	
455	2.800000e+00	1.876122e-04	
456	2.850000e+00	1.883840e-04	
457	2.900000e+00	1.891261e-04	
458	2.950000e+00	1.898411e-04	
459	3.000000e+00	1.905310e-04	
460	3.050000e+00	1.911979e-04	

Index   v-sweep         -i(vds)         
--------------------------------------------------------------------------------
461	3.100000e+00	1.918435e-04	
462	3.150000e+00	1.924693e-04	
463	3.200000e+00	1.930767e-04	
464	3.250000e+00	1.936670e-04	
465	3.300000e+00	1.942412e-04	
466	3.350000e+00	1.948004e-04	
467	3.400000e+00	1.953456e-04	
468	3.450000e+00	1.958776e-04	
469	3.500000e+00	1.963970e-04	
470	3.550000e+00	1.969047e-04	
471	3.600000e+00	1.974014e-04	
472	3.650000e+00	1.978875e-04	
473	3.700000e+00	1.983636e-04	
474	3.750000e+00	1.988303e-04	
475	3.800000e+00	1.992881e-04	
476	3.850000e+00	1.997373e-04	
477	3.900000e+00	2.001784e-04	
478	3.950000e+00	2.006117e-04	
479	4.000000e+00	2.010377e-04	
480	4.050000e+00	2.014567e-04	
481	4.100000e+00	2.018689e-04	
482	4.150000e+00	2.022747e-04	
483	4.200000e+00	2.026744e-04	
484	4.250000e+00	2.030682e-04	
485	4.300000e+00	2.034563e-04	
486	4.350000e+00	2.038391e-04	
487	4.400000e+00	2.042166e-04	
488	4.450000e+00	2.045892e-04	
489	4.500000e+00	2.049570e-04	
490	4.550000e+00	2.053203e-04	
491	4.600000e+00	2.056791e-04	
492	4.650000e+00	2.060337e-04	
493	4.700000e+00	2.063843e-04	
494	4.750000e+00	2.067309e-04	
495	4.800000e+00	2.070737e-04	
496	4.850000e+00	2.074130e-04	
497	4.900000e+00	2.077487e-04	
498	4.950000e+00	2.080811e-04	
499	5.000000e+00	2.084102e-04	
500	5.050000e+00	2.087362e-04	
501	5.100000e+00	2.090592e-04	
502	5.150000e+00	2.093793e-04	
503	5.200000e+00	2.096966e-04	
504	5.250000e+00	2.100112e-04	
505	5.300000e+00	2.103231e-04	
506	5.350000e+00	2.106326e-04	
507	5.400000e+00	2.109396e-04	
508	5.450000e+00	2.112443e-04	
509	5.500000e+00	2.115467e-04	
510	5.550000e+00	2.118470e-04	
511	5.600000e+00	2.121451e-04	
512	5.650000e+00	2.124411e-04	
513	5.700000e+00	2.127352e-04	
514	5.750000e+00	2.130274e-04	
515	5.800000e+00	2.133178e-04	
516	5.850000e+00	2.136063e-04	
517	5.900000e+00	2.138932e-04	
518	5.950000e+00	2.141783e-04	

Index   v-sweep         -i(vds)         
--------------------------------------------------------------------------------
519	6.000000e+00	2.144619e-04	
520	6.050000e+00	2.147439e-04	
521	6.100000e+00	2.150244e-04	
522	6.150000e+00	2.153034e-04	
523	6.200000e+00	2.155810e-04	
524	6.250000e+00	2.158572e-04	
525	6.300000e+00	2.161322e-04	
526	6.350000e+00	2.164058e-04	
527	6.400000e+00	2.166782e-04	
528	6.450000e+00	2.169494e-04	
529	6.500000e+00	2.172195e-04	
530	6.550000e+00	2.174884e-04	
531	6.600000e+00	2.177562e-04	
532	0.000000e+00	-0.000000e+00	
533	5.000000e-02	7.029785e-06	
534	1.000000e-01	1.393734e-05	
535	1.500000e-01	2.073269e-05	
536	2.000000e-01	2.741914e-05	
537	2.500000e-01	3.399832e-05	
538	3.000000e-01	4.047145e-05	
539	3.500000e-01	4.683960e-05	
540	4.000000e-01	5.310381e-05	
541	4.500000e-01	5.926511e-05	
542	5.000000e-01	6.532449e-05	
543	5.500000e-01	7.128295e-05	
544	6.000000e-01	7.714146e-05	
545	6.500000e-01	8.290100e-05	
546	7.000000e-01	8.856252e-05	
547	7.500000e-01	9.412696e-05	
548	8.000000e-01	9.959525e-05	
549	8.500000e-01	1.049683e-04	
550	9.000000e-01	1.102470e-04	
551	9.500000e-01	1.154323e-04	
552	1.000000e+00	1.205251e-04	
553	1.050000e+00	1.255262e-04	
554	1.100000e+00	1.304364e-04	
555	1.150000e+00	1.352567e-04	
556	1.200000e+00	1.399879e-04	
557	1.250000e+00	1.446307e-04	
558	1.300000e+00	1.491861e-04	
559	1.350000e+00	1.536548e-04	
560	1.400000e+00	1.580377e-04	
561	1.450000e+00	1.623354e-04	
562	1.500000e+00	1.665489e-04	
563	1.550000e+00	1.706788e-04	
564	1.600000e+00	1.747259e-04	
565	1.650000e+00	1.786910e-04	
566	1.700000e+00	1.825748e-04	
567	1.750000e+00	1.863781e-04	
568	1.800000e+00	1.901015e-04	
569	1.850000e+00	1.937457e-04	
570	1.900000e+00	1.973114e-04	
571	1.950000e+00	2.007993e-04	
572	2.000000e+00	2.042099e-04	
573	2.050000e+00	2.075438e-04	
574	2.100000e+00	2.108014e-04	
575	2.150000e+00	2.139829e-04	
576	2.200000e+00	2.170883e-04	

Index   v-sweep         -i(vds)         
--------------------------------------------------------------------------------
577	2.250000e+00	2.201170e-04	
578	2.300000e+00	2.230674e-04	
579	2.350000e+00	2.259361e-04	
580	2.400000e+00	2.287167e-04	
581	2.450000e+00	2.313983e-04	
582	2.500000e+00	2.339644e-04	
583	2.550000e+00	2.363957e-04	
584	2.600000e+00	2.386761e-04	
585	2.650000e+00	2.407994e-04	
586	2.700000e+00	2.427696e-04	
587	2.750000e+00	2.445980e-04	
588	2.800000e+00	2.462986e-04	
589	2.850000e+00	2.478855e-04	
590	2.900000e+00	2.493721e-04	
591	2.950000e+00	2.507697e-04	
592	3.000000e+00	2.520885e-04	
593	3.050000e+00	2.533370e-04	
594	3.100000e+00	2.545227e-04	
595	3.150000e+00	2.556518e-04	
596	3.200000e+00	2.567299e-04	
597	3.250000e+00	2.577617e-04	
598	3.300000e+00	2.587513e-04	
599	3.350000e+00	2.597023e-04	
600	3.400000e+00	2.606179e-04	
601	3.450000e+00	2.615009e-04	
602	3.500000e+00	2.623539e-04	
603	3.550000e+00	2.631789e-04	
604	3.600000e+00	2.639781e-04	
605	3.650000e+00	2.647532e-04	
606	3.700000e+00	2.655057e-04	
607	3.750000e+00	2.662373e-04	
608	3.800000e+00	2.669491e-04	
609	3.850000e+00	2.676423e-04	
610	3.900000e+00	2.683182e-04	
611	3.950000e+00	2.689776e-04	
612	4.000000e+00	2.696215e-04	
613	4.050000e+00	2.702507e-04	
614	4.100000e+00	2.708660e-04	
615	4.150000e+00	2.714682e-04	
616	4.200000e+00	2.720579e-04	
617	4.250000e+00	2.726357e-04	
618	4.300000e+00	2.732023e-04	
619	4.350000e+00	2.737580e-04	
620	4.400000e+00	2.743036e-04	
621	4.450000e+00	2.748393e-04	
622	4.500000e+00	2.753657e-04	
623	4.550000e+00	2.758832e-04	
624	4.600000e+00	2.763921e-04	
625	4.650000e+00	2.768929e-04	
626	4.700000e+00	2.773858e-04	
627	4.750000e+00	2.778712e-04	
628	4.800000e+00	2.783495e-04	
629	4.850000e+00	2.788208e-04	
630	4.900000e+00	2.792856e-04	
631	4.950000e+00	2.797440e-04	
632	5.000000e+00	2.801962e-04	
633	5.050000e+00	2.806426e-04	
634	5.100000e+00	2.810834e-04	

Index   v-sweep         -i(vds)         
--------------------------------------------------------------------------------
635	5.150000e+00	2.815187e-04	
636	5.200000e+00	2.819488e-04	
637	5.250000e+00	2.823739e-04	
638	5.300000e+00	2.827941e-04	
639	5.350000e+00	2.832097e-04	
640	5.400000e+00	2.836207e-04	
641	5.450000e+00	2.840275e-04	
642	5.500000e+00	2.844300e-04	
643	5.550000e+00	2.848285e-04	
644	5.600000e+00	2.852232e-04	
645	5.650000e+00	2.856140e-04	
646	5.700000e+00	2.860013e-04	
647	5.750000e+00	2.863851e-04	
648	5.800000e+00	2.867655e-04	
649	5.850000e+00	2.871427e-04	
650	5.900000e+00	2.875167e-04	
651	5.950000e+00	2.878876e-04	
652	6.000000e+00	2.882557e-04	
653	6.050000e+00	2.886209e-04	
654	6.100000e+00	2.889833e-04	
655	6.150000e+00	2.893431e-04	
656	6.200000e+00	2.897004e-04	
657	6.250000e+00	2.900552e-04	
658	6.300000e+00	2.904076e-04	
659	6.350000e+00	2.907576e-04	
660	6.400000e+00	2.911054e-04	
661	6.450000e+00	2.914511e-04	
662	6.500000e+00	2.917947e-04	
663	6.550000e+00	2.921362e-04	
664	6.600000e+00	2.924758e-04	
665	0.000000e+00	-0.000000e+00	
666	5.000000e-02	7.530414e-06	
667	1.000000e-01	1.495077e-05	
668	1.500000e-01	2.227084e-05	
669	2.000000e-01	2.949374e-05	
670	2.500000e-01	3.662087e-05	
671	3.000000e-01	4.365325e-05	
672	3.500000e-01	5.059172e-05	
673	4.000000e-01	5.743713e-05	
674	4.500000e-01	6.419030e-05	
675	5.000000e-01	7.085205e-05	
676	5.500000e-01	7.742315e-05	
677	6.000000e-01	8.390442e-05	
678	6.500000e-01	9.029662e-05	
679	7.000000e-01	9.660054e-05	
680	7.500000e-01	1.028169e-04	
681	8.000000e-01	1.089465e-04	
682	8.500000e-01	1.149901e-04	
683	9.000000e-01	1.209484e-04	
684	9.500000e-01	1.268221e-04	
685	1.000000e+00	1.326120e-04	
686	1.050000e+00	1.383187e-04	
687	1.100000e+00	1.439430e-04	
688	1.150000e+00	1.494856e-04	
689	1.200000e+00	1.549471e-04	
690	1.250000e+00	1.603282e-04	
691	1.300000e+00	1.656297e-04	
692	1.350000e+00	1.708521e-04	

Index   v-sweep         -i(vds)         
--------------------------------------------------------------------------------
693	1.400000e+00	1.759961e-04	
694	1.450000e+00	1.810624e-04	
695	1.500000e+00	1.860516e-04	
696	1.550000e+00	1.909644e-04	
697	1.600000e+00	1.958013e-04	
698	1.650000e+00	2.005630e-04	
699	1.700000e+00	2.052502e-04	
700	1.750000e+00	2.098633e-04	
701	1.800000e+00	2.144031e-04	
702	1.850000e+00	2.188701e-04	
703	1.900000e+00	2.232649e-04	
704	1.950000e+00	2.275880e-04	
705	2.000000e+00	2.318401e-04	
706	2.050000e+00	2.360217e-04	
707	2.100000e+00	2.401334e-04	
708	2.150000e+00	2.441757e-04	
709	2.200000e+00	2.481492e-04	
710	2.250000e+00	2.520543e-04	
711	2.300000e+00	2.558917e-04	
712	2.350000e+00	2.596617e-04	
713	2.400000e+00	2.633648e-04	
714	2.450000e+00	2.670014e-04	
715	2.500000e+00	2.705720e-04	
716	2.550000e+00	2.740767e-04	
717	2.600000e+00	2.775157e-04	
718	2.650000e+00	2.808888e-04	
719	2.700000e+00	2.841953e-04	
720	2.750000e+00	2.874341e-04	
721	2.800000e+00	2.906024e-04	
722	2.850000e+00	2.936957e-04	
723	2.900000e+00	2.967059e-04	
724	2.950000e+00	2.996205e-04	
725	3.000000e+00	3.024223e-04	
726	3.050000e+00	3.050924e-04	
727	3.100000e+00	3.076155e-04	
728	3.150000e+00	3.099844e-04	
729	3.200000e+00	3.122015e-04	
730	3.250000e+00	3.142752e-04	
731	3.300000e+00	3.162175e-04	
732	3.350000e+00	3.180411e-04	
733	3.400000e+00	3.197580e-04	
734	3.450000e+00	3.213794e-04	
735	3.500000e+00	3.229151e-04	
736	3.550000e+00	3.243736e-04	
737	3.600000e+00	3.257626e-04	
738	3.650000e+00	3.270885e-04	
739	3.700000e+00	3.283571e-04	
740	3.750000e+00	3.295734e-04	
741	3.800000e+00	3.307418e-04	
742	3.850000e+00	3.318662e-04	
743	3.900000e+00	3.329499e-04	
744	3.950000e+00	3.339962e-04	
745	4.000000e+00	3.350077e-04	
746	4.050000e+00	3.359869e-04	
747	4.100000e+00	3.369359e-04	
748	4.150000e+00	3.378569e-04	
749	4.200000e+00	3.387515e-04	
750	4.250000e+00	3.396214e-04	

Index   v-sweep         -i(vds)         
--------------------------------------------------------------------------------
751	4.300000e+00	3.404681e-04	
752	4.350000e+00	3.412930e-04	
753	4.400000e+00	3.420973e-04	
754	4.450000e+00	3.428822e-04	
755	4.500000e+00	3.436486e-04	
756	4.550000e+00	3.443977e-04	
757	4.600000e+00	3.451302e-04	
758	4.650000e+00	3.458470e-04	
759	4.700000e+00	3.465489e-04	
760	4.750000e+00	3.472367e-04	
761	4.800000e+00	3.479109e-04	
762	4.850000e+00	3.485722e-04	
763	4.900000e+00	3.492213e-04	
764	4.950000e+00	3.498585e-04	
765	5.000000e+00	3.504846e-04	
766	5.050000e+00	3.510998e-04	
767	5.100000e+00	3.517049e-04	
768	5.150000e+00	3.523000e-04	
769	5.200000e+00	3.528857e-04	
770	5.250000e+00	3.534623e-04	
771	5.300000e+00	3.540303e-04	
772	5.350000e+00	3.545899e-04	
773	5.400000e+00	3.551414e-04	
774	5.450000e+00	3.556853e-04	
775	5.500000e+00	3.562218e-04	
776	5.550000e+00	3.567511e-04	
777	5.600000e+00	3.572736e-04	
778	5.650000e+00	3.577894e-04	
779	5.700000e+00	3.582990e-04	
780	5.750000e+00	3.588024e-04	
781	5.800000e+00	3.592999e-04	
782	5.850000e+00	3.597917e-04	
783	5.900000e+00	3.602780e-04	
784	5.950000e+00	3.607591e-04	
785	6.000000e+00	3.612351e-04	
786	6.050000e+00	3.617061e-04	
787	6.100000e+00	3.621724e-04	
788	6.150000e+00	3.626341e-04	
789	6.200000e+00	3.630914e-04	
790	6.250000e+00	3.635445e-04	
791	6.300000e+00	3.639934e-04	
792	6.350000e+00	3.644383e-04	
793	6.400000e+00	3.648794e-04	
794	6.450000e+00	3.653168e-04	
795	6.500000e+00	3.657506e-04	
796	6.550000e+00	3.661809e-04	
797	6.600000e+00	3.666078e-04	
Note: No ".plot", ".print", or ".fourier" lines; no simulations run
