
Note: Compatibility modes selected: hs

Warning: m=xx on .subckt line will override multiplier m hierarchy!


Circuit: ***************************

Doing analysis at TEMP = 125.000000 and TNOM = 125.000000


No. of Data Rows : 798
                          ***************************
                          DC transfer characteristic  Mon Jan  9 13:58:05  2023
--------------------------------------------------------------------------------
Index   v-sweep         -i(vds)         
--------------------------------------------------------------------------------
0	0.000000e+00	-0.000000e+00	
1	5.000000e-02	1.396179e-06	
2	1.000000e-01	2.597772e-06	
3	1.500000e-01	3.639060e-06	
4	2.000000e-01	4.529344e-06	
5	2.500000e-01	5.271759e-06	
6	3.000000e-01	5.868164e-06	
7	3.500000e-01	6.320965e-06	
8	4.000000e-01	6.635860e-06	
9	4.500000e-01	6.830217e-06	
10	5.000000e-01	6.943780e-06	
11	5.500000e-01	7.019578e-06	
12	6.000000e-01	7.079025e-06	
13	6.500000e-01	7.129563e-06	
14	7.000000e-01	7.174113e-06	
15	7.500000e-01	7.214160e-06	
16	8.000000e-01	7.250617e-06	
17	8.500000e-01	7.284114e-06	
18	9.000000e-01	7.315114e-06	
19	9.500000e-01	7.343974e-06	
20	1.000000e+00	7.370976e-06	
21	1.050000e+00	7.396348e-06	
22	1.100000e+00	7.420278e-06	
23	1.150000e+00	7.442924e-06	
24	1.200000e+00	7.464416e-06	
25	1.250000e+00	7.484867e-06	
26	1.300000e+00	7.504375e-06	
27	1.350000e+00	7.523022e-06	
28	1.400000e+00	7.540882e-06	
29	1.450000e+00	7.558019e-06	
30	1.500000e+00	7.574490e-06	
31	1.550000e+00	7.590344e-06	
32	1.600000e+00	7.605626e-06	
33	1.650000e+00	7.620377e-06	
34	1.700000e+00	7.634632e-06	
35	1.750000e+00	7.648423e-06	
36	1.800000e+00	7.661780e-06	
37	1.850000e+00	7.674729e-06	
38	1.900000e+00	7.687295e-06	
39	1.950000e+00	7.699500e-06	
40	2.000000e+00	7.711365e-06	
41	2.050000e+00	7.722907e-06	
42	2.100000e+00	7.734144e-06	
43	2.150000e+00	7.745092e-06	
44	2.200000e+00	7.755765e-06	
45	2.250000e+00	7.766177e-06	
46	2.300000e+00	7.776342e-06	
47	2.350000e+00	7.786269e-06	
48	2.400000e+00	7.795971e-06	
49	2.450000e+00	7.805458e-06	
50	2.500000e+00	7.814739e-06	
51	2.550000e+00	7.823823e-06	
52	2.600000e+00	7.832719e-06	
53	2.650000e+00	7.841434e-06	
54	2.700000e+00	7.849976e-06	

Index   v-sweep         -i(vds)         
--------------------------------------------------------------------------------
55	2.750000e+00	7.858351e-06	
56	2.800000e+00	7.866568e-06	
57	2.850000e+00	7.874631e-06	
58	2.900000e+00	7.882546e-06	
59	2.950000e+00	7.890320e-06	
60	3.000000e+00	7.897957e-06	
61	3.050000e+00	7.905463e-06	
62	3.100000e+00	7.912842e-06	
63	3.150000e+00	7.920099e-06	
64	3.200000e+00	7.927238e-06	
65	3.250000e+00	7.934263e-06	
66	3.300000e+00	7.941178e-06	
67	3.350000e+00	7.947986e-06	
68	3.400000e+00	7.954692e-06	
69	3.450000e+00	7.961299e-06	
70	3.500000e+00	7.967810e-06	
71	3.550000e+00	7.974228e-06	
72	3.600000e+00	7.980555e-06	
73	3.650000e+00	7.986796e-06	
74	3.700000e+00	7.992952e-06	
75	3.750000e+00	7.999026e-06	
76	3.800000e+00	8.005020e-06	
77	3.850000e+00	8.010938e-06	
78	3.900000e+00	8.016781e-06	
79	3.950000e+00	8.022551e-06	
80	4.000000e+00	8.028251e-06	
81	4.050000e+00	8.033882e-06	
82	4.100000e+00	8.039447e-06	
83	4.150000e+00	8.044948e-06	
84	4.200000e+00	8.050385e-06	
85	4.250000e+00	8.055762e-06	
86	4.300000e+00	8.061079e-06	
87	4.350000e+00	8.066338e-06	
88	4.400000e+00	8.071541e-06	
89	4.450000e+00	8.076690e-06	
90	4.500000e+00	8.081785e-06	
91	4.550000e+00	8.086828e-06	
92	4.600000e+00	8.091821e-06	
93	4.650000e+00	8.096764e-06	
94	4.700000e+00	8.101659e-06	
95	4.750000e+00	8.106508e-06	
96	4.800000e+00	8.111311e-06	
97	4.850000e+00	8.116069e-06	
98	4.900000e+00	8.120784e-06	
99	4.950000e+00	8.125457e-06	
100	5.000000e+00	8.130088e-06	
101	5.050000e+00	8.134679e-06	
102	5.100000e+00	8.139230e-06	
103	5.150000e+00	8.143743e-06	
104	5.200000e+00	8.148219e-06	
105	5.250000e+00	8.152658e-06	
106	5.300000e+00	8.157061e-06	
107	5.350000e+00	8.161428e-06	
108	5.400000e+00	8.165762e-06	
109	5.450000e+00	8.170062e-06	
110	5.500000e+00	8.174329e-06	
111	5.550000e+00	8.178564e-06	
112	5.600000e+00	8.182768e-06	

Index   v-sweep         -i(vds)         
--------------------------------------------------------------------------------
113	5.650000e+00	8.186942e-06	
114	5.700000e+00	8.191085e-06	
115	5.750000e+00	8.195199e-06	
116	5.800000e+00	8.199284e-06	
117	5.850000e+00	8.203341e-06	
118	5.900000e+00	8.207370e-06	
119	5.950000e+00	8.211372e-06	
120	6.000000e+00	8.215348e-06	
121	6.050000e+00	8.219298e-06	
122	6.100000e+00	8.223223e-06	
123	6.150000e+00	8.227122e-06	
124	6.200000e+00	8.230997e-06	
125	6.250000e+00	8.234849e-06	
126	6.300000e+00	8.238677e-06	
127	6.350000e+00	8.242482e-06	
128	6.400000e+00	8.246264e-06	
129	6.450000e+00	8.250024e-06	
130	6.500000e+00	8.253763e-06	
131	6.550000e+00	8.257480e-06	
132	6.600000e+00	8.261176e-06	
133	0.000000e+00	-0.000000e+00	
134	5.000000e-02	4.163255e-06	
135	1.000000e-01	8.139930e-06	
136	1.500000e-01	1.196423e-05	
137	2.000000e-01	1.564534e-05	
138	2.500000e-01	1.918616e-05	
139	3.000000e-01	2.258799e-05	
140	3.500000e-01	2.585177e-05	
141	4.000000e-01	2.897830e-05	
142	4.500000e-01	3.196835e-05	
143	5.000000e-01	3.482271e-05	
144	5.500000e-01	3.754213e-05	
145	6.000000e-01	4.012736e-05	
146	6.500000e-01	4.257917e-05	
147	7.000000e-01	4.489831e-05	
148	7.500000e-01	4.708551e-05	
149	8.000000e-01	4.914152e-05	
150	8.500000e-01	5.106710e-05	
151	9.000000e-01	5.286298e-05	
152	9.500000e-01	5.452992e-05	
153	1.000000e+00	5.606871e-05	
154	1.050000e+00	5.748015e-05	
155	1.100000e+00	5.876511e-05	
156	1.150000e+00	5.992462e-05	
157	1.200000e+00	6.096000e-05	
158	1.250000e+00	6.187321e-05	
159	1.300000e+00	6.266767e-05	
160	1.350000e+00	6.334983e-05	
161	1.400000e+00	6.393105e-05	
162	1.450000e+00	6.442751e-05	
163	1.500000e+00	6.485658e-05	
164	1.550000e+00	6.523305e-05	
165	1.600000e+00	6.556807e-05	
166	1.650000e+00	6.586980e-05	
167	1.700000e+00	6.614424e-05	
168	1.750000e+00	6.639592e-05	
169	1.800000e+00	6.662833e-05	
170	1.850000e+00	6.684421e-05	

Index   v-sweep         -i(vds)         
--------------------------------------------------------------------------------
171	1.900000e+00	6.704576e-05	
172	1.950000e+00	6.723476e-05	
173	2.000000e+00	6.741269e-05	
174	2.050000e+00	6.758077e-05	
175	2.100000e+00	6.774004e-05	
176	2.150000e+00	6.789137e-05	
177	2.200000e+00	6.803552e-05	
178	2.250000e+00	6.817314e-05	
179	2.300000e+00	6.830479e-05	
180	2.350000e+00	6.843098e-05	
181	2.400000e+00	6.855213e-05	
182	2.450000e+00	6.866864e-05	
183	2.500000e+00	6.878085e-05	
184	2.550000e+00	6.888906e-05	
185	2.600000e+00	6.899355e-05	
186	2.650000e+00	6.909457e-05	
187	2.700000e+00	6.919234e-05	
188	2.750000e+00	6.928706e-05	
189	2.800000e+00	6.937892e-05	
190	2.850000e+00	6.946809e-05	
191	2.900000e+00	6.955471e-05	
192	2.950000e+00	6.963894e-05	
193	3.000000e+00	6.972091e-05	
194	3.050000e+00	6.980072e-05	
195	3.100000e+00	6.987849e-05	
196	3.150000e+00	6.995433e-05	
197	3.200000e+00	7.002833e-05	
198	3.250000e+00	7.010058e-05	
199	3.300000e+00	7.017116e-05	
200	3.350000e+00	7.024015e-05	
201	3.400000e+00	7.030761e-05	
202	3.450000e+00	7.037363e-05	
203	3.500000e+00	7.043825e-05	
204	3.550000e+00	7.050154e-05	
205	3.600000e+00	7.056355e-05	
206	3.650000e+00	7.062434e-05	
207	3.700000e+00	7.068396e-05	
208	3.750000e+00	7.074245e-05	
209	3.800000e+00	7.079986e-05	
210	3.850000e+00	7.085622e-05	
211	3.900000e+00	7.091159e-05	
212	3.950000e+00	7.096599e-05	
213	4.000000e+00	7.101946e-05	
214	4.050000e+00	7.107204e-05	
215	4.100000e+00	7.112375e-05	
216	4.150000e+00	7.117463e-05	
217	4.200000e+00	7.122471e-05	
218	4.250000e+00	7.127401e-05	
219	4.300000e+00	7.132257e-05	
220	4.350000e+00	7.137040e-05	
221	4.400000e+00	7.141753e-05	
222	4.450000e+00	7.146398e-05	
223	4.500000e+00	7.150978e-05	
224	4.550000e+00	7.155495e-05	
225	4.600000e+00	7.159950e-05	
226	4.650000e+00	7.164346e-05	
227	4.700000e+00	7.168685e-05	
228	4.750000e+00	7.172967e-05	

Index   v-sweep         -i(vds)         
--------------------------------------------------------------------------------
229	4.800000e+00	7.177196e-05	
230	4.850000e+00	7.181372e-05	
231	4.900000e+00	7.185497e-05	
232	4.950000e+00	7.189573e-05	
233	5.000000e+00	7.193601e-05	
234	5.050000e+00	7.197583e-05	
235	5.100000e+00	7.201519e-05	
236	5.150000e+00	7.205412e-05	
237	5.200000e+00	7.209261e-05	
238	5.250000e+00	7.213070e-05	
239	5.300000e+00	7.216838e-05	
240	5.350000e+00	7.220567e-05	
241	5.400000e+00	7.224258e-05	
242	5.450000e+00	7.227911e-05	
243	5.500000e+00	7.231529e-05	
244	5.550000e+00	7.235111e-05	
245	5.600000e+00	7.238660e-05	
246	5.650000e+00	7.242175e-05	
247	5.700000e+00	7.245657e-05	
248	5.750000e+00	7.249108e-05	
249	5.800000e+00	7.252528e-05	
250	5.850000e+00	7.255918e-05	
251	5.900000e+00	7.259279e-05	
252	5.950000e+00	7.262611e-05	
253	6.000000e+00	7.265916e-05	
254	6.050000e+00	7.269193e-05	
255	6.100000e+00	7.272444e-05	
256	6.150000e+00	7.275669e-05	
257	6.200000e+00	7.278868e-05	
258	6.250000e+00	7.282043e-05	
259	6.300000e+00	7.285194e-05	
260	6.350000e+00	7.288322e-05	
261	6.400000e+00	7.291426e-05	
262	6.450000e+00	7.294508e-05	
263	6.500000e+00	7.297568e-05	
264	6.550000e+00	7.300607e-05	
265	6.600000e+00	7.303624e-05	
266	0.000000e+00	-0.000000e+00	
267	5.000000e-02	6.122749e-06	
268	1.000000e-01	1.207479e-05	
269	1.500000e-01	1.789019e-05	
270	2.000000e-01	2.357800e-05	
271	2.500000e-01	2.914096e-05	
272	3.000000e-01	3.458028e-05	
273	3.500000e-01	3.989672e-05	
274	4.000000e-01	4.509096e-05	
275	4.500000e-01	5.016365e-05	
276	5.000000e-01	5.511543e-05	
277	5.500000e-01	5.994693e-05	
278	6.000000e-01	6.465878e-05	
279	6.500000e-01	6.925159e-05	
280	7.000000e-01	7.372600e-05	
281	7.500000e-01	7.808260e-05	
282	8.000000e-01	8.232200e-05	
283	8.500000e-01	8.644483e-05	
284	9.000000e-01	9.045167e-05	
285	9.500000e-01	9.434312e-05	
286	1.000000e+00	9.811977e-05	

Index   v-sweep         -i(vds)         
--------------------------------------------------------------------------------
287	1.050000e+00	1.017822e-04	
288	1.100000e+00	1.053310e-04	
289	1.150000e+00	1.087668e-04	
290	1.200000e+00	1.120901e-04	
291	1.250000e+00	1.153016e-04	
292	1.300000e+00	1.184017e-04	
293	1.350000e+00	1.213910e-04	
294	1.400000e+00	1.242701e-04	
295	1.450000e+00	1.270396e-04	
296	1.500000e+00	1.297000e-04	
297	1.550000e+00	1.322519e-04	
298	1.600000e+00	1.346958e-04	
299	1.650000e+00	1.370321e-04	
300	1.700000e+00	1.392616e-04	
301	1.750000e+00	1.413846e-04	
302	1.800000e+00	1.434017e-04	
303	1.850000e+00	1.453133e-04	
304	1.900000e+00	1.471199e-04	
305	1.950000e+00	1.488218e-04	
306	2.000000e+00	1.504194e-04	
307	2.050000e+00	1.519128e-04	
308	2.100000e+00	1.533017e-04	
309	2.150000e+00	1.545857e-04	
310	2.200000e+00	1.557643e-04	
311	2.250000e+00	1.568376e-04	
312	2.300000e+00	1.578085e-04	
313	2.350000e+00	1.586835e-04	
314	2.400000e+00	1.594726e-04	
315	2.450000e+00	1.601871e-04	
316	2.500000e+00	1.608377e-04	
317	2.550000e+00	1.614337e-04	
318	2.600000e+00	1.619830e-04	
319	2.650000e+00	1.624921e-04	
320	2.700000e+00	1.629662e-04	
321	2.750000e+00	1.634097e-04	
322	2.800000e+00	1.638263e-04	
323	2.850000e+00	1.642190e-04	
324	2.900000e+00	1.645904e-04	
325	2.950000e+00	1.649426e-04	
326	3.000000e+00	1.652776e-04	
327	3.050000e+00	1.655968e-04	
328	3.100000e+00	1.659018e-04	
329	3.150000e+00	1.661937e-04	
330	3.200000e+00	1.664737e-04	
331	3.250000e+00	1.667425e-04	
332	3.300000e+00	1.670012e-04	
333	3.350000e+00	1.672504e-04	
334	3.400000e+00	1.674908e-04	
335	3.450000e+00	1.677230e-04	
336	3.500000e+00	1.679476e-04	
337	3.550000e+00	1.681649e-04	
338	3.600000e+00	1.683756e-04	
339	3.650000e+00	1.685799e-04	
340	3.700000e+00	1.687783e-04	
341	3.750000e+00	1.689710e-04	
342	3.800000e+00	1.691585e-04	
343	3.850000e+00	1.693409e-04	
344	3.900000e+00	1.695186e-04	

Index   v-sweep         -i(vds)         
--------------------------------------------------------------------------------
345	3.950000e+00	1.696918e-04	
346	4.000000e+00	1.698606e-04	
347	4.050000e+00	1.700254e-04	
348	4.100000e+00	1.701864e-04	
349	4.150000e+00	1.703436e-04	
350	4.200000e+00	1.704973e-04	
351	4.250000e+00	1.706476e-04	
352	4.300000e+00	1.707946e-04	
353	4.350000e+00	1.709387e-04	
354	4.400000e+00	1.710797e-04	
355	4.450000e+00	1.712179e-04	
356	4.500000e+00	1.713534e-04	
357	4.550000e+00	1.714863e-04	
358	4.600000e+00	1.716167e-04	
359	4.650000e+00	1.717447e-04	
360	4.700000e+00	1.718704e-04	
361	4.750000e+00	1.719938e-04	
362	4.800000e+00	1.721152e-04	
363	4.850000e+00	1.722344e-04	
364	4.900000e+00	1.723517e-04	
365	4.950000e+00	1.724670e-04	
366	5.000000e+00	1.725805e-04	
367	5.050000e+00	1.726923e-04	
368	5.100000e+00	1.728023e-04	
369	5.150000e+00	1.729106e-04	
370	5.200000e+00	1.730173e-04	
371	5.250000e+00	1.731225e-04	
372	5.300000e+00	1.732262e-04	
373	5.350000e+00	1.733284e-04	
374	5.400000e+00	1.734293e-04	
375	5.450000e+00	1.735287e-04	
376	5.500000e+00	1.736269e-04	
377	5.550000e+00	1.737237e-04	
378	5.600000e+00	1.738194e-04	
379	5.650000e+00	1.739138e-04	
380	5.700000e+00	1.740071e-04	
381	5.750000e+00	1.740993e-04	
382	5.800000e+00	1.741903e-04	
383	5.850000e+00	1.742803e-04	
384	5.900000e+00	1.743693e-04	
385	5.950000e+00	1.744573e-04	
386	6.000000e+00	1.745443e-04	
387	6.050000e+00	1.746303e-04	
388	6.100000e+00	1.747155e-04	
389	6.150000e+00	1.747997e-04	
390	6.200000e+00	1.748831e-04	
391	6.250000e+00	1.749657e-04	
392	6.300000e+00	1.750474e-04	
393	6.350000e+00	1.751283e-04	
394	6.400000e+00	1.752085e-04	
395	6.450000e+00	1.752879e-04	
396	6.500000e+00	1.753665e-04	
397	6.550000e+00	1.754445e-04	
398	6.600000e+00	1.755218e-04	
399	0.000000e+00	-0.000000e+00	
400	5.000000e-02	7.552731e-06	
401	1.000000e-01	1.494953e-05	
402	1.500000e-01	2.222434e-05	

Index   v-sweep         -i(vds)         
--------------------------------------------------------------------------------
403	2.000000e-01	2.938606e-05	
404	2.500000e-01	3.643734e-05	
405	3.000000e-01	4.337921e-05	
406	3.500000e-01	5.021235e-05	
407	4.000000e-01	5.693729e-05	
408	4.500000e-01	6.355456e-05	
409	5.000000e-01	7.006468e-05	
410	5.500000e-01	7.646816e-05	
411	6.000000e-01	8.276550e-05	
412	6.500000e-01	8.895720e-05	
413	7.000000e-01	9.504376e-05	
414	7.500000e-01	1.010257e-04	
415	8.000000e-01	1.069035e-04	
416	8.500000e-01	1.126776e-04	
417	9.000000e-01	1.183485e-04	
418	9.500000e-01	1.239168e-04	
419	1.000000e+00	1.293828e-04	
420	1.050000e+00	1.347471e-04	
421	1.100000e+00	1.400102e-04	
422	1.150000e+00	1.451725e-04	
423	1.200000e+00	1.502344e-04	
424	1.250000e+00	1.551965e-04	
425	1.300000e+00	1.600593e-04	
426	1.350000e+00	1.648231e-04	
427	1.400000e+00	1.694884e-04	
428	1.450000e+00	1.740557e-04	
429	1.500000e+00	1.785255e-04	
430	1.550000e+00	1.828981e-04	
431	1.600000e+00	1.871740e-04	
432	1.650000e+00	1.913538e-04	
433	1.700000e+00	1.954377e-04	
434	1.750000e+00	1.994263e-04	
435	1.800000e+00	2.033200e-04	
436	1.850000e+00	2.071192e-04	
437	1.900000e+00	2.108243e-04	
438	1.950000e+00	2.144358e-04	
439	2.000000e+00	2.179541e-04	
440	2.050000e+00	2.213796e-04	
441	2.100000e+00	2.247127e-04	
442	2.150000e+00	2.279539e-04	
443	2.200000e+00	2.311034e-04	
444	2.250000e+00	2.341618e-04	
445	2.300000e+00	2.371295e-04	
446	2.350000e+00	2.400067e-04	
447	2.400000e+00	2.427939e-04	
448	2.450000e+00	2.454915e-04	
449	2.500000e+00	2.480997e-04	
450	2.550000e+00	2.506189e-04	
451	2.600000e+00	2.530494e-04	
452	2.650000e+00	2.553914e-04	
453	2.700000e+00	2.576449e-04	
454	2.750000e+00	2.598099e-04	
455	2.800000e+00	2.618862e-04	
456	2.850000e+00	2.638730e-04	
457	2.900000e+00	2.657692e-04	
458	2.950000e+00	2.675723e-04	
459	3.000000e+00	2.692791e-04	
460	3.050000e+00	2.708847e-04	

Index   v-sweep         -i(vds)         
--------------------------------------------------------------------------------
461	3.100000e+00	2.723840e-04	
462	3.150000e+00	2.737737e-04	
463	3.200000e+00	2.750543e-04	
464	3.250000e+00	2.762308e-04	
465	3.300000e+00	2.773119e-04	
466	3.350000e+00	2.783074e-04	
467	3.400000e+00	2.792274e-04	
468	3.450000e+00	2.800812e-04	
469	3.500000e+00	2.808766e-04	
470	3.550000e+00	2.816208e-04	
471	3.600000e+00	2.823195e-04	
472	3.650000e+00	2.829778e-04	
473	3.700000e+00	2.836000e-04	
474	3.750000e+00	2.841897e-04	
475	3.800000e+00	2.847502e-04	
476	3.850000e+00	2.852841e-04	
477	3.900000e+00	2.857938e-04	
478	3.950000e+00	2.862814e-04	
479	4.000000e+00	2.867487e-04	
480	4.050000e+00	2.871973e-04	
481	4.100000e+00	2.876287e-04	
482	4.150000e+00	2.880440e-04	
483	4.200000e+00	2.884446e-04	
484	4.250000e+00	2.888313e-04	
485	4.300000e+00	2.892051e-04	
486	4.350000e+00	2.895668e-04	
487	4.400000e+00	2.899173e-04	
488	4.450000e+00	2.902570e-04	
489	4.500000e+00	2.905868e-04	
490	4.550000e+00	2.909071e-04	
491	4.600000e+00	2.912186e-04	
492	4.650000e+00	2.915216e-04	
493	4.700000e+00	2.918166e-04	
494	4.750000e+00	2.921041e-04	
495	4.800000e+00	2.923843e-04	
496	4.850000e+00	2.926577e-04	
497	4.900000e+00	2.929247e-04	
498	4.950000e+00	2.931854e-04	
499	5.000000e+00	2.934402e-04	
500	5.050000e+00	2.936894e-04	
501	5.100000e+00	2.939332e-04	
502	5.150000e+00	2.941718e-04	
503	5.200000e+00	2.944055e-04	
504	5.250000e+00	2.946344e-04	
505	5.300000e+00	2.948588e-04	
506	5.350000e+00	2.950789e-04	
507	5.400000e+00	2.952948e-04	
508	5.450000e+00	2.955066e-04	
509	5.500000e+00	2.957147e-04	
510	5.550000e+00	2.959190e-04	
511	5.600000e+00	2.961197e-04	
512	5.650000e+00	2.963170e-04	
513	5.700000e+00	2.965109e-04	
514	5.750000e+00	2.967017e-04	
515	5.800000e+00	2.968894e-04	
516	5.850000e+00	2.970742e-04	
517	5.900000e+00	2.972560e-04	
518	5.950000e+00	2.974351e-04	

Index   v-sweep         -i(vds)         
--------------------------------------------------------------------------------
519	6.000000e+00	2.976116e-04	
520	6.050000e+00	2.977854e-04	
521	6.100000e+00	2.979567e-04	
522	6.150000e+00	2.981257e-04	
523	6.200000e+00	2.982923e-04	
524	6.250000e+00	2.984566e-04	
525	6.300000e+00	2.986188e-04	
526	6.350000e+00	2.987788e-04	
527	6.400000e+00	2.989368e-04	
528	6.450000e+00	2.990927e-04	
529	6.500000e+00	2.992468e-04	
530	6.550000e+00	2.993990e-04	
531	6.600000e+00	2.995493e-04	
532	0.000000e+00	-0.000000e+00	
533	5.000000e-02	8.615570e-06	
534	1.000000e-01	1.708835e-05	
535	1.500000e-01	2.545217e-05	
536	2.000000e-01	3.371584e-05	
537	2.500000e-01	4.188187e-05	
538	3.000000e-01	4.995123e-05	
539	3.500000e-01	5.792445e-05	
540	4.000000e-01	6.580199e-05	
541	4.500000e-01	7.358427e-05	
542	5.000000e-01	8.127169e-05	
543	5.500000e-01	8.886468e-05	
544	6.000000e-01	9.636363e-05	
545	6.500000e-01	1.037690e-04	
546	7.000000e-01	1.110810e-04	
547	7.500000e-01	1.183003e-04	
548	8.000000e-01	1.254271e-04	
549	8.500000e-01	1.324619e-04	
550	9.000000e-01	1.394050e-04	
551	9.500000e-01	1.462569e-04	
552	1.000000e+00	1.530179e-04	
553	1.050000e+00	1.596884e-04	
554	1.100000e+00	1.662688e-04	
555	1.150000e+00	1.727595e-04	
556	1.200000e+00	1.791609e-04	
557	1.250000e+00	1.854733e-04	
558	1.300000e+00	1.916971e-04	
559	1.350000e+00	1.978326e-04	
560	1.400000e+00	2.038804e-04	
561	1.450000e+00	2.098406e-04	
562	1.500000e+00	2.157137e-04	
563	1.550000e+00	2.215001e-04	
564	1.600000e+00	2.272001e-04	
565	1.650000e+00	2.328141e-04	
566	1.700000e+00	2.383424e-04	
567	1.750000e+00	2.437854e-04	
568	1.800000e+00	2.491434e-04	
569	1.850000e+00	2.544168e-04	
570	1.900000e+00	2.596060e-04	
571	1.950000e+00	2.647112e-04	
572	2.000000e+00	2.697329e-04	
573	2.050000e+00	2.746714e-04	
574	2.100000e+00	2.795270e-04	
575	2.150000e+00	2.843000e-04	
576	2.200000e+00	2.889909e-04	

Index   v-sweep         -i(vds)         
--------------------------------------------------------------------------------
577	2.250000e+00	2.935999e-04	
578	2.300000e+00	2.981274e-04	
579	2.350000e+00	3.025736e-04	
580	2.400000e+00	3.069390e-04	
581	2.450000e+00	3.112239e-04	
582	2.500000e+00	3.154286e-04	
583	2.550000e+00	3.195533e-04	
584	2.600000e+00	3.235985e-04	
585	2.650000e+00	3.275645e-04	
586	2.700000e+00	3.314515e-04	
587	2.750000e+00	3.352599e-04	
588	2.800000e+00	3.389900e-04	
589	2.850000e+00	3.426420e-04	
590	2.900000e+00	3.462164e-04	
591	2.950000e+00	3.497134e-04	
592	3.000000e+00	3.531332e-04	
593	3.050000e+00	3.564763e-04	
594	3.100000e+00	3.597427e-04	
595	3.150000e+00	3.629329e-04	
596	3.200000e+00	3.660471e-04	
597	3.250000e+00	3.690855e-04	
598	3.300000e+00	3.720483e-04	
599	3.350000e+00	3.749356e-04	
600	3.400000e+00	3.777477e-04	
601	3.450000e+00	3.804845e-04	
602	3.500000e+00	3.831461e-04	
603	3.550000e+00	3.857321e-04	
604	3.600000e+00	3.882421e-04	
605	3.650000e+00	3.906754e-04	
606	3.700000e+00	3.930305e-04	
607	3.750000e+00	3.953051e-04	
608	3.800000e+00	3.974959e-04	
609	3.850000e+00	3.995978e-04	
610	3.900000e+00	4.016039e-04	
611	3.950000e+00	4.035066e-04	
612	4.000000e+00	4.052985e-04	
613	4.050000e+00	4.069753e-04	
614	4.100000e+00	4.085372e-04	
615	4.150000e+00	4.099888e-04	
616	4.200000e+00	4.113379e-04	
617	4.250000e+00	4.125935e-04	
618	4.300000e+00	4.137651e-04	
619	4.350000e+00	4.148615e-04	
620	4.400000e+00	4.158907e-04	
621	4.450000e+00	4.168599e-04	
622	4.500000e+00	4.177751e-04	
623	4.550000e+00	4.186419e-04	
624	4.600000e+00	4.194648e-04	
625	4.650000e+00	4.202480e-04	
626	4.700000e+00	4.209951e-04	
627	4.750000e+00	4.217091e-04	
628	4.800000e+00	4.223928e-04	
629	4.850000e+00	4.230487e-04	
630	4.900000e+00	4.236788e-04	
631	4.950000e+00	4.242852e-04	
632	5.000000e+00	4.248695e-04	
633	5.050000e+00	4.254333e-04	
634	5.100000e+00	4.259779e-04	

Index   v-sweep         -i(vds)         
--------------------------------------------------------------------------------
635	5.150000e+00	4.265046e-04	
636	5.200000e+00	4.270145e-04	
637	5.250000e+00	4.275088e-04	
638	5.300000e+00	4.279882e-04	
639	5.350000e+00	4.284537e-04	
640	5.400000e+00	4.289060e-04	
641	5.450000e+00	4.293459e-04	
642	5.500000e+00	4.297740e-04	
643	5.550000e+00	4.301910e-04	
644	5.600000e+00	4.305974e-04	
645	5.650000e+00	4.309938e-04	
646	5.700000e+00	4.313806e-04	
647	5.750000e+00	4.317583e-04	
648	5.800000e+00	4.321273e-04	
649	5.850000e+00	4.324880e-04	
650	5.900000e+00	4.328408e-04	
651	5.950000e+00	4.331860e-04	
652	6.000000e+00	4.335240e-04	
653	6.050000e+00	4.338551e-04	
654	6.100000e+00	4.341795e-04	
655	6.150000e+00	4.344975e-04	
656	6.200000e+00	4.348095e-04	
657	6.250000e+00	4.351155e-04	
658	6.300000e+00	4.354159e-04	
659	6.350000e+00	4.357109e-04	
660	6.400000e+00	4.360006e-04	
661	6.450000e+00	4.362854e-04	
662	6.500000e+00	4.365653e-04	
663	6.550000e+00	4.368405e-04	
664	6.600000e+00	4.371112e-04	
665	0.000000e+00	-0.000000e+00	
666	5.000000e-02	9.414432e-06	
667	1.000000e-01	1.869761e-05	
668	1.500000e-01	2.788328e-05	
669	2.000000e-01	3.698015e-05	
670	2.500000e-01	4.599068e-05	
671	3.000000e-01	5.491572e-05	
672	3.500000e-01	6.375575e-05	
673	4.000000e-01	7.251112e-05	
674	4.500000e-01	8.118218e-05	
675	5.000000e-01	8.976927e-05	
676	5.500000e-01	9.827270e-05	
677	6.000000e-01	1.066928e-04	
678	6.500000e-01	1.150299e-04	
679	7.000000e-01	1.232843e-04	
680	7.500000e-01	1.314564e-04	
681	8.000000e-01	1.395465e-04	
682	8.500000e-01	1.475548e-04	
683	9.000000e-01	1.554817e-04	
684	9.500000e-01	1.633275e-04	
685	1.000000e+00	1.710926e-04	
686	1.050000e+00	1.787772e-04	
687	1.100000e+00	1.863816e-04	
688	1.150000e+00	1.939062e-04	
689	1.200000e+00	2.013513e-04	
690	1.250000e+00	2.087171e-04	
691	1.300000e+00	2.160040e-04	
692	1.350000e+00	2.232122e-04	

Index   v-sweep         -i(vds)         
--------------------------------------------------------------------------------
693	1.400000e+00	2.303422e-04	
694	1.450000e+00	2.373941e-04	
695	1.500000e+00	2.443682e-04	
696	1.550000e+00	2.512650e-04	
697	1.600000e+00	2.580846e-04	
698	1.650000e+00	2.648273e-04	
699	1.700000e+00	2.714935e-04	
700	1.750000e+00	2.780834e-04	
701	1.800000e+00	2.845974e-04	
702	1.850000e+00	2.910356e-04	
703	1.900000e+00	2.973985e-04	
704	1.950000e+00	3.036862e-04	
705	2.000000e+00	3.098991e-04	
706	2.050000e+00	3.160374e-04	
707	2.100000e+00	3.221014e-04	
708	2.150000e+00	3.280915e-04	
709	2.200000e+00	3.340078e-04	
710	2.250000e+00	3.398507e-04	
711	2.300000e+00	3.456204e-04	
712	2.350000e+00	3.513171e-04	
713	2.400000e+00	3.569413e-04	
714	2.450000e+00	3.624931e-04	
715	2.500000e+00	3.679728e-04	
716	2.550000e+00	3.733807e-04	
717	2.600000e+00	3.787170e-04	
718	2.650000e+00	3.839820e-04	
719	2.700000e+00	3.891760e-04	
720	2.750000e+00	3.942992e-04	
721	2.800000e+00	3.993519e-04	
722	2.850000e+00	4.043344e-04	
723	2.900000e+00	4.092469e-04	
724	2.950000e+00	4.140896e-04	
725	3.000000e+00	4.188628e-04	
726	3.050000e+00	4.235668e-04	
727	3.100000e+00	4.282019e-04	
728	3.150000e+00	4.327682e-04	
729	3.200000e+00	4.372660e-04	
730	3.250000e+00	4.416956e-04	
731	3.300000e+00	4.460572e-04	
732	3.350000e+00	4.503510e-04	
733	3.400000e+00	4.545774e-04	
734	3.450000e+00	4.587365e-04	
735	3.500000e+00	4.628285e-04	
736	3.550000e+00	4.668538e-04	
737	3.600000e+00	4.708125e-04	
738	3.650000e+00	4.747049e-04	
739	3.700000e+00	4.785311e-04	
740	3.750000e+00	4.822915e-04	
741	3.800000e+00	4.859862e-04	
742	3.850000e+00	4.896154e-04	
743	3.900000e+00	4.931793e-04	
744	3.950000e+00	4.966782e-04	
745	4.000000e+00	5.001122e-04	
746	4.050000e+00	5.034814e-04	
747	4.100000e+00	5.067861e-04	
748	4.150000e+00	5.100262e-04	
749	4.200000e+00	5.132019e-04	
750	4.250000e+00	5.163133e-04	

Index   v-sweep         -i(vds)         
--------------------------------------------------------------------------------
751	4.300000e+00	5.193601e-04	
752	4.350000e+00	5.223422e-04	
753	4.400000e+00	5.252594e-04	
754	4.450000e+00	5.281109e-04	
755	4.500000e+00	5.308959e-04	
756	4.550000e+00	5.336129e-04	
757	4.600000e+00	5.362598e-04	
758	4.650000e+00	5.388331e-04	
759	4.700000e+00	5.413282e-04	
760	4.750000e+00	5.437385e-04	
761	4.800000e+00	5.460559e-04	
762	4.850000e+00	5.482711e-04	
763	4.900000e+00	5.503755e-04	
764	4.950000e+00	5.523631e-04	
765	5.000000e+00	5.542320e-04	
766	5.050000e+00	5.559846e-04	
767	5.100000e+00	5.576267e-04	
768	5.150000e+00	5.591662e-04	
769	5.200000e+00	5.606116e-04	
770	5.250000e+00	5.619715e-04	
771	5.300000e+00	5.632541e-04	
772	5.350000e+00	5.644665e-04	
773	5.400000e+00	5.656155e-04	
774	5.450000e+00	5.667070e-04	
775	5.500000e+00	5.677461e-04	
776	5.550000e+00	5.687374e-04	
777	5.600000e+00	5.696850e-04	
778	5.650000e+00	5.705925e-04	
779	5.700000e+00	5.714629e-04	
780	5.750000e+00	5.722993e-04	
781	5.800000e+00	5.731041e-04	
782	5.850000e+00	5.738795e-04	
783	5.900000e+00	5.746276e-04	
784	5.950000e+00	5.753503e-04	
785	6.000000e+00	5.760492e-04	
786	6.050000e+00	5.767257e-04	
787	6.100000e+00	5.773814e-04	
788	6.150000e+00	5.780174e-04	
789	6.200000e+00	5.786348e-04	
790	6.250000e+00	5.792348e-04	
791	6.300000e+00	5.798182e-04	
792	6.350000e+00	5.803860e-04	
793	6.400000e+00	5.809389e-04	
794	6.450000e+00	5.814778e-04	
795	6.500000e+00	5.820033e-04	
796	6.550000e+00	5.825161e-04	
797	6.600000e+00	5.830168e-04	
Note: No ".plot", ".print", or ".fourier" lines; no simulations run
