
Note: Compatibility modes selected: hs

Warning: m=xx on .subckt line will override multiplier m hierarchy!


Circuit: ***************************

Doing analysis at TEMP = -40.000000 and TNOM = -40.000000


No. of Data Rows : 798
                          ***************************
                          DC transfer characteristic  Mon Jan  9 13:58:05  2023
--------------------------------------------------------------------------------
Index   v-sweep         -i(vds)         
--------------------------------------------------------------------------------
0	0.000000e+00	-0.000000e+00	
1	5.000000e-02	6.180132e-07	
2	1.000000e-01	1.088268e-06	
3	1.500000e-01	1.412243e-06	
4	2.000000e-01	1.596129e-06	
5	2.500000e-01	1.669711e-06	
6	3.000000e-01	1.695332e-06	
7	3.500000e-01	1.709366e-06	
8	4.000000e-01	1.719962e-06	
9	4.500000e-01	1.728888e-06	
10	5.000000e-01	1.736732e-06	
11	5.500000e-01	1.743773e-06	
12	6.000000e-01	1.750181e-06	
13	6.500000e-01	1.756068e-06	
14	7.000000e-01	1.761517e-06	
15	7.500000e-01	1.766591e-06	
16	8.000000e-01	1.771340e-06	
17	8.500000e-01	1.775803e-06	
18	9.000000e-01	1.780014e-06	
19	9.500000e-01	1.784000e-06	
20	1.000000e+00	1.787784e-06	
21	1.050000e+00	1.791385e-06	
22	1.100000e+00	1.794822e-06	
23	1.150000e+00	1.798107e-06	
24	1.200000e+00	1.801255e-06	
25	1.250000e+00	1.804276e-06	
26	1.300000e+00	1.807179e-06	
27	1.350000e+00	1.809975e-06	
28	1.400000e+00	1.812670e-06	
29	1.450000e+00	1.815272e-06	
30	1.500000e+00	1.817787e-06	
31	1.550000e+00	1.820221e-06	
32	1.600000e+00	1.822578e-06	
33	1.650000e+00	1.824864e-06	
34	1.700000e+00	1.827082e-06	
35	1.750000e+00	1.829237e-06	
36	1.800000e+00	1.831331e-06	
37	1.850000e+00	1.833370e-06	
38	1.900000e+00	1.835354e-06	
39	1.950000e+00	1.837288e-06	
40	2.000000e+00	1.839173e-06	
41	2.050000e+00	1.841012e-06	
42	2.100000e+00	1.842808e-06	
43	2.150000e+00	1.844562e-06	
44	2.200000e+00	1.846276e-06	
45	2.250000e+00	1.847952e-06	
46	2.300000e+00	1.849592e-06	
47	2.350000e+00	1.851197e-06	
48	2.400000e+00	1.852769e-06	
49	2.450000e+00	1.854309e-06	
50	2.500000e+00	1.855819e-06	
51	2.550000e+00	1.857299e-06	
52	2.600000e+00	1.858751e-06	
53	2.650000e+00	1.860176e-06	
54	2.700000e+00	1.861574e-06	

Index   v-sweep         -i(vds)         
--------------------------------------------------------------------------------
55	2.750000e+00	1.862948e-06	
56	2.800000e+00	1.864297e-06	
57	2.850000e+00	1.865624e-06	
58	2.900000e+00	1.866927e-06	
59	2.950000e+00	1.868209e-06	
60	3.000000e+00	1.869470e-06	
61	3.050000e+00	1.870711e-06	
62	3.100000e+00	1.871932e-06	
63	3.150000e+00	1.873135e-06	
64	3.200000e+00	1.874319e-06	
65	3.250000e+00	1.875485e-06	
66	3.300000e+00	1.876634e-06	
67	3.350000e+00	1.877767e-06	
68	3.400000e+00	1.878883e-06	
69	3.450000e+00	1.879984e-06	
70	3.500000e+00	1.881070e-06	
71	3.550000e+00	1.882141e-06	
72	3.600000e+00	1.883198e-06	
73	3.650000e+00	1.884241e-06	
74	3.700000e+00	1.885271e-06	
75	3.750000e+00	1.886287e-06	
76	3.800000e+00	1.887291e-06	
77	3.850000e+00	1.888283e-06	
78	3.900000e+00	1.889262e-06	
79	3.950000e+00	1.890230e-06	
80	4.000000e+00	1.891187e-06	
81	4.050000e+00	1.892132e-06	
82	4.100000e+00	1.893067e-06	
83	4.150000e+00	1.893991e-06	
84	4.200000e+00	1.894905e-06	
85	4.250000e+00	1.895809e-06	
86	4.300000e+00	1.896704e-06	
87	4.350000e+00	1.897589e-06	
88	4.400000e+00	1.898464e-06	
89	4.450000e+00	1.899331e-06	
90	4.500000e+00	1.900189e-06	
91	4.550000e+00	1.901038e-06	
92	4.600000e+00	1.901879e-06	
93	4.650000e+00	1.902712e-06	
94	4.700000e+00	1.903536e-06	
95	4.750000e+00	1.904353e-06	
96	4.800000e+00	1.905163e-06	
97	4.850000e+00	1.905965e-06	
98	4.900000e+00	1.906759e-06	
99	4.950000e+00	1.907547e-06	
100	5.000000e+00	1.908327e-06	
101	5.050000e+00	1.909101e-06	
102	5.100000e+00	1.909868e-06	
103	5.150000e+00	1.910628e-06	
104	5.200000e+00	1.911382e-06	
105	5.250000e+00	1.912130e-06	
106	5.300000e+00	1.912872e-06	
107	5.350000e+00	1.913608e-06	
108	5.400000e+00	1.914338e-06	
109	5.450000e+00	1.915062e-06	
110	5.500000e+00	1.915780e-06	
111	5.550000e+00	1.916493e-06	
112	5.600000e+00	1.917201e-06	

Index   v-sweep         -i(vds)         
--------------------------------------------------------------------------------
113	5.650000e+00	1.917903e-06	
114	5.700000e+00	1.918600e-06	
115	5.750000e+00	1.919292e-06	
116	5.800000e+00	1.919979e-06	
117	5.850000e+00	1.920661e-06	
118	5.900000e+00	1.921338e-06	
119	5.950000e+00	1.922011e-06	
120	6.000000e+00	1.922678e-06	
121	6.050000e+00	1.923342e-06	
122	6.100000e+00	1.924000e-06	
123	6.150000e+00	1.924655e-06	
124	6.200000e+00	1.925305e-06	
125	6.250000e+00	1.925951e-06	
126	6.300000e+00	1.926592e-06	
127	6.350000e+00	1.927230e-06	
128	6.400000e+00	1.927864e-06	
129	6.450000e+00	1.928493e-06	
130	6.500000e+00	1.929119e-06	
131	6.550000e+00	1.929741e-06	
132	6.600000e+00	1.930359e-06	
133	0.000000e+00	-0.000000e+00	
134	5.000000e-02	3.707738e-06	
135	1.000000e-01	7.270273e-06	
136	1.500000e-01	1.068808e-05	
137	2.000000e-01	1.396163e-05	
138	2.500000e-01	1.709140e-05	
139	3.000000e-01	2.007786e-05	
140	3.500000e-01	2.292148e-05	
141	4.000000e-01	2.562271e-05	
142	4.500000e-01	2.818205e-05	
143	5.000000e-01	3.059993e-05	
144	5.500000e-01	3.287684e-05	
145	6.000000e-01	3.501324e-05	
146	6.500000e-01	3.700960e-05	
147	7.000000e-01	3.886639e-05	
148	7.500000e-01	4.058408e-05	
149	8.000000e-01	4.216319e-05	
150	8.500000e-01	4.360421e-05	
151	9.000000e-01	4.490771e-05	
152	9.500000e-01	4.607434e-05	
153	1.000000e+00	4.710490e-05	
154	1.050000e+00	4.800056e-05	
155	1.100000e+00	4.876326e-05	
156	1.150000e+00	4.939679e-05	
157	1.200000e+00	4.990901e-05	
158	1.250000e+00	5.031479e-05	
159	1.300000e+00	5.063611e-05	
160	1.350000e+00	5.089605e-05	
161	1.400000e+00	5.111269e-05	
162	1.450000e+00	5.129813e-05	
163	1.500000e+00	5.146026e-05	
164	1.550000e+00	5.160433e-05	
165	1.600000e+00	5.173400e-05	
166	1.650000e+00	5.185191e-05	
167	1.700000e+00	5.196002e-05	
168	1.750000e+00	5.205985e-05	
169	1.800000e+00	5.215258e-05	
170	1.850000e+00	5.223916e-05	

Index   v-sweep         -i(vds)         
--------------------------------------------------------------------------------
171	1.900000e+00	5.232036e-05	
172	1.950000e+00	5.239680e-05	
173	2.000000e+00	5.246902e-05	
174	2.050000e+00	5.253745e-05	
175	2.100000e+00	5.260249e-05	
176	2.150000e+00	5.266443e-05	
177	2.200000e+00	5.272358e-05	
178	2.250000e+00	5.278017e-05	
179	2.300000e+00	5.283441e-05	
180	2.350000e+00	5.288649e-05	
181	2.400000e+00	5.293658e-05	
182	2.450000e+00	5.298482e-05	
183	2.500000e+00	5.303134e-05	
184	2.550000e+00	5.307627e-05	
185	2.600000e+00	5.311971e-05	
186	2.650000e+00	5.316175e-05	
187	2.700000e+00	5.320248e-05	
188	2.750000e+00	5.324199e-05	
189	2.800000e+00	5.328033e-05	
190	2.850000e+00	5.331759e-05	
191	2.900000e+00	5.335382e-05	
192	2.950000e+00	5.338907e-05	
193	3.000000e+00	5.342340e-05	
194	3.050000e+00	5.345686e-05	
195	3.100000e+00	5.348948e-05	
196	3.150000e+00	5.352132e-05	
197	3.200000e+00	5.355240e-05	
198	3.250000e+00	5.358276e-05	
199	3.300000e+00	5.361244e-05	
200	3.350000e+00	5.364147e-05	
201	3.400000e+00	5.366987e-05	
202	3.450000e+00	5.369767e-05	
203	3.500000e+00	5.372491e-05	
204	3.550000e+00	5.375159e-05	
205	3.600000e+00	5.377775e-05	
206	3.650000e+00	5.380340e-05	
207	3.700000e+00	5.382857e-05	
208	3.750000e+00	5.385327e-05	
209	3.800000e+00	5.387753e-05	
210	3.850000e+00	5.390135e-05	
211	3.900000e+00	5.392476e-05	
212	3.950000e+00	5.394777e-05	
213	4.000000e+00	5.397040e-05	
214	4.050000e+00	5.399265e-05	
215	4.100000e+00	5.401454e-05	
216	4.150000e+00	5.403609e-05	
217	4.200000e+00	5.405731e-05	
218	4.250000e+00	5.407820e-05	
219	4.300000e+00	5.409878e-05	
220	4.350000e+00	5.411905e-05	
221	4.400000e+00	5.413904e-05	
222	4.450000e+00	5.415874e-05	
223	4.500000e+00	5.417817e-05	
224	4.550000e+00	5.419733e-05	
225	4.600000e+00	5.421624e-05	
226	4.650000e+00	5.423490e-05	
227	4.700000e+00	5.425331e-05	
228	4.750000e+00	5.427149e-05	

Index   v-sweep         -i(vds)         
--------------------------------------------------------------------------------
229	4.800000e+00	5.428945e-05	
230	4.850000e+00	5.430718e-05	
231	4.900000e+00	5.432470e-05	
232	4.950000e+00	5.434202e-05	
233	5.000000e+00	5.435912e-05	
234	5.050000e+00	5.437604e-05	
235	5.100000e+00	5.439276e-05	
236	5.150000e+00	5.440930e-05	
237	5.200000e+00	5.442565e-05	
238	5.250000e+00	5.444183e-05	
239	5.300000e+00	5.445784e-05	
240	5.350000e+00	5.447369e-05	
241	5.400000e+00	5.448937e-05	
242	5.450000e+00	5.450489e-05	
243	5.500000e+00	5.452026e-05	
244	5.550000e+00	5.453548e-05	
245	5.600000e+00	5.455055e-05	
246	5.650000e+00	5.456549e-05	
247	5.700000e+00	5.458028e-05	
248	5.750000e+00	5.459494e-05	
249	5.800000e+00	5.460946e-05	
250	5.850000e+00	5.462386e-05	
251	5.900000e+00	5.463813e-05	
252	5.950000e+00	5.465228e-05	
253	6.000000e+00	5.466631e-05	
254	6.050000e+00	5.468022e-05	
255	6.100000e+00	5.469401e-05	
256	6.150000e+00	5.470770e-05	
257	6.200000e+00	5.472127e-05	
258	6.250000e+00	5.473474e-05	
259	6.300000e+00	5.474811e-05	
260	6.350000e+00	5.476137e-05	
261	6.400000e+00	5.477453e-05	
262	6.450000e+00	5.478760e-05	
263	6.500000e+00	5.480057e-05	
264	6.550000e+00	5.481345e-05	
265	6.600000e+00	5.482623e-05	
266	0.000000e+00	-0.000000e+00	
267	5.000000e-02	6.019678e-06	
268	1.000000e-01	1.191029e-05	
269	1.500000e-01	1.767228e-05	
270	2.000000e-01	2.330609e-05	
271	2.500000e-01	2.881216e-05	
272	3.000000e-01	3.419093e-05	
273	3.500000e-01	3.944284e-05	
274	4.000000e-01	4.456831e-05	
275	4.500000e-01	4.956780e-05	
276	5.000000e-01	5.444172e-05	
277	5.500000e-01	5.919050e-05	
278	6.000000e-01	6.381458e-05	
279	6.500000e-01	6.831437e-05	
280	7.000000e-01	7.269030e-05	
281	7.500000e-01	7.694280e-05	
282	8.000000e-01	8.107227e-05	
283	8.500000e-01	8.507914e-05	
284	9.000000e-01	8.896383e-05	
285	9.500000e-01	9.272674e-05	
286	1.000000e+00	9.636829e-05	

Index   v-sweep         -i(vds)         
--------------------------------------------------------------------------------
287	1.050000e+00	9.988889e-05	
288	1.100000e+00	1.032890e-04	
289	1.150000e+00	1.065689e-04	
290	1.200000e+00	1.097291e-04	
291	1.250000e+00	1.127699e-04	
292	1.300000e+00	1.156919e-04	
293	1.350000e+00	1.184953e-04	
294	1.400000e+00	1.211805e-04	
295	1.450000e+00	1.237480e-04	
296	1.500000e+00	1.261982e-04	
297	1.550000e+00	1.285314e-04	
298	1.600000e+00	1.307481e-04	
299	1.650000e+00	1.328485e-04	
300	1.700000e+00	1.348331e-04	
301	1.750000e+00	1.367023e-04	
302	1.800000e+00	1.384564e-04	
303	1.850000e+00	1.400956e-04	
304	1.900000e+00	1.416205e-04	
305	1.950000e+00	1.430310e-04	
306	2.000000e+00	1.443276e-04	
307	2.050000e+00	1.455102e-04	
308	2.100000e+00	1.465789e-04	
309	2.150000e+00	1.475344e-04	
310	2.200000e+00	1.483787e-04	
311	2.250000e+00	1.491172e-04	
312	2.300000e+00	1.497597e-04	
313	2.350000e+00	1.503194e-04	
314	2.400000e+00	1.508103e-04	
315	2.450000e+00	1.512449e-04	
316	2.500000e+00	1.516335e-04	
317	2.550000e+00	1.519841e-04	
318	2.600000e+00	1.523033e-04	
319	2.650000e+00	1.525960e-04	
320	2.700000e+00	1.528661e-04	
321	2.750000e+00	1.531168e-04	
322	2.800000e+00	1.533507e-04	
323	2.850000e+00	1.535699e-04	
324	2.900000e+00	1.537760e-04	
325	2.950000e+00	1.539706e-04	
326	3.000000e+00	1.541548e-04	
327	3.050000e+00	1.543297e-04	
328	3.100000e+00	1.544962e-04	
329	3.150000e+00	1.546550e-04	
330	3.200000e+00	1.548069e-04	
331	3.250000e+00	1.549524e-04	
332	3.300000e+00	1.550920e-04	
333	3.350000e+00	1.552261e-04	
334	3.400000e+00	1.553553e-04	
335	3.450000e+00	1.554798e-04	
336	3.500000e+00	1.555999e-04	
337	3.550000e+00	1.557161e-04	
338	3.600000e+00	1.558284e-04	
339	3.650000e+00	1.559372e-04	
340	3.700000e+00	1.560427e-04	
341	3.750000e+00	1.561450e-04	
342	3.800000e+00	1.562444e-04	
343	3.850000e+00	1.563411e-04	
344	3.900000e+00	1.564350e-04	

Index   v-sweep         -i(vds)         
--------------------------------------------------------------------------------
345	3.950000e+00	1.565266e-04	
346	4.000000e+00	1.566157e-04	
347	4.050000e+00	1.567026e-04	
348	4.100000e+00	1.567874e-04	
349	4.150000e+00	1.568701e-04	
350	4.200000e+00	1.569510e-04	
351	4.250000e+00	1.570300e-04	
352	4.300000e+00	1.571072e-04	
353	4.350000e+00	1.571827e-04	
354	4.400000e+00	1.572567e-04	
355	4.450000e+00	1.573291e-04	
356	4.500000e+00	1.574000e-04	
357	4.550000e+00	1.574696e-04	
358	4.600000e+00	1.575377e-04	
359	4.650000e+00	1.576046e-04	
360	4.700000e+00	1.576703e-04	
361	4.750000e+00	1.577347e-04	
362	4.800000e+00	1.577980e-04	
363	4.850000e+00	1.578601e-04	
364	4.900000e+00	1.579212e-04	
365	4.950000e+00	1.579813e-04	
366	5.000000e+00	1.580404e-04	
367	5.050000e+00	1.580985e-04	
368	5.100000e+00	1.581557e-04	
369	5.150000e+00	1.582120e-04	
370	5.200000e+00	1.582675e-04	
371	5.250000e+00	1.583221e-04	
372	5.300000e+00	1.583759e-04	
373	5.350000e+00	1.584289e-04	
374	5.400000e+00	1.584812e-04	
375	5.450000e+00	1.585327e-04	
376	5.500000e+00	1.585836e-04	
377	5.550000e+00	1.586337e-04	
378	5.600000e+00	1.586832e-04	
379	5.650000e+00	1.587321e-04	
380	5.700000e+00	1.587803e-04	
381	5.750000e+00	1.588280e-04	
382	5.800000e+00	1.588750e-04	
383	5.850000e+00	1.589215e-04	
384	5.900000e+00	1.589674e-04	
385	5.950000e+00	1.590128e-04	
386	6.000000e+00	1.590577e-04	
387	6.050000e+00	1.591020e-04	
388	6.100000e+00	1.591459e-04	
389	6.150000e+00	1.591893e-04	
390	6.200000e+00	1.592322e-04	
391	6.250000e+00	1.592747e-04	
392	6.300000e+00	1.593168e-04	
393	6.350000e+00	1.593584e-04	
394	6.400000e+00	1.593996e-04	
395	6.450000e+00	1.594404e-04	
396	6.500000e+00	1.594808e-04	
397	6.550000e+00	1.595208e-04	
398	6.600000e+00	1.595604e-04	
399	0.000000e+00	-0.000000e+00	
400	5.000000e-02	7.774134e-06	
401	1.000000e-01	1.543403e-05	
402	1.500000e-01	2.298008e-05	

Index   v-sweep         -i(vds)         
--------------------------------------------------------------------------------
403	2.000000e-01	3.041265e-05	
404	2.500000e-01	3.773212e-05	
405	3.000000e-01	4.493886e-05	
406	3.500000e-01	5.203324e-05	
407	4.000000e-01	5.901563e-05	
408	4.500000e-01	6.588641e-05	
409	5.000000e-01	7.264594e-05	
410	5.500000e-01	7.929459e-05	
411	6.000000e-01	8.583272e-05	
412	6.500000e-01	9.226068e-05	
413	7.000000e-01	9.857885e-05	
414	7.500000e-01	1.047876e-04	
415	8.000000e-01	1.108872e-04	
416	8.500000e-01	1.168782e-04	
417	9.000000e-01	1.227607e-04	
418	9.500000e-01	1.285353e-04	
419	1.000000e+00	1.342021e-04	
420	1.050000e+00	1.397617e-04	
421	1.100000e+00	1.452143e-04	
422	1.150000e+00	1.505603e-04	
423	1.200000e+00	1.558000e-04	
424	1.250000e+00	1.609338e-04	
425	1.300000e+00	1.659619e-04	
426	1.350000e+00	1.708849e-04	
427	1.400000e+00	1.757029e-04	
428	1.450000e+00	1.804163e-04	
429	1.500000e+00	1.850256e-04	
430	1.550000e+00	1.895309e-04	
431	1.600000e+00	1.939326e-04	
432	1.650000e+00	1.982311e-04	
433	1.700000e+00	2.024267e-04	
434	1.750000e+00	2.065198e-04	
435	1.800000e+00	2.105105e-04	
436	1.850000e+00	2.143994e-04	
437	1.900000e+00	2.181866e-04	
438	1.950000e+00	2.218726e-04	
439	2.000000e+00	2.254576e-04	
440	2.050000e+00	2.289419e-04	
441	2.100000e+00	2.323260e-04	
442	2.150000e+00	2.356099e-04	
443	2.200000e+00	2.387942e-04	
444	2.250000e+00	2.418791e-04	
445	2.300000e+00	2.448649e-04	
446	2.350000e+00	2.477518e-04	
447	2.400000e+00	2.505403e-04	
448	2.450000e+00	2.532304e-04	
449	2.500000e+00	2.558226e-04	
450	2.550000e+00	2.583171e-04	
451	2.600000e+00	2.607140e-04	
452	2.650000e+00	2.630136e-04	
453	2.700000e+00	2.652160e-04	
454	2.750000e+00	2.673213e-04	
455	2.800000e+00	2.693293e-04	
456	2.850000e+00	2.712398e-04	
457	2.900000e+00	2.730523e-04	
458	2.950000e+00	2.747658e-04	
459	3.000000e+00	2.763784e-04	
460	3.050000e+00	2.778876e-04	

Index   v-sweep         -i(vds)         
--------------------------------------------------------------------------------
461	3.100000e+00	2.792897e-04	
462	3.150000e+00	2.805805e-04	
463	3.200000e+00	2.817567e-04	
464	3.250000e+00	2.828188e-04	
465	3.300000e+00	2.837721e-04	
466	3.350000e+00	2.846261e-04	
467	3.400000e+00	2.853930e-04	
468	3.450000e+00	2.860849e-04	
469	3.500000e+00	2.867128e-04	
470	3.550000e+00	2.872863e-04	
471	3.600000e+00	2.878131e-04	
472	3.650000e+00	2.882999e-04	
473	3.700000e+00	2.887520e-04	
474	3.750000e+00	2.891738e-04	
475	3.800000e+00	2.895690e-04	
476	3.850000e+00	2.899406e-04	
477	3.900000e+00	2.902914e-04	
478	3.950000e+00	2.906234e-04	
479	4.000000e+00	2.909385e-04	
480	4.050000e+00	2.912383e-04	
481	4.100000e+00	2.915243e-04	
482	4.150000e+00	2.917976e-04	
483	4.200000e+00	2.920593e-04	
484	4.250000e+00	2.923104e-04	
485	4.300000e+00	2.925517e-04	
486	4.350000e+00	2.927838e-04	
487	4.400000e+00	2.930075e-04	
488	4.450000e+00	2.932234e-04	
489	4.500000e+00	2.934320e-04	
490	4.550000e+00	2.936337e-04	
491	4.600000e+00	2.938290e-04	
492	4.650000e+00	2.940183e-04	
493	4.700000e+00	2.942020e-04	
494	4.750000e+00	2.943803e-04	
495	4.800000e+00	2.945536e-04	
496	4.850000e+00	2.947221e-04	
497	4.900000e+00	2.948862e-04	
498	4.950000e+00	2.950460e-04	
499	5.000000e+00	2.952018e-04	
500	5.050000e+00	2.953537e-04	
501	5.100000e+00	2.955020e-04	
502	5.150000e+00	2.956468e-04	
503	5.200000e+00	2.957882e-04	
504	5.250000e+00	2.959266e-04	
505	5.300000e+00	2.960618e-04	
506	5.350000e+00	2.961942e-04	
507	5.400000e+00	2.963239e-04	
508	5.450000e+00	2.964509e-04	
509	5.500000e+00	2.965753e-04	
510	5.550000e+00	2.966973e-04	
511	5.600000e+00	2.968170e-04	
512	5.650000e+00	2.969344e-04	
513	5.700000e+00	2.970497e-04	
514	5.750000e+00	2.971629e-04	
515	5.800000e+00	2.972741e-04	
516	5.850000e+00	2.973834e-04	
517	5.900000e+00	2.974908e-04	
518	5.950000e+00	2.975965e-04	

Index   v-sweep         -i(vds)         
--------------------------------------------------------------------------------
519	6.000000e+00	2.977004e-04	
520	6.050000e+00	2.978027e-04	
521	6.100000e+00	2.979033e-04	
522	6.150000e+00	2.980025e-04	
523	6.200000e+00	2.981001e-04	
524	6.250000e+00	2.981963e-04	
525	6.300000e+00	2.982911e-04	
526	6.350000e+00	2.983845e-04	
527	6.400000e+00	2.984767e-04	
528	6.450000e+00	2.985675e-04	
529	6.500000e+00	2.986572e-04	
530	6.550000e+00	2.987457e-04	
531	6.600000e+00	2.988330e-04	
532	0.000000e+00	-0.000000e+00	
533	5.000000e-02	9.113251e-06	
534	1.000000e-01	1.812563e-05	
535	1.500000e-01	2.703744e-05	
536	2.000000e-01	3.584900e-05	
537	2.500000e-01	4.456063e-05	
538	3.000000e-01	5.317262e-05	
539	3.500000e-01	6.168528e-05	
540	4.000000e-01	7.009893e-05	
541	4.500000e-01	7.841387e-05	
542	5.000000e-01	8.663039e-05	
543	5.500000e-01	9.474882e-05	
544	6.000000e-01	1.027694e-04	
545	6.500000e-01	1.106925e-04	
546	7.000000e-01	1.185185e-04	
547	7.500000e-01	1.262475e-04	
548	8.000000e-01	1.338798e-04	
549	8.500000e-01	1.414159e-04	
550	9.000000e-01	1.488560e-04	
551	9.500000e-01	1.562003e-04	
552	1.000000e+00	1.634492e-04	
553	1.050000e+00	1.706029e-04	
554	1.100000e+00	1.776618e-04	
555	1.150000e+00	1.846261e-04	
556	1.200000e+00	1.914961e-04	
557	1.250000e+00	1.982721e-04	
558	1.300000e+00	2.049545e-04	
559	1.350000e+00	2.115433e-04	
560	1.400000e+00	2.180391e-04	
561	1.450000e+00	2.244420e-04	
562	1.500000e+00	2.307523e-04	
563	1.550000e+00	2.369702e-04	
564	1.600000e+00	2.430962e-04	
565	1.650000e+00	2.491304e-04	
566	1.700000e+00	2.550731e-04	
567	1.750000e+00	2.609246e-04	
568	1.800000e+00	2.666852e-04	
569	1.850000e+00	2.723552e-04	
570	1.900000e+00	2.779347e-04	
571	1.950000e+00	2.834241e-04	
572	2.000000e+00	2.888237e-04	
573	2.050000e+00	2.941337e-04	
574	2.100000e+00	2.993544e-04	
575	2.150000e+00	3.044861e-04	
576	2.200000e+00	3.095289e-04	

Index   v-sweep         -i(vds)         
--------------------------------------------------------------------------------
577	2.250000e+00	3.144833e-04	
578	2.300000e+00	3.193493e-04	
579	2.350000e+00	3.241274e-04	
580	2.400000e+00	3.288177e-04	
581	2.450000e+00	3.334206e-04	
582	2.500000e+00	3.379362e-04	
583	2.550000e+00	3.423649e-04	
584	2.600000e+00	3.467068e-04	
585	2.650000e+00	3.509623e-04	
586	2.700000e+00	3.551315e-04	
587	2.750000e+00	3.592148e-04	
588	2.800000e+00	3.632124e-04	
589	2.850000e+00	3.671245e-04	
590	2.900000e+00	3.709514e-04	
591	2.950000e+00	3.746933e-04	
592	3.000000e+00	3.783504e-04	
593	3.050000e+00	3.819231e-04	
594	3.100000e+00	3.854114e-04	
595	3.150000e+00	3.888157e-04	
596	3.200000e+00	3.921362e-04	
597	3.250000e+00	3.953730e-04	
598	3.300000e+00	3.985264e-04	
599	3.350000e+00	4.015966e-04	
600	3.400000e+00	4.045837e-04	
601	3.450000e+00	4.074879e-04	
602	3.500000e+00	4.103093e-04	
603	3.550000e+00	4.130481e-04	
604	3.600000e+00	4.157041e-04	
605	3.650000e+00	4.182775e-04	
606	3.700000e+00	4.207679e-04	
607	3.750000e+00	4.231751e-04	
608	3.800000e+00	4.254984e-04	
609	3.850000e+00	4.277370e-04	
610	3.900000e+00	4.298892e-04	
611	3.950000e+00	4.319527e-04	
612	4.000000e+00	4.339241e-04	
613	4.050000e+00	4.357982e-04	
614	4.100000e+00	4.375687e-04	
615	4.150000e+00	4.392280e-04	
616	4.200000e+00	4.407692e-04	
617	4.250000e+00	4.421883e-04	
618	4.300000e+00	4.434862e-04	
619	4.350000e+00	4.446689e-04	
620	4.400000e+00	4.457459e-04	
621	4.450000e+00	4.467286e-04	
622	4.500000e+00	4.476283e-04	
623	4.550000e+00	4.484555e-04	
624	4.600000e+00	4.492197e-04	
625	4.650000e+00	4.499288e-04	
626	4.700000e+00	4.505895e-04	
627	4.750000e+00	4.512077e-04	
628	4.800000e+00	4.517882e-04	
629	4.850000e+00	4.523352e-04	
630	4.900000e+00	4.528521e-04	
631	4.950000e+00	4.533422e-04	
632	5.000000e+00	4.538078e-04	
633	5.050000e+00	4.542514e-04	
634	5.100000e+00	4.546748e-04	

Index   v-sweep         -i(vds)         
--------------------------------------------------------------------------------
635	5.150000e+00	4.550798e-04	
636	5.200000e+00	4.554678e-04	
637	5.250000e+00	4.558404e-04	
638	5.300000e+00	4.561985e-04	
639	5.350000e+00	4.565433e-04	
640	5.400000e+00	4.568758e-04	
641	5.450000e+00	4.571967e-04	
642	5.500000e+00	4.575069e-04	
643	5.550000e+00	4.578070e-04	
644	5.600000e+00	4.580977e-04	
645	5.650000e+00	4.583795e-04	
646	5.700000e+00	4.586530e-04	
647	5.750000e+00	4.589187e-04	
648	5.800000e+00	4.591769e-04	
649	5.850000e+00	4.594281e-04	
650	5.900000e+00	4.596726e-04	
651	5.950000e+00	4.599109e-04	
652	6.000000e+00	4.601432e-04	
653	6.050000e+00	4.603698e-04	
654	6.100000e+00	4.605909e-04	
655	6.150000e+00	4.608070e-04	
656	6.200000e+00	4.610181e-04	
657	6.250000e+00	4.612245e-04	
658	6.300000e+00	4.614265e-04	
659	6.350000e+00	4.616241e-04	
660	6.400000e+00	4.618177e-04	
661	6.450000e+00	4.620073e-04	
662	6.500000e+00	4.621931e-04	
663	6.550000e+00	4.623754e-04	
664	6.600000e+00	4.625541e-04	
665	0.000000e+00	-0.000000e+00	
666	5.000000e-02	1.013687e-05	
667	1.000000e-01	2.018478e-05	
668	1.500000e-01	3.014399e-05	
669	2.000000e-01	4.001476e-05	
670	2.500000e-01	4.979734e-05	
671	3.000000e-01	5.949198e-05	
672	3.500000e-01	6.909893e-05	
673	4.000000e-01	7.861844e-05	
674	4.500000e-01	8.805077e-05	
675	5.000000e-01	9.739616e-05	
676	5.500000e-01	1.066549e-04	
677	6.000000e-01	1.158271e-04	
678	6.500000e-01	1.249132e-04	
679	7.000000e-01	1.339133e-04	
680	7.500000e-01	1.428277e-04	
681	8.000000e-01	1.516566e-04	
682	8.500000e-01	1.604003e-04	
683	9.000000e-01	1.690591e-04	
684	9.500000e-01	1.776330e-04	
685	1.000000e+00	1.861225e-04	
686	1.050000e+00	1.945277e-04	
687	1.100000e+00	2.028489e-04	
688	1.150000e+00	2.110863e-04	
689	1.200000e+00	2.192402e-04	
690	1.250000e+00	2.273107e-04	
691	1.300000e+00	2.352981e-04	
692	1.350000e+00	2.432027e-04	

Index   v-sweep         -i(vds)         
--------------------------------------------------------------------------------
693	1.400000e+00	2.510247e-04	
694	1.450000e+00	2.587643e-04	
695	1.500000e+00	2.664217e-04	
696	1.550000e+00	2.739972e-04	
697	1.600000e+00	2.814910e-04	
698	1.650000e+00	2.889033e-04	
699	1.700000e+00	2.962344e-04	
700	1.750000e+00	3.034845e-04	
701	1.800000e+00	3.106538e-04	
702	1.850000e+00	3.177425e-04	
703	1.900000e+00	3.247508e-04	
704	1.950000e+00	3.316791e-04	
705	2.000000e+00	3.385274e-04	
706	2.050000e+00	3.452961e-04	
707	2.100000e+00	3.519853e-04	
708	2.150000e+00	3.585953e-04	
709	2.200000e+00	3.651262e-04	
710	2.250000e+00	3.715784e-04	
711	2.300000e+00	3.779519e-04	
712	2.350000e+00	3.842471e-04	
713	2.400000e+00	3.904642e-04	
714	2.450000e+00	3.966033e-04	
715	2.500000e+00	4.026646e-04	
716	2.550000e+00	4.086485e-04	
717	2.600000e+00	4.145551e-04	
718	2.650000e+00	4.203846e-04	
719	2.700000e+00	4.261372e-04	
720	2.750000e+00	4.318131e-04	
721	2.800000e+00	4.374126e-04	
722	2.850000e+00	4.429358e-04	
723	2.900000e+00	4.483830e-04	
724	2.950000e+00	4.537543e-04	
725	3.000000e+00	4.590500e-04	
726	3.050000e+00	4.642703e-04	
727	3.100000e+00	4.694154e-04	
728	3.150000e+00	4.744854e-04	
729	3.200000e+00	4.794806e-04	
730	3.250000e+00	4.844012e-04	
731	3.300000e+00	4.892474e-04	
732	3.350000e+00	4.940194e-04	
733	3.400000e+00	4.987173e-04	
734	3.450000e+00	5.033415e-04	
735	3.500000e+00	5.078919e-04	
736	3.550000e+00	5.123690e-04	
737	3.600000e+00	5.167728e-04	
738	3.650000e+00	5.211036e-04	
739	3.700000e+00	5.253615e-04	
740	3.750000e+00	5.295467e-04	
741	3.800000e+00	5.336595e-04	
742	3.850000e+00	5.376999e-04	
743	3.900000e+00	5.416682e-04	
744	3.950000e+00	5.455646e-04	
745	4.000000e+00	5.493892e-04	
746	4.050000e+00	5.531422e-04	
747	4.100000e+00	5.568238e-04	
748	4.150000e+00	5.604341e-04	
749	4.200000e+00	5.639733e-04	
750	4.250000e+00	5.674415e-04	

Index   v-sweep         -i(vds)         
--------------------------------------------------------------------------------
751	4.300000e+00	5.708388e-04	
752	4.350000e+00	5.741654e-04	
753	4.400000e+00	5.774213e-04	
754	4.450000e+00	5.806066e-04	
755	4.500000e+00	5.837213e-04	
756	4.550000e+00	5.867655e-04	
757	4.600000e+00	5.897389e-04	
758	4.650000e+00	5.926414e-04	
759	4.700000e+00	5.954728e-04	
760	4.750000e+00	5.982324e-04	
761	4.800000e+00	6.009195e-04	
762	4.850000e+00	6.035329e-04	
763	4.900000e+00	6.060709e-04	
764	4.950000e+00	6.085310e-04	
765	5.000000e+00	6.109096e-04	
766	5.050000e+00	6.132017e-04	
767	5.100000e+00	6.154006e-04	
768	5.150000e+00	6.174979e-04	
769	5.200000e+00	6.194841e-04	
770	5.250000e+00	6.213504e-04	
771	5.300000e+00	6.230906e-04	
772	5.350000e+00	6.247027e-04	
773	5.400000e+00	6.261900e-04	
774	5.450000e+00	6.275597e-04	
775	5.500000e+00	6.288215e-04	
776	5.550000e+00	6.299862e-04	
777	5.600000e+00	6.310642e-04	
778	5.650000e+00	6.320654e-04	
779	5.700000e+00	6.329986e-04	
780	5.750000e+00	6.338714e-04	
781	5.800000e+00	6.346906e-04	
782	5.850000e+00	6.354619e-04	
783	5.900000e+00	6.361902e-04	
784	5.950000e+00	6.368800e-04	
785	6.000000e+00	6.375348e-04	
786	6.050000e+00	6.381581e-04	
787	6.100000e+00	6.387524e-04	
788	6.150000e+00	6.393205e-04	
789	6.200000e+00	6.398644e-04	
790	6.250000e+00	6.403861e-04	
791	6.300000e+00	6.408872e-04	
792	6.350000e+00	6.413694e-04	
793	6.400000e+00	6.418340e-04	
794	6.450000e+00	6.422822e-04	
795	6.500000e+00	6.427151e-04	
796	6.550000e+00	6.431337e-04	
797	6.600000e+00	6.435390e-04	
Note: No ".plot", ".print", or ".fourier" lines; no simulations run
