
Note: Compatibility modes selected: hs

Warning: m=xx on .subckt line will override multiplier m hierarchy!


Circuit: ***************************

Doing analysis at TEMP = 25.000000 and TNOM = 25.000000


No. of Data Rows : 798
                          ***************************
                          DC transfer characteristic  Mon Jan  9 13:58:04  2023
--------------------------------------------------------------------------------
Index   v-sweep         -i(vds)         
--------------------------------------------------------------------------------
0	0.000000e+00	-0.000000e+00	
1	5.000000e-02	5.229302e-06	
2	1.000000e-01	9.653861e-06	
3	1.500000e-01	1.328853e-05	
4	2.000000e-01	1.615195e-05	
5	2.500000e-01	1.827732e-05	
6	3.000000e-01	1.975575e-05	
7	3.500000e-01	2.080170e-05	
8	4.000000e-01	2.163172e-05	
9	4.500000e-01	2.234308e-05	
10	5.000000e-01	2.297571e-05	
11	5.500000e-01	2.355131e-05	
12	6.000000e-01	2.408355e-05	
13	6.500000e-01	2.458179e-05	
14	7.000000e-01	2.505266e-05	
15	7.500000e-01	2.550107e-05	
16	8.000000e-01	2.593074e-05	
17	8.500000e-01	2.634458e-05	
18	9.000000e-01	2.674486e-05	
19	9.500000e-01	2.713343e-05	
20	1.000000e+00	2.751178e-05	
21	1.050000e+00	2.788115e-05	
22	1.100000e+00	2.824259e-05	
23	1.150000e+00	2.859695e-05	
24	1.200000e+00	2.894499e-05	
25	1.250000e+00	2.928734e-05	
26	1.300000e+00	2.962456e-05	
27	1.350000e+00	2.995710e-05	
28	1.400000e+00	3.028541e-05	
29	1.450000e+00	3.060984e-05	
30	1.500000e+00	3.093071e-05	
31	1.550000e+00	3.124832e-05	
32	1.600000e+00	3.156292e-05	
33	1.650000e+00	3.187475e-05	
34	1.700000e+00	3.218400e-05	
35	1.750000e+00	3.249086e-05	
36	1.800000e+00	3.279551e-05	
37	1.850000e+00	3.309809e-05	
38	1.900000e+00	3.339874e-05	
39	1.950000e+00	3.369760e-05	
40	2.000000e+00	3.399477e-05	
41	2.050000e+00	3.429036e-05	
42	2.100000e+00	3.458448e-05	
43	2.150000e+00	3.487721e-05	
44	2.200000e+00	3.516863e-05	
45	2.250000e+00	3.545883e-05	
46	2.300000e+00	3.574787e-05	
47	2.350000e+00	3.603582e-05	
48	2.400000e+00	3.632275e-05	
49	2.450000e+00	3.660870e-05	
50	2.500000e+00	3.689375e-05	
51	2.550000e+00	3.717793e-05	
52	2.600000e+00	3.746129e-05	
53	2.650000e+00	3.774389e-05	
54	2.700000e+00	3.802575e-05	

Index   v-sweep         -i(vds)         
--------------------------------------------------------------------------------
55	2.750000e+00	3.830693e-05	
56	2.800000e+00	3.858746e-05	
57	2.850000e+00	3.886737e-05	
58	2.900000e+00	3.914670e-05	
59	2.950000e+00	3.942548e-05	
60	3.000000e+00	3.970374e-05	
61	3.050000e+00	3.998151e-05	
62	3.100000e+00	4.025881e-05	
63	3.150000e+00	4.053568e-05	
64	3.200000e+00	4.081213e-05	
65	3.250000e+00	4.108819e-05	
66	3.300000e+00	4.136389e-05	
67	3.350000e+00	4.163924e-05	
68	3.400000e+00	4.191426e-05	
69	3.450000e+00	4.218897e-05	
70	3.500000e+00	4.246340e-05	
71	3.550000e+00	4.273756e-05	
72	3.600000e+00	4.301146e-05	
73	3.650000e+00	4.328513e-05	
74	3.700000e+00	4.355857e-05	
75	3.750000e+00	4.383181e-05	
76	3.800000e+00	4.410486e-05	
77	3.850000e+00	4.437773e-05	
78	3.900000e+00	4.465044e-05	
79	3.950000e+00	4.492300e-05	
80	4.000000e+00	4.519542e-05	
81	4.050000e+00	4.546771e-05	
82	4.100000e+00	4.573988e-05	
83	4.150000e+00	4.601195e-05	
84	4.200000e+00	4.628393e-05	
85	4.250000e+00	4.655582e-05	
86	4.300000e+00	4.682764e-05	
87	4.350000e+00	4.709940e-05	
88	4.400000e+00	4.737110e-05	
89	4.450000e+00	4.764276e-05	
90	4.500000e+00	4.791438e-05	
91	4.550000e+00	4.818597e-05	
92	4.600000e+00	4.845754e-05	
93	4.650000e+00	4.872909e-05	
94	4.700000e+00	4.900064e-05	
95	4.750000e+00	4.927219e-05	
96	4.800000e+00	4.954375e-05	
97	4.850000e+00	4.981533e-05	
98	4.900000e+00	5.008693e-05	
99	4.950000e+00	5.035855e-05	
100	5.000000e+00	5.063021e-05	
101	5.050000e+00	5.090191e-05	
102	5.100000e+00	5.117366e-05	
103	5.150000e+00	5.144546e-05	
104	5.200000e+00	5.171732e-05	
105	5.250000e+00	5.198923e-05	
106	5.300000e+00	5.226122e-05	
107	5.350000e+00	5.253328e-05	
108	5.400000e+00	5.280542e-05	
109	5.450000e+00	5.307763e-05	
110	5.500000e+00	5.334994e-05	
111	5.550000e+00	5.362233e-05	
112	5.600000e+00	5.389483e-05	

Index   v-sweep         -i(vds)         
--------------------------------------------------------------------------------
113	5.650000e+00	5.416742e-05	
114	5.700000e+00	5.444011e-05	
115	5.750000e+00	5.471291e-05	
116	5.800000e+00	5.498582e-05	
117	5.850000e+00	5.525885e-05	
118	5.900000e+00	5.553199e-05	
119	5.950000e+00	5.580526e-05	
120	6.000000e+00	5.607865e-05	
121	6.050000e+00	5.635217e-05	
122	6.100000e+00	5.662582e-05	
123	6.150000e+00	5.689960e-05	
124	6.200000e+00	5.717352e-05	
125	6.250000e+00	5.744758e-05	
126	6.300000e+00	5.772179e-05	
127	6.350000e+00	5.799614e-05	
128	6.400000e+00	5.827064e-05	
129	6.450000e+00	5.854529e-05	
130	6.500000e+00	5.882010e-05	
131	6.550000e+00	5.909506e-05	
132	6.600000e+00	5.937018e-05	
133	0.000000e+00	-0.000000e+00	
134	5.000000e-02	1.857139e-05	
135	1.000000e-01	3.629633e-05	
136	1.500000e-01	5.319009e-05	
137	2.000000e-01	6.926755e-05	
138	2.500000e-01	8.454328e-05	
139	3.000000e-01	9.903152e-05	
140	3.500000e-01	1.127462e-04	
141	4.000000e-01	1.257009e-04	
142	4.500000e-01	1.379089e-04	
143	5.000000e-01	1.493834e-04	
144	5.500000e-01	1.601370e-04	
145	6.000000e-01	1.701818e-04	
146	6.500000e-01	1.795293e-04	
147	7.000000e-01	1.881883e-04	
148	7.500000e-01	1.961617e-04	
149	8.000000e-01	2.034353e-04	
150	8.500000e-01	2.099597e-04	
151	9.000000e-01	2.156629e-04	
152	9.500000e-01	2.205406e-04	
153	1.000000e+00	2.247008e-04	
154	1.050000e+00	2.282926e-04	
155	1.100000e+00	2.314454e-04	
156	1.150000e+00	2.342570e-04	
157	1.200000e+00	2.367984e-04	
158	1.250000e+00	2.391218e-04	
159	1.300000e+00	2.412661e-04	
160	1.350000e+00	2.432610e-04	
161	1.400000e+00	2.451295e-04	
162	1.450000e+00	2.468895e-04	
163	1.500000e+00	2.485558e-04	
164	1.550000e+00	2.501402e-04	
165	1.600000e+00	2.516523e-04	
166	1.650000e+00	2.531004e-04	
167	1.700000e+00	2.544913e-04	
168	1.750000e+00	2.558308e-04	
169	1.800000e+00	2.571238e-04	
170	1.850000e+00	2.583747e-04	

Index   v-sweep         -i(vds)         
--------------------------------------------------------------------------------
171	1.900000e+00	2.595873e-04	
172	1.950000e+00	2.607647e-04	
173	2.000000e+00	2.619099e-04	
174	2.050000e+00	2.630253e-04	
175	2.100000e+00	2.641132e-04	
176	2.150000e+00	2.651757e-04	
177	2.200000e+00	2.662146e-04	
178	2.250000e+00	2.672313e-04	
179	2.300000e+00	2.682275e-04	
180	2.350000e+00	2.692045e-04	
181	2.400000e+00	2.701633e-04	
182	2.450000e+00	2.711052e-04	
183	2.500000e+00	2.720312e-04	
184	2.550000e+00	2.729421e-04	
185	2.600000e+00	2.738388e-04	
186	2.650000e+00	2.747221e-04	
187	2.700000e+00	2.755926e-04	
188	2.750000e+00	2.764512e-04	
189	2.800000e+00	2.772983e-04	
190	2.850000e+00	2.781346e-04	
191	2.900000e+00	2.789605e-04	
192	2.950000e+00	2.797767e-04	
193	3.000000e+00	2.805835e-04	
194	3.050000e+00	2.813814e-04	
195	3.100000e+00	2.821708e-04	
196	3.150000e+00	2.829521e-04	
197	3.200000e+00	2.837256e-04	
198	3.250000e+00	2.844918e-04	
199	3.300000e+00	2.852508e-04	
200	3.350000e+00	2.860031e-04	
201	3.400000e+00	2.867489e-04	
202	3.450000e+00	2.874885e-04	
203	3.500000e+00	2.882221e-04	
204	3.550000e+00	2.889500e-04	
205	3.600000e+00	2.896725e-04	
206	3.650000e+00	2.903897e-04	
207	3.700000e+00	2.911018e-04	
208	3.750000e+00	2.918091e-04	
209	3.800000e+00	2.925117e-04	
210	3.850000e+00	2.932099e-04	
211	3.900000e+00	2.939037e-04	
212	3.950000e+00	2.945935e-04	
213	4.000000e+00	2.952792e-04	
214	4.050000e+00	2.959612e-04	
215	4.100000e+00	2.966394e-04	
216	4.150000e+00	2.973141e-04	
217	4.200000e+00	2.979855e-04	
218	4.250000e+00	2.986535e-04	
219	4.300000e+00	2.993184e-04	
220	4.350000e+00	2.999803e-04	
221	4.400000e+00	3.006392e-04	
222	4.450000e+00	3.012954e-04	
223	4.500000e+00	3.019488e-04	
224	4.550000e+00	3.025996e-04	
225	4.600000e+00	3.032479e-04	
226	4.650000e+00	3.038938e-04	
227	4.700000e+00	3.045373e-04	
228	4.750000e+00	3.051786e-04	

Index   v-sweep         -i(vds)         
--------------------------------------------------------------------------------
229	4.800000e+00	3.058178e-04	
230	4.850000e+00	3.064548e-04	
231	4.900000e+00	3.070899e-04	
232	4.950000e+00	3.077230e-04	
233	5.000000e+00	3.083542e-04	
234	5.050000e+00	3.089837e-04	
235	5.100000e+00	3.096114e-04	
236	5.150000e+00	3.102374e-04	
237	5.200000e+00	3.108619e-04	
238	5.250000e+00	3.114848e-04	
239	5.300000e+00	3.121062e-04	
240	5.350000e+00	3.127262e-04	
241	5.400000e+00	3.133448e-04	
242	5.450000e+00	3.139620e-04	
243	5.500000e+00	3.145780e-04	
244	5.550000e+00	3.151928e-04	
245	5.600000e+00	3.158063e-04	
246	5.650000e+00	3.164188e-04	
247	5.700000e+00	3.170301e-04	
248	5.750000e+00	3.176404e-04	
249	5.800000e+00	3.182496e-04	
250	5.850000e+00	3.188579e-04	
251	5.900000e+00	3.194653e-04	
252	5.950000e+00	3.200717e-04	
253	6.000000e+00	3.206773e-04	
254	6.050000e+00	3.212821e-04	
255	6.100000e+00	3.218860e-04	
256	6.150000e+00	3.224892e-04	
257	6.200000e+00	3.230917e-04	
258	6.250000e+00	3.236934e-04	
259	6.300000e+00	3.242945e-04	
260	6.350000e+00	3.248949e-04	
261	6.400000e+00	3.254947e-04	
262	6.450000e+00	3.260939e-04	
263	6.500000e+00	3.266926e-04	
264	6.550000e+00	3.272907e-04	
265	6.600000e+00	3.278883e-04	
266	0.000000e+00	-0.000000e+00	
267	5.000000e-02	2.789843e-05	
268	1.000000e-01	5.495678e-05	
269	1.500000e-01	8.118970e-05	
270	2.000000e-01	1.066115e-04	
271	2.500000e-01	1.312361e-04	
272	3.000000e-01	1.550772e-04	
273	3.500000e-01	1.781482e-04	
274	4.000000e-01	2.004621e-04	
275	4.500000e-01	2.220315e-04	
276	5.000000e-01	2.428691e-04	
277	5.500000e-01	2.629868e-04	
278	6.000000e-01	2.823966e-04	
279	6.500000e-01	3.011100e-04	
280	7.000000e-01	3.191382e-04	
281	7.500000e-01	3.364921e-04	
282	8.000000e-01	3.531822e-04	
283	8.500000e-01	3.692184e-04	
284	9.000000e-01	3.846096e-04	
285	9.500000e-01	3.993634e-04	
286	1.000000e+00	4.134844e-04	

Index   v-sweep         -i(vds)         
--------------------------------------------------------------------------------
287	1.050000e+00	4.269713e-04	
288	1.100000e+00	4.398102e-04	
289	1.150000e+00	4.519591e-04	
290	1.200000e+00	4.633214e-04	
291	1.250000e+00	4.737284e-04	
292	1.300000e+00	4.829996e-04	
293	1.350000e+00	4.910805e-04	
294	1.400000e+00	4.980802e-04	
295	1.450000e+00	5.041822e-04	
296	1.500000e+00	5.095638e-04	
297	1.550000e+00	5.143693e-04	
298	1.600000e+00	5.187095e-04	
299	1.650000e+00	5.226689e-04	
300	1.700000e+00	5.263119e-04	
301	1.750000e+00	5.296885e-04	
302	1.800000e+00	5.328383e-04	
303	1.850000e+00	5.357925e-04	
304	1.900000e+00	5.385767e-04	
305	1.950000e+00	5.412118e-04	
306	2.000000e+00	5.437149e-04	
307	2.050000e+00	5.461007e-04	
308	2.100000e+00	5.483813e-04	
309	2.150000e+00	5.505673e-04	
310	2.200000e+00	5.526675e-04	
311	2.250000e+00	5.546898e-04	
312	2.300000e+00	5.566408e-04	
313	2.350000e+00	5.585266e-04	
314	2.400000e+00	5.603524e-04	
315	2.450000e+00	5.621228e-04	
316	2.500000e+00	5.638418e-04	
317	2.550000e+00	5.655133e-04	
318	2.600000e+00	5.671404e-04	
319	2.650000e+00	5.687262e-04	
320	2.700000e+00	5.702733e-04	
321	2.750000e+00	5.717843e-04	
322	2.800000e+00	5.732612e-04	
323	2.850000e+00	5.747061e-04	
324	2.900000e+00	5.761209e-04	
325	2.950000e+00	5.775074e-04	
326	3.000000e+00	5.788669e-04	
327	3.050000e+00	5.802011e-04	
328	3.100000e+00	5.815112e-04	
329	3.150000e+00	5.827984e-04	
330	3.200000e+00	5.840640e-04	
331	3.250000e+00	5.853090e-04	
332	3.300000e+00	5.865344e-04	
333	3.350000e+00	5.877411e-04	
334	3.400000e+00	5.889300e-04	
335	3.450000e+00	5.901019e-04	
336	3.500000e+00	5.912576e-04	
337	3.550000e+00	5.923978e-04	
338	3.600000e+00	5.935232e-04	
339	3.650000e+00	5.946345e-04	
340	3.700000e+00	5.957322e-04	
341	3.750000e+00	5.968169e-04	
342	3.800000e+00	5.978892e-04	
343	3.850000e+00	5.989496e-04	
344	3.900000e+00	5.999985e-04	

Index   v-sweep         -i(vds)         
--------------------------------------------------------------------------------
345	3.950000e+00	6.010365e-04	
346	4.000000e+00	6.020639e-04	
347	4.050000e+00	6.030812e-04	
348	4.100000e+00	6.040888e-04	
349	4.150000e+00	6.050871e-04	
350	4.200000e+00	6.060764e-04	
351	4.250000e+00	6.070570e-04	
352	4.300000e+00	6.080294e-04	
353	4.350000e+00	6.089938e-04	
354	4.400000e+00	6.099505e-04	
355	4.450000e+00	6.108998e-04	
356	4.500000e+00	6.118420e-04	
357	4.550000e+00	6.127773e-04	
358	4.600000e+00	6.137061e-04	
359	4.650000e+00	6.146284e-04	
360	4.700000e+00	6.155447e-04	
361	4.750000e+00	6.164551e-04	
362	4.800000e+00	6.173597e-04	
363	4.850000e+00	6.182589e-04	
364	4.900000e+00	6.191528e-04	
365	4.950000e+00	6.200416e-04	
366	5.000000e+00	6.209255e-04	
367	5.050000e+00	6.218046e-04	
368	5.100000e+00	6.226792e-04	
369	5.150000e+00	6.235493e-04	
370	5.200000e+00	6.244152e-04	
371	5.250000e+00	6.252770e-04	
372	5.300000e+00	6.261348e-04	
373	5.350000e+00	6.269888e-04	
374	5.400000e+00	6.278392e-04	
375	5.450000e+00	6.286859e-04	
376	5.500000e+00	6.295292e-04	
377	5.550000e+00	6.303693e-04	
378	5.600000e+00	6.312061e-04	
379	5.650000e+00	6.320398e-04	
380	5.700000e+00	6.328705e-04	
381	5.750000e+00	6.336984e-04	
382	5.800000e+00	6.345235e-04	
383	5.850000e+00	6.353459e-04	
384	5.900000e+00	6.361657e-04	
385	5.950000e+00	6.369831e-04	
386	6.000000e+00	6.377980e-04	
387	6.050000e+00	6.386106e-04	
388	6.100000e+00	6.394209e-04	
389	6.150000e+00	6.402291e-04	
390	6.200000e+00	6.410352e-04	
391	6.250000e+00	6.418393e-04	
392	6.300000e+00	6.426414e-04	
393	6.350000e+00	6.434416e-04	
394	6.400000e+00	6.442401e-04	
395	6.450000e+00	6.450368e-04	
396	6.500000e+00	6.458318e-04	
397	6.550000e+00	6.466252e-04	
398	6.600000e+00	6.474170e-04	
399	0.000000e+00	-0.000000e+00	
400	5.000000e-02	3.457843e-05	
401	1.000000e-01	6.835445e-05	
402	1.500000e-01	1.013409e-04	

Index   v-sweep         -i(vds)         
--------------------------------------------------------------------------------
403	2.000000e-01	1.335505e-04	
404	2.500000e-01	1.649955e-04	
405	3.000000e-01	1.956881e-04	
406	3.500000e-01	2.256399e-04	
407	4.000000e-01	2.548628e-04	
408	4.500000e-01	2.833678e-04	
409	5.000000e-01	3.111663e-04	
410	5.500000e-01	3.382689e-04	
411	6.000000e-01	3.646864e-04	
412	6.500000e-01	3.904291e-04	
413	7.000000e-01	4.155071e-04	
414	7.500000e-01	4.399305e-04	
415	8.000000e-01	4.637089e-04	
416	8.500000e-01	4.868518e-04	
417	9.000000e-01	5.093683e-04	
418	9.500000e-01	5.312676e-04	
419	1.000000e+00	5.525581e-04	
420	1.050000e+00	5.732483e-04	
421	1.100000e+00	5.933459e-04	
422	1.150000e+00	6.128582e-04	
423	1.200000e+00	6.317911e-04	
424	1.250000e+00	6.501491e-04	
425	1.300000e+00	6.679335e-04	
426	1.350000e+00	6.851398e-04	
427	1.400000e+00	7.017521e-04	
428	1.450000e+00	7.177319e-04	
429	1.500000e+00	7.329975e-04	
430	1.550000e+00	7.473963e-04	
431	1.600000e+00	7.607026e-04	
432	1.650000e+00	7.727004e-04	
433	1.700000e+00	7.833137e-04	
434	1.750000e+00	7.926367e-04	
435	1.800000e+00	8.008526e-04	
436	1.850000e+00	8.081537e-04	
437	1.900000e+00	8.147059e-04	
438	1.950000e+00	8.206425e-04	
439	2.000000e+00	8.260683e-04	
440	2.050000e+00	8.310653e-04	
441	2.100000e+00	8.356983e-04	
442	2.150000e+00	8.400190e-04	
443	2.200000e+00	8.440691e-04	
444	2.250000e+00	8.478829e-04	
445	2.300000e+00	8.514884e-04	
446	2.350000e+00	8.549091e-04	
447	2.400000e+00	8.581649e-04	
448	2.450000e+00	8.612725e-04	
449	2.500000e+00	8.642463e-04	
450	2.550000e+00	8.670987e-04	
451	2.600000e+00	8.698406e-04	
452	2.650000e+00	8.724813e-04	
453	2.700000e+00	8.750291e-04	
454	2.750000e+00	8.774913e-04	
455	2.800000e+00	8.798743e-04	
456	2.850000e+00	8.821841e-04	
457	2.900000e+00	8.844257e-04	
458	2.950000e+00	8.866037e-04	
459	3.000000e+00	8.887225e-04	
460	3.050000e+00	8.907857e-04	

Index   v-sweep         -i(vds)         
--------------------------------------------------------------------------------
461	3.100000e+00	8.927969e-04	
462	3.150000e+00	8.947591e-04	
463	3.200000e+00	8.966753e-04	
464	3.250000e+00	8.985481e-04	
465	3.300000e+00	9.003800e-04	
466	3.350000e+00	9.021730e-04	
467	3.400000e+00	9.039294e-04	
468	3.450000e+00	9.056510e-04	
469	3.500000e+00	9.073395e-04	
470	3.550000e+00	9.089967e-04	
471	3.600000e+00	9.106241e-04	
472	3.650000e+00	9.122230e-04	
473	3.700000e+00	9.137949e-04	
474	3.750000e+00	9.153410e-04	
475	3.800000e+00	9.168625e-04	
476	3.850000e+00	9.183604e-04	
477	3.900000e+00	9.198359e-04	
478	3.950000e+00	9.212898e-04	
479	4.000000e+00	9.227232e-04	
480	4.050000e+00	9.241369e-04	
481	4.100000e+00	9.255317e-04	
482	4.150000e+00	9.269085e-04	
483	4.200000e+00	9.282678e-04	
484	4.250000e+00	9.296106e-04	
485	4.300000e+00	9.309374e-04	
486	4.350000e+00	9.322488e-04	
487	4.400000e+00	9.335455e-04	
488	4.450000e+00	9.348281e-04	
489	4.500000e+00	9.360971e-04	
490	4.550000e+00	9.373530e-04	
491	4.600000e+00	9.385964e-04	
492	4.650000e+00	9.398276e-04	
493	4.700000e+00	9.410473e-04	
494	4.750000e+00	9.422557e-04	
495	4.800000e+00	9.434533e-04	
496	4.850000e+00	9.446406e-04	
497	4.900000e+00	9.458179e-04	
498	4.950000e+00	9.469855e-04	
499	5.000000e+00	9.481439e-04	
500	5.050000e+00	9.492933e-04	
501	5.100000e+00	9.504342e-04	
502	5.150000e+00	9.515667e-04	
503	5.200000e+00	9.526912e-04	
504	5.250000e+00	9.538080e-04	
505	5.300000e+00	9.549174e-04	
506	5.350000e+00	9.560195e-04	
507	5.400000e+00	9.571148e-04	
508	5.450000e+00	9.582034e-04	
509	5.500000e+00	9.592855e-04	
510	5.550000e+00	9.603614e-04	
511	5.600000e+00	9.614313e-04	
512	5.650000e+00	9.624955e-04	
513	5.700000e+00	9.635540e-04	
514	5.750000e+00	9.646072e-04	
515	5.800000e+00	9.656551e-04	
516	5.850000e+00	9.666980e-04	
517	5.900000e+00	9.677361e-04	
518	5.950000e+00	9.687695e-04	

Index   v-sweep         -i(vds)         
--------------------------------------------------------------------------------
519	6.000000e+00	9.697983e-04	
520	6.050000e+00	9.708228e-04	
521	6.100000e+00	9.718431e-04	
522	6.150000e+00	9.728593e-04	
523	6.200000e+00	9.738716e-04	
524	6.250000e+00	9.748801e-04	
525	6.300000e+00	9.758849e-04	
526	6.350000e+00	9.768862e-04	
527	6.400000e+00	9.778841e-04	
528	6.450000e+00	9.788787e-04	
529	6.500000e+00	9.798701e-04	
530	6.550000e+00	9.808584e-04	
531	6.600000e+00	9.818437e-04	
532	0.000000e+00	-0.000000e+00	
533	5.000000e-02	3.928226e-05	
534	1.000000e-01	7.781900e-05	
535	1.500000e-01	1.156211e-04	
536	2.000000e-01	1.526992e-04	
537	2.500000e-01	1.890637e-04	
538	3.000000e-01	2.247249e-04	
539	3.500000e-01	2.596928e-04	
540	4.000000e-01	2.939772e-04	
541	4.500000e-01	3.275879e-04	
542	5.000000e-01	3.605342e-04	
543	5.500000e-01	3.928255e-04	
544	6.000000e-01	4.244710e-04	
545	6.500000e-01	4.554794e-04	
546	7.000000e-01	4.858596e-04	
547	7.500000e-01	5.156203e-04	
548	8.000000e-01	5.447697e-04	
549	8.500000e-01	5.733161e-04	
550	9.000000e-01	6.012677e-04	
551	9.500000e-01	6.286323e-04	
552	1.000000e+00	6.554177e-04	
553	1.050000e+00	6.816316e-04	
554	1.100000e+00	7.072812e-04	
555	1.150000e+00	7.323738e-04	
556	1.200000e+00	7.569164e-04	
557	1.250000e+00	7.809159e-04	
558	1.300000e+00	8.043787e-04	
559	1.350000e+00	8.273110e-04	
560	1.400000e+00	8.497185e-04	
561	1.450000e+00	8.716062e-04	
562	1.500000e+00	8.929781e-04	
563	1.550000e+00	9.138365e-04	
564	1.600000e+00	9.341809e-04	
565	1.650000e+00	9.540056e-04	
566	1.700000e+00	9.732959e-04	
567	1.750000e+00	9.920198e-04	
568	1.800000e+00	1.010114e-03	
569	1.850000e+00	1.027460e-03	
570	1.900000e+00	1.043867e-03	
571	1.950000e+00	1.059089e-03	
572	2.000000e+00	1.072920e-03	
573	2.050000e+00	1.085297e-03	
574	2.100000e+00	1.096309e-03	
575	2.150000e+00	1.106127e-03	
576	2.200000e+00	1.114937e-03	

Index   v-sweep         -i(vds)         
--------------------------------------------------------------------------------
577	2.250000e+00	1.122904e-03	
578	2.300000e+00	1.130165e-03	
579	2.350000e+00	1.136832e-03	
580	2.400000e+00	1.142994e-03	
581	2.450000e+00	1.148723e-03	
582	2.500000e+00	1.154077e-03	
583	2.550000e+00	1.159105e-03	
584	2.600000e+00	1.163845e-03	
585	2.650000e+00	1.168330e-03	
586	2.700000e+00	1.172588e-03	
587	2.750000e+00	1.176642e-03	
588	2.800000e+00	1.180513e-03	
589	2.850000e+00	1.184217e-03	
590	2.900000e+00	1.187770e-03	
591	2.950000e+00	1.191185e-03	
592	3.000000e+00	1.194473e-03	
593	3.050000e+00	1.197644e-03	
594	3.100000e+00	1.200708e-03	
595	3.150000e+00	1.203671e-03	
596	3.200000e+00	1.206542e-03	
597	3.250000e+00	1.209326e-03	
598	3.300000e+00	1.212030e-03	
599	3.350000e+00	1.214659e-03	
600	3.400000e+00	1.217216e-03	
601	3.450000e+00	1.219708e-03	
602	3.500000e+00	1.222137e-03	
603	3.550000e+00	1.224507e-03	
604	3.600000e+00	1.226822e-03	
605	3.650000e+00	1.229084e-03	
606	3.700000e+00	1.231297e-03	
607	3.750000e+00	1.233462e-03	
608	3.800000e+00	1.235583e-03	
609	3.850000e+00	1.237662e-03	
610	3.900000e+00	1.239700e-03	
611	3.950000e+00	1.241700e-03	
612	4.000000e+00	1.243663e-03	
613	4.050000e+00	1.245592e-03	
614	4.100000e+00	1.247487e-03	
615	4.150000e+00	1.249350e-03	
616	4.200000e+00	1.251183e-03	
617	4.250000e+00	1.252987e-03	
618	4.300000e+00	1.254764e-03	
619	4.350000e+00	1.256513e-03	
620	4.400000e+00	1.258238e-03	
621	4.450000e+00	1.259938e-03	
622	4.500000e+00	1.261614e-03	
623	4.550000e+00	1.263268e-03	
624	4.600000e+00	1.264901e-03	
625	4.650000e+00	1.266512e-03	
626	4.700000e+00	1.268104e-03	
627	4.750000e+00	1.269677e-03	
628	4.800000e+00	1.271232e-03	
629	4.850000e+00	1.272769e-03	
630	4.900000e+00	1.274289e-03	
631	4.950000e+00	1.275793e-03	
632	5.000000e+00	1.277281e-03	
633	5.050000e+00	1.278754e-03	
634	5.100000e+00	1.280212e-03	

Index   v-sweep         -i(vds)         
--------------------------------------------------------------------------------
635	5.150000e+00	1.281657e-03	
636	5.200000e+00	1.283088e-03	
637	5.250000e+00	1.284506e-03	
638	5.300000e+00	1.285911e-03	
639	5.350000e+00	1.287305e-03	
640	5.400000e+00	1.288687e-03	
641	5.450000e+00	1.290058e-03	
642	5.500000e+00	1.291418e-03	
643	5.550000e+00	1.292767e-03	
644	5.600000e+00	1.294107e-03	
645	5.650000e+00	1.295437e-03	
646	5.700000e+00	1.296757e-03	
647	5.750000e+00	1.298069e-03	
648	5.800000e+00	1.299372e-03	
649	5.850000e+00	1.300666e-03	
650	5.900000e+00	1.301953e-03	
651	5.950000e+00	1.303231e-03	
652	6.000000e+00	1.304502e-03	
653	6.050000e+00	1.305766e-03	
654	6.100000e+00	1.307023e-03	
655	6.150000e+00	1.308273e-03	
656	6.200000e+00	1.309517e-03	
657	6.250000e+00	1.310754e-03	
658	6.300000e+00	1.311985e-03	
659	6.350000e+00	1.313211e-03	
660	6.400000e+00	1.314430e-03	
661	6.450000e+00	1.315644e-03	
662	6.500000e+00	1.316853e-03	
663	6.550000e+00	1.318057e-03	
664	6.600000e+00	1.319256e-03	
665	0.000000e+00	-0.000000e+00	
666	5.000000e-02	4.250041e-05	
667	1.000000e-01	8.432071e-05	
668	1.500000e-01	1.254698e-04	
669	2.000000e-01	1.659565e-04	
670	2.500000e-01	2.057894e-04	
671	3.000000e-01	2.449770e-04	
672	3.500000e-01	2.835275e-04	
673	4.000000e-01	3.214491e-04	
674	4.500000e-01	3.587500e-04	
675	5.000000e-01	3.954379e-04	
676	5.500000e-01	4.315207e-04	
677	6.000000e-01	4.670059e-04	
678	6.500000e-01	5.019011e-04	
679	7.000000e-01	5.362135e-04	
680	7.500000e-01	5.699505e-04	
681	8.000000e-01	6.031191e-04	
682	8.500000e-01	6.357264e-04	
683	9.000000e-01	6.677791e-04	
684	9.500000e-01	6.992841e-04	
685	1.000000e+00	7.302478e-04	
686	1.050000e+00	7.606769e-04	
687	1.100000e+00	7.905777e-04	
688	1.150000e+00	8.199564e-04	
689	1.200000e+00	8.488192e-04	
690	1.250000e+00	8.771721e-04	
691	1.300000e+00	9.050210e-04	
692	1.350000e+00	9.323717e-04	

Index   v-sweep         -i(vds)         
--------------------------------------------------------------------------------
693	1.400000e+00	9.592298e-04	
694	1.450000e+00	9.856009e-04	
695	1.500000e+00	1.011490e-03	
696	1.550000e+00	1.036903e-03	
697	1.600000e+00	1.061844e-03	
698	1.650000e+00	1.086318e-03	
699	1.700000e+00	1.110329e-03	
700	1.750000e+00	1.133880e-03	
701	1.800000e+00	1.156976e-03	
702	1.850000e+00	1.179616e-03	
703	1.900000e+00	1.201800e-03	
704	1.950000e+00	1.223524e-03	
705	2.000000e+00	1.244778e-03	
706	2.050000e+00	1.265539e-03	
707	2.100000e+00	1.285767e-03	
708	2.150000e+00	1.305385e-03	
709	2.200000e+00	1.324267e-03	
710	2.250000e+00	1.342217e-03	
711	2.300000e+00	1.358996e-03	
712	2.350000e+00	1.374405e-03	
713	2.400000e+00	1.388366e-03	
714	2.450000e+00	1.400937e-03	
715	2.500000e+00	1.412262e-03	
716	2.550000e+00	1.422506e-03	
717	2.600000e+00	1.431830e-03	
718	2.650000e+00	1.440372e-03	
719	2.700000e+00	1.448246e-03	
720	2.750000e+00	1.455546e-03	
721	2.800000e+00	1.462351e-03	
722	2.850000e+00	1.468723e-03	
723	2.900000e+00	1.474715e-03	
724	2.950000e+00	1.480372e-03	
725	3.000000e+00	1.485731e-03	
726	3.050000e+00	1.490822e-03	
727	3.100000e+00	1.495673e-03	
728	3.150000e+00	1.500306e-03	
729	3.200000e+00	1.504741e-03	
730	3.250000e+00	1.508997e-03	
731	3.300000e+00	1.513087e-03	
732	3.350000e+00	1.517025e-03	
733	3.400000e+00	1.520823e-03	
734	3.450000e+00	1.524492e-03	
735	3.500000e+00	1.528041e-03	
736	3.550000e+00	1.531478e-03	
737	3.600000e+00	1.534810e-03	
738	3.650000e+00	1.538046e-03	
739	3.700000e+00	1.541190e-03	
740	3.750000e+00	1.544249e-03	
741	3.800000e+00	1.547227e-03	
742	3.850000e+00	1.550130e-03	
743	3.900000e+00	1.552961e-03	
744	3.950000e+00	1.555725e-03	
745	4.000000e+00	1.558425e-03	
746	4.050000e+00	1.561064e-03	
747	4.100000e+00	1.563647e-03	
748	4.150000e+00	1.566174e-03	
749	4.200000e+00	1.568650e-03	
750	4.250000e+00	1.571077e-03	

Index   v-sweep         -i(vds)         
--------------------------------------------------------------------------------
751	4.300000e+00	1.573457e-03	
752	4.350000e+00	1.575792e-03	
753	4.400000e+00	1.578085e-03	
754	4.450000e+00	1.580337e-03	
755	4.500000e+00	1.582550e-03	
756	4.550000e+00	1.584726e-03	
757	4.600000e+00	1.586866e-03	
758	4.650000e+00	1.588972e-03	
759	4.700000e+00	1.591046e-03	
760	4.750000e+00	1.593089e-03	
761	4.800000e+00	1.595101e-03	
762	4.850000e+00	1.597085e-03	
763	4.900000e+00	1.599041e-03	
764	4.950000e+00	1.600971e-03	
765	5.000000e+00	1.602876e-03	
766	5.050000e+00	1.604756e-03	
767	5.100000e+00	1.606612e-03	
768	5.150000e+00	1.608446e-03	
769	5.200000e+00	1.610259e-03	
770	5.250000e+00	1.612050e-03	
771	5.300000e+00	1.613822e-03	
772	5.350000e+00	1.615574e-03	
773	5.400000e+00	1.617308e-03	
774	5.450000e+00	1.619024e-03	
775	5.500000e+00	1.620722e-03	
776	5.550000e+00	1.622404e-03	
777	5.600000e+00	1.624071e-03	
778	5.650000e+00	1.625721e-03	
779	5.700000e+00	1.627357e-03	
780	5.750000e+00	1.628979e-03	
781	5.800000e+00	1.630587e-03	
782	5.850000e+00	1.632181e-03	
783	5.900000e+00	1.633763e-03	
784	5.950000e+00	1.635332e-03	
785	6.000000e+00	1.636890e-03	
786	6.050000e+00	1.638436e-03	
787	6.100000e+00	1.639970e-03	
788	6.150000e+00	1.641495e-03	
789	6.200000e+00	1.643008e-03	
790	6.250000e+00	1.644512e-03	
791	6.300000e+00	1.646007e-03	
792	6.350000e+00	1.647492e-03	
793	6.400000e+00	1.648968e-03	
794	6.450000e+00	1.650435e-03	
795	6.500000e+00	1.651894e-03	
796	6.550000e+00	1.653345e-03	
797	6.600000e+00	1.654788e-03	
Note: No ".plot", ".print", or ".fourier" lines; no simulations run
