
Note: Compatibility modes selected: hs

Warning: m=xx on .subckt line will override multiplier m hierarchy!


Circuit: ***************************

Doing analysis at TEMP = 125.000000 and TNOM = 125.000000


No. of Data Rows : 798
                          ***************************
                          DC transfer characteristic  Mon Jan  9 13:58:05  2023
--------------------------------------------------------------------------------
Index   v-sweep         -i(vds)         
--------------------------------------------------------------------------------
0	0.000000e+00	-0.000000e+00	
1	5.000000e-02	4.626754e-06	
2	1.000000e-01	8.608514e-06	
3	1.500000e-01	1.205960e-05	
4	2.000000e-01	1.501107e-05	
5	2.500000e-01	1.747343e-05	
6	3.000000e-01	1.945289e-05	
7	3.500000e-01	2.095745e-05	
8	4.000000e-01	2.200582e-05	
9	4.500000e-01	2.265486e-05	
10	5.000000e-01	2.303518e-05	
11	5.500000e-01	2.328919e-05	
12	6.000000e-01	2.348829e-05	
13	6.500000e-01	2.365741e-05	
14	7.000000e-01	2.380639e-05	
15	7.500000e-01	2.394022e-05	
16	8.000000e-01	2.406199e-05	
17	8.500000e-01	2.417382e-05	
18	9.000000e-01	2.427727e-05	
19	9.500000e-01	2.437354e-05	
20	1.000000e+00	2.446359e-05	
21	1.050000e+00	2.454818e-05	
22	1.100000e+00	2.462794e-05	
23	1.150000e+00	2.470340e-05	
24	1.200000e+00	2.477500e-05	
25	1.250000e+00	2.484313e-05	
26	1.300000e+00	2.490810e-05	
27	1.350000e+00	2.497019e-05	
28	1.400000e+00	2.502966e-05	
29	1.450000e+00	2.508671e-05	
30	1.500000e+00	2.514154e-05	
31	1.550000e+00	2.519431e-05	
32	1.600000e+00	2.524517e-05	
33	1.650000e+00	2.529425e-05	
34	1.700000e+00	2.534168e-05	
35	1.750000e+00	2.538757e-05	
36	1.800000e+00	2.543200e-05	
37	1.850000e+00	2.547508e-05	
38	1.900000e+00	2.551688e-05	
39	1.950000e+00	2.555748e-05	
40	2.000000e+00	2.559694e-05	
41	2.050000e+00	2.563533e-05	
42	2.100000e+00	2.567270e-05	
43	2.150000e+00	2.570911e-05	
44	2.200000e+00	2.574460e-05	
45	2.250000e+00	2.577922e-05	
46	2.300000e+00	2.581302e-05	
47	2.350000e+00	2.584603e-05	
48	2.400000e+00	2.587828e-05	
49	2.450000e+00	2.590982e-05	
50	2.500000e+00	2.594068e-05	
51	2.550000e+00	2.597088e-05	
52	2.600000e+00	2.600045e-05	
53	2.650000e+00	2.602942e-05	
54	2.700000e+00	2.605781e-05	

Index   v-sweep         -i(vds)         
--------------------------------------------------------------------------------
55	2.750000e+00	2.608565e-05	
56	2.800000e+00	2.611296e-05	
57	2.850000e+00	2.613976e-05	
58	2.900000e+00	2.616607e-05	
59	2.950000e+00	2.619191e-05	
60	3.000000e+00	2.621729e-05	
61	3.050000e+00	2.624224e-05	
62	3.100000e+00	2.626676e-05	
63	3.150000e+00	2.629088e-05	
64	3.200000e+00	2.631460e-05	
65	3.250000e+00	2.633795e-05	
66	3.300000e+00	2.636093e-05	
67	3.350000e+00	2.638355e-05	
68	3.400000e+00	2.640583e-05	
69	3.450000e+00	2.642779e-05	
70	3.500000e+00	2.644942e-05	
71	3.550000e+00	2.647075e-05	
72	3.600000e+00	2.649177e-05	
73	3.650000e+00	2.651251e-05	
74	3.700000e+00	2.653296e-05	
75	3.750000e+00	2.655314e-05	
76	3.800000e+00	2.657306e-05	
77	3.850000e+00	2.659272e-05	
78	3.900000e+00	2.661213e-05	
79	3.950000e+00	2.663131e-05	
80	4.000000e+00	2.665024e-05	
81	4.050000e+00	2.666895e-05	
82	4.100000e+00	2.668744e-05	
83	4.150000e+00	2.670571e-05	
84	4.200000e+00	2.672378e-05	
85	4.250000e+00	2.674164e-05	
86	4.300000e+00	2.675930e-05	
87	4.350000e+00	2.677677e-05	
88	4.400000e+00	2.679406e-05	
89	4.450000e+00	2.681116e-05	
90	4.500000e+00	2.682809e-05	
91	4.550000e+00	2.684484e-05	
92	4.600000e+00	2.686143e-05	
93	4.650000e+00	2.687785e-05	
94	4.700000e+00	2.689411e-05	
95	4.750000e+00	2.691021e-05	
96	4.800000e+00	2.692617e-05	
97	4.850000e+00	2.694197e-05	
98	4.900000e+00	2.695764e-05	
99	4.950000e+00	2.697316e-05	
100	5.000000e+00	2.698854e-05	
101	5.050000e+00	2.700379e-05	
102	5.100000e+00	2.701891e-05	
103	5.150000e+00	2.703390e-05	
104	5.200000e+00	2.704876e-05	
105	5.250000e+00	2.706351e-05	
106	5.300000e+00	2.707813e-05	
107	5.350000e+00	2.709264e-05	
108	5.400000e+00	2.710703e-05	
109	5.450000e+00	2.712131e-05	
110	5.500000e+00	2.713549e-05	
111	5.550000e+00	2.714955e-05	
112	5.600000e+00	2.716352e-05	

Index   v-sweep         -i(vds)         
--------------------------------------------------------------------------------
113	5.650000e+00	2.717738e-05	
114	5.700000e+00	2.719114e-05	
115	5.750000e+00	2.720480e-05	
116	5.800000e+00	2.721837e-05	
117	5.850000e+00	2.723184e-05	
118	5.900000e+00	2.724522e-05	
119	5.950000e+00	2.725852e-05	
120	6.000000e+00	2.727172e-05	
121	6.050000e+00	2.728484e-05	
122	6.100000e+00	2.729787e-05	
123	6.150000e+00	2.731082e-05	
124	6.200000e+00	2.732369e-05	
125	6.250000e+00	2.733648e-05	
126	6.300000e+00	2.734920e-05	
127	6.350000e+00	2.736183e-05	
128	6.400000e+00	2.737439e-05	
129	6.450000e+00	2.738688e-05	
130	6.500000e+00	2.739930e-05	
131	6.550000e+00	2.741164e-05	
132	6.600000e+00	2.742392e-05	
133	0.000000e+00	-0.000000e+00	
134	5.000000e-02	1.385458e-05	
135	1.000000e-01	2.708876e-05	
136	1.500000e-01	3.981662e-05	
137	2.000000e-01	5.206879e-05	
138	2.500000e-01	6.385500e-05	
139	3.000000e-01	7.517968e-05	
140	3.500000e-01	8.604591e-05	
141	4.000000e-01	9.645646e-05	
142	4.500000e-01	1.064140e-04	
143	5.000000e-01	1.159210e-04	
144	5.500000e-01	1.249803e-04	
145	6.000000e-01	1.335942e-04	
146	6.500000e-01	1.417654e-04	
147	7.000000e-01	1.494964e-04	
148	7.500000e-01	1.567898e-04	
149	8.000000e-01	1.636480e-04	
150	8.500000e-01	1.700736e-04	
151	9.000000e-01	1.760690e-04	
152	9.500000e-01	1.816370e-04	
153	1.000000e+00	1.867799e-04	
154	1.050000e+00	1.915007e-04	
155	1.100000e+00	1.958022e-04	
156	1.150000e+00	1.996877e-04	
157	1.200000e+00	2.031616e-04	
158	1.250000e+00	2.062301e-04	
159	1.300000e+00	2.089042e-04	
160	1.350000e+00	2.112040e-04	
161	1.400000e+00	2.131659e-04	
162	1.450000e+00	2.148423e-04	
163	1.500000e+00	2.162904e-04	
164	1.550000e+00	2.175599e-04	
165	1.600000e+00	2.186884e-04	
166	1.650000e+00	2.197038e-04	
167	1.700000e+00	2.206266e-04	
168	1.750000e+00	2.214722e-04	
169	1.800000e+00	2.222525e-04	
170	1.850000e+00	2.229770e-04	

Index   v-sweep         -i(vds)         
--------------------------------------------------------------------------------
171	1.900000e+00	2.236529e-04	
172	1.950000e+00	2.242865e-04	
173	2.000000e+00	2.248828e-04	
174	2.050000e+00	2.254458e-04	
175	2.100000e+00	2.259791e-04	
176	2.150000e+00	2.264857e-04	
177	2.200000e+00	2.269682e-04	
178	2.250000e+00	2.274286e-04	
179	2.300000e+00	2.278690e-04	
180	2.350000e+00	2.282911e-04	
181	2.400000e+00	2.286962e-04	
182	2.450000e+00	2.290857e-04	
183	2.500000e+00	2.294608e-04	
184	2.550000e+00	2.298224e-04	
185	2.600000e+00	2.301716e-04	
186	2.650000e+00	2.305091e-04	
187	2.700000e+00	2.308358e-04	
188	2.750000e+00	2.311522e-04	
189	2.800000e+00	2.314590e-04	
190	2.850000e+00	2.317568e-04	
191	2.900000e+00	2.320461e-04	
192	2.950000e+00	2.323274e-04	
193	3.000000e+00	2.326010e-04	
194	3.050000e+00	2.328675e-04	
195	3.100000e+00	2.331271e-04	
196	3.150000e+00	2.333803e-04	
197	3.200000e+00	2.336273e-04	
198	3.250000e+00	2.338684e-04	
199	3.300000e+00	2.341040e-04	
200	3.350000e+00	2.343342e-04	
201	3.400000e+00	2.345593e-04	
202	3.450000e+00	2.347796e-04	
203	3.500000e+00	2.349952e-04	
204	3.550000e+00	2.352064e-04	
205	3.600000e+00	2.354133e-04	
206	3.650000e+00	2.356161e-04	
207	3.700000e+00	2.358150e-04	
208	3.750000e+00	2.360101e-04	
209	3.800000e+00	2.362016e-04	
210	3.850000e+00	2.363896e-04	
211	3.900000e+00	2.365743e-04	
212	3.950000e+00	2.367557e-04	
213	4.000000e+00	2.369340e-04	
214	4.050000e+00	2.371094e-04	
215	4.100000e+00	2.372818e-04	
216	4.150000e+00	2.374515e-04	
217	4.200000e+00	2.376185e-04	
218	4.250000e+00	2.377829e-04	
219	4.300000e+00	2.379448e-04	
220	4.350000e+00	2.381043e-04	
221	4.400000e+00	2.382615e-04	
222	4.450000e+00	2.384164e-04	
223	4.500000e+00	2.385691e-04	
224	4.550000e+00	2.387197e-04	
225	4.600000e+00	2.388682e-04	
226	4.650000e+00	2.390148e-04	
227	4.700000e+00	2.391594e-04	
228	4.750000e+00	2.393022e-04	

Index   v-sweep         -i(vds)         
--------------------------------------------------------------------------------
229	4.800000e+00	2.394431e-04	
230	4.850000e+00	2.395823e-04	
231	4.900000e+00	2.397199e-04	
232	4.950000e+00	2.398557e-04	
233	5.000000e+00	2.399900e-04	
234	5.050000e+00	2.401227e-04	
235	5.100000e+00	2.402539e-04	
236	5.150000e+00	2.403837e-04	
237	5.200000e+00	2.405120e-04	
238	5.250000e+00	2.406389e-04	
239	5.300000e+00	2.407645e-04	
240	5.350000e+00	2.408888e-04	
241	5.400000e+00	2.410118e-04	
242	5.450000e+00	2.411336e-04	
243	5.500000e+00	2.412542e-04	
244	5.550000e+00	2.413736e-04	
245	5.600000e+00	2.414918e-04	
246	5.650000e+00	2.416090e-04	
247	5.700000e+00	2.417250e-04	
248	5.750000e+00	2.418400e-04	
249	5.800000e+00	2.419540e-04	
250	5.850000e+00	2.420670e-04	
251	5.900000e+00	2.421790e-04	
252	5.950000e+00	2.422901e-04	
253	6.000000e+00	2.424002e-04	
254	6.050000e+00	2.425094e-04	
255	6.100000e+00	2.426177e-04	
256	6.150000e+00	2.427252e-04	
257	6.200000e+00	2.428318e-04	
258	6.250000e+00	2.429376e-04	
259	6.300000e+00	2.430426e-04	
260	6.350000e+00	2.431468e-04	
261	6.400000e+00	2.432503e-04	
262	6.450000e+00	2.433530e-04	
263	6.500000e+00	2.434549e-04	
264	6.550000e+00	2.435562e-04	
265	6.600000e+00	2.436567e-04	
266	0.000000e+00	-0.000000e+00	
267	5.000000e-02	2.039016e-05	
268	1.000000e-01	4.021157e-05	
269	1.500000e-01	5.957780e-05	
270	2.000000e-01	7.851905e-05	
271	2.500000e-01	9.704456e-05	
272	3.000000e-01	1.151583e-04	
273	3.500000e-01	1.328629e-04	
274	4.000000e-01	1.501607e-04	
275	4.500000e-01	1.670539e-04	
276	5.000000e-01	1.835446e-04	
277	5.500000e-01	1.996350e-04	
278	6.000000e-01	2.153271e-04	
279	6.500000e-01	2.306232e-04	
280	7.000000e-01	2.455253e-04	
281	7.500000e-01	2.600354e-04	
282	8.000000e-01	2.741557e-04	
283	8.500000e-01	2.878882e-04	
284	9.000000e-01	3.012349e-04	
285	9.500000e-01	3.141979e-04	
286	1.000000e+00	3.267791e-04	

Index   v-sweep         -i(vds)         
--------------------------------------------------------------------------------
287	1.050000e+00	3.389806e-04	
288	1.100000e+00	3.508043e-04	
289	1.150000e+00	3.622522e-04	
290	1.200000e+00	3.733262e-04	
291	1.250000e+00	3.840283e-04	
292	1.300000e+00	3.943605e-04	
293	1.350000e+00	4.043245e-04	
294	1.400000e+00	4.139224e-04	
295	1.450000e+00	4.231559e-04	
296	1.500000e+00	4.320270e-04	
297	1.550000e+00	4.405375e-04	
298	1.600000e+00	4.486893e-04	
299	1.650000e+00	4.564840e-04	
300	1.700000e+00	4.639235e-04	
301	1.750000e+00	4.710096e-04	
302	1.800000e+00	4.777438e-04	
303	1.850000e+00	4.841278e-04	
304	1.900000e+00	4.901630e-04	
305	1.950000e+00	4.958506e-04	
306	2.000000e+00	5.011913e-04	
307	2.050000e+00	5.061853e-04	
308	2.100000e+00	5.108317e-04	
309	2.150000e+00	5.151283e-04	
310	2.200000e+00	5.190721e-04	
311	2.250000e+00	5.226630e-04	
312	2.300000e+00	5.259096e-04	
313	2.350000e+00	5.288344e-04	
314	2.400000e+00	5.314707e-04	
315	2.450000e+00	5.338567e-04	
316	2.500000e+00	5.360283e-04	
317	2.550000e+00	5.380170e-04	
318	2.600000e+00	5.398494e-04	
319	2.650000e+00	5.415470e-04	
320	2.700000e+00	5.431277e-04	
321	2.750000e+00	5.446061e-04	
322	2.800000e+00	5.459945e-04	
323	2.850000e+00	5.473031e-04	
324	2.900000e+00	5.485404e-04	
325	2.950000e+00	5.497138e-04	
326	3.000000e+00	5.508294e-04	
327	3.050000e+00	5.518927e-04	
328	3.100000e+00	5.529083e-04	
329	3.150000e+00	5.538803e-04	
330	3.200000e+00	5.548123e-04	
331	3.250000e+00	5.557074e-04	
332	3.300000e+00	5.565685e-04	
333	3.350000e+00	5.573980e-04	
334	3.400000e+00	5.581982e-04	
335	3.450000e+00	5.589710e-04	
336	3.500000e+00	5.597183e-04	
337	3.550000e+00	5.604416e-04	
338	3.600000e+00	5.611426e-04	
339	3.650000e+00	5.618225e-04	
340	3.700000e+00	5.624825e-04	
341	3.750000e+00	5.631239e-04	
342	3.800000e+00	5.637476e-04	
343	3.850000e+00	5.643545e-04	
344	3.900000e+00	5.649456e-04	

Index   v-sweep         -i(vds)         
--------------------------------------------------------------------------------
345	3.950000e+00	5.655216e-04	
346	4.000000e+00	5.660834e-04	
347	4.050000e+00	5.666316e-04	
348	4.100000e+00	5.671669e-04	
349	4.150000e+00	5.676898e-04	
350	4.200000e+00	5.682010e-04	
351	4.250000e+00	5.687010e-04	
352	4.300000e+00	5.691902e-04	
353	4.350000e+00	5.696691e-04	
354	4.400000e+00	5.701382e-04	
355	4.450000e+00	5.705979e-04	
356	4.500000e+00	5.710486e-04	
357	4.550000e+00	5.714905e-04	
358	4.600000e+00	5.719242e-04	
359	4.650000e+00	5.723498e-04	
360	4.700000e+00	5.727678e-04	
361	4.750000e+00	5.731783e-04	
362	4.800000e+00	5.735817e-04	
363	4.850000e+00	5.739783e-04	
364	4.900000e+00	5.743682e-04	
365	4.950000e+00	5.747518e-04	
366	5.000000e+00	5.751293e-04	
367	5.050000e+00	5.755008e-04	
368	5.100000e+00	5.758665e-04	
369	5.150000e+00	5.762268e-04	
370	5.200000e+00	5.765817e-04	
371	5.250000e+00	5.769314e-04	
372	5.300000e+00	5.772762e-04	
373	5.350000e+00	5.776161e-04	
374	5.400000e+00	5.779513e-04	
375	5.450000e+00	5.782821e-04	
376	5.500000e+00	5.786084e-04	
377	5.550000e+00	5.789305e-04	
378	5.600000e+00	5.792485e-04	
379	5.650000e+00	5.795625e-04	
380	5.700000e+00	5.798726e-04	
381	5.750000e+00	5.801790e-04	
382	5.800000e+00	5.804818e-04	
383	5.850000e+00	5.807810e-04	
384	5.900000e+00	5.810768e-04	
385	5.950000e+00	5.813693e-04	
386	6.000000e+00	5.816586e-04	
387	6.050000e+00	5.819447e-04	
388	6.100000e+00	5.822278e-04	
389	6.150000e+00	5.825079e-04	
390	6.200000e+00	5.827852e-04	
391	6.250000e+00	5.830596e-04	
392	6.300000e+00	5.833313e-04	
393	6.350000e+00	5.836004e-04	
394	6.400000e+00	5.838669e-04	
395	6.450000e+00	5.841309e-04	
396	6.500000e+00	5.843924e-04	
397	6.550000e+00	5.846516e-04	
398	6.600000e+00	5.849085e-04	
399	0.000000e+00	-0.000000e+00	
400	5.000000e-02	2.516025e-05	
401	1.000000e-01	4.980015e-05	
402	1.500000e-01	7.403283e-05	

Index   v-sweep         -i(vds)         
--------------------------------------------------------------------------------
403	2.000000e-01	9.788804e-05	
404	2.500000e-01	1.213746e-04	
405	3.000000e-01	1.444960e-04	
406	3.500000e-01	1.672546e-04	
407	4.000000e-01	1.896521e-04	
408	4.500000e-01	2.116903e-04	
409	5.000000e-01	2.333711e-04	
410	5.500000e-01	2.546960e-04	
411	6.000000e-01	2.756669e-04	
412	6.500000e-01	2.962854e-04	
413	7.000000e-01	3.165533e-04	
414	7.500000e-01	3.364722e-04	
415	8.000000e-01	3.560438e-04	
416	8.500000e-01	3.752697e-04	
417	9.000000e-01	3.941517e-04	
418	9.500000e-01	4.126912e-04	
419	1.000000e+00	4.308901e-04	
420	1.050000e+00	4.487499e-04	
421	1.100000e+00	4.662721e-04	
422	1.150000e+00	4.834585e-04	
423	1.200000e+00	5.003105e-04	
424	1.250000e+00	5.168298e-04	
425	1.300000e+00	5.330180e-04	
426	1.350000e+00	5.488766e-04	
427	1.400000e+00	5.644071e-04	
428	1.450000e+00	5.796111e-04	
429	1.500000e+00	5.944901e-04	
430	1.550000e+00	6.090456e-04	
431	1.600000e+00	6.232792e-04	
432	1.650000e+00	6.371923e-04	
433	1.700000e+00	6.507864e-04	
434	1.750000e+00	6.640631e-04	
435	1.800000e+00	6.770237e-04	
436	1.850000e+00	6.896698e-04	
437	1.900000e+00	7.020028e-04	
438	1.950000e+00	7.140240e-04	
439	2.000000e+00	7.257350e-04	
440	2.050000e+00	7.371372e-04	
441	2.100000e+00	7.482319e-04	
442	2.150000e+00	7.590206e-04	
443	2.200000e+00	7.695046e-04	
444	2.250000e+00	7.796852e-04	
445	2.300000e+00	7.895638e-04	
446	2.350000e+00	7.991416e-04	
447	2.400000e+00	8.084199e-04	
448	2.450000e+00	8.174000e-04	
449	2.500000e+00	8.260829e-04	
450	2.550000e+00	8.344695e-04	
451	2.600000e+00	8.425609e-04	
452	2.650000e+00	8.503576e-04	
453	2.700000e+00	8.578598e-04	
454	2.750000e+00	8.650673e-04	
455	2.800000e+00	8.719787e-04	
456	2.850000e+00	8.785912e-04	
457	2.900000e+00	8.848997e-04	
458	2.950000e+00	8.908954e-04	
459	3.000000e+00	8.965650e-04	
460	3.050000e+00	9.018912e-04	

Index   v-sweep         -i(vds)         
--------------------------------------------------------------------------------
461	3.100000e+00	9.068562e-04	
462	3.150000e+00	9.114498e-04	
463	3.200000e+00	9.156763e-04	
464	3.250000e+00	9.195559e-04	
465	3.300000e+00	9.231188e-04	
466	3.350000e+00	9.263997e-04	
467	3.400000e+00	9.294322e-04	
468	3.450000e+00	9.322467e-04	
469	3.500000e+00	9.348698e-04	
470	3.550000e+00	9.373244e-04	
471	3.600000e+00	9.396297e-04	
472	3.650000e+00	9.418022e-04	
473	3.700000e+00	9.438560e-04	
474	3.750000e+00	9.458031e-04	
475	3.800000e+00	9.476539e-04	
476	3.850000e+00	9.494173e-04	
477	3.900000e+00	9.511011e-04	
478	3.950000e+00	9.527120e-04	
479	4.000000e+00	9.542562e-04	
480	4.050000e+00	9.557388e-04	
481	4.100000e+00	9.571646e-04	
482	4.150000e+00	9.585377e-04	
483	4.200000e+00	9.598618e-04	
484	4.250000e+00	9.611404e-04	
485	4.300000e+00	9.623764e-04	
486	4.350000e+00	9.635726e-04	
487	4.400000e+00	9.647315e-04	
488	4.450000e+00	9.658553e-04	
489	4.500000e+00	9.669460e-04	
490	4.550000e+00	9.680057e-04	
491	4.600000e+00	9.690359e-04	
492	4.650000e+00	9.700383e-04	
493	4.700000e+00	9.710143e-04	
494	4.750000e+00	9.719654e-04	
495	4.800000e+00	9.728928e-04	
496	4.850000e+00	9.737975e-04	
497	4.900000e+00	9.746808e-04	
498	4.950000e+00	9.755437e-04	
499	5.000000e+00	9.763870e-04	
500	5.050000e+00	9.772116e-04	
501	5.100000e+00	9.780184e-04	
502	5.150000e+00	9.788082e-04	
503	5.200000e+00	9.795817e-04	
504	5.250000e+00	9.803396e-04	
505	5.300000e+00	9.810824e-04	
506	5.350000e+00	9.818109e-04	
507	5.400000e+00	9.825256e-04	
508	5.450000e+00	9.832270e-04	
509	5.500000e+00	9.839156e-04	
510	5.550000e+00	9.845920e-04	
511	5.600000e+00	9.852566e-04	
512	5.650000e+00	9.859099e-04	
513	5.700000e+00	9.865522e-04	
514	5.750000e+00	9.871839e-04	
515	5.800000e+00	9.878054e-04	
516	5.850000e+00	9.884172e-04	
517	5.900000e+00	9.890195e-04	
518	5.950000e+00	9.896126e-04	

Index   v-sweep         -i(vds)         
--------------------------------------------------------------------------------
519	6.000000e+00	9.901969e-04	
520	6.050000e+00	9.907726e-04	
521	6.100000e+00	9.913401e-04	
522	6.150000e+00	9.918996e-04	
523	6.200000e+00	9.924514e-04	
524	6.250000e+00	9.929957e-04	
525	6.300000e+00	9.935328e-04	
526	6.350000e+00	9.940629e-04	
527	6.400000e+00	9.945862e-04	
528	6.450000e+00	9.951029e-04	
529	6.500000e+00	9.956132e-04	
530	6.550000e+00	9.961174e-04	
531	6.600000e+00	9.966155e-04	
532	0.000000e+00	-0.000000e+00	
533	5.000000e-02	2.870609e-05	
534	1.000000e-01	5.693503e-05	
535	1.500000e-01	8.479960e-05	
536	2.000000e-01	1.123292e-04	
537	2.500000e-01	1.395323e-04	
538	3.000000e-01	1.664120e-04	
539	3.500000e-01	1.929702e-04	
540	4.000000e-01	2.192085e-04	
541	4.500000e-01	2.451282e-04	
542	5.000000e-01	2.707308e-04	
543	5.500000e-01	2.960177e-04	
544	6.000000e-01	3.209902e-04	
545	6.500000e-01	3.456497e-04	
546	7.000000e-01	3.699976e-04	
547	7.500000e-01	3.940353e-04	
548	8.000000e-01	4.177640e-04	
549	8.500000e-01	4.411851e-04	
550	9.000000e-01	4.643000e-04	
551	9.500000e-01	4.871100e-04	
552	1.000000e+00	5.096164e-04	
553	1.050000e+00	5.318204e-04	
554	1.100000e+00	5.537235e-04	
555	1.150000e+00	5.753269e-04	
556	1.200000e+00	5.966318e-04	
557	1.250000e+00	6.176396e-04	
558	1.300000e+00	6.383516e-04	
559	1.350000e+00	6.587689e-04	
560	1.400000e+00	6.788929e-04	
561	1.450000e+00	6.987249e-04	
562	1.500000e+00	7.182659e-04	
563	1.550000e+00	7.375174e-04	
564	1.600000e+00	7.564804e-04	
565	1.650000e+00	7.751564e-04	
566	1.700000e+00	7.935463e-04	
567	1.750000e+00	8.116515e-04	
568	1.800000e+00	8.294732e-04	
569	1.850000e+00	8.470126e-04	
570	1.900000e+00	8.642707e-04	
571	1.950000e+00	8.812489e-04	
572	2.000000e+00	8.979483e-04	
573	2.050000e+00	9.143701e-04	
574	2.100000e+00	9.305154e-04	
575	2.150000e+00	9.463853e-04	
576	2.200000e+00	9.619811e-04	

Index   v-sweep         -i(vds)         
--------------------------------------------------------------------------------
577	2.250000e+00	9.773038e-04	
578	2.300000e+00	9.923547e-04	
579	2.350000e+00	1.007135e-03	
580	2.400000e+00	1.021645e-03	
581	2.450000e+00	1.035887e-03	
582	2.500000e+00	1.049861e-03	
583	2.550000e+00	1.063569e-03	
584	2.600000e+00	1.077012e-03	
585	2.650000e+00	1.090191e-03	
586	2.700000e+00	1.103106e-03	
587	2.750000e+00	1.115759e-03	
588	2.800000e+00	1.128152e-03	
589	2.850000e+00	1.140284e-03	
590	2.900000e+00	1.152157e-03	
591	2.950000e+00	1.163773e-03	
592	3.000000e+00	1.175131e-03	
593	3.050000e+00	1.186233e-03	
594	3.100000e+00	1.197081e-03	
595	3.150000e+00	1.207674e-03	
596	3.200000e+00	1.218013e-03	
597	3.250000e+00	1.228100e-03	
598	3.300000e+00	1.237935e-03	
599	3.350000e+00	1.247519e-03	
600	3.400000e+00	1.256851e-03	
601	3.450000e+00	1.265933e-03	
602	3.500000e+00	1.274762e-03	
603	3.550000e+00	1.283339e-03	
604	3.600000e+00	1.291662e-03	
605	3.650000e+00	1.299726e-03	
606	3.700000e+00	1.307526e-03	
607	3.750000e+00	1.315053e-03	
608	3.800000e+00	1.322292e-03	
609	3.850000e+00	1.329223e-03	
610	3.900000e+00	1.335821e-03	
611	3.950000e+00	1.342059e-03	
612	4.000000e+00	1.347914e-03	
613	4.050000e+00	1.353377e-03	
614	4.100000e+00	1.358457e-03	
615	4.150000e+00	1.363172e-03	
616	4.200000e+00	1.367554e-03	
617	4.250000e+00	1.371632e-03	
618	4.300000e+00	1.375440e-03	
619	4.350000e+00	1.379006e-03	
620	4.400000e+00	1.382356e-03	
621	4.450000e+00	1.385513e-03	
622	4.500000e+00	1.388496e-03	
623	4.550000e+00	1.391323e-03	
624	4.600000e+00	1.394010e-03	
625	4.650000e+00	1.396568e-03	
626	4.700000e+00	1.399009e-03	
627	4.750000e+00	1.401343e-03	
628	4.800000e+00	1.403580e-03	
629	4.850000e+00	1.405726e-03	
630	4.900000e+00	1.407789e-03	
631	4.950000e+00	1.409775e-03	
632	5.000000e+00	1.411690e-03	
633	5.050000e+00	1.413537e-03	
634	5.100000e+00	1.415323e-03	

Index   v-sweep         -i(vds)         
--------------------------------------------------------------------------------
635	5.150000e+00	1.417050e-03	
636	5.200000e+00	1.418723e-03	
637	5.250000e+00	1.420345e-03	
638	5.300000e+00	1.421918e-03	
639	5.350000e+00	1.423447e-03	
640	5.400000e+00	1.424932e-03	
641	5.450000e+00	1.426377e-03	
642	5.500000e+00	1.427783e-03	
643	5.550000e+00	1.429153e-03	
644	5.600000e+00	1.430489e-03	
645	5.650000e+00	1.431791e-03	
646	5.700000e+00	1.433063e-03	
647	5.750000e+00	1.434305e-03	
648	5.800000e+00	1.435518e-03	
649	5.850000e+00	1.436704e-03	
650	5.900000e+00	1.437865e-03	
651	5.950000e+00	1.439001e-03	
652	6.000000e+00	1.440113e-03	
653	6.050000e+00	1.441202e-03	
654	6.100000e+00	1.442270e-03	
655	6.150000e+00	1.443316e-03	
656	6.200000e+00	1.444343e-03	
657	6.250000e+00	1.445351e-03	
658	6.300000e+00	1.446340e-03	
659	6.350000e+00	1.447311e-03	
660	6.400000e+00	1.448265e-03	
661	6.450000e+00	1.449203e-03	
662	6.500000e+00	1.450125e-03	
663	6.550000e+00	1.451032e-03	
664	6.600000e+00	1.451924e-03	
665	0.000000e+00	-0.000000e+00	
666	5.000000e-02	3.137160e-05	
667	1.000000e-01	6.230408e-05	
668	1.500000e-01	9.290992e-05	
669	2.000000e-01	1.232182e-04	
670	2.500000e-01	1.532372e-04	
671	3.000000e-01	1.829697e-04	
672	3.500000e-01	2.124173e-04	
673	4.000000e-01	2.415812e-04	
674	4.500000e-01	2.704627e-04	
675	5.000000e-01	2.990629e-04	
676	5.500000e-01	3.273828e-04	
677	6.000000e-01	3.554236e-04	
678	6.500000e-01	3.831863e-04	
679	7.000000e-01	4.106722e-04	
680	7.500000e-01	4.378822e-04	
681	8.000000e-01	4.648176e-04	
682	8.500000e-01	4.914792e-04	
683	9.000000e-01	5.178683e-04	
684	9.500000e-01	5.439859e-04	
685	1.000000e+00	5.698330e-04	
686	1.050000e+00	5.954108e-04	
687	1.100000e+00	6.207202e-04	
688	1.150000e+00	6.457624e-04	
689	1.200000e+00	6.705383e-04	
690	1.250000e+00	6.950490e-04	
691	1.300000e+00	7.192956e-04	
692	1.350000e+00	7.432790e-04	

Index   v-sweep         -i(vds)         
--------------------------------------------------------------------------------
693	1.400000e+00	7.670003e-04	
694	1.450000e+00	7.904605e-04	
695	1.500000e+00	8.136607e-04	
696	1.550000e+00	8.366017e-04	
697	1.600000e+00	8.592846e-04	
698	1.650000e+00	8.817105e-04	
699	1.700000e+00	9.038803e-04	
700	1.750000e+00	9.257949e-04	
701	1.800000e+00	9.474554e-04	
702	1.850000e+00	9.688628e-04	
703	1.900000e+00	9.900180e-04	
704	1.950000e+00	1.010922e-03	
705	2.000000e+00	1.031576e-03	
706	2.050000e+00	1.051980e-03	
707	2.100000e+00	1.072136e-03	
708	2.150000e+00	1.092045e-03	
709	2.200000e+00	1.111707e-03	
710	2.250000e+00	1.131123e-03	
711	2.300000e+00	1.150295e-03	
712	2.350000e+00	1.169224e-03	
713	2.400000e+00	1.187909e-03	
714	2.450000e+00	1.206353e-03	
715	2.500000e+00	1.224556e-03	
716	2.550000e+00	1.242518e-03	
717	2.600000e+00	1.260242e-03	
718	2.650000e+00	1.277727e-03	
719	2.700000e+00	1.294975e-03	
720	2.750000e+00	1.311987e-03	
721	2.800000e+00	1.328763e-03	
722	2.850000e+00	1.345304e-03	
723	2.900000e+00	1.361612e-03	
724	2.950000e+00	1.377686e-03	
725	3.000000e+00	1.393529e-03	
726	3.050000e+00	1.409140e-03	
727	3.100000e+00	1.424521e-03	
728	3.150000e+00	1.439672e-03	
729	3.200000e+00	1.454595e-03	
730	3.250000e+00	1.469290e-03	
731	3.300000e+00	1.483758e-03	
732	3.350000e+00	1.497999e-03	
733	3.400000e+00	1.512016e-03	
734	3.450000e+00	1.525807e-03	
735	3.500000e+00	1.539375e-03	
736	3.550000e+00	1.552720e-03	
737	3.600000e+00	1.565843e-03	
738	3.650000e+00	1.578744e-03	
739	3.700000e+00	1.591425e-03	
740	3.750000e+00	1.603885e-03	
741	3.800000e+00	1.616127e-03	
742	3.850000e+00	1.628149e-03	
743	3.900000e+00	1.639954e-03	
744	3.950000e+00	1.651542e-03	
745	4.000000e+00	1.662913e-03	
746	4.050000e+00	1.674068e-03	
747	4.100000e+00	1.685007e-03	
748	4.150000e+00	1.695730e-03	
749	4.200000e+00	1.706238e-03	
750	4.250000e+00	1.716531e-03	

Index   v-sweep         -i(vds)         
--------------------------------------------------------------------------------
751	4.300000e+00	1.726607e-03	
752	4.350000e+00	1.736466e-03	
753	4.400000e+00	1.746107e-03	
754	4.450000e+00	1.755526e-03	
755	4.500000e+00	1.764719e-03	
756	4.550000e+00	1.773679e-03	
757	4.600000e+00	1.782397e-03	
758	4.650000e+00	1.790858e-03	
759	4.700000e+00	1.799041e-03	
760	4.750000e+00	1.806921e-03	
761	4.800000e+00	1.814464e-03	
762	4.850000e+00	1.821641e-03	
763	4.900000e+00	1.828428e-03	
764	4.950000e+00	1.834812e-03	
765	5.000000e+00	1.840799e-03	
766	5.050000e+00	1.846405e-03	
767	5.100000e+00	1.851654e-03	
768	5.150000e+00	1.856577e-03	
769	5.200000e+00	1.861203e-03	
770	5.250000e+00	1.865559e-03	
771	5.300000e+00	1.869672e-03	
772	5.350000e+00	1.873565e-03	
773	5.400000e+00	1.877259e-03	
774	5.450000e+00	1.880771e-03	
775	5.500000e+00	1.884119e-03	
776	5.550000e+00	1.887316e-03	
777	5.600000e+00	1.890375e-03	
778	5.650000e+00	1.893307e-03	
779	5.700000e+00	1.896121e-03	
780	5.750000e+00	1.898828e-03	
781	5.800000e+00	1.901434e-03	
782	5.850000e+00	1.903947e-03	
783	5.900000e+00	1.906373e-03	
784	5.950000e+00	1.908718e-03	
785	6.000000e+00	1.910987e-03	
786	6.050000e+00	1.913185e-03	
787	6.100000e+00	1.915316e-03	
788	6.150000e+00	1.917384e-03	
789	6.200000e+00	1.919392e-03	
790	6.250000e+00	1.921345e-03	
791	6.300000e+00	1.923244e-03	
792	6.350000e+00	1.925093e-03	
793	6.400000e+00	1.926895e-03	
794	6.450000e+00	1.928651e-03	
795	6.500000e+00	1.930364e-03	
796	6.550000e+00	1.932037e-03	
797	6.600000e+00	1.933670e-03	
Note: No ".plot", ".print", or ".fourier" lines; no simulations run
