
Note: Compatibility modes selected: hs

Warning: m=xx on .subckt line will override multiplier m hierarchy!


Circuit: ***************************

Doing analysis at TEMP = 25.000000 and TNOM = 25.000000


No. of Data Rows : 798
                          ***************************
                          DC transfer characteristic  Mon Jan  9 13:58:05  2023
--------------------------------------------------------------------------------
Index   v-sweep         -i(vds)         
--------------------------------------------------------------------------------
0	0.000000e+00	-0.000000e+00	
1	5.000000e-02	1.729309e-05	
2	1.000000e-01	3.191332e-05	
3	1.500000e-01	4.391339e-05	
4	2.000000e-01	5.335868e-05	
5	2.500000e-01	6.036425e-05	
6	3.000000e-01	6.524190e-05	
7	3.500000e-01	6.870757e-05	
8	4.000000e-01	7.146347e-05	
9	4.500000e-01	7.382390e-05	
10	5.000000e-01	7.592117e-05	
11	5.500000e-01	7.782791e-05	
12	6.000000e-01	7.959008e-05	
13	6.500000e-01	8.123895e-05	
14	7.000000e-01	8.279678e-05	
15	7.500000e-01	8.427996e-05	
16	8.000000e-01	8.570094e-05	
17	8.500000e-01	8.706935e-05	
18	9.000000e-01	8.839280e-05	
19	9.500000e-01	8.967741e-05	
20	1.000000e+00	9.092818e-05	
21	1.050000e+00	9.214922e-05	
22	1.100000e+00	9.334398e-05	
23	1.150000e+00	9.451534e-05	
24	1.200000e+00	9.566577e-05	
25	1.250000e+00	9.679738e-05	
26	1.300000e+00	9.791200e-05	
27	1.350000e+00	9.901120e-05	
28	1.400000e+00	1.000964e-04	
29	1.450000e+00	1.011687e-04	
30	1.500000e+00	1.022294e-04	
31	1.550000e+00	1.032792e-04	
32	1.600000e+00	1.043191e-04	
33	1.650000e+00	1.053498e-04	
34	1.700000e+00	1.063720e-04	
35	1.750000e+00	1.073864e-04	
36	1.800000e+00	1.083934e-04	
37	1.850000e+00	1.093936e-04	
38	1.900000e+00	1.103874e-04	
39	1.950000e+00	1.113754e-04	
40	2.000000e+00	1.123577e-04	
41	2.050000e+00	1.133349e-04	
42	2.100000e+00	1.143071e-04	
43	2.150000e+00	1.152748e-04	
44	2.200000e+00	1.162382e-04	
45	2.250000e+00	1.171976e-04	
46	2.300000e+00	1.181531e-04	
47	2.350000e+00	1.191051e-04	
48	2.400000e+00	1.200536e-04	
49	2.450000e+00	1.209990e-04	
50	2.500000e+00	1.219413e-04	
51	2.550000e+00	1.228808e-04	
52	2.600000e+00	1.238177e-04	
53	2.650000e+00	1.247520e-04	
54	2.700000e+00	1.256838e-04	

Index   v-sweep         -i(vds)         
--------------------------------------------------------------------------------
55	2.750000e+00	1.266135e-04	
56	2.800000e+00	1.275409e-04	
57	2.850000e+00	1.284664e-04	
58	2.900000e+00	1.293899e-04	
59	2.950000e+00	1.303116e-04	
60	3.000000e+00	1.312316e-04	
61	3.050000e+00	1.321500e-04	
62	3.100000e+00	1.330669e-04	
63	3.150000e+00	1.339823e-04	
64	3.200000e+00	1.348963e-04	
65	3.250000e+00	1.358091e-04	
66	3.300000e+00	1.367206e-04	
67	3.350000e+00	1.376311e-04	
68	3.400000e+00	1.385404e-04	
69	3.450000e+00	1.394487e-04	
70	3.500000e+00	1.403561e-04	
71	3.550000e+00	1.412626e-04	
72	3.600000e+00	1.421683e-04	
73	3.650000e+00	1.430732e-04	
74	3.700000e+00	1.439773e-04	
75	3.750000e+00	1.448808e-04	
76	3.800000e+00	1.457837e-04	
77	3.850000e+00	1.466860e-04	
78	3.900000e+00	1.475877e-04	
79	3.950000e+00	1.484889e-04	
80	4.000000e+00	1.493897e-04	
81	4.050000e+00	1.502901e-04	
82	4.100000e+00	1.511901e-04	
83	4.150000e+00	1.520897e-04	
84	4.200000e+00	1.529891e-04	
85	4.250000e+00	1.538882e-04	
86	4.300000e+00	1.547870e-04	
87	4.350000e+00	1.556856e-04	
88	4.400000e+00	1.565841e-04	
89	4.450000e+00	1.574824e-04	
90	4.500000e+00	1.583805e-04	
91	4.550000e+00	1.592786e-04	
92	4.600000e+00	1.601767e-04	
93	4.650000e+00	1.610746e-04	
94	4.700000e+00	1.619726e-04	
95	4.750000e+00	1.628706e-04	
96	4.800000e+00	1.637686e-04	
97	4.850000e+00	1.646666e-04	
98	4.900000e+00	1.655648e-04	
99	4.950000e+00	1.664630e-04	
100	5.000000e+00	1.673613e-04	
101	5.050000e+00	1.682598e-04	
102	5.100000e+00	1.691584e-04	
103	5.150000e+00	1.700572e-04	
104	5.200000e+00	1.709562e-04	
105	5.250000e+00	1.718554e-04	
106	5.300000e+00	1.727549e-04	
107	5.350000e+00	1.736546e-04	
108	5.400000e+00	1.745545e-04	
109	5.450000e+00	1.754547e-04	
110	5.500000e+00	1.763552e-04	
111	5.550000e+00	1.772560e-04	
112	5.600000e+00	1.781571e-04	

Index   v-sweep         -i(vds)         
--------------------------------------------------------------------------------
113	5.650000e+00	1.790585e-04	
114	5.700000e+00	1.799603e-04	
115	5.750000e+00	1.808624e-04	
116	5.800000e+00	1.817650e-04	
117	5.850000e+00	1.826678e-04	
118	5.900000e+00	1.835711e-04	
119	5.950000e+00	1.844748e-04	
120	6.000000e+00	1.853789e-04	
121	6.050000e+00	1.862834e-04	
122	6.100000e+00	1.871884e-04	
123	6.150000e+00	1.880938e-04	
124	6.200000e+00	1.889996e-04	
125	6.250000e+00	1.899060e-04	
126	6.300000e+00	1.908128e-04	
127	6.350000e+00	1.917201e-04	
128	6.400000e+00	1.926278e-04	
129	6.450000e+00	1.935361e-04	
130	6.500000e+00	1.944449e-04	
131	6.550000e+00	1.953542e-04	
132	6.600000e+00	1.962640e-04	
133	0.000000e+00	-0.000000e+00	
134	5.000000e-02	6.178044e-05	
135	1.000000e-01	1.207192e-04	
136	1.500000e-01	1.768698e-04	
137	2.000000e-01	2.302848e-04	
138	2.500000e-01	2.810152e-04	
139	3.000000e-01	3.291110e-04	
140	3.500000e-01	3.746208e-04	
141	4.000000e-01	4.175924e-04	
142	4.500000e-01	4.580721e-04	
143	5.000000e-01	4.961053e-04	
144	5.500000e-01	5.317360e-04	
145	6.000000e-01	5.650059e-04	
146	6.500000e-01	5.959527e-04	
147	7.000000e-01	6.246035e-04	
148	7.500000e-01	6.509569e-04	
149	8.000000e-01	6.749360e-04	
150	8.500000e-01	6.963261e-04	
151	9.000000e-01	7.148757e-04	
152	9.500000e-01	7.306466e-04	
153	1.000000e+00	7.440713e-04	
154	1.050000e+00	7.556647e-04	
155	1.100000e+00	7.658514e-04	
156	1.150000e+00	7.749450e-04	
157	1.200000e+00	7.831729e-04	
158	1.250000e+00	7.907014e-04	
159	1.300000e+00	7.976547e-04	
160	1.350000e+00	8.041274e-04	
161	1.400000e+00	8.101928e-04	
162	1.450000e+00	8.159090e-04	
163	1.500000e+00	8.213227e-04	
164	1.550000e+00	8.264720e-04	
165	1.600000e+00	8.313880e-04	
166	1.650000e+00	8.360970e-04	
167	1.700000e+00	8.406209e-04	
168	1.750000e+00	8.449786e-04	
169	1.800000e+00	8.491860e-04	
170	1.850000e+00	8.532569e-04	

Index   v-sweep         -i(vds)         
--------------------------------------------------------------------------------
171	1.900000e+00	8.572036e-04	
172	1.950000e+00	8.610363e-04	
173	2.000000e+00	8.647646e-04	
174	2.050000e+00	8.683964e-04	
175	2.100000e+00	8.719391e-04	
176	2.150000e+00	8.753992e-04	
177	2.200000e+00	8.787825e-04	
178	2.250000e+00	8.820943e-04	
179	2.300000e+00	8.853392e-04	
180	2.350000e+00	8.885215e-04	
181	2.400000e+00	8.916452e-04	
182	2.450000e+00	8.947138e-04	
183	2.500000e+00	8.977306e-04	
184	2.550000e+00	9.006984e-04	
185	2.600000e+00	9.036201e-04	
186	2.650000e+00	9.064982e-04	
187	2.700000e+00	9.093350e-04	
188	2.750000e+00	9.121327e-04	
189	2.800000e+00	9.148933e-04	
190	2.850000e+00	9.176186e-04	
191	2.900000e+00	9.203103e-04	
192	2.950000e+00	9.229702e-04	
193	3.000000e+00	9.255997e-04	
194	3.050000e+00	9.282002e-04	
195	3.100000e+00	9.307731e-04	
196	3.150000e+00	9.333197e-04	
197	3.200000e+00	9.358410e-04	
198	3.250000e+00	9.383383e-04	
199	3.300000e+00	9.408125e-04	
200	3.350000e+00	9.432646e-04	
201	3.400000e+00	9.456957e-04	
202	3.450000e+00	9.481066e-04	
203	3.500000e+00	9.504980e-04	
204	3.550000e+00	9.528709e-04	
205	3.600000e+00	9.552260e-04	
206	3.650000e+00	9.575639e-04	
207	3.700000e+00	9.598855e-04	
208	3.750000e+00	9.621913e-04	
209	3.800000e+00	9.644819e-04	
210	3.850000e+00	9.667580e-04	
211	3.900000e+00	9.690202e-04	
212	3.950000e+00	9.712689e-04	
213	4.000000e+00	9.735046e-04	
214	4.050000e+00	9.757280e-04	
215	4.100000e+00	9.779394e-04	
216	4.150000e+00	9.801393e-04	
217	4.200000e+00	9.823281e-04	
218	4.250000e+00	9.845063e-04	
219	4.300000e+00	9.866743e-04	
220	4.350000e+00	9.888323e-04	
221	4.400000e+00	9.909809e-04	
222	4.450000e+00	9.931204e-04	
223	4.500000e+00	9.952510e-04	
224	4.550000e+00	9.973731e-04	
225	4.600000e+00	9.994871e-04	
226	4.650000e+00	1.001593e-03	
227	4.700000e+00	1.003692e-03	
228	4.750000e+00	1.005783e-03	

Index   v-sweep         -i(vds)         
--------------------------------------------------------------------------------
229	4.800000e+00	1.007867e-03	
230	4.850000e+00	1.009945e-03	
231	4.900000e+00	1.012015e-03	
232	4.950000e+00	1.014080e-03	
233	5.000000e+00	1.016139e-03	
234	5.050000e+00	1.018191e-03	
235	5.100000e+00	1.020238e-03	
236	5.150000e+00	1.022280e-03	
237	5.200000e+00	1.024317e-03	
238	5.250000e+00	1.026348e-03	
239	5.300000e+00	1.028375e-03	
240	5.350000e+00	1.030397e-03	
241	5.400000e+00	1.032414e-03	
242	5.450000e+00	1.034427e-03	
243	5.500000e+00	1.036436e-03	
244	5.550000e+00	1.038441e-03	
245	5.600000e+00	1.040443e-03	
246	5.650000e+00	1.042440e-03	
247	5.700000e+00	1.044434e-03	
248	5.750000e+00	1.046424e-03	
249	5.800000e+00	1.048412e-03	
250	5.850000e+00	1.050396e-03	
251	5.900000e+00	1.052377e-03	
252	5.950000e+00	1.054355e-03	
253	6.000000e+00	1.056330e-03	
254	6.050000e+00	1.058303e-03	
255	6.100000e+00	1.060273e-03	
256	6.150000e+00	1.062240e-03	
257	6.200000e+00	1.064205e-03	
258	6.250000e+00	1.066168e-03	
259	6.300000e+00	1.068129e-03	
260	6.350000e+00	1.070087e-03	
261	6.400000e+00	1.072044e-03	
262	6.450000e+00	1.073999e-03	
263	6.500000e+00	1.075951e-03	
264	6.550000e+00	1.077902e-03	
265	6.600000e+00	1.079852e-03	
266	0.000000e+00	-0.000000e+00	
267	5.000000e-02	9.288016e-05	
268	1.000000e-01	1.829266e-04	
269	1.500000e-01	2.701906e-04	
270	2.000000e-01	3.547224e-04	
271	2.500000e-01	4.365711e-04	
272	3.000000e-01	5.157844e-04	
273	3.500000e-01	5.924090e-04	
274	4.000000e-01	6.664905e-04	
275	4.500000e-01	7.380732e-04	
276	5.000000e-01	8.072007e-04	
277	5.500000e-01	8.739151e-04	
278	6.000000e-01	9.382577e-04	
279	6.500000e-01	1.000269e-03	
280	7.000000e-01	1.059987e-03	
281	7.500000e-01	1.117450e-03	
282	8.000000e-01	1.172693e-03	
283	8.500000e-01	1.225751e-03	
284	9.000000e-01	1.276652e-03	
285	9.500000e-01	1.325419e-03	
286	1.000000e+00	1.372063e-03	

Index   v-sweep         -i(vds)         
--------------------------------------------------------------------------------
287	1.050000e+00	1.416563e-03	
288	1.100000e+00	1.458841e-03	
289	1.150000e+00	1.498681e-03	
290	1.200000e+00	1.535638e-03	
291	1.250000e+00	1.569048e-03	
292	1.300000e+00	1.598405e-03	
293	1.350000e+00	1.623778e-03	
294	1.400000e+00	1.645710e-03	
295	1.450000e+00	1.664855e-03	
296	1.500000e+00	1.681784e-03	
297	1.550000e+00	1.696944e-03	
298	1.600000e+00	1.710672e-03	
299	1.650000e+00	1.723223e-03	
300	1.700000e+00	1.734795e-03	
301	1.750000e+00	1.745540e-03	
302	1.800000e+00	1.755577e-03	
303	1.850000e+00	1.765004e-03	
304	1.900000e+00	1.773898e-03	
305	1.950000e+00	1.782325e-03	
306	2.000000e+00	1.790337e-03	
307	2.050000e+00	1.797979e-03	
308	2.100000e+00	1.805289e-03	
309	2.150000e+00	1.812301e-03	
310	2.200000e+00	1.819042e-03	
311	2.250000e+00	1.825535e-03	
312	2.300000e+00	1.831803e-03	
313	2.350000e+00	1.837865e-03	
314	2.400000e+00	1.843735e-03	
315	2.450000e+00	1.849430e-03	
316	2.500000e+00	1.854961e-03	
317	2.550000e+00	1.860341e-03	
318	2.600000e+00	1.865579e-03	
319	2.650000e+00	1.870686e-03	
320	2.700000e+00	1.875670e-03	
321	2.750000e+00	1.880538e-03	
322	2.800000e+00	1.885298e-03	
323	2.850000e+00	1.889955e-03	
324	2.900000e+00	1.894517e-03	
325	2.950000e+00	1.898987e-03	
326	3.000000e+00	1.903372e-03	
327	3.050000e+00	1.907676e-03	
328	3.100000e+00	1.911902e-03	
329	3.150000e+00	1.916056e-03	
330	3.200000e+00	1.920140e-03	
331	3.250000e+00	1.924158e-03	
332	3.300000e+00	1.928113e-03	
333	3.350000e+00	1.932009e-03	
334	3.400000e+00	1.935847e-03	
335	3.450000e+00	1.939632e-03	
336	3.500000e+00	1.943364e-03	
337	3.550000e+00	1.947046e-03	
338	3.600000e+00	1.950682e-03	
339	3.650000e+00	1.954271e-03	
340	3.700000e+00	1.957818e-03	
341	3.750000e+00	1.961322e-03	
342	3.800000e+00	1.964787e-03	
343	3.850000e+00	1.968214e-03	
344	3.900000e+00	1.971604e-03	

Index   v-sweep         -i(vds)         
--------------------------------------------------------------------------------
345	3.950000e+00	1.974958e-03	
346	4.000000e+00	1.978279e-03	
347	4.050000e+00	1.981568e-03	
348	4.100000e+00	1.984825e-03	
349	4.150000e+00	1.988053e-03	
350	4.200000e+00	1.991251e-03	
351	4.250000e+00	1.994422e-03	
352	4.300000e+00	1.997567e-03	
353	4.350000e+00	2.000685e-03	
354	4.400000e+00	2.003780e-03	
355	4.450000e+00	2.006850e-03	
356	4.500000e+00	2.009898e-03	
357	4.550000e+00	2.012923e-03	
358	4.600000e+00	2.015928e-03	
359	4.650000e+00	2.018912e-03	
360	4.700000e+00	2.021876e-03	
361	4.750000e+00	2.024822e-03	
362	4.800000e+00	2.027749e-03	
363	4.850000e+00	2.030659e-03	
364	4.900000e+00	2.033551e-03	
365	4.950000e+00	2.036428e-03	
366	5.000000e+00	2.039288e-03	
367	5.050000e+00	2.042134e-03	
368	5.100000e+00	2.044964e-03	
369	5.150000e+00	2.047781e-03	
370	5.200000e+00	2.050584e-03	
371	5.250000e+00	2.053374e-03	
372	5.300000e+00	2.056151e-03	
373	5.350000e+00	2.058916e-03	
374	5.400000e+00	2.061669e-03	
375	5.450000e+00	2.064411e-03	
376	5.500000e+00	2.067141e-03	
377	5.550000e+00	2.069862e-03	
378	5.600000e+00	2.072571e-03	
379	5.650000e+00	2.075271e-03	
380	5.700000e+00	2.077962e-03	
381	5.750000e+00	2.080643e-03	
382	5.800000e+00	2.083315e-03	
383	5.850000e+00	2.085979e-03	
384	5.900000e+00	2.088635e-03	
385	5.950000e+00	2.091282e-03	
386	6.000000e+00	2.093922e-03	
387	6.050000e+00	2.096554e-03	
388	6.100000e+00	2.099180e-03	
389	6.150000e+00	2.101798e-03	
390	6.200000e+00	2.104409e-03	
391	6.250000e+00	2.107015e-03	
392	6.300000e+00	2.109614e-03	
393	6.350000e+00	2.112207e-03	
394	6.400000e+00	2.114794e-03	
395	6.450000e+00	2.117375e-03	
396	6.500000e+00	2.119952e-03	
397	6.550000e+00	2.122523e-03	
398	6.600000e+00	2.125089e-03	
399	0.000000e+00	-0.000000e+00	
400	5.000000e-02	1.151583e-04	
401	1.000000e-01	2.276022e-04	
402	1.500000e-01	3.373771e-04	

Index   v-sweep         -i(vds)         
--------------------------------------------------------------------------------
403	2.000000e-01	4.445271e-04	
404	2.500000e-01	5.490957e-04	
405	3.000000e-01	6.511250e-04	
406	3.500000e-01	7.506565e-04	
407	4.000000e-01	8.477307e-04	
408	4.500000e-01	9.423871e-04	
409	5.000000e-01	1.034664e-03	
410	5.500000e-01	1.124601e-03	
411	6.000000e-01	1.212233e-03	
412	6.500000e-01	1.297597e-03	
413	7.000000e-01	1.380728e-03	
414	7.500000e-01	1.461661e-03	
415	8.000000e-01	1.540430e-03	
416	8.500000e-01	1.617067e-03	
417	9.000000e-01	1.691605e-03	
418	9.500000e-01	1.764073e-03	
419	1.000000e+00	1.834503e-03	
420	1.050000e+00	1.902921e-03	
421	1.100000e+00	1.969354e-03	
422	1.150000e+00	2.033826e-03	
423	1.200000e+00	2.096354e-03	
424	1.250000e+00	2.156949e-03	
425	1.300000e+00	2.215604e-03	
426	1.350000e+00	2.272285e-03	
427	1.400000e+00	2.326894e-03	
428	1.450000e+00	2.379221e-03	
429	1.500000e+00	2.428838e-03	
430	1.550000e+00	2.475043e-03	
431	1.600000e+00	2.517008e-03	
432	1.650000e+00	2.554237e-03	
433	1.700000e+00	2.586859e-03	
434	1.750000e+00	2.615444e-03	
435	1.800000e+00	2.640679e-03	
436	1.850000e+00	2.663180e-03	
437	1.900000e+00	2.683451e-03	
438	1.950000e+00	2.701884e-03	
439	2.000000e+00	2.718788e-03	
440	2.050000e+00	2.734401e-03	
441	2.100000e+00	2.748915e-03	
442	2.150000e+00	2.762481e-03	
443	2.200000e+00	2.775224e-03	
444	2.250000e+00	2.787244e-03	
445	2.300000e+00	2.798626e-03	
446	2.350000e+00	2.809439e-03	
447	2.400000e+00	2.819744e-03	
448	2.450000e+00	2.829592e-03	
449	2.500000e+00	2.839025e-03	
450	2.550000e+00	2.848082e-03	
451	2.600000e+00	2.856795e-03	
452	2.650000e+00	2.865193e-03	
453	2.700000e+00	2.873301e-03	
454	2.750000e+00	2.881143e-03	
455	2.800000e+00	2.888737e-03	
456	2.850000e+00	2.896101e-03	
457	2.900000e+00	2.903252e-03	
458	2.950000e+00	2.910203e-03	
459	3.000000e+00	2.916969e-03	
460	3.050000e+00	2.923560e-03	

Index   v-sweep         -i(vds)         
--------------------------------------------------------------------------------
461	3.100000e+00	2.929987e-03	
462	3.150000e+00	2.936260e-03	
463	3.200000e+00	2.942388e-03	
464	3.250000e+00	2.948380e-03	
465	3.300000e+00	2.954242e-03	
466	3.350000e+00	2.959982e-03	
467	3.400000e+00	2.965606e-03	
468	3.450000e+00	2.971120e-03	
469	3.500000e+00	2.976530e-03	
470	3.550000e+00	2.981840e-03	
471	3.600000e+00	2.987057e-03	
472	3.650000e+00	2.992183e-03	
473	3.700000e+00	2.997224e-03	
474	3.750000e+00	3.002183e-03	
475	3.800000e+00	3.007064e-03	
476	3.850000e+00	3.011871e-03	
477	3.900000e+00	3.016606e-03	
478	3.950000e+00	3.021273e-03	
479	4.000000e+00	3.025875e-03	
480	4.050000e+00	3.030415e-03	
481	4.100000e+00	3.034894e-03	
482	4.150000e+00	3.039317e-03	
483	4.200000e+00	3.043684e-03	
484	4.250000e+00	3.047999e-03	
485	4.300000e+00	3.052263e-03	
486	4.350000e+00	3.056478e-03	
487	4.400000e+00	3.060646e-03	
488	4.450000e+00	3.064770e-03	
489	4.500000e+00	3.068851e-03	
490	4.550000e+00	3.072890e-03	
491	4.600000e+00	3.076889e-03	
492	4.650000e+00	3.080850e-03	
493	4.700000e+00	3.084774e-03	
494	4.750000e+00	3.088662e-03	
495	4.800000e+00	3.092516e-03	
496	4.850000e+00	3.096338e-03	
497	4.900000e+00	3.100127e-03	
498	4.950000e+00	3.103886e-03	
499	5.000000e+00	3.107616e-03	
500	5.050000e+00	3.111317e-03	
501	5.100000e+00	3.114991e-03	
502	5.150000e+00	3.118638e-03	
503	5.200000e+00	3.122260e-03	
504	5.250000e+00	3.125858e-03	
505	5.300000e+00	3.129432e-03	
506	5.350000e+00	3.132983e-03	
507	5.400000e+00	3.136513e-03	
508	5.450000e+00	3.140021e-03	
509	5.500000e+00	3.143509e-03	
510	5.550000e+00	3.146977e-03	
511	5.600000e+00	3.150426e-03	
512	5.650000e+00	3.153856e-03	
513	5.700000e+00	3.157269e-03	
514	5.750000e+00	3.160665e-03	
515	5.800000e+00	3.164044e-03	
516	5.850000e+00	3.167408e-03	
517	5.900000e+00	3.170756e-03	
518	5.950000e+00	3.174089e-03	

Index   v-sweep         -i(vds)         
--------------------------------------------------------------------------------
519	6.000000e+00	3.177408e-03	
520	6.050000e+00	3.180713e-03	
521	6.100000e+00	3.184005e-03	
522	6.150000e+00	3.187284e-03	
523	6.200000e+00	3.190550e-03	
524	6.250000e+00	3.193804e-03	
525	6.300000e+00	3.197047e-03	
526	6.350000e+00	3.200279e-03	
527	6.400000e+00	3.203500e-03	
528	6.450000e+00	3.206710e-03	
529	6.500000e+00	3.209911e-03	
530	6.550000e+00	3.213101e-03	
531	6.600000e+00	3.216282e-03	
532	0.000000e+00	-0.000000e+00	
533	5.000000e-02	1.308501e-04	
534	1.000000e-01	2.591735e-04	
535	1.500000e-01	3.850085e-04	
536	2.000000e-01	5.083922e-04	
537	2.500000e-01	6.293614e-04	
538	3.000000e-01	7.479518e-04	
539	3.500000e-01	8.641987e-04	
540	4.000000e-01	9.781366e-04	
541	4.500000e-01	1.089799e-03	
542	5.000000e-01	1.199219e-03	
543	5.500000e-01	1.306430e-03	
544	6.000000e-01	1.411463e-03	
545	6.500000e-01	1.514349e-03	
546	7.000000e-01	1.615118e-03	
547	7.500000e-01	1.713801e-03	
548	8.000000e-01	1.810428e-03	
549	8.500000e-01	1.905025e-03	
550	9.000000e-01	1.997623e-03	
551	9.500000e-01	2.088248e-03	
552	1.000000e+00	2.176927e-03	
553	1.050000e+00	2.263686e-03	
554	1.100000e+00	2.348551e-03	
555	1.150000e+00	2.431547e-03	
556	1.200000e+00	2.512699e-03	
557	1.250000e+00	2.592028e-03	
558	1.300000e+00	2.669557e-03	
559	1.350000e+00	2.745307e-03	
560	1.400000e+00	2.819295e-03	
561	1.450000e+00	2.891538e-03	
562	1.500000e+00	2.962044e-03	
563	1.550000e+00	3.030815e-03	
564	1.600000e+00	3.097836e-03	
565	1.650000e+00	3.163066e-03	
566	1.700000e+00	3.226409e-03	
567	1.750000e+00	3.287673e-03	
568	1.800000e+00	3.346496e-03	
569	1.850000e+00	3.402261e-03	
570	1.900000e+00	3.454129e-03	
571	1.950000e+00	3.501316e-03	
572	2.000000e+00	3.543496e-03	
573	2.050000e+00	3.580909e-03	
574	2.100000e+00	3.614129e-03	
575	2.150000e+00	3.643809e-03	
576	2.200000e+00	3.670543e-03	

Index   v-sweep         -i(vds)         
--------------------------------------------------------------------------------
577	2.250000e+00	3.694823e-03	
578	2.300000e+00	3.717048e-03	
579	2.350000e+00	3.737534e-03	
580	2.400000e+00	3.756536e-03	
581	2.450000e+00	3.774259e-03	
582	2.500000e+00	3.790870e-03	
583	2.550000e+00	3.806506e-03	
584	2.600000e+00	3.821281e-03	
585	2.650000e+00	3.835289e-03	
586	2.700000e+00	3.848613e-03	
587	2.750000e+00	3.861320e-03	
588	2.800000e+00	3.873470e-03	
589	2.850000e+00	3.885113e-03	
590	2.900000e+00	3.896294e-03	
591	2.950000e+00	3.907053e-03	
592	3.000000e+00	3.917422e-03	
593	3.050000e+00	3.927432e-03	
594	3.100000e+00	3.937111e-03	
595	3.150000e+00	3.946482e-03	
596	3.200000e+00	3.955566e-03	
597	3.250000e+00	3.964384e-03	
598	3.300000e+00	3.972952e-03	
599	3.350000e+00	3.981286e-03	
600	3.400000e+00	3.989401e-03	
601	3.450000e+00	3.997310e-03	
602	3.500000e+00	4.005025e-03	
603	3.550000e+00	4.012557e-03	
604	3.600000e+00	4.019916e-03	
605	3.650000e+00	4.027111e-03	
606	3.700000e+00	4.034152e-03	
607	3.750000e+00	4.041045e-03	
608	3.800000e+00	4.047799e-03	
609	3.850000e+00	4.054420e-03	
610	3.900000e+00	4.060915e-03	
611	3.950000e+00	4.067290e-03	
612	4.000000e+00	4.073551e-03	
613	4.050000e+00	4.079702e-03	
614	4.100000e+00	4.085749e-03	
615	4.150000e+00	4.091697e-03	
616	4.200000e+00	4.097549e-03	
617	4.250000e+00	4.103310e-03	
618	4.300000e+00	4.108984e-03	
619	4.350000e+00	4.114575e-03	
620	4.400000e+00	4.120086e-03	
621	4.450000e+00	4.125520e-03	
622	4.500000e+00	4.130881e-03	
623	4.550000e+00	4.136171e-03	
624	4.600000e+00	4.141393e-03	
625	4.650000e+00	4.146551e-03	
626	4.700000e+00	4.151646e-03	
627	4.750000e+00	4.156681e-03	
628	4.800000e+00	4.161659e-03	
629	4.850000e+00	4.166581e-03	
630	4.900000e+00	4.171450e-03	
631	4.950000e+00	4.176267e-03	
632	5.000000e+00	4.181036e-03	
633	5.050000e+00	4.185757e-03	
634	5.100000e+00	4.190432e-03	

Index   v-sweep         -i(vds)         
--------------------------------------------------------------------------------
635	5.150000e+00	4.195063e-03	
636	5.200000e+00	4.199652e-03	
637	5.250000e+00	4.204200e-03	
638	5.300000e+00	4.208709e-03	
639	5.350000e+00	4.213180e-03	
640	5.400000e+00	4.217615e-03	
641	5.450000e+00	4.222014e-03	
642	5.500000e+00	4.226379e-03	
643	5.550000e+00	4.230712e-03	
644	5.600000e+00	4.235013e-03	
645	5.650000e+00	4.239284e-03	
646	5.700000e+00	4.243526e-03	
647	5.750000e+00	4.247739e-03	
648	5.800000e+00	4.251925e-03	
649	5.850000e+00	4.256085e-03	
650	5.900000e+00	4.260219e-03	
651	5.950000e+00	4.264329e-03	
652	6.000000e+00	4.268415e-03	
653	6.050000e+00	4.272479e-03	
654	6.100000e+00	4.276520e-03	
655	6.150000e+00	4.280540e-03	
656	6.200000e+00	4.284540e-03	
657	6.250000e+00	4.288520e-03	
658	6.300000e+00	4.292480e-03	
659	6.350000e+00	4.296423e-03	
660	6.400000e+00	4.300347e-03	
661	6.450000e+00	4.304255e-03	
662	6.500000e+00	4.308145e-03	
663	6.550000e+00	4.312020e-03	
664	6.600000e+00	4.315879e-03	
665	0.000000e+00	-0.000000e+00	
666	5.000000e-02	1.415897e-04	
667	1.000000e-01	2.808710e-04	
668	1.500000e-01	4.178753e-04	
669	2.000000e-01	5.526335e-04	
670	2.500000e-01	6.851756e-04	
671	3.000000e-01	8.155314e-04	
672	3.500000e-01	9.437300e-04	
673	4.000000e-01	1.069800e-03	
674	4.500000e-01	1.193770e-03	
675	5.000000e-01	1.315667e-03	
676	5.500000e-01	1.435518e-03	
677	6.000000e-01	1.553350e-03	
678	6.500000e-01	1.669189e-03	
679	7.000000e-01	1.783061e-03	
680	7.500000e-01	1.894991e-03	
681	8.000000e-01	2.005003e-03	
682	8.500000e-01	2.113123e-03	
683	9.000000e-01	2.219374e-03	
684	9.500000e-01	2.323779e-03	
685	1.000000e+00	2.426361e-03	
686	1.050000e+00	2.527144e-03	
687	1.100000e+00	2.626148e-03	
688	1.150000e+00	2.723397e-03	
689	1.200000e+00	2.818910e-03	
690	1.250000e+00	2.912710e-03	
691	1.300000e+00	3.004816e-03	
692	1.350000e+00	3.095248e-03	

Index   v-sweep         -i(vds)         
--------------------------------------------------------------------------------
693	1.400000e+00	3.184026e-03	
694	1.450000e+00	3.271169e-03	
695	1.500000e+00	3.356694e-03	
696	1.550000e+00	3.440619e-03	
697	1.600000e+00	3.522960e-03	
698	1.650000e+00	3.603733e-03	
699	1.700000e+00	3.682950e-03	
700	1.750000e+00	3.760621e-03	
701	1.800000e+00	3.836751e-03	
702	1.850000e+00	3.911339e-03	
703	1.900000e+00	3.984370e-03	
704	1.950000e+00	4.055808e-03	
705	2.000000e+00	4.125580e-03	
706	2.050000e+00	4.193545e-03	
707	2.100000e+00	4.259443e-03	
708	2.150000e+00	4.322828e-03	
709	2.200000e+00	4.383019e-03	
710	2.250000e+00	4.439183e-03	
711	2.300000e+00	4.490623e-03	
712	2.350000e+00	4.537079e-03	
713	2.400000e+00	4.578773e-03	
714	2.450000e+00	4.616216e-03	
715	2.500000e+00	4.649998e-03	
716	2.550000e+00	4.680675e-03	
717	2.600000e+00	4.708723e-03	
718	2.650000e+00	4.734535e-03	
719	2.700000e+00	4.758433e-03	
720	2.750000e+00	4.780681e-03	
721	2.800000e+00	4.801492e-03	
722	2.850000e+00	4.821045e-03	
723	2.900000e+00	4.839488e-03	
724	2.950000e+00	4.856944e-03	
725	3.000000e+00	4.873519e-03	
726	3.050000e+00	4.889301e-03	
727	3.100000e+00	4.904367e-03	
728	3.150000e+00	4.918783e-03	
729	3.200000e+00	4.932608e-03	
730	3.250000e+00	4.945890e-03	
731	3.300000e+00	4.958674e-03	
732	3.350000e+00	4.970999e-03	
733	3.400000e+00	4.982901e-03	
734	3.450000e+00	4.994409e-03	
735	3.500000e+00	5.005552e-03	
736	3.550000e+00	5.016354e-03	
737	3.600000e+00	5.026838e-03	
738	3.650000e+00	5.037024e-03	
739	3.700000e+00	5.046931e-03	
740	3.750000e+00	5.056576e-03	
741	3.800000e+00	5.065974e-03	
742	3.850000e+00	5.075139e-03	
743	3.900000e+00	5.084083e-03	
744	3.950000e+00	5.092820e-03	
745	4.000000e+00	5.101360e-03	
746	4.050000e+00	5.109713e-03	
747	4.100000e+00	5.117889e-03	
748	4.150000e+00	5.125897e-03	
749	4.200000e+00	5.133744e-03	
750	4.250000e+00	5.141439e-03	

Index   v-sweep         -i(vds)         
--------------------------------------------------------------------------------
751	4.300000e+00	5.148988e-03	
752	4.350000e+00	5.156399e-03	
753	4.400000e+00	5.163677e-03	
754	4.450000e+00	5.170830e-03	
755	4.500000e+00	5.177861e-03	
756	4.550000e+00	5.184777e-03	
757	4.600000e+00	5.191582e-03	
758	4.650000e+00	5.198282e-03	
759	4.700000e+00	5.204880e-03	
760	4.750000e+00	5.211381e-03	
761	4.800000e+00	5.217788e-03	
762	4.850000e+00	5.224106e-03	
763	4.900000e+00	5.230339e-03	
764	4.950000e+00	5.236489e-03	
765	5.000000e+00	5.242560e-03	
766	5.050000e+00	5.248555e-03	
767	5.100000e+00	5.254477e-03	
768	5.150000e+00	5.260328e-03	
769	5.200000e+00	5.266112e-03	
770	5.250000e+00	5.271831e-03	
771	5.300000e+00	5.277488e-03	
772	5.350000e+00	5.283084e-03	
773	5.400000e+00	5.288623e-03	
774	5.450000e+00	5.294105e-03	
775	5.500000e+00	5.299534e-03	
776	5.550000e+00	5.304912e-03	
777	5.600000e+00	5.310239e-03	
778	5.650000e+00	5.315519e-03	
779	5.700000e+00	5.320752e-03	
780	5.750000e+00	5.325941e-03	
781	5.800000e+00	5.331086e-03	
782	5.850000e+00	5.336191e-03	
783	5.900000e+00	5.341255e-03	
784	5.950000e+00	5.346281e-03	
785	6.000000e+00	5.351269e-03	
786	6.050000e+00	5.356222e-03	
787	6.100000e+00	5.361141e-03	
788	6.150000e+00	5.366025e-03	
789	6.200000e+00	5.370878e-03	
790	6.250000e+00	5.375700e-03	
791	6.300000e+00	5.380491e-03	
792	6.350000e+00	5.385254e-03	
793	6.400000e+00	5.389989e-03	
794	6.450000e+00	5.394697e-03	
795	6.500000e+00	5.399379e-03	
796	6.550000e+00	5.404036e-03	
797	6.600000e+00	5.408668e-03	
Note: No ".plot", ".print", or ".fourier" lines; no simulations run
