
Note: Compatibility modes selected: hs

Warning: m=xx on .subckt line will override multiplier m hierarchy!


Circuit: ***************************

Doing analysis at TEMP = 125.000000 and TNOM = 125.000000


No. of Data Rows : 798
                          ***************************
                          DC transfer characteristic  Mon Jan  9 13:58:05  2023
--------------------------------------------------------------------------------
Index   v-sweep         -i(vds)         
--------------------------------------------------------------------------------
0	0.000000e+00	-0.000000e+00	
1	5.000000e-02	6.794922e-07	
2	1.000000e-01	1.244876e-06	
3	1.500000e-01	1.729763e-06	
4	2.000000e-01	2.142764e-06	
5	2.500000e-01	2.486264e-06	
6	3.000000e-01	2.761196e-06	
7	3.500000e-01	2.968487e-06	
8	4.000000e-01	3.110310e-06	
9	4.500000e-01	3.193577e-06	
10	5.000000e-01	3.235789e-06	
11	5.500000e-01	3.258835e-06	
12	6.000000e-01	3.274772e-06	
13	6.500000e-01	3.287631e-06	
14	7.000000e-01	3.298744e-06	
15	7.500000e-01	3.308662e-06	
16	8.000000e-01	3.317670e-06	
17	8.500000e-01	3.325947e-06	
18	9.000000e-01	3.333614e-06	
19	9.500000e-01	3.340762e-06	
20	1.000000e+00	3.347459e-06	
21	1.050000e+00	3.353762e-06	
22	1.100000e+00	3.359715e-06	
23	1.150000e+00	3.365356e-06	
24	1.200000e+00	3.370718e-06	
25	1.250000e+00	3.375825e-06	
26	1.300000e+00	3.380703e-06	
27	1.350000e+00	3.385370e-06	
28	1.400000e+00	3.389845e-06	
29	1.450000e+00	3.394143e-06	
30	1.500000e+00	3.398277e-06	
31	1.550000e+00	3.402259e-06	
32	1.600000e+00	3.406101e-06	
33	1.650000e+00	3.409812e-06	
34	1.700000e+00	3.413400e-06	
35	1.750000e+00	3.416874e-06	
36	1.800000e+00	3.420240e-06	
37	1.850000e+00	3.423505e-06	
38	1.900000e+00	3.426676e-06	
39	1.950000e+00	3.429757e-06	
40	2.000000e+00	3.432753e-06	
41	2.050000e+00	3.435668e-06	
42	2.100000e+00	3.438508e-06	
43	2.150000e+00	3.441276e-06	
44	2.200000e+00	3.443976e-06	
45	2.250000e+00	3.446610e-06	
46	2.300000e+00	3.449183e-06	
47	2.350000e+00	3.451696e-06	
48	2.400000e+00	3.454153e-06	
49	2.450000e+00	3.456556e-06	
50	2.500000e+00	3.458908e-06	
51	2.550000e+00	3.461210e-06	
52	2.600000e+00	3.463465e-06	
53	2.650000e+00	3.465674e-06	
54	2.700000e+00	3.467840e-06	

Index   v-sweep         -i(vds)         
--------------------------------------------------------------------------------
55	2.750000e+00	3.469965e-06	
56	2.800000e+00	3.472049e-06	
57	2.850000e+00	3.474095e-06	
58	2.900000e+00	3.476103e-06	
59	2.950000e+00	3.478076e-06	
60	3.000000e+00	3.480015e-06	
61	3.050000e+00	3.481920e-06	
62	3.100000e+00	3.483793e-06	
63	3.150000e+00	3.485635e-06	
64	3.200000e+00	3.487448e-06	
65	3.250000e+00	3.489232e-06	
66	3.300000e+00	3.490988e-06	
67	3.350000e+00	3.492717e-06	
68	3.400000e+00	3.494420e-06	
69	3.450000e+00	3.496098e-06	
70	3.500000e+00	3.497751e-06	
71	3.550000e+00	3.499381e-06	
72	3.600000e+00	3.500988e-06	
73	3.650000e+00	3.502573e-06	
74	3.700000e+00	3.504136e-06	
75	3.750000e+00	3.505678e-06	
76	3.800000e+00	3.507201e-06	
77	3.850000e+00	3.508703e-06	
78	3.900000e+00	3.510187e-06	
79	3.950000e+00	3.511651e-06	
80	4.000000e+00	3.513098e-06	
81	4.050000e+00	3.514528e-06	
82	4.100000e+00	3.515940e-06	
83	4.150000e+00	3.517336e-06	
84	4.200000e+00	3.518716e-06	
85	4.250000e+00	3.520080e-06	
86	4.300000e+00	3.521429e-06	
87	4.350000e+00	3.522763e-06	
88	4.400000e+00	3.524082e-06	
89	4.450000e+00	3.525388e-06	
90	4.500000e+00	3.526679e-06	
91	4.550000e+00	3.527958e-06	
92	4.600000e+00	3.529223e-06	
93	4.650000e+00	3.530476e-06	
94	4.700000e+00	3.531716e-06	
95	4.750000e+00	3.532944e-06	
96	4.800000e+00	3.534160e-06	
97	4.850000e+00	3.535365e-06	
98	4.900000e+00	3.536558e-06	
99	4.950000e+00	3.537741e-06	
100	5.000000e+00	3.538912e-06	
101	5.050000e+00	3.540074e-06	
102	5.100000e+00	3.541225e-06	
103	5.150000e+00	3.542366e-06	
104	5.200000e+00	3.543497e-06	
105	5.250000e+00	3.544619e-06	
106	5.300000e+00	3.545731e-06	
107	5.350000e+00	3.546834e-06	
108	5.400000e+00	3.547928e-06	
109	5.450000e+00	3.549013e-06	
110	5.500000e+00	3.550090e-06	
111	5.550000e+00	3.551159e-06	
112	5.600000e+00	3.552219e-06	

Index   v-sweep         -i(vds)         
--------------------------------------------------------------------------------
113	5.650000e+00	3.553271e-06	
114	5.700000e+00	3.554315e-06	
115	5.750000e+00	3.555352e-06	
116	5.800000e+00	3.556381e-06	
117	5.850000e+00	3.557402e-06	
118	5.900000e+00	3.558416e-06	
119	5.950000e+00	3.559424e-06	
120	6.000000e+00	3.560424e-06	
121	6.050000e+00	3.561417e-06	
122	6.100000e+00	3.562404e-06	
123	6.150000e+00	3.563384e-06	
124	6.200000e+00	3.564357e-06	
125	6.250000e+00	3.565324e-06	
126	6.300000e+00	3.566285e-06	
127	6.350000e+00	3.567240e-06	
128	6.400000e+00	3.568189e-06	
129	6.450000e+00	3.569132e-06	
130	6.500000e+00	3.570069e-06	
131	6.550000e+00	3.571000e-06	
132	6.600000e+00	3.571926e-06	
133	0.000000e+00	-0.000000e+00	
134	5.000000e-02	2.006458e-06	
135	1.000000e-01	3.904574e-06	
136	1.500000e-01	5.727928e-06	
137	2.000000e-01	7.485076e-06	
138	2.500000e-01	9.178302e-06	
139	3.000000e-01	1.080831e-05	
140	3.500000e-01	1.237540e-05	
141	4.000000e-01	1.387980e-05	
142	4.500000e-01	1.532167e-05	
143	5.000000e-01	1.670121e-05	
144	5.500000e-01	1.801858e-05	
145	6.000000e-01	1.927396e-05	
146	6.500000e-01	2.046752e-05	
147	7.000000e-01	2.159943e-05	
148	7.500000e-01	2.266988e-05	
149	8.000000e-01	2.367903e-05	
150	8.500000e-01	2.462706e-05	
151	9.000000e-01	2.551416e-05	
152	9.500000e-01	2.634049e-05	
153	1.000000e+00	2.710624e-05	
154	1.050000e+00	2.781162e-05	
155	1.100000e+00	2.845683e-05	
156	1.150000e+00	2.904211e-05	
157	1.200000e+00	2.956774e-05	
158	1.250000e+00	3.003410e-05	
159	1.300000e+00	3.044173e-05	
160	1.350000e+00	3.079156e-05	
161	1.400000e+00	3.108529e-05	
162	1.450000e+00	3.132623e-05	
163	1.500000e+00	3.152032e-05	
164	1.550000e+00	3.167650e-05	
165	1.600000e+00	3.180470e-05	
166	1.650000e+00	3.191322e-05	
167	1.700000e+00	3.200768e-05	
168	1.750000e+00	3.209165e-05	
169	1.800000e+00	3.216742e-05	
170	1.850000e+00	3.223658e-05	

Index   v-sweep         -i(vds)         
--------------------------------------------------------------------------------
171	1.900000e+00	3.230025e-05	
172	1.950000e+00	3.235927e-05	
173	2.000000e+00	3.241430e-05	
174	2.050000e+00	3.246585e-05	
175	2.100000e+00	3.251435e-05	
176	2.150000e+00	3.256014e-05	
177	2.200000e+00	3.260351e-05	
178	2.250000e+00	3.264471e-05	
179	2.300000e+00	3.268394e-05	
180	2.350000e+00	3.272139e-05	
181	2.400000e+00	3.275721e-05	
182	2.450000e+00	3.279155e-05	
183	2.500000e+00	3.282451e-05	
184	2.550000e+00	3.285620e-05	
185	2.600000e+00	3.288672e-05	
186	2.650000e+00	3.291615e-05	
187	2.700000e+00	3.294457e-05	
188	2.750000e+00	3.297205e-05	
189	2.800000e+00	3.299864e-05	
190	2.850000e+00	3.302440e-05	
191	2.900000e+00	3.304938e-05	
192	2.950000e+00	3.307363e-05	
193	3.000000e+00	3.309719e-05	
194	3.050000e+00	3.312010e-05	
195	3.100000e+00	3.314239e-05	
196	3.150000e+00	3.316409e-05	
197	3.200000e+00	3.318525e-05	
198	3.250000e+00	3.320587e-05	
199	3.300000e+00	3.322599e-05	
200	3.350000e+00	3.324564e-05	
201	3.400000e+00	3.326483e-05	
202	3.450000e+00	3.328359e-05	
203	3.500000e+00	3.330193e-05	
204	3.550000e+00	3.331988e-05	
205	3.600000e+00	3.333745e-05	
206	3.650000e+00	3.335466e-05	
207	3.700000e+00	3.337152e-05	
208	3.750000e+00	3.338805e-05	
209	3.800000e+00	3.340425e-05	
210	3.850000e+00	3.342015e-05	
211	3.900000e+00	3.343576e-05	
212	3.950000e+00	3.345108e-05	
213	4.000000e+00	3.346612e-05	
214	4.050000e+00	3.348091e-05	
215	4.100000e+00	3.349544e-05	
216	4.150000e+00	3.350972e-05	
217	4.200000e+00	3.352377e-05	
218	4.250000e+00	3.353759e-05	
219	4.300000e+00	3.355120e-05	
220	4.350000e+00	3.356459e-05	
221	4.400000e+00	3.357777e-05	
222	4.450000e+00	3.359076e-05	
223	4.500000e+00	3.360356e-05	
224	4.550000e+00	3.361617e-05	
225	4.600000e+00	3.362860e-05	
226	4.650000e+00	3.364086e-05	
227	4.700000e+00	3.365295e-05	
228	4.750000e+00	3.366487e-05	

Index   v-sweep         -i(vds)         
--------------------------------------------------------------------------------
229	4.800000e+00	3.367664e-05	
230	4.850000e+00	3.368826e-05	
231	4.900000e+00	3.369972e-05	
232	4.950000e+00	3.371104e-05	
233	5.000000e+00	3.372223e-05	
234	5.050000e+00	3.373327e-05	
235	5.100000e+00	3.374418e-05	
236	5.150000e+00	3.375497e-05	
237	5.200000e+00	3.376563e-05	
238	5.250000e+00	3.377617e-05	
239	5.300000e+00	3.378659e-05	
240	5.350000e+00	3.379690e-05	
241	5.400000e+00	3.380709e-05	
242	5.450000e+00	3.381718e-05	
243	5.500000e+00	3.382716e-05	
244	5.550000e+00	3.383704e-05	
245	5.600000e+00	3.384682e-05	
246	5.650000e+00	3.385650e-05	
247	5.700000e+00	3.386608e-05	
248	5.750000e+00	3.387558e-05	
249	5.800000e+00	3.388498e-05	
250	5.850000e+00	3.389429e-05	
251	5.900000e+00	3.390352e-05	
252	5.950000e+00	3.391267e-05	
253	6.000000e+00	3.392173e-05	
254	6.050000e+00	3.393071e-05	
255	6.100000e+00	3.393962e-05	
256	6.150000e+00	3.394845e-05	
257	6.200000e+00	3.395720e-05	
258	6.250000e+00	3.396589e-05	
259	6.300000e+00	3.397450e-05	
260	6.350000e+00	3.398304e-05	
261	6.400000e+00	3.399151e-05	
262	6.450000e+00	3.399992e-05	
263	6.500000e+00	3.400827e-05	
264	6.550000e+00	3.401655e-05	
265	6.600000e+00	3.402476e-05	
266	0.000000e+00	-0.000000e+00	
267	5.000000e-02	2.956461e-06	
268	1.000000e-01	5.813437e-06	
269	1.500000e-01	8.604471e-06	
270	2.000000e-01	1.133809e-05	
271	2.500000e-01	1.401653e-05	
272	3.000000e-01	1.664048e-05	
273	3.500000e-01	1.921019e-05	
274	4.000000e-01	2.172585e-05	
275	4.500000e-01	2.418761e-05	
276	5.000000e-01	2.659560e-05	
277	5.500000e-01	2.894998e-05	
278	6.000000e-01	3.125087e-05	
279	6.500000e-01	3.349841e-05	
280	7.000000e-01	3.569275e-05	
281	7.500000e-01	3.783402e-05	
282	8.000000e-01	3.992236e-05	
283	8.500000e-01	4.195791e-05	
284	9.000000e-01	4.394080e-05	
285	9.500000e-01	4.587117e-05	
286	1.000000e+00	4.774915e-05	

Index   v-sweep         -i(vds)         
--------------------------------------------------------------------------------
287	1.050000e+00	4.957488e-05	
288	1.100000e+00	5.134850e-05	
289	1.150000e+00	5.307013e-05	
290	1.200000e+00	5.473992e-05	
291	1.250000e+00	5.635799e-05	
292	1.300000e+00	5.792448e-05	
293	1.350000e+00	5.943952e-05	
294	1.400000e+00	6.090325e-05	
295	1.450000e+00	6.231579e-05	
296	1.500000e+00	6.367728e-05	
297	1.550000e+00	6.498785e-05	
298	1.600000e+00	6.624763e-05	
299	1.650000e+00	6.745675e-05	
300	1.700000e+00	6.861534e-05	
301	1.750000e+00	6.972354e-05	
302	1.800000e+00	7.078147e-05	
303	1.850000e+00	7.178928e-05	
304	1.900000e+00	7.274708e-05	
305	1.950000e+00	7.365503e-05	
306	2.000000e+00	7.451326e-05	
307	2.050000e+00	7.532190e-05	
308	2.100000e+00	7.608112e-05	
309	2.150000e+00	7.679108e-05	
310	2.200000e+00	7.745195e-05	
311	2.250000e+00	7.806396e-05	
312	2.300000e+00	7.862737e-05	
313	2.350000e+00	7.914258e-05	
314	2.400000e+00	7.961015e-05	
315	2.450000e+00	8.003104e-05	
316	2.500000e+00	8.040681e-05	
317	2.550000e+00	8.074005e-05	
318	2.600000e+00	8.103456e-05	
319	2.650000e+00	8.129520e-05	
320	2.700000e+00	8.152720e-05	
321	2.750000e+00	8.173540e-05	
322	2.800000e+00	8.192387e-05	
323	2.850000e+00	8.209590e-05	
324	2.900000e+00	8.225406e-05	
325	2.950000e+00	8.240041e-05	
326	3.000000e+00	8.253657e-05	
327	3.050000e+00	8.266387e-05	
328	3.100000e+00	8.278340e-05	
329	3.150000e+00	8.289603e-05	
330	3.200000e+00	8.300253e-05	
331	3.250000e+00	8.310354e-05	
332	3.300000e+00	8.319958e-05	
333	3.350000e+00	8.329112e-05	
334	3.400000e+00	8.337857e-05	
335	3.450000e+00	8.346228e-05	
336	3.500000e+00	8.354255e-05	
337	3.550000e+00	8.361966e-05	
338	3.600000e+00	8.369384e-05	
339	3.650000e+00	8.376532e-05	
340	3.700000e+00	8.383427e-05	
341	3.750000e+00	8.390087e-05	
342	3.800000e+00	8.396529e-05	
343	3.850000e+00	8.402765e-05	
344	3.900000e+00	8.408808e-05	

Index   v-sweep         -i(vds)         
--------------------------------------------------------------------------------
345	3.950000e+00	8.414670e-05	
346	4.000000e+00	8.420362e-05	
347	4.050000e+00	8.425893e-05	
348	4.100000e+00	8.431272e-05	
349	4.150000e+00	8.436507e-05	
350	4.200000e+00	8.441606e-05	
351	4.250000e+00	8.446575e-05	
352	4.300000e+00	8.451422e-05	
353	4.350000e+00	8.456151e-05	
354	4.400000e+00	8.460770e-05	
355	4.450000e+00	8.465282e-05	
356	4.500000e+00	8.469693e-05	
357	4.550000e+00	8.474007e-05	
358	4.600000e+00	8.478229e-05	
359	4.650000e+00	8.482362e-05	
360	4.700000e+00	8.486411e-05	
361	4.750000e+00	8.490378e-05	
362	4.800000e+00	8.494267e-05	
363	4.850000e+00	8.498081e-05	
364	4.900000e+00	8.501824e-05	
365	4.950000e+00	8.505497e-05	
366	5.000000e+00	8.509104e-05	
367	5.050000e+00	8.512646e-05	
368	5.100000e+00	8.516128e-05	
369	5.150000e+00	8.519549e-05	
370	5.200000e+00	8.522914e-05	
371	5.250000e+00	8.526223e-05	
372	5.300000e+00	8.529479e-05	
373	5.350000e+00	8.532684e-05	
374	5.400000e+00	8.535839e-05	
375	5.450000e+00	8.538946e-05	
376	5.500000e+00	8.542007e-05	
377	5.550000e+00	8.545023e-05	
378	5.600000e+00	8.547995e-05	
379	5.650000e+00	8.550925e-05	
380	5.700000e+00	8.553815e-05	
381	5.750000e+00	8.556665e-05	
382	5.800000e+00	8.559477e-05	
383	5.850000e+00	8.562253e-05	
384	5.900000e+00	8.564992e-05	
385	5.950000e+00	8.567696e-05	
386	6.000000e+00	8.570367e-05	
387	6.050000e+00	8.573005e-05	
388	6.100000e+00	8.575611e-05	
389	6.150000e+00	8.578186e-05	
390	6.200000e+00	8.580731e-05	
391	6.250000e+00	8.583248e-05	
392	6.300000e+00	8.585735e-05	
393	6.350000e+00	8.588196e-05	
394	6.400000e+00	8.590629e-05	
395	6.450000e+00	8.593036e-05	
396	6.500000e+00	8.595418e-05	
397	6.550000e+00	8.597776e-05	
398	6.600000e+00	8.600109e-05	
399	0.000000e+00	-0.000000e+00	
400	5.000000e-02	3.660693e-06	
401	1.000000e-01	7.229488e-06	
402	1.500000e-01	1.073990e-05	

Index   v-sweep         -i(vds)         
--------------------------------------------------------------------------------
403	2.000000e-01	1.420042e-05	
404	2.500000e-01	1.761326e-05	
405	3.000000e-01	2.097907e-05	
406	3.500000e-01	2.429808e-05	
407	4.000000e-01	2.757045e-05	
408	4.500000e-01	3.079628e-05	
409	5.000000e-01	3.397570e-05	
410	5.500000e-01	3.710882e-05	
411	6.000000e-01	4.019574e-05	
412	6.500000e-01	4.323657e-05	
413	7.000000e-01	4.623143e-05	
414	7.500000e-01	4.918041e-05	
415	8.000000e-01	5.208364e-05	
416	8.500000e-01	5.494121e-05	
417	9.000000e-01	5.775324e-05	
418	9.500000e-01	6.051983e-05	
419	1.000000e+00	6.324109e-05	
420	1.050000e+00	6.591713e-05	
421	1.100000e+00	6.854805e-05	
422	1.150000e+00	7.113396e-05	
423	1.200000e+00	7.367496e-05	
424	1.250000e+00	7.617116e-05	
425	1.300000e+00	7.862267e-05	
426	1.350000e+00	8.102959e-05	
427	1.400000e+00	8.339202e-05	
428	1.450000e+00	8.571007e-05	
429	1.500000e+00	8.798384e-05	
430	1.550000e+00	9.021343e-05	
431	1.600000e+00	9.239895e-05	
432	1.650000e+00	9.454051e-05	
433	1.700000e+00	9.663820e-05	
434	1.750000e+00	9.869212e-05	
435	1.800000e+00	1.007024e-04	
436	1.850000e+00	1.026691e-04	
437	1.900000e+00	1.045923e-04	
438	1.950000e+00	1.064722e-04	
439	2.000000e+00	1.083088e-04	
440	2.050000e+00	1.101023e-04	
441	2.100000e+00	1.118527e-04	
442	2.150000e+00	1.135601e-04	
443	2.200000e+00	1.152247e-04	
444	2.250000e+00	1.168465e-04	
445	2.300000e+00	1.184257e-04	
446	2.350000e+00	1.199623e-04	
447	2.400000e+00	1.214564e-04	
448	2.450000e+00	1.229082e-04	
449	2.500000e+00	1.243177e-04	
450	2.550000e+00	1.256850e-04	
451	2.600000e+00	1.270103e-04	
452	2.650000e+00	1.282936e-04	
453	2.700000e+00	1.295350e-04	
454	2.750000e+00	1.307346e-04	
455	2.800000e+00	1.318925e-04	
456	2.850000e+00	1.330088e-04	
457	2.900000e+00	1.340836e-04	
458	2.950000e+00	1.351170e-04	
459	3.000000e+00	1.361091e-04	
460	3.050000e+00	1.370600e-04	

Index   v-sweep         -i(vds)         
--------------------------------------------------------------------------------
461	3.100000e+00	1.379698e-04	
462	3.150000e+00	1.388385e-04	
463	3.200000e+00	1.396662e-04	
464	3.250000e+00	1.404531e-04	
465	3.300000e+00	1.411992e-04	
466	3.350000e+00	1.419046e-04	
467	3.400000e+00	1.425694e-04	
468	3.450000e+00	1.431937e-04	
469	3.500000e+00	1.437775e-04	
470	3.550000e+00	1.443210e-04	
471	3.600000e+00	1.448246e-04	
472	3.650000e+00	1.452889e-04	
473	3.700000e+00	1.457153e-04	
474	3.750000e+00	1.461057e-04	
475	3.800000e+00	1.464630e-04	
476	3.850000e+00	1.467904e-04	
477	3.900000e+00	1.470915e-04	
478	3.950000e+00	1.473694e-04	
479	4.000000e+00	1.476271e-04	
480	4.050000e+00	1.478670e-04	
481	4.100000e+00	1.480914e-04	
482	4.150000e+00	1.483020e-04	
483	4.200000e+00	1.485003e-04	
484	4.250000e+00	1.486878e-04	
485	4.300000e+00	1.488654e-04	
486	4.350000e+00	1.490342e-04	
487	4.400000e+00	1.491950e-04	
488	4.450000e+00	1.493484e-04	
489	4.500000e+00	1.494952e-04	
490	4.550000e+00	1.496359e-04	
491	4.600000e+00	1.497710e-04	
492	4.650000e+00	1.499009e-04	
493	4.700000e+00	1.500259e-04	
494	4.750000e+00	1.501465e-04	
495	4.800000e+00	1.502629e-04	
496	4.850000e+00	1.503754e-04	
497	4.900000e+00	1.504843e-04	
498	4.950000e+00	1.505898e-04	
499	5.000000e+00	1.506921e-04	
500	5.050000e+00	1.507913e-04	
501	5.100000e+00	1.508878e-04	
502	5.150000e+00	1.509815e-04	
503	5.200000e+00	1.510727e-04	
504	5.250000e+00	1.511615e-04	
505	5.300000e+00	1.512481e-04	
506	5.350000e+00	1.513324e-04	
507	5.400000e+00	1.514147e-04	
508	5.450000e+00	1.514951e-04	
509	5.500000e+00	1.515735e-04	
510	5.550000e+00	1.516502e-04	
511	5.600000e+00	1.517252e-04	
512	5.650000e+00	1.517986e-04	
513	5.700000e+00	1.518704e-04	
514	5.750000e+00	1.519407e-04	
515	5.800000e+00	1.520096e-04	
516	5.850000e+00	1.520772e-04	
517	5.900000e+00	1.521434e-04	
518	5.950000e+00	1.522084e-04	

Index   v-sweep         -i(vds)         
--------------------------------------------------------------------------------
519	6.000000e+00	1.522721e-04	
520	6.050000e+00	1.523347e-04	
521	6.100000e+00	1.523961e-04	
522	6.150000e+00	1.524565e-04	
523	6.200000e+00	1.525159e-04	
524	6.250000e+00	1.525742e-04	
525	6.300000e+00	1.526316e-04	
526	6.350000e+00	1.526880e-04	
527	6.400000e+00	1.527436e-04	
528	6.450000e+00	1.527982e-04	
529	6.500000e+00	1.528521e-04	
530	6.550000e+00	1.529051e-04	
531	6.600000e+00	1.529573e-04	
532	0.000000e+00	-0.000000e+00	
533	5.000000e-02	4.196442e-06	
534	1.000000e-01	8.307348e-06	
535	1.500000e-01	1.236621e-05	
536	2.000000e-01	1.638149e-05	
537	2.500000e-01	2.035538e-05	
538	3.000000e-01	2.428850e-05	
539	3.500000e-01	2.818108e-05	
540	4.000000e-01	3.203322e-05	
541	4.500000e-01	3.584503e-05	
542	5.000000e-01	3.961660e-05	
543	5.500000e-01	4.334801e-05	
544	6.000000e-01	4.703935e-05	
545	6.500000e-01	5.069070e-05	
546	7.000000e-01	5.430216e-05	
547	7.500000e-01	5.787381e-05	
548	8.000000e-01	6.140573e-05	
549	8.500000e-01	6.489800e-05	
550	9.000000e-01	6.835073e-05	
551	9.500000e-01	7.176398e-05	
552	1.000000e+00	7.513785e-05	
553	1.050000e+00	7.847241e-05	
554	1.100000e+00	8.176776e-05	
555	1.150000e+00	8.502397e-05	
556	1.200000e+00	8.824113e-05	
557	1.250000e+00	9.141933e-05	
558	1.300000e+00	9.455864e-05	
559	1.350000e+00	9.765916e-05	
560	1.400000e+00	1.007210e-04	
561	1.450000e+00	1.037441e-04	
562	1.500000e+00	1.067287e-04	
563	1.550000e+00	1.096749e-04	
564	1.600000e+00	1.125826e-04	
565	1.650000e+00	1.154520e-04	
566	1.700000e+00	1.182833e-04	
567	1.750000e+00	1.210763e-04	
568	1.800000e+00	1.238313e-04	
569	1.850000e+00	1.265484e-04	
570	1.900000e+00	1.292275e-04	
571	1.950000e+00	1.318688e-04	
572	2.000000e+00	1.344723e-04	
573	2.050000e+00	1.370382e-04	
574	2.100000e+00	1.395665e-04	
575	2.150000e+00	1.420573e-04	
576	2.200000e+00	1.445107e-04	

Index   v-sweep         -i(vds)         
--------------------------------------------------------------------------------
577	2.250000e+00	1.469267e-04	
578	2.300000e+00	1.493055e-04	
579	2.350000e+00	1.516471e-04	
580	2.400000e+00	1.539515e-04	
581	2.450000e+00	1.562190e-04	
582	2.500000e+00	1.584494e-04	
583	2.550000e+00	1.606430e-04	
584	2.600000e+00	1.627998e-04	
585	2.650000e+00	1.649199e-04	
586	2.700000e+00	1.670033e-04	
587	2.750000e+00	1.690502e-04	
588	2.800000e+00	1.710606e-04	
589	2.850000e+00	1.730345e-04	
590	2.900000e+00	1.749721e-04	
591	2.950000e+00	1.768734e-04	
592	3.000000e+00	1.787386e-04	
593	3.050000e+00	1.805676e-04	
594	3.100000e+00	1.823606e-04	
595	3.150000e+00	1.841176e-04	
596	3.200000e+00	1.858388e-04	
597	3.250000e+00	1.875241e-04	
598	3.300000e+00	1.891736e-04	
599	3.350000e+00	1.907875e-04	
600	3.400000e+00	1.923659e-04	
601	3.450000e+00	1.939086e-04	
602	3.500000e+00	1.954160e-04	
603	3.550000e+00	1.968879e-04	
604	3.600000e+00	1.983246e-04	
605	3.650000e+00	1.997260e-04	
606	3.700000e+00	2.010923e-04	
607	3.750000e+00	2.024234e-04	
608	3.800000e+00	2.037196e-04	
609	3.850000e+00	2.049808e-04	
610	3.900000e+00	2.062071e-04	
611	3.950000e+00	2.073985e-04	
612	4.000000e+00	2.085553e-04	
613	4.050000e+00	2.096773e-04	
614	4.100000e+00	2.107647e-04	
615	4.150000e+00	2.118175e-04	
616	4.200000e+00	2.128358e-04	
617	4.250000e+00	2.138197e-04	
618	4.300000e+00	2.147690e-04	
619	4.350000e+00	2.156840e-04	
620	4.400000e+00	2.165645e-04	
621	4.450000e+00	2.174106e-04	
622	4.500000e+00	2.182221e-04	
623	4.550000e+00	2.189991e-04	
624	4.600000e+00	2.197411e-04	
625	4.650000e+00	2.204480e-04	
626	4.700000e+00	2.211194e-04	
627	4.750000e+00	2.217546e-04	
628	4.800000e+00	2.223533e-04	
629	4.850000e+00	2.229151e-04	
630	4.900000e+00	2.234401e-04	
631	4.950000e+00	2.239294e-04	
632	5.000000e+00	2.243846e-04	
633	5.050000e+00	2.248082e-04	
634	5.100000e+00	2.252027e-04	

Index   v-sweep         -i(vds)         
--------------------------------------------------------------------------------
635	5.150000e+00	2.255711e-04	
636	5.200000e+00	2.259159e-04	
637	5.250000e+00	2.262396e-04	
638	5.300000e+00	2.265445e-04	
639	5.350000e+00	2.268324e-04	
640	5.400000e+00	2.271049e-04	
641	5.450000e+00	2.273637e-04	
642	5.500000e+00	2.276100e-04	
643	5.550000e+00	2.278448e-04	
644	5.600000e+00	2.280692e-04	
645	5.650000e+00	2.282841e-04	
646	5.700000e+00	2.284902e-04	
647	5.750000e+00	2.286881e-04	
648	5.800000e+00	2.288786e-04	
649	5.850000e+00	2.290621e-04	
650	5.900000e+00	2.292392e-04	
651	5.950000e+00	2.294102e-04	
652	6.000000e+00	2.295756e-04	
653	6.050000e+00	2.297357e-04	
654	6.100000e+00	2.298908e-04	
655	6.150000e+00	2.300413e-04	
656	6.200000e+00	2.301874e-04	
657	6.250000e+00	2.303294e-04	
658	6.300000e+00	2.304675e-04	
659	6.350000e+00	2.306018e-04	
660	6.400000e+00	2.307326e-04	
661	6.450000e+00	2.308602e-04	
662	6.500000e+00	2.309845e-04	
663	6.550000e+00	2.311058e-04	
664	6.600000e+00	2.312243e-04	
665	0.000000e+00	-0.000000e+00	
666	5.000000e-02	4.611825e-06	
667	1.000000e-01	9.143469e-06	
668	1.500000e-01	1.362840e-05	
669	2.000000e-01	1.807507e-05	
670	2.500000e-01	2.248566e-05	
671	3.000000e-01	2.686075e-05	
672	3.500000e-01	3.120056e-05	
673	4.000000e-01	3.550518e-05	
674	4.500000e-01	3.977470e-05	
675	5.000000e-01	4.400918e-05	
676	5.500000e-01	4.820870e-05	
677	6.000000e-01	5.237332e-05	
678	6.500000e-01	5.650311e-05	
679	7.000000e-01	6.059814e-05	
680	7.500000e-01	6.465847e-05	
681	8.000000e-01	6.868419e-05	
682	8.500000e-01	7.267535e-05	
683	9.000000e-01	7.663202e-05	
684	9.500000e-01	8.055427e-05	
685	1.000000e+00	8.444217e-05	
686	1.050000e+00	8.829578e-05	
687	1.100000e+00	9.211518e-05	
688	1.150000e+00	9.590042e-05	
689	1.200000e+00	9.965158e-05	
690	1.250000e+00	1.033687e-04	
691	1.300000e+00	1.070519e-04	
692	1.350000e+00	1.107012e-04	

Index   v-sweep         -i(vds)         
--------------------------------------------------------------------------------
693	1.400000e+00	1.143167e-04	
694	1.450000e+00	1.178984e-04	
695	1.500000e+00	1.214464e-04	
696	1.550000e+00	1.249609e-04	
697	1.600000e+00	1.284417e-04	
698	1.650000e+00	1.318891e-04	
699	1.700000e+00	1.353030e-04	
700	1.750000e+00	1.386836e-04	
701	1.800000e+00	1.420309e-04	
702	1.850000e+00	1.453449e-04	
703	1.900000e+00	1.486258e-04	
704	1.950000e+00	1.518735e-04	
705	2.000000e+00	1.550883e-04	
706	2.050000e+00	1.582700e-04	
707	2.100000e+00	1.614188e-04	
708	2.150000e+00	1.645348e-04	
709	2.200000e+00	1.676180e-04	
710	2.250000e+00	1.706685e-04	
711	2.300000e+00	1.736863e-04	
712	2.350000e+00	1.766715e-04	
713	2.400000e+00	1.796242e-04	
714	2.450000e+00	1.825444e-04	
715	2.500000e+00	1.854322e-04	
716	2.550000e+00	1.882876e-04	
717	2.600000e+00	1.911108e-04	
718	2.650000e+00	1.939017e-04	
719	2.700000e+00	1.966605e-04	
720	2.750000e+00	1.993872e-04	
721	2.800000e+00	2.020818e-04	
722	2.850000e+00	2.047444e-04	
723	2.900000e+00	2.073752e-04	
724	2.950000e+00	2.099740e-04	
725	3.000000e+00	2.125411e-04	
726	3.050000e+00	2.150765e-04	
727	3.100000e+00	2.175801e-04	
728	3.150000e+00	2.200522e-04	
729	3.200000e+00	2.224927e-04	
730	3.250000e+00	2.249017e-04	
731	3.300000e+00	2.272793e-04	
732	3.350000e+00	2.296255e-04	
733	3.400000e+00	2.319403e-04	
734	3.450000e+00	2.342240e-04	
735	3.500000e+00	2.364764e-04	
736	3.550000e+00	2.386977e-04	
737	3.600000e+00	2.408879e-04	
738	3.650000e+00	2.430471e-04	
739	3.700000e+00	2.451753e-04	
740	3.750000e+00	2.472726e-04	
741	3.800000e+00	2.493391e-04	
742	3.850000e+00	2.513748e-04	
743	3.900000e+00	2.533797e-04	
744	3.950000e+00	2.553540e-04	
745	4.000000e+00	2.572977e-04	
746	4.050000e+00	2.592108e-04	
747	4.100000e+00	2.610934e-04	
748	4.150000e+00	2.629456e-04	
749	4.200000e+00	2.647674e-04	
750	4.250000e+00	2.665589e-04	

Index   v-sweep         -i(vds)         
--------------------------------------------------------------------------------
751	4.300000e+00	2.683201e-04	
752	4.350000e+00	2.700510e-04	
753	4.400000e+00	2.717518e-04	
754	4.450000e+00	2.734225e-04	
755	4.500000e+00	2.750632e-04	
756	4.550000e+00	2.766739e-04	
757	4.600000e+00	2.782546e-04	
758	4.650000e+00	2.798054e-04	
759	4.700000e+00	2.813264e-04	
760	4.750000e+00	2.828176e-04	
761	4.800000e+00	2.842791e-04	
762	4.850000e+00	2.857110e-04	
763	4.900000e+00	2.871132e-04	
764	4.950000e+00	2.884858e-04	
765	5.000000e+00	2.898289e-04	
766	5.050000e+00	2.911425e-04	
767	5.100000e+00	2.924267e-04	
768	5.150000e+00	2.936816e-04	
769	5.200000e+00	2.949071e-04	
770	5.250000e+00	2.961032e-04	
771	5.300000e+00	2.972702e-04	
772	5.350000e+00	2.984078e-04	
773	5.400000e+00	2.995163e-04	
774	5.450000e+00	3.005955e-04	
775	5.500000e+00	3.016455e-04	
776	5.550000e+00	3.026663e-04	
777	5.600000e+00	3.036577e-04	
778	5.650000e+00	3.046198e-04	
779	5.700000e+00	3.055523e-04	
780	5.750000e+00	3.064550e-04	
781	5.800000e+00	3.073277e-04	
782	5.850000e+00	3.081697e-04	
783	5.900000e+00	3.089806e-04	
784	5.950000e+00	3.097594e-04	
785	6.000000e+00	3.105051e-04	
786	6.050000e+00	3.112164e-04	
787	6.100000e+00	3.118924e-04	
788	6.150000e+00	3.125322e-04	
789	6.200000e+00	3.131357e-04	
790	6.250000e+00	3.137036e-04	
791	6.300000e+00	3.142373e-04	
792	6.350000e+00	3.147389e-04	
793	6.400000e+00	3.152106e-04	
794	6.450000e+00	3.156549e-04	
795	6.500000e+00	3.160742e-04	
796	6.550000e+00	3.164708e-04	
797	6.600000e+00	3.168467e-04	
Note: No ".plot", ".print", or ".fourier" lines; no simulations run
