
Note: Compatibility modes selected: hs

Warning: m=xx on .subckt line will override multiplier m hierarchy!


Circuit: ***************************

Doing analysis at TEMP = 125.000000 and TNOM = 125.000000


No. of Data Rows : 798
                          ***************************
                          DC transfer characteristic  Mon Jan  9 13:58:05  2023
--------------------------------------------------------------------------------
Index   v-sweep         -i(vds)         
--------------------------------------------------------------------------------
0	0.000000e+00	-0.000000e+00	
1	5.000000e-02	3.807770e-07	
2	1.000000e-01	7.083596e-07	
3	1.500000e-01	9.918720e-07	
4	2.000000e-01	1.233780e-06	
5	2.500000e-01	1.434906e-06	
6	3.000000e-01	1.595745e-06	
7	3.500000e-01	1.716968e-06	
8	4.000000e-01	1.800249e-06	
9	4.500000e-01	1.850762e-06	
10	5.000000e-01	1.879952e-06	
11	5.500000e-01	1.899500e-06	
12	6.000000e-01	1.914922e-06	
13	6.500000e-01	1.928094e-06	
14	7.000000e-01	1.939746e-06	
15	7.500000e-01	1.950251e-06	
16	8.000000e-01	1.959838e-06	
17	8.500000e-01	1.968664e-06	
18	9.000000e-01	1.976847e-06	
19	9.500000e-01	1.984476e-06	
20	1.000000e+00	1.991623e-06	
21	1.050000e+00	1.998348e-06	
22	1.100000e+00	2.004696e-06	
23	1.150000e+00	2.010710e-06	
24	1.200000e+00	2.016422e-06	
25	1.250000e+00	2.021861e-06	
26	1.300000e+00	2.027054e-06	
27	1.350000e+00	2.032020e-06	
28	1.400000e+00	2.036779e-06	
29	1.450000e+00	2.041349e-06	
30	1.500000e+00	2.045742e-06	
31	1.550000e+00	2.049973e-06	
32	1.600000e+00	2.054054e-06	
33	1.650000e+00	2.057994e-06	
34	1.700000e+00	2.061802e-06	
35	1.750000e+00	2.065489e-06	
36	1.800000e+00	2.069060e-06	
37	1.850000e+00	2.072523e-06	
38	1.900000e+00	2.075885e-06	
39	1.950000e+00	2.079151e-06	
40	2.000000e+00	2.082327e-06	
41	2.050000e+00	2.085417e-06	
42	2.100000e+00	2.088427e-06	
43	2.150000e+00	2.091359e-06	
44	2.200000e+00	2.094219e-06	
45	2.250000e+00	2.097009e-06	
46	2.300000e+00	2.099733e-06	
47	2.350000e+00	2.102394e-06	
48	2.400000e+00	2.104995e-06	
49	2.450000e+00	2.107539e-06	
50	2.500000e+00	2.110028e-06	
51	2.550000e+00	2.112465e-06	
52	2.600000e+00	2.114851e-06	
53	2.650000e+00	2.117190e-06	
54	2.700000e+00	2.119482e-06	

Index   v-sweep         -i(vds)         
--------------------------------------------------------------------------------
55	2.750000e+00	2.121730e-06	
56	2.800000e+00	2.123935e-06	
57	2.850000e+00	2.126099e-06	
58	2.900000e+00	2.128224e-06	
59	2.950000e+00	2.130312e-06	
60	3.000000e+00	2.132363e-06	
61	3.050000e+00	2.134378e-06	
62	3.100000e+00	2.136360e-06	
63	3.150000e+00	2.138309e-06	
64	3.200000e+00	2.140227e-06	
65	3.250000e+00	2.142114e-06	
66	3.300000e+00	2.143972e-06	
67	3.350000e+00	2.145802e-06	
68	3.400000e+00	2.147604e-06	
69	3.450000e+00	2.149379e-06	
70	3.500000e+00	2.151129e-06	
71	3.550000e+00	2.152854e-06	
72	3.600000e+00	2.154555e-06	
73	3.650000e+00	2.156233e-06	
74	3.700000e+00	2.157888e-06	
75	3.750000e+00	2.159521e-06	
76	3.800000e+00	2.161133e-06	
77	3.850000e+00	2.162724e-06	
78	3.900000e+00	2.164295e-06	
79	3.950000e+00	2.165847e-06	
80	4.000000e+00	2.167380e-06	
81	4.050000e+00	2.168895e-06	
82	4.100000e+00	2.170391e-06	
83	4.150000e+00	2.171871e-06	
84	4.200000e+00	2.173334e-06	
85	4.250000e+00	2.174780e-06	
86	4.300000e+00	2.176211e-06	
87	4.350000e+00	2.177626e-06	
88	4.400000e+00	2.179026e-06	
89	4.450000e+00	2.180411e-06	
90	4.500000e+00	2.181782e-06	
91	4.550000e+00	2.183139e-06	
92	4.600000e+00	2.184483e-06	
93	4.650000e+00	2.185813e-06	
94	4.700000e+00	2.187130e-06	
95	4.750000e+00	2.188435e-06	
96	4.800000e+00	2.189728e-06	
97	4.850000e+00	2.191009e-06	
98	4.900000e+00	2.192278e-06	
99	4.950000e+00	2.193536e-06	
100	5.000000e+00	2.194783e-06	
101	5.050000e+00	2.196019e-06	
102	5.100000e+00	2.197244e-06	
103	5.150000e+00	2.198459e-06	
104	5.200000e+00	2.199664e-06	
105	5.250000e+00	2.200859e-06	
106	5.300000e+00	2.202045e-06	
107	5.350000e+00	2.203221e-06	
108	5.400000e+00	2.204388e-06	
109	5.450000e+00	2.205545e-06	
110	5.500000e+00	2.206695e-06	
111	5.550000e+00	2.207835e-06	
112	5.600000e+00	2.208967e-06	

Index   v-sweep         -i(vds)         
--------------------------------------------------------------------------------
113	5.650000e+00	2.210091e-06	
114	5.700000e+00	2.211207e-06	
115	5.750000e+00	2.212315e-06	
116	5.800000e+00	2.213415e-06	
117	5.850000e+00	2.214508e-06	
118	5.900000e+00	2.215593e-06	
119	5.950000e+00	2.216671e-06	
120	6.000000e+00	2.217742e-06	
121	6.050000e+00	2.218806e-06	
122	6.100000e+00	2.219864e-06	
123	6.150000e+00	2.220914e-06	
124	6.200000e+00	2.221958e-06	
125	6.250000e+00	2.222996e-06	
126	6.300000e+00	2.224027e-06	
127	6.350000e+00	2.225052e-06	
128	6.400000e+00	2.226071e-06	
129	6.450000e+00	2.227084e-06	
130	6.500000e+00	2.228091e-06	
131	6.550000e+00	2.229093e-06	
132	6.600000e+00	2.230089e-06	
133	0.000000e+00	-0.000000e+00	
134	5.000000e-02	1.117327e-06	
135	1.000000e-01	2.184255e-06	
136	1.500000e-01	3.209891e-06	
137	2.000000e-01	4.196670e-06	
138	2.500000e-01	5.145351e-06	
139	3.000000e-01	6.056272e-06	
140	3.500000e-01	6.929665e-06	
141	4.000000e-01	7.765733e-06	
142	4.500000e-01	8.564671e-06	
143	5.000000e-01	9.326673e-06	
144	5.500000e-01	1.005193e-05	
145	6.000000e-01	1.074063e-05	
146	6.500000e-01	1.139297e-05	
147	7.000000e-01	1.200913e-05	
148	7.500000e-01	1.258930e-05	
149	8.000000e-01	1.313368e-05	
150	8.500000e-01	1.364244e-05	
151	9.000000e-01	1.411578e-05	
152	9.500000e-01	1.455389e-05	
153	1.000000e+00	1.495698e-05	
154	1.050000e+00	1.532526e-05	
155	1.100000e+00	1.565898e-05	
156	1.150000e+00	1.595841e-05	
157	1.200000e+00	1.622398e-05	
158	1.250000e+00	1.645633e-05	
159	1.300000e+00	1.665666e-05	
160	1.350000e+00	1.682721e-05	
161	1.400000e+00	1.697175e-05	
162	1.450000e+00	1.709518e-05	
163	1.500000e+00	1.720222e-05	
164	1.550000e+00	1.729662e-05	
165	1.600000e+00	1.738107e-05	
166	1.650000e+00	1.745748e-05	
167	1.700000e+00	1.752728e-05	
168	1.750000e+00	1.759152e-05	
169	1.800000e+00	1.765103e-05	
170	1.850000e+00	1.770647e-05	

Index   v-sweep         -i(vds)         
--------------------------------------------------------------------------------
171	1.900000e+00	1.775835e-05	
172	1.950000e+00	1.780711e-05	
173	2.000000e+00	1.785310e-05	
174	2.050000e+00	1.789662e-05	
175	2.100000e+00	1.793792e-05	
176	2.150000e+00	1.797722e-05	
177	2.200000e+00	1.801470e-05	
178	2.250000e+00	1.805053e-05	
179	2.300000e+00	1.808484e-05	
180	2.350000e+00	1.811775e-05	
181	2.400000e+00	1.814939e-05	
182	2.450000e+00	1.817984e-05	
183	2.500000e+00	1.820918e-05	
184	2.550000e+00	1.823750e-05	
185	2.600000e+00	1.826487e-05	
186	2.650000e+00	1.829134e-05	
187	2.700000e+00	1.831698e-05	
188	2.750000e+00	1.834183e-05	
189	2.800000e+00	1.836594e-05	
190	2.850000e+00	1.838936e-05	
191	2.900000e+00	1.841212e-05	
192	2.950000e+00	1.843426e-05	
193	3.000000e+00	1.845582e-05	
194	3.050000e+00	1.847682e-05	
195	3.100000e+00	1.849729e-05	
196	3.150000e+00	1.851725e-05	
197	3.200000e+00	1.853674e-05	
198	3.250000e+00	1.855578e-05	
199	3.300000e+00	1.857438e-05	
200	3.350000e+00	1.859256e-05	
201	3.400000e+00	1.861035e-05	
202	3.450000e+00	1.862776e-05	
203	3.500000e+00	1.864481e-05	
204	3.550000e+00	1.866151e-05	
205	3.600000e+00	1.867788e-05	
206	3.650000e+00	1.869393e-05	
207	3.700000e+00	1.870968e-05	
208	3.750000e+00	1.872513e-05	
209	3.800000e+00	1.874029e-05	
210	3.850000e+00	1.875519e-05	
211	3.900000e+00	1.876982e-05	
212	3.950000e+00	1.878420e-05	
213	4.000000e+00	1.879834e-05	
214	4.050000e+00	1.881224e-05	
215	4.100000e+00	1.882592e-05	
216	4.150000e+00	1.883938e-05	
217	4.200000e+00	1.885263e-05	
218	4.250000e+00	1.886568e-05	
219	4.300000e+00	1.887853e-05	
220	4.350000e+00	1.889119e-05	
221	4.400000e+00	1.890366e-05	
222	4.450000e+00	1.891596e-05	
223	4.500000e+00	1.892809e-05	
224	4.550000e+00	1.894005e-05	
225	4.600000e+00	1.895185e-05	
226	4.650000e+00	1.896350e-05	
227	4.700000e+00	1.897499e-05	
228	4.750000e+00	1.898634e-05	

Index   v-sweep         -i(vds)         
--------------------------------------------------------------------------------
229	4.800000e+00	1.899755e-05	
230	4.850000e+00	1.900861e-05	
231	4.900000e+00	1.901955e-05	
232	4.950000e+00	1.903035e-05	
233	5.000000e+00	1.904103e-05	
234	5.050000e+00	1.905159e-05	
235	5.100000e+00	1.906202e-05	
236	5.150000e+00	1.907234e-05	
237	5.200000e+00	1.908255e-05	
238	5.250000e+00	1.909265e-05	
239	5.300000e+00	1.910265e-05	
240	5.350000e+00	1.911254e-05	
241	5.400000e+00	1.912233e-05	
242	5.450000e+00	1.913203e-05	
243	5.500000e+00	1.914162e-05	
244	5.550000e+00	1.915113e-05	
245	5.600000e+00	1.916055e-05	
246	5.650000e+00	1.916987e-05	
247	5.700000e+00	1.917912e-05	
248	5.750000e+00	1.918828e-05	
249	5.800000e+00	1.919735e-05	
250	5.850000e+00	1.920635e-05	
251	5.900000e+00	1.921527e-05	
252	5.950000e+00	1.922412e-05	
253	6.000000e+00	1.923289e-05	
254	6.050000e+00	1.924160e-05	
255	6.100000e+00	1.925023e-05	
256	6.150000e+00	1.925879e-05	
257	6.200000e+00	1.926729e-05	
258	6.250000e+00	1.927572e-05	
259	6.300000e+00	1.928409e-05	
260	6.350000e+00	1.929239e-05	
261	6.400000e+00	1.930064e-05	
262	6.450000e+00	1.930882e-05	
263	6.500000e+00	1.931695e-05	
264	6.550000e+00	1.932502e-05	
265	6.600000e+00	1.933304e-05	
266	0.000000e+00	-0.000000e+00	
267	5.000000e-02	1.638627e-06	
268	1.000000e-01	3.231500e-06	
269	1.500000e-01	4.787692e-06	
270	2.000000e-01	6.309604e-06	
271	2.500000e-01	7.797961e-06	
272	3.000000e-01	9.253067e-06	
273	3.500000e-01	1.067512e-05	
274	4.000000e-01	1.206429e-05	
275	4.500000e-01	1.342073e-05	
276	5.000000e-01	1.474462e-05	
277	5.500000e-01	1.603610e-05	
278	6.000000e-01	1.729534e-05	
279	6.500000e-01	1.852248e-05	
280	7.000000e-01	1.971769e-05	
281	7.500000e-01	2.088112e-05	
282	8.000000e-01	2.201292e-05	
283	8.500000e-01	2.311324e-05	
284	9.000000e-01	2.418224e-05	
285	9.500000e-01	2.522007e-05	
286	1.000000e+00	2.622687e-05	

Index   v-sweep         -i(vds)         
--------------------------------------------------------------------------------
287	1.050000e+00	2.720279e-05	
288	1.100000e+00	2.814798e-05	
289	1.150000e+00	2.906259e-05	
290	1.200000e+00	2.994676e-05	
291	1.250000e+00	3.080064e-05	
292	1.300000e+00	3.162436e-05	
293	1.350000e+00	3.241808e-05	
294	1.400000e+00	3.318194e-05	
295	1.450000e+00	3.391607e-05	
296	1.500000e+00	3.462062e-05	
297	1.550000e+00	3.529572e-05	
298	1.600000e+00	3.594152e-05	
299	1.650000e+00	3.655814e-05	
300	1.700000e+00	3.714573e-05	
301	1.750000e+00	3.770442e-05	
302	1.800000e+00	3.823434e-05	
303	1.850000e+00	3.873563e-05	
304	1.900000e+00	3.920839e-05	
305	1.950000e+00	3.965276e-05	
306	2.000000e+00	4.006883e-05	
307	2.050000e+00	4.045670e-05	
308	2.100000e+00	4.081642e-05	
309	2.150000e+00	4.114806e-05	
310	2.200000e+00	4.145175e-05	
311	2.250000e+00	4.172792e-05	
312	2.300000e+00	4.197770e-05	
313	2.350000e+00	4.220308e-05	
314	2.400000e+00	4.240675e-05	
315	2.450000e+00	4.259162e-05	
316	2.500000e+00	4.276036e-05	
317	2.550000e+00	4.291533e-05	
318	2.600000e+00	4.305847e-05	
319	2.650000e+00	4.319138e-05	
320	2.700000e+00	4.331540e-05	
321	2.750000e+00	4.343161e-05	
322	2.800000e+00	4.354092e-05	
323	2.850000e+00	4.364409e-05	
324	2.900000e+00	4.374178e-05	
325	2.950000e+00	4.383454e-05	
326	3.000000e+00	4.392283e-05	
327	3.050000e+00	4.400706e-05	
328	3.100000e+00	4.408758e-05	
329	3.150000e+00	4.416472e-05	
330	3.200000e+00	4.423874e-05	
331	3.250000e+00	4.430989e-05	
332	3.300000e+00	4.437837e-05	
333	3.350000e+00	4.444438e-05	
334	3.400000e+00	4.450810e-05	
335	3.450000e+00	4.456967e-05	
336	3.500000e+00	4.462924e-05	
337	3.550000e+00	4.468693e-05	
338	3.600000e+00	4.474285e-05	
339	3.650000e+00	4.479712e-05	
340	3.700000e+00	4.484983e-05	
341	3.750000e+00	4.490106e-05	
342	3.800000e+00	4.495090e-05	
343	3.850000e+00	4.499941e-05	
344	3.900000e+00	4.504668e-05	

Index   v-sweep         -i(vds)         
--------------------------------------------------------------------------------
345	3.950000e+00	4.509276e-05	
346	4.000000e+00	4.513770e-05	
347	4.050000e+00	4.518158e-05	
348	4.100000e+00	4.522443e-05	
349	4.150000e+00	4.526630e-05	
350	4.200000e+00	4.530724e-05	
351	4.250000e+00	4.534729e-05	
352	4.300000e+00	4.538649e-05	
353	4.350000e+00	4.542488e-05	
354	4.400000e+00	4.546248e-05	
355	4.450000e+00	4.549934e-05	
356	4.500000e+00	4.553548e-05	
357	4.550000e+00	4.557092e-05	
358	4.600000e+00	4.560571e-05	
359	4.650000e+00	4.563986e-05	
360	4.700000e+00	4.567340e-05	
361	4.750000e+00	4.570635e-05	
362	4.800000e+00	4.573873e-05	
363	4.850000e+00	4.577056e-05	
364	4.900000e+00	4.580187e-05	
365	4.950000e+00	4.583267e-05	
366	5.000000e+00	4.586299e-05	
367	5.050000e+00	4.589282e-05	
368	5.100000e+00	4.592221e-05	
369	5.150000e+00	4.595115e-05	
370	5.200000e+00	4.597966e-05	
371	5.250000e+00	4.600776e-05	
372	5.300000e+00	4.603547e-05	
373	5.350000e+00	4.606279e-05	
374	5.400000e+00	4.608973e-05	
375	5.450000e+00	4.611632e-05	
376	5.500000e+00	4.614255e-05	
377	5.550000e+00	4.616845e-05	
378	5.600000e+00	4.619401e-05	
379	5.650000e+00	4.621926e-05	
380	5.700000e+00	4.624420e-05	
381	5.750000e+00	4.626884e-05	
382	5.800000e+00	4.629319e-05	
383	5.850000e+00	4.631726e-05	
384	5.900000e+00	4.634105e-05	
385	5.950000e+00	4.636458e-05	
386	6.000000e+00	4.638785e-05	
387	6.050000e+00	4.641087e-05	
388	6.100000e+00	4.643365e-05	
389	6.150000e+00	4.645618e-05	
390	6.200000e+00	4.647849e-05	
391	6.250000e+00	4.650057e-05	
392	6.300000e+00	4.652244e-05	
393	6.350000e+00	4.654409e-05	
394	6.400000e+00	4.656554e-05	
395	6.450000e+00	4.658678e-05	
396	6.500000e+00	4.660783e-05	
397	6.550000e+00	4.662869e-05	
398	6.600000e+00	4.664937e-05	
399	0.000000e+00	-0.000000e+00	
400	5.000000e-02	2.018867e-06	
401	1.000000e-01	3.996201e-06	
402	1.500000e-01	5.941045e-06	

Index   v-sweep         -i(vds)         
--------------------------------------------------------------------------------
403	2.000000e-01	7.855763e-06	
404	2.500000e-01	9.741049e-06	
405	3.000000e-01	1.159717e-05	
406	3.500000e-01	1.342431e-05	
407	4.000000e-01	1.522258e-05	
408	4.500000e-01	1.699212e-05	
409	5.000000e-01	1.873307e-05	
410	5.500000e-01	2.044555e-05	
411	6.000000e-01	2.212968e-05	
412	6.500000e-01	2.378559e-05	
413	7.000000e-01	2.541341e-05	
414	7.500000e-01	2.701326e-05	
415	8.000000e-01	2.858526e-05	
416	8.500000e-01	3.012953e-05	
417	9.000000e-01	3.164620e-05	
418	9.500000e-01	3.313539e-05	
419	1.000000e+00	3.459722e-05	
420	1.050000e+00	3.603180e-05	
421	1.100000e+00	3.743927e-05	
422	1.150000e+00	3.881972e-05	
423	1.200000e+00	4.017329e-05	
424	1.250000e+00	4.150009e-05	
425	1.300000e+00	4.280024e-05	
426	1.350000e+00	4.407384e-05	
427	1.400000e+00	4.532103e-05	
428	1.450000e+00	4.654190e-05	
429	1.500000e+00	4.773658e-05	
430	1.550000e+00	4.890517e-05	
431	1.600000e+00	5.004779e-05	
432	1.650000e+00	5.116456e-05	
433	1.700000e+00	5.225557e-05	
434	1.750000e+00	5.332095e-05	
435	1.800000e+00	5.436079e-05	
436	1.850000e+00	5.537522e-05	
437	1.900000e+00	5.636434e-05	
438	1.950000e+00	5.732825e-05	
439	2.000000e+00	5.826706e-05	
440	2.050000e+00	5.918088e-05	
441	2.100000e+00	6.006981e-05	
442	2.150000e+00	6.093396e-05	
443	2.200000e+00	6.177343e-05	
444	2.250000e+00	6.258832e-05	
445	2.300000e+00	6.337873e-05	
446	2.350000e+00	6.414476e-05	
447	2.400000e+00	6.488651e-05	
448	2.450000e+00	6.560408e-05	
449	2.500000e+00	6.629754e-05	
450	2.550000e+00	6.696699e-05	
451	2.600000e+00	6.761251e-05	
452	2.650000e+00	6.823417e-05	
453	2.700000e+00	6.883200e-05	
454	2.750000e+00	6.940605e-05	
455	2.800000e+00	6.995630e-05	
456	2.850000e+00	7.048266e-05	
457	2.900000e+00	7.098496e-05	
458	2.950000e+00	7.146285e-05	
459	3.000000e+00	7.191577e-05	
460	3.050000e+00	7.234289e-05	

Index   v-sweep         -i(vds)         
--------------------------------------------------------------------------------
461	3.100000e+00	7.274321e-05	
462	3.150000e+00	7.311588e-05	
463	3.200000e+00	7.346072e-05	
464	3.250000e+00	7.377860e-05	
465	3.300000e+00	7.407130e-05	
466	3.350000e+00	7.434121e-05	
467	3.400000e+00	7.459083e-05	
468	3.450000e+00	7.482253e-05	
469	3.500000e+00	7.503845e-05	
470	3.550000e+00	7.524045e-05	
471	3.600000e+00	7.543011e-05	
472	3.650000e+00	7.560879e-05	
473	3.700000e+00	7.577765e-05	
474	3.750000e+00	7.593770e-05	
475	3.800000e+00	7.608979e-05	
476	3.850000e+00	7.623466e-05	
477	3.900000e+00	7.637296e-05	
478	3.950000e+00	7.650525e-05	
479	4.000000e+00	7.663203e-05	
480	4.050000e+00	7.675374e-05	
481	4.100000e+00	7.687076e-05	
482	4.150000e+00	7.698344e-05	
483	4.200000e+00	7.709208e-05	
484	4.250000e+00	7.719698e-05	
485	4.300000e+00	7.729837e-05	
486	4.350000e+00	7.739648e-05	
487	4.400000e+00	7.749152e-05	
488	4.450000e+00	7.758367e-05	
489	4.500000e+00	7.767311e-05	
490	4.550000e+00	7.775998e-05	
491	4.600000e+00	7.784444e-05	
492	4.650000e+00	7.792661e-05	
493	4.700000e+00	7.800661e-05	
494	4.750000e+00	7.808456e-05	
495	4.800000e+00	7.816056e-05	
496	4.850000e+00	7.823470e-05	
497	4.900000e+00	7.830708e-05	
498	4.950000e+00	7.837777e-05	
499	5.000000e+00	7.844687e-05	
500	5.050000e+00	7.851443e-05	
501	5.100000e+00	7.858052e-05	
502	5.150000e+00	7.864522e-05	
503	5.200000e+00	7.870857e-05	
504	5.250000e+00	7.877064e-05	
505	5.300000e+00	7.883148e-05	
506	5.350000e+00	7.889114e-05	
507	5.400000e+00	7.894966e-05	
508	5.450000e+00	7.900709e-05	
509	5.500000e+00	7.906348e-05	
510	5.550000e+00	7.911886e-05	
511	5.600000e+00	7.917327e-05	
512	5.650000e+00	7.922674e-05	
513	5.700000e+00	7.927932e-05	
514	5.750000e+00	7.933103e-05	
515	5.800000e+00	7.938190e-05	
516	5.850000e+00	7.943196e-05	
517	5.900000e+00	7.948125e-05	
518	5.950000e+00	7.952979e-05	

Index   v-sweep         -i(vds)         
--------------------------------------------------------------------------------
519	6.000000e+00	7.957760e-05	
520	6.050000e+00	7.962471e-05	
521	6.100000e+00	7.967114e-05	
522	6.150000e+00	7.971691e-05	
523	6.200000e+00	7.976205e-05	
524	6.250000e+00	7.980657e-05	
525	6.300000e+00	7.985051e-05	
526	6.350000e+00	7.989386e-05	
527	6.400000e+00	7.993666e-05	
528	6.450000e+00	7.997891e-05	
529	6.500000e+00	8.002065e-05	
530	6.550000e+00	8.006187e-05	
531	6.600000e+00	8.010260e-05	
532	0.000000e+00	-0.000000e+00	
533	5.000000e-02	2.301339e-06	
534	1.000000e-01	4.564851e-06	
535	1.500000e-01	6.799546e-06	
536	2.000000e-01	9.007765e-06	
537	2.500000e-01	1.119017e-05	
538	3.000000e-01	1.334702e-05	
539	3.500000e-01	1.547843e-05	
540	4.000000e-01	1.758454e-05	
541	4.500000e-01	1.966543e-05	
542	5.000000e-01	2.172121e-05	
543	5.500000e-01	2.375199e-05	
544	6.000000e-01	2.575786e-05	
545	6.500000e-01	2.773893e-05	
546	7.000000e-01	2.969529e-05	
547	7.500000e-01	3.162704e-05	
548	8.000000e-01	3.353429e-05	
549	8.500000e-01	3.541712e-05	
550	9.000000e-01	3.727564e-05	
551	9.500000e-01	3.910995e-05	
552	1.000000e+00	4.092014e-05	
553	1.050000e+00	4.270630e-05	
554	1.100000e+00	4.446854e-05	
555	1.150000e+00	4.620695e-05	
556	1.200000e+00	4.792162e-05	
557	1.250000e+00	4.961264e-05	
558	1.300000e+00	5.128011e-05	
559	1.350000e+00	5.292413e-05	
560	1.400000e+00	5.454478e-05	
561	1.450000e+00	5.614216e-05	
562	1.500000e+00	5.771635e-05	
563	1.550000e+00	5.926746e-05	
564	1.600000e+00	6.079556e-05	
565	1.650000e+00	6.230076e-05	
566	1.700000e+00	6.378313e-05	
567	1.750000e+00	6.524278e-05	
568	1.800000e+00	6.667978e-05	
569	1.850000e+00	6.809423e-05	
570	1.900000e+00	6.948621e-05	
571	1.950000e+00	7.085581e-05	
572	2.000000e+00	7.220312e-05	
573	2.050000e+00	7.352822e-05	
574	2.100000e+00	7.483120e-05	
575	2.150000e+00	7.611215e-05	
576	2.200000e+00	7.737115e-05	

Index   v-sweep         -i(vds)         
--------------------------------------------------------------------------------
577	2.250000e+00	7.860828e-05	
578	2.300000e+00	7.982363e-05	
579	2.350000e+00	8.101729e-05	
580	2.400000e+00	8.218932e-05	
581	2.450000e+00	8.333983e-05	
582	2.500000e+00	8.446889e-05	
583	2.550000e+00	8.557657e-05	
584	2.600000e+00	8.666297e-05	
585	2.650000e+00	8.772816e-05	
586	2.700000e+00	8.877223e-05	
587	2.750000e+00	8.979525e-05	
588	2.800000e+00	9.079729e-05	
589	2.850000e+00	9.177845e-05	
590	2.900000e+00	9.273879e-05	
591	2.950000e+00	9.367840e-05	
592	3.000000e+00	9.459734e-05	
593	3.050000e+00	9.549570e-05	
594	3.100000e+00	9.637354e-05	
595	3.150000e+00	9.723093e-05	
596	3.200000e+00	9.806794e-05	
597	3.250000e+00	9.888465e-05	
598	3.300000e+00	9.968110e-05	
599	3.350000e+00	1.004574e-04	
600	3.400000e+00	1.012135e-04	
601	3.450000e+00	1.019495e-04	
602	3.500000e+00	1.026654e-04	
603	3.550000e+00	1.033613e-04	
604	3.600000e+00	1.040370e-04	
605	3.650000e+00	1.046925e-04	
606	3.700000e+00	1.053277e-04	
607	3.750000e+00	1.059423e-04	
608	3.800000e+00	1.065357e-04	
609	3.850000e+00	1.071075e-04	
610	3.900000e+00	1.076564e-04	
611	3.950000e+00	1.081812e-04	
612	4.000000e+00	1.086800e-04	
613	4.050000e+00	1.091513e-04	
614	4.100000e+00	1.095937e-04	
615	4.150000e+00	1.100073e-04	
616	4.200000e+00	1.103928e-04	
617	4.250000e+00	1.107521e-04	
618	4.300000e+00	1.110871e-04	
619	4.350000e+00	1.114003e-04	
620	4.400000e+00	1.116938e-04	
621	4.450000e+00	1.119697e-04	
622	4.500000e+00	1.122297e-04	
623	4.550000e+00	1.124756e-04	
624	4.600000e+00	1.127086e-04	
625	4.650000e+00	1.129300e-04	
626	4.700000e+00	1.131409e-04	
627	4.750000e+00	1.133422e-04	
628	4.800000e+00	1.135347e-04	
629	4.850000e+00	1.137191e-04	
630	4.900000e+00	1.138961e-04	
631	4.950000e+00	1.140662e-04	
632	5.000000e+00	1.142300e-04	
633	5.050000e+00	1.143879e-04	
634	5.100000e+00	1.145403e-04	

Index   v-sweep         -i(vds)         
--------------------------------------------------------------------------------
635	5.150000e+00	1.146875e-04	
636	5.200000e+00	1.148300e-04	
637	5.250000e+00	1.149679e-04	
638	5.300000e+00	1.151017e-04	
639	5.350000e+00	1.152315e-04	
640	5.400000e+00	1.153575e-04	
641	5.450000e+00	1.154800e-04	
642	5.500000e+00	1.155992e-04	
643	5.550000e+00	1.157152e-04	
644	5.600000e+00	1.158282e-04	
645	5.650000e+00	1.159384e-04	
646	5.700000e+00	1.160458e-04	
647	5.750000e+00	1.161507e-04	
648	5.800000e+00	1.162531e-04	
649	5.850000e+00	1.163532e-04	
650	5.900000e+00	1.164511e-04	
651	5.950000e+00	1.165468e-04	
652	6.000000e+00	1.166405e-04	
653	6.050000e+00	1.167322e-04	
654	6.100000e+00	1.168220e-04	
655	6.150000e+00	1.169101e-04	
656	6.200000e+00	1.169964e-04	
657	6.250000e+00	1.170811e-04	
658	6.300000e+00	1.171642e-04	
659	6.350000e+00	1.172458e-04	
660	6.400000e+00	1.173259e-04	
661	6.450000e+00	1.174046e-04	
662	6.500000e+00	1.174819e-04	
663	6.550000e+00	1.175580e-04	
664	6.600000e+00	1.176327e-04	
665	0.000000e+00	-0.000000e+00	
666	5.000000e-02	2.513546e-06	
667	1.000000e-01	4.992483e-06	
668	1.500000e-01	7.445802e-06	
669	2.000000e-01	9.875822e-06	
670	2.500000e-01	1.228319e-05	
671	3.000000e-01	1.466812e-05	
672	3.500000e-01	1.703074e-05	
673	4.000000e-01	1.937114e-05	
674	4.500000e-01	2.168940e-05	
675	5.000000e-01	2.398561e-05	
676	5.500000e-01	2.625983e-05	
677	6.000000e-01	2.851217e-05	
678	6.500000e-01	3.074268e-05	
679	7.000000e-01	3.295147e-05	
680	7.500000e-01	3.513860e-05	
681	8.000000e-01	3.730415e-05	
682	8.500000e-01	3.944820e-05	
683	9.000000e-01	4.157083e-05	
684	9.500000e-01	4.367212e-05	
685	1.000000e+00	4.575215e-05	
686	1.050000e+00	4.781098e-05	
687	1.100000e+00	4.984871e-05	
688	1.150000e+00	5.186540e-05	
689	1.200000e+00	5.386114e-05	
690	1.250000e+00	5.583599e-05	
691	1.300000e+00	5.779003e-05	
692	1.350000e+00	5.972334e-05	

Index   v-sweep         -i(vds)         
--------------------------------------------------------------------------------
693	1.400000e+00	6.163599e-05	
694	1.450000e+00	6.352805e-05	
695	1.500000e+00	6.539961e-05	
696	1.550000e+00	6.725072e-05	
697	1.600000e+00	6.908148e-05	
698	1.650000e+00	7.089194e-05	
699	1.700000e+00	7.268218e-05	
700	1.750000e+00	7.445228e-05	
701	1.800000e+00	7.620230e-05	
702	1.850000e+00	7.793232e-05	
703	1.900000e+00	7.964240e-05	
704	1.950000e+00	8.133262e-05	
705	2.000000e+00	8.300305e-05	
706	2.050000e+00	8.465376e-05	
707	2.100000e+00	8.628482e-05	
708	2.150000e+00	8.789629e-05	
709	2.200000e+00	8.948825e-05	
710	2.250000e+00	9.106076e-05	
711	2.300000e+00	9.261390e-05	
712	2.350000e+00	9.414773e-05	
713	2.400000e+00	9.566232e-05	
714	2.450000e+00	9.715773e-05	
715	2.500000e+00	9.863404e-05	
716	2.550000e+00	1.000913e-04	
717	2.600000e+00	1.015296e-04	
718	2.650000e+00	1.029490e-04	
719	2.700000e+00	1.043495e-04	
720	2.750000e+00	1.057313e-04	
721	2.800000e+00	1.070943e-04	
722	2.850000e+00	1.084388e-04	
723	2.900000e+00	1.097646e-04	
724	2.950000e+00	1.110719e-04	
725	3.000000e+00	1.123608e-04	
726	3.050000e+00	1.136312e-04	
727	3.100000e+00	1.148834e-04	
728	3.150000e+00	1.161172e-04	
729	3.200000e+00	1.173329e-04	
730	3.250000e+00	1.185304e-04	
731	3.300000e+00	1.197099e-04	
732	3.350000e+00	1.208713e-04	
733	3.400000e+00	1.220148e-04	
734	3.450000e+00	1.231404e-04	
735	3.500000e+00	1.242482e-04	
736	3.550000e+00	1.253381e-04	
737	3.600000e+00	1.264104e-04	
738	3.650000e+00	1.274650e-04	
739	3.700000e+00	1.285020e-04	
740	3.750000e+00	1.295215e-04	
741	3.800000e+00	1.305234e-04	
742	3.850000e+00	1.315080e-04	
743	3.900000e+00	1.324751e-04	
744	3.950000e+00	1.334250e-04	
745	4.000000e+00	1.343575e-04	
746	4.050000e+00	1.352729e-04	
747	4.100000e+00	1.361710e-04	
748	4.150000e+00	1.370520e-04	
749	4.200000e+00	1.379159e-04	
750	4.250000e+00	1.387628e-04	

Index   v-sweep         -i(vds)         
--------------------------------------------------------------------------------
751	4.300000e+00	1.395926e-04	
752	4.350000e+00	1.404053e-04	
753	4.400000e+00	1.412010e-04	
754	4.450000e+00	1.419796e-04	
755	4.500000e+00	1.427411e-04	
756	4.550000e+00	1.434853e-04	
757	4.600000e+00	1.442120e-04	
758	4.650000e+00	1.449210e-04	
759	4.700000e+00	1.456117e-04	
760	4.750000e+00	1.462835e-04	
761	4.800000e+00	1.469353e-04	
762	4.850000e+00	1.475658e-04	
763	4.900000e+00	1.481732e-04	
764	4.950000e+00	1.487553e-04	
765	5.000000e+00	1.493100e-04	
766	5.050000e+00	1.498358e-04	
767	5.100000e+00	1.503320e-04	
768	5.150000e+00	1.507987e-04	
769	5.200000e+00	1.512373e-04	
770	5.250000e+00	1.516494e-04	
771	5.300000e+00	1.520371e-04	
772	5.350000e+00	1.524026e-04	
773	5.400000e+00	1.527477e-04	
774	5.450000e+00	1.530744e-04	
775	5.500000e+00	1.533844e-04	
776	5.550000e+00	1.536791e-04	
777	5.600000e+00	1.539600e-04	
778	5.650000e+00	1.542282e-04	
779	5.700000e+00	1.544847e-04	
780	5.750000e+00	1.547305e-04	
781	5.800000e+00	1.549665e-04	
782	5.850000e+00	1.551933e-04	
783	5.900000e+00	1.554117e-04	
784	5.950000e+00	1.556222e-04	
785	6.000000e+00	1.558254e-04	
786	6.050000e+00	1.560218e-04	
787	6.100000e+00	1.562118e-04	
788	6.150000e+00	1.563958e-04	
789	6.200000e+00	1.565742e-04	
790	6.250000e+00	1.567472e-04	
791	6.300000e+00	1.569153e-04	
792	6.350000e+00	1.570787e-04	
793	6.400000e+00	1.572376e-04	
794	6.450000e+00	1.573923e-04	
795	6.500000e+00	1.575430e-04	
796	6.550000e+00	1.576899e-04	
797	6.600000e+00	1.578331e-04	
Note: No ".plot", ".print", or ".fourier" lines; no simulations run
