
Note: Compatibility modes selected: hs

Warning: m=xx on .subckt line will override multiplier m hierarchy!


Circuit: ***************************

Doing analysis at TEMP = 125.000000 and TNOM = 125.000000


No. of Data Rows : 798
                          ***************************
                          DC transfer characteristic  Mon Jan  9 13:58:05  2023
--------------------------------------------------------------------------------
Index   v-sweep         -i(vds)         
--------------------------------------------------------------------------------
0	0.000000e+00	-0.000000e+00	
1	5.000000e-02	2.513156e-06	
2	1.000000e-01	4.706015e-06	
3	1.500000e-01	6.614672e-06	
4	2.000000e-01	8.250275e-06	
5	2.500000e-01	9.617914e-06	
6	3.000000e-01	1.072176e-05	
7	3.500000e-01	1.156776e-05	
8	4.000000e-01	1.216976e-05	
9	4.500000e-01	1.256715e-05	
10	5.000000e-01	1.283545e-05	
11	5.500000e-01	1.304048e-05	
12	6.000000e-01	1.321183e-05	
13	6.500000e-01	1.336121e-05	
14	7.000000e-01	1.349437e-05	
15	7.500000e-01	1.361483e-05	
16	8.000000e-01	1.372496e-05	
17	8.500000e-01	1.382650e-05	
18	9.000000e-01	1.392078e-05	
19	9.500000e-01	1.400883e-05	
20	1.000000e+00	1.409146e-05	
21	1.050000e+00	1.416935e-05	
22	1.100000e+00	1.424305e-05	
23	1.150000e+00	1.431303e-05	
24	1.200000e+00	1.437965e-05	
25	1.250000e+00	1.444327e-05	
26	1.300000e+00	1.450416e-05	
27	1.350000e+00	1.456257e-05	
28	1.400000e+00	1.461870e-05	
29	1.450000e+00	1.467276e-05	
30	1.500000e+00	1.472489e-05	
31	1.550000e+00	1.477526e-05	
32	1.600000e+00	1.482399e-05	
33	1.650000e+00	1.487119e-05	
34	1.700000e+00	1.491697e-05	
35	1.750000e+00	1.496143e-05	
36	1.800000e+00	1.500464e-05	
37	1.850000e+00	1.504669e-05	
38	1.900000e+00	1.508765e-05	
39	1.950000e+00	1.512758e-05	
40	2.000000e+00	1.516654e-05	
41	2.050000e+00	1.520458e-05	
42	2.100000e+00	1.524176e-05	
43	2.150000e+00	1.527811e-05	
44	2.200000e+00	1.531369e-05	
45	2.250000e+00	1.534852e-05	
46	2.300000e+00	1.538266e-05	
47	2.350000e+00	1.541612e-05	
48	2.400000e+00	1.544894e-05	
49	2.450000e+00	1.548116e-05	
50	2.500000e+00	1.551279e-05	
51	2.550000e+00	1.554387e-05	
52	2.600000e+00	1.557442e-05	
53	2.650000e+00	1.560446e-05	
54	2.700000e+00	1.563401e-05	

Index   v-sweep         -i(vds)         
--------------------------------------------------------------------------------
55	2.750000e+00	1.566309e-05	
56	2.800000e+00	1.569173e-05	
57	2.850000e+00	1.571993e-05	
58	2.900000e+00	1.574773e-05	
59	2.950000e+00	1.577512e-05	
60	3.000000e+00	1.580213e-05	
61	3.050000e+00	1.582878e-05	
62	3.100000e+00	1.585507e-05	
63	3.150000e+00	1.588102e-05	
64	3.200000e+00	1.590664e-05	
65	3.250000e+00	1.593194e-05	
66	3.300000e+00	1.595693e-05	
67	3.350000e+00	1.598164e-05	
68	3.400000e+00	1.600605e-05	
69	3.450000e+00	1.603019e-05	
70	3.500000e+00	1.605407e-05	
71	3.550000e+00	1.607768e-05	
72	3.600000e+00	1.610105e-05	
73	3.650000e+00	1.612418e-05	
74	3.700000e+00	1.614707e-05	
75	3.750000e+00	1.616974e-05	
76	3.800000e+00	1.619219e-05	
77	3.850000e+00	1.621443e-05	
78	3.900000e+00	1.623646e-05	
79	3.950000e+00	1.625829e-05	
80	4.000000e+00	1.627994e-05	
81	4.050000e+00	1.630139e-05	
82	4.100000e+00	1.632266e-05	
83	4.150000e+00	1.634376e-05	
84	4.200000e+00	1.636469e-05	
85	4.250000e+00	1.638545e-05	
86	4.300000e+00	1.640605e-05	
87	4.350000e+00	1.642649e-05	
88	4.400000e+00	1.644678e-05	
89	4.450000e+00	1.646693e-05	
90	4.500000e+00	1.648692e-05	
91	4.550000e+00	1.650678e-05	
92	4.600000e+00	1.652651e-05	
93	4.650000e+00	1.654610e-05	
94	4.700000e+00	1.656556e-05	
95	4.750000e+00	1.658490e-05	
96	4.800000e+00	1.660412e-05	
97	4.850000e+00	1.662322e-05	
98	4.900000e+00	1.664220e-05	
99	4.950000e+00	1.666107e-05	
100	5.000000e+00	1.667983e-05	
101	5.050000e+00	1.669849e-05	
102	5.100000e+00	1.671704e-05	
103	5.150000e+00	1.673549e-05	
104	5.200000e+00	1.675384e-05	
105	5.250000e+00	1.677209e-05	
106	5.300000e+00	1.679025e-05	
107	5.350000e+00	1.680832e-05	
108	5.400000e+00	1.682630e-05	
109	5.450000e+00	1.684419e-05	
110	5.500000e+00	1.686200e-05	
111	5.550000e+00	1.687973e-05	
112	5.600000e+00	1.689737e-05	

Index   v-sweep         -i(vds)         
--------------------------------------------------------------------------------
113	5.650000e+00	1.691493e-05	
114	5.700000e+00	1.693242e-05	
115	5.750000e+00	1.694983e-05	
116	5.800000e+00	1.696717e-05	
117	5.850000e+00	1.698444e-05	
118	5.900000e+00	1.700163e-05	
119	5.950000e+00	1.701876e-05	
120	6.000000e+00	1.703582e-05	
121	6.050000e+00	1.705282e-05	
122	6.100000e+00	1.706975e-05	
123	6.150000e+00	1.708661e-05	
124	6.200000e+00	1.710342e-05	
125	6.250000e+00	1.712017e-05	
126	6.300000e+00	1.713686e-05	
127	6.350000e+00	1.715349e-05	
128	6.400000e+00	1.717006e-05	
129	6.450000e+00	1.718658e-05	
130	6.500000e+00	1.720305e-05	
131	6.550000e+00	1.721946e-05	
132	6.600000e+00	1.723582e-05	
133	0.000000e+00	-0.000000e+00	
134	5.000000e-02	7.359487e-06	
135	1.000000e-01	1.440351e-05	
136	1.500000e-01	2.116807e-05	
137	2.000000e-01	2.766411e-05	
138	2.500000e-01	3.389626e-05	
139	3.000000e-01	3.986756e-05	
140	3.500000e-01	4.558061e-05	
141	4.000000e-01	5.103789e-05	
142	4.500000e-01	5.624181e-05	
143	5.000000e-01	6.119475e-05	
144	5.500000e-01	6.589908e-05	
145	6.000000e-01	7.035712e-05	
146	6.500000e-01	7.457118e-05	
147	7.000000e-01	7.854353e-05	
148	7.500000e-01	8.227643e-05	
149	8.000000e-01	8.577212e-05	
150	8.500000e-01	8.903282e-05	
151	9.000000e-01	9.206075e-05	
152	9.500000e-01	9.485811e-05	
153	1.000000e+00	9.742714e-05	
154	1.050000e+00	9.977008e-05	
155	1.100000e+00	1.018893e-04	
156	1.150000e+00	1.037875e-04	
157	1.200000e+00	1.054690e-04	
158	1.250000e+00	1.069430e-04	
159	1.300000e+00	1.082281e-04	
160	1.350000e+00	1.093515e-04	
161	1.400000e+00	1.103421e-04	
162	1.450000e+00	1.112251e-04	
163	1.500000e+00	1.120205e-04	
164	1.550000e+00	1.127437e-04	
165	1.600000e+00	1.134065e-04	
166	1.650000e+00	1.140182e-04	
167	1.700000e+00	1.145862e-04	
168	1.750000e+00	1.151163e-04	
169	1.800000e+00	1.156134e-04	
170	1.850000e+00	1.160814e-04	

Index   v-sweep         -i(vds)         
--------------------------------------------------------------------------------
171	1.900000e+00	1.165236e-04	
172	1.950000e+00	1.169427e-04	
173	2.000000e+00	1.173411e-04	
174	2.050000e+00	1.177207e-04	
175	2.100000e+00	1.180833e-04	
176	2.150000e+00	1.184304e-04	
177	2.200000e+00	1.187634e-04	
178	2.250000e+00	1.190832e-04	
179	2.300000e+00	1.193911e-04	
180	2.350000e+00	1.196878e-04	
181	2.400000e+00	1.199743e-04	
182	2.450000e+00	1.202511e-04	
183	2.500000e+00	1.205190e-04	
184	2.550000e+00	1.207785e-04	
185	2.600000e+00	1.210302e-04	
186	2.650000e+00	1.212745e-04	
187	2.700000e+00	1.215119e-04	
188	2.750000e+00	1.217428e-04	
189	2.800000e+00	1.219676e-04	
190	2.850000e+00	1.221865e-04	
191	2.900000e+00	1.224000e-04	
192	2.950000e+00	1.226082e-04	
193	3.000000e+00	1.228115e-04	
194	3.050000e+00	1.230101e-04	
195	3.100000e+00	1.232042e-04	
196	3.150000e+00	1.233941e-04	
197	3.200000e+00	1.235799e-04	
198	3.250000e+00	1.237618e-04	
199	3.300000e+00	1.239401e-04	
200	3.350000e+00	1.241148e-04	
201	3.400000e+00	1.242861e-04	
202	3.450000e+00	1.244542e-04	
203	3.500000e+00	1.246191e-04	
204	3.550000e+00	1.247811e-04	
205	3.600000e+00	1.249403e-04	
206	3.650000e+00	1.250967e-04	
207	3.700000e+00	1.252504e-04	
208	3.750000e+00	1.254017e-04	
209	3.800000e+00	1.255505e-04	
210	3.850000e+00	1.256969e-04	
211	3.900000e+00	1.258411e-04	
212	3.950000e+00	1.259831e-04	
213	4.000000e+00	1.261230e-04	
214	4.050000e+00	1.262609e-04	
215	4.100000e+00	1.263969e-04	
216	4.150000e+00	1.265309e-04	
217	4.200000e+00	1.266632e-04	
218	4.250000e+00	1.267937e-04	
219	4.300000e+00	1.269225e-04	
220	4.350000e+00	1.270497e-04	
221	4.400000e+00	1.271753e-04	
222	4.450000e+00	1.272993e-04	
223	4.500000e+00	1.274219e-04	
224	4.550000e+00	1.275430e-04	
225	4.600000e+00	1.276628e-04	
226	4.650000e+00	1.277812e-04	
227	4.700000e+00	1.278983e-04	
228	4.750000e+00	1.280141e-04	

Index   v-sweep         -i(vds)         
--------------------------------------------------------------------------------
229	4.800000e+00	1.281287e-04	
230	4.850000e+00	1.282421e-04	
231	4.900000e+00	1.283544e-04	
232	4.950000e+00	1.284656e-04	
233	5.000000e+00	1.285757e-04	
234	5.050000e+00	1.286847e-04	
235	5.100000e+00	1.287927e-04	
236	5.150000e+00	1.288997e-04	
237	5.200000e+00	1.290058e-04	
238	5.250000e+00	1.291109e-04	
239	5.300000e+00	1.292151e-04	
240	5.350000e+00	1.293185e-04	
241	5.400000e+00	1.294210e-04	
242	5.450000e+00	1.295226e-04	
243	5.500000e+00	1.296234e-04	
244	5.550000e+00	1.297235e-04	
245	5.600000e+00	1.298228e-04	
246	5.650000e+00	1.299213e-04	
247	5.700000e+00	1.300191e-04	
248	5.750000e+00	1.301162e-04	
249	5.800000e+00	1.302126e-04	
250	5.850000e+00	1.303084e-04	
251	5.900000e+00	1.304035e-04	
252	5.950000e+00	1.304979e-04	
253	6.000000e+00	1.305917e-04	
254	6.050000e+00	1.306850e-04	
255	6.100000e+00	1.307776e-04	
256	6.150000e+00	1.308697e-04	
257	6.200000e+00	1.309612e-04	
258	6.250000e+00	1.310521e-04	
259	6.300000e+00	1.311426e-04	
260	6.350000e+00	1.312325e-04	
261	6.400000e+00	1.313219e-04	
262	6.450000e+00	1.314108e-04	
263	6.500000e+00	1.314992e-04	
264	6.550000e+00	1.315872e-04	
265	6.600000e+00	1.316746e-04	
266	0.000000e+00	-0.000000e+00	
267	5.000000e-02	1.074426e-05	
268	1.000000e-01	2.119515e-05	
269	1.500000e-01	3.138826e-05	
270	2.000000e-01	4.133418e-05	
271	2.500000e-01	5.103715e-05	
272	3.000000e-01	6.049986e-05	
273	3.500000e-01	6.972454e-05	
274	4.000000e-01	7.871331e-05	
275	4.500000e-01	8.746825e-05	
276	5.000000e-01	9.599139e-05	
277	5.500000e-01	1.042847e-04	
278	6.000000e-01	1.123503e-04	
279	6.500000e-01	1.201901e-04	
280	7.000000e-01	1.278059e-04	
281	7.500000e-01	1.351999e-04	
282	8.000000e-01	1.423737e-04	
283	8.500000e-01	1.493294e-04	
284	9.000000e-01	1.560688e-04	
285	9.500000e-01	1.625937e-04	
286	1.000000e+00	1.689059e-04	

Index   v-sweep         -i(vds)         
--------------------------------------------------------------------------------
287	1.050000e+00	1.750073e-04	
288	1.100000e+00	1.808995e-04	
289	1.150000e+00	1.865843e-04	
290	1.200000e+00	1.920636e-04	
291	1.250000e+00	1.973388e-04	
292	1.300000e+00	2.024117e-04	
293	1.350000e+00	2.072840e-04	
294	1.400000e+00	2.119571e-04	
295	1.450000e+00	2.164325e-04	
296	1.500000e+00	2.207117e-04	
297	1.550000e+00	2.247956e-04	
298	1.600000e+00	2.286852e-04	
299	1.650000e+00	2.323806e-04	
300	1.700000e+00	2.358807e-04	
301	1.750000e+00	2.391823e-04	
302	1.800000e+00	2.422783e-04	
303	1.850000e+00	2.451567e-04	
304	1.900000e+00	2.478027e-04	
305	1.950000e+00	2.502065e-04	
306	2.000000e+00	2.523734e-04	
307	2.050000e+00	2.543231e-04	
308	2.100000e+00	2.560831e-04	
309	2.150000e+00	2.576808e-04	
310	2.200000e+00	2.591406e-04	
311	2.250000e+00	2.604828e-04	
312	2.300000e+00	2.617243e-04	
313	2.350000e+00	2.628788e-04	
314	2.400000e+00	2.639573e-04	
315	2.450000e+00	2.649693e-04	
316	2.500000e+00	2.659224e-04	
317	2.550000e+00	2.668232e-04	
318	2.600000e+00	2.676770e-04	
319	2.650000e+00	2.684886e-04	
320	2.700000e+00	2.692619e-04	
321	2.750000e+00	2.700006e-04	
322	2.800000e+00	2.707075e-04	
323	2.850000e+00	2.713853e-04	
324	2.900000e+00	2.720364e-04	
325	2.950000e+00	2.726628e-04	
326	3.000000e+00	2.732665e-04	
327	3.050000e+00	2.738489e-04	
328	3.100000e+00	2.744115e-04	
329	3.150000e+00	2.749558e-04	
330	3.200000e+00	2.754829e-04	
331	3.250000e+00	2.759938e-04	
332	3.300000e+00	2.764896e-04	
333	3.350000e+00	2.769711e-04	
334	3.400000e+00	2.774392e-04	
335	3.450000e+00	2.778947e-04	
336	3.500000e+00	2.783381e-04	
337	3.550000e+00	2.787702e-04	
338	3.600000e+00	2.791916e-04	
339	3.650000e+00	2.796027e-04	
340	3.700000e+00	2.800042e-04	
341	3.750000e+00	2.803964e-04	
342	3.800000e+00	2.807798e-04	
343	3.850000e+00	2.811548e-04	
344	3.900000e+00	2.815219e-04	

Index   v-sweep         -i(vds)         
--------------------------------------------------------------------------------
345	3.950000e+00	2.818813e-04	
346	4.000000e+00	2.822333e-04	
347	4.050000e+00	2.825784e-04	
348	4.100000e+00	2.829168e-04	
349	4.150000e+00	2.832488e-04	
350	4.200000e+00	2.835746e-04	
351	4.250000e+00	2.838945e-04	
352	4.300000e+00	2.842087e-04	
353	4.350000e+00	2.845175e-04	
354	4.400000e+00	2.848211e-04	
355	4.450000e+00	2.851196e-04	
356	4.500000e+00	2.854133e-04	
357	4.550000e+00	2.857023e-04	
358	4.600000e+00	2.859868e-04	
359	4.650000e+00	2.862670e-04	
360	4.700000e+00	2.865430e-04	
361	4.750000e+00	2.868149e-04	
362	4.800000e+00	2.870830e-04	
363	4.850000e+00	2.873473e-04	
364	4.900000e+00	2.876081e-04	
365	4.950000e+00	2.878653e-04	
366	5.000000e+00	2.881191e-04	
367	5.050000e+00	2.883697e-04	
368	5.100000e+00	2.886171e-04	
369	5.150000e+00	2.888614e-04	
370	5.200000e+00	2.891028e-04	
371	5.250000e+00	2.893413e-04	
372	5.300000e+00	2.895771e-04	
373	5.350000e+00	2.898102e-04	
374	5.400000e+00	2.900406e-04	
375	5.450000e+00	2.902686e-04	
376	5.500000e+00	2.904941e-04	
377	5.550000e+00	2.907172e-04	
378	5.600000e+00	2.909381e-04	
379	5.650000e+00	2.911567e-04	
380	5.700000e+00	2.913732e-04	
381	5.750000e+00	2.915875e-04	
382	5.800000e+00	2.917999e-04	
383	5.850000e+00	2.920102e-04	
384	5.900000e+00	2.922187e-04	
385	5.950000e+00	2.924253e-04	
386	6.000000e+00	2.926300e-04	
387	6.050000e+00	2.928330e-04	
388	6.100000e+00	2.930343e-04	
389	6.150000e+00	2.932340e-04	
390	6.200000e+00	2.934320e-04	
391	6.250000e+00	2.936284e-04	
392	6.300000e+00	2.938234e-04	
393	6.350000e+00	2.940168e-04	
394	6.400000e+00	2.942088e-04	
395	6.450000e+00	2.943994e-04	
396	6.500000e+00	2.945886e-04	
397	6.550000e+00	2.947765e-04	
398	6.600000e+00	2.949631e-04	
399	0.000000e+00	-0.000000e+00	
400	5.000000e-02	1.316559e-05	
401	1.000000e-01	2.606181e-05	
402	1.500000e-01	3.872386e-05	

Index   v-sweep         -i(vds)         
--------------------------------------------------------------------------------
403	2.000000e-01	5.116192e-05	
404	2.500000e-01	6.337986e-05	
405	3.000000e-01	7.537996e-05	
406	3.500000e-01	8.716409e-05	
407	4.000000e-01	9.873399e-05	
408	4.500000e-01	1.100914e-04	
409	5.000000e-01	1.212379e-04	
410	5.500000e-01	1.321753e-04	
411	6.000000e-01	1.429051e-04	
412	6.500000e-01	1.534290e-04	
413	7.000000e-01	1.637487e-04	
414	7.500000e-01	1.738656e-04	
415	8.000000e-01	1.837814e-04	
416	8.500000e-01	1.934976e-04	
417	9.000000e-01	2.030158e-04	
418	9.500000e-01	2.123375e-04	
419	1.000000e+00	2.214643e-04	
420	1.050000e+00	2.303975e-04	
421	1.100000e+00	2.391387e-04	
422	1.150000e+00	2.476894e-04	
423	1.200000e+00	2.560509e-04	
424	1.250000e+00	2.642249e-04	
425	1.300000e+00	2.722125e-04	
426	1.350000e+00	2.800154e-04	
427	1.400000e+00	2.876347e-04	
428	1.450000e+00	2.950720e-04	
429	1.500000e+00	3.023286e-04	
430	1.550000e+00	3.094057e-04	
431	1.600000e+00	3.163048e-04	
432	1.650000e+00	3.230272e-04	
433	1.700000e+00	3.295740e-04	
434	1.750000e+00	3.359466e-04	
435	1.800000e+00	3.421462e-04	
436	1.850000e+00	3.481739e-04	
437	1.900000e+00	3.540310e-04	
438	1.950000e+00	3.597184e-04	
439	2.000000e+00	3.652372e-04	
440	2.050000e+00	3.705881e-04	
441	2.100000e+00	3.757717e-04	
442	2.150000e+00	3.807883e-04	
443	2.200000e+00	3.856375e-04	
444	2.250000e+00	3.903178e-04	
445	2.300000e+00	3.948260e-04	
446	2.350000e+00	3.991557e-04	
447	2.400000e+00	4.032959e-04	
448	2.450000e+00	4.072283e-04	
449	2.500000e+00	4.109288e-04	
450	2.550000e+00	4.143723e-04	
451	2.600000e+00	4.175443e-04	
452	2.650000e+00	4.204472e-04	
453	2.700000e+00	4.230991e-04	
454	2.750000e+00	4.255258e-04	
455	2.800000e+00	4.277548e-04	
456	2.850000e+00	4.298116e-04	
457	2.900000e+00	4.317186e-04	
458	2.950000e+00	4.334948e-04	
459	3.000000e+00	4.351563e-04	
460	3.050000e+00	4.367166e-04	

Index   v-sweep         -i(vds)         
--------------------------------------------------------------------------------
461	3.100000e+00	4.381870e-04	
462	3.150000e+00	4.395772e-04	
463	3.200000e+00	4.408955e-04	
464	3.250000e+00	4.421488e-04	
465	3.300000e+00	4.433433e-04	
466	3.350000e+00	4.444842e-04	
467	3.400000e+00	4.455762e-04	
468	3.450000e+00	4.466234e-04	
469	3.500000e+00	4.476291e-04	
470	3.550000e+00	4.485968e-04	
471	3.600000e+00	4.495291e-04	
472	3.650000e+00	4.504286e-04	
473	3.700000e+00	4.512975e-04	
474	3.750000e+00	4.521379e-04	
475	3.800000e+00	4.529516e-04	
476	3.850000e+00	4.537403e-04	
477	3.900000e+00	4.545055e-04	
478	3.950000e+00	4.552486e-04	
479	4.000000e+00	4.559709e-04	
480	4.050000e+00	4.566734e-04	
481	4.100000e+00	4.573574e-04	
482	4.150000e+00	4.580238e-04	
483	4.200000e+00	4.586734e-04	
484	4.250000e+00	4.593072e-04	
485	4.300000e+00	4.599259e-04	
486	4.350000e+00	4.605302e-04	
487	4.400000e+00	4.611209e-04	
488	4.450000e+00	4.616986e-04	
489	4.500000e+00	4.622638e-04	
490	4.550000e+00	4.628171e-04	
491	4.600000e+00	4.633590e-04	
492	4.650000e+00	4.638901e-04	
493	4.700000e+00	4.644107e-04	
494	4.750000e+00	4.649214e-04	
495	4.800000e+00	4.654224e-04	
496	4.850000e+00	4.659143e-04	
497	4.900000e+00	4.663974e-04	
498	4.950000e+00	4.668720e-04	
499	5.000000e+00	4.673385e-04	
500	5.050000e+00	4.677971e-04	
501	5.100000e+00	4.682481e-04	
502	5.150000e+00	4.686919e-04	
503	5.200000e+00	4.691288e-04	
504	5.250000e+00	4.695588e-04	
505	5.300000e+00	4.699824e-04	
506	5.350000e+00	4.703997e-04	
507	5.400000e+00	4.708110e-04	
508	5.450000e+00	4.712164e-04	
509	5.500000e+00	4.716162e-04	
510	5.550000e+00	4.720106e-04	
511	5.600000e+00	4.723997e-04	
512	5.650000e+00	4.727837e-04	
513	5.700000e+00	4.731628e-04	
514	5.750000e+00	4.735372e-04	
515	5.800000e+00	4.739070e-04	
516	5.850000e+00	4.742723e-04	
517	5.900000e+00	4.746333e-04	
518	5.950000e+00	4.749901e-04	

Index   v-sweep         -i(vds)         
--------------------------------------------------------------------------------
519	6.000000e+00	4.753429e-04	
520	6.050000e+00	4.756918e-04	
521	6.100000e+00	4.760369e-04	
522	6.150000e+00	4.763784e-04	
523	6.200000e+00	4.767163e-04	
524	6.250000e+00	4.770507e-04	
525	6.300000e+00	4.773817e-04	
526	6.350000e+00	4.777096e-04	
527	6.400000e+00	4.780342e-04	
528	6.450000e+00	4.783558e-04	
529	6.500000e+00	4.786745e-04	
530	6.550000e+00	4.789902e-04	
531	6.600000e+00	4.793032e-04	
532	0.000000e+00	-0.000000e+00	
533	5.000000e-02	1.491102e-05	
534	1.000000e-01	2.957609e-05	
535	1.500000e-01	4.403007e-05	
536	2.000000e-01	5.828279e-05	
537	2.500000e-01	7.233778e-05	
538	3.000000e-01	8.619698e-05	
539	3.500000e-01	9.986194e-05	
540	4.000000e-01	1.133341e-04	
541	4.500000e-01	1.266147e-04	
542	5.000000e-01	1.397053e-04	
543	5.500000e-01	1.526072e-04	
544	6.000000e-01	1.653217e-04	
545	6.500000e-01	1.778501e-04	
546	7.000000e-01	1.901938e-04	
547	7.500000e-01	2.023540e-04	
548	8.000000e-01	2.143321e-04	
549	8.500000e-01	2.261293e-04	
550	9.000000e-01	2.377468e-04	
551	9.500000e-01	2.491860e-04	
552	1.000000e+00	2.604480e-04	
553	1.050000e+00	2.715341e-04	
554	1.100000e+00	2.824456e-04	
555	1.150000e+00	2.931836e-04	
556	1.200000e+00	3.037493e-04	
557	1.250000e+00	3.141438e-04	
558	1.300000e+00	3.243685e-04	
559	1.350000e+00	3.344244e-04	
560	1.400000e+00	3.443127e-04	
561	1.450000e+00	3.540345e-04	
562	1.500000e+00	3.635909e-04	
563	1.550000e+00	3.729831e-04	
564	1.600000e+00	3.822122e-04	
565	1.650000e+00	3.912793e-04	
566	1.700000e+00	4.001855e-04	
567	1.750000e+00	4.089318e-04	
568	1.800000e+00	4.175193e-04	
569	1.850000e+00	4.259490e-04	
570	1.900000e+00	4.342221e-04	
571	1.950000e+00	4.423395e-04	
572	2.000000e+00	4.503023e-04	
573	2.050000e+00	4.581114e-04	
574	2.100000e+00	4.657679e-04	
575	2.150000e+00	4.732727e-04	
576	2.200000e+00	4.806268e-04	

Index   v-sweep         -i(vds)         
--------------------------------------------------------------------------------
577	2.250000e+00	4.878312e-04	
578	2.300000e+00	4.948867e-04	
579	2.350000e+00	5.017942e-04	
580	2.400000e+00	5.085546e-04	
581	2.450000e+00	5.151688e-04	
582	2.500000e+00	5.216373e-04	
583	2.550000e+00	5.279609e-04	
584	2.600000e+00	5.341401e-04	
585	2.650000e+00	5.401752e-04	
586	2.700000e+00	5.460661e-04	
587	2.750000e+00	5.518124e-04	
588	2.800000e+00	5.574128e-04	
589	2.850000e+00	5.628648e-04	
590	2.900000e+00	5.681638e-04	
591	2.950000e+00	5.733022e-04	
592	3.000000e+00	5.782670e-04	
593	3.050000e+00	5.830386e-04	
594	3.100000e+00	5.875902e-04	
595	3.150000e+00	5.918914e-04	
596	3.200000e+00	5.959168e-04	
597	3.250000e+00	5.996548e-04	
598	3.300000e+00	6.031104e-04	
599	3.350000e+00	6.063014e-04	
600	3.400000e+00	6.092522e-04	
601	3.450000e+00	6.119887e-04	
602	3.500000e+00	6.145354e-04	
603	3.550000e+00	6.169143e-04	
604	3.600000e+00	6.191445e-04	
605	3.650000e+00	6.212426e-04	
606	3.700000e+00	6.232228e-04	
607	3.750000e+00	6.250972e-04	
608	3.800000e+00	6.268763e-04	
609	3.850000e+00	6.285693e-04	
610	3.900000e+00	6.301840e-04	
611	3.950000e+00	6.317273e-04	
612	4.000000e+00	6.332052e-04	
613	4.050000e+00	6.346230e-04	
614	4.100000e+00	6.359854e-04	
615	4.150000e+00	6.372966e-04	
616	4.200000e+00	6.385603e-04	
617	4.250000e+00	6.397799e-04	
618	4.300000e+00	6.409584e-04	
619	4.350000e+00	6.420984e-04	
620	4.400000e+00	6.432024e-04	
621	4.450000e+00	6.442727e-04	
622	4.500000e+00	6.453112e-04	
623	4.550000e+00	6.463199e-04	
624	4.600000e+00	6.473004e-04	
625	4.650000e+00	6.482543e-04	
626	4.700000e+00	6.491830e-04	
627	4.750000e+00	6.500878e-04	
628	4.800000e+00	6.509700e-04	
629	4.850000e+00	6.518306e-04	
630	4.900000e+00	6.526709e-04	
631	4.950000e+00	6.534916e-04	
632	5.000000e+00	6.542938e-04	
633	5.050000e+00	6.550783e-04	
634	5.100000e+00	6.558459e-04	

Index   v-sweep         -i(vds)         
--------------------------------------------------------------------------------
635	5.150000e+00	6.565974e-04	
636	5.200000e+00	6.573334e-04	
637	5.250000e+00	6.580546e-04	
638	5.300000e+00	6.587617e-04	
639	5.350000e+00	6.594552e-04	
640	5.400000e+00	6.601356e-04	
641	5.450000e+00	6.608036e-04	
642	5.500000e+00	6.614596e-04	
643	5.550000e+00	6.621040e-04	
644	5.600000e+00	6.627373e-04	
645	5.650000e+00	6.633600e-04	
646	5.700000e+00	6.639724e-04	
647	5.750000e+00	6.645749e-04	
648	5.800000e+00	6.651679e-04	
649	5.850000e+00	6.657517e-04	
650	5.900000e+00	6.663267e-04	
651	5.950000e+00	6.668931e-04	
652	6.000000e+00	6.674513e-04	
653	6.050000e+00	6.680016e-04	
654	6.100000e+00	6.685442e-04	
655	6.150000e+00	6.690794e-04	
656	6.200000e+00	6.696074e-04	
657	6.250000e+00	6.701285e-04	
658	6.300000e+00	6.706428e-04	
659	6.350000e+00	6.711508e-04	
660	6.400000e+00	6.716524e-04	
661	6.450000e+00	6.721480e-04	
662	6.500000e+00	6.726378e-04	
663	6.550000e+00	6.731219e-04	
664	6.600000e+00	6.736004e-04	
665	0.000000e+00	-0.000000e+00	
666	5.000000e-02	1.616862e-05	
667	1.000000e-01	3.211308e-05	
668	1.500000e-01	4.786795e-05	
669	2.000000e-01	6.344277e-05	
670	2.500000e-01	7.884080e-05	
671	3.000000e-01	9.406371e-05	
672	3.500000e-01	1.091128e-04	
673	4.000000e-01	1.239891e-04	
674	4.500000e-01	1.386939e-04	
675	5.000000e-01	1.532281e-04	
676	5.500000e-01	1.675930e-04	
677	6.000000e-01	1.817896e-04	
678	6.500000e-01	1.958189e-04	
679	7.000000e-01	2.096821e-04	
680	7.500000e-01	2.233802e-04	
681	8.000000e-01	2.369142e-04	
682	8.500000e-01	2.502852e-04	
683	9.000000e-01	2.634942e-04	
684	9.500000e-01	2.765422e-04	
685	1.000000e+00	2.894302e-04	
686	1.050000e+00	3.021593e-04	
687	1.100000e+00	3.147304e-04	
688	1.150000e+00	3.271446e-04	
689	1.200000e+00	3.394027e-04	
690	1.250000e+00	3.515058e-04	
691	1.300000e+00	3.634549e-04	
692	1.350000e+00	3.752508e-04	

Index   v-sweep         -i(vds)         
--------------------------------------------------------------------------------
693	1.400000e+00	3.868946e-04	
694	1.450000e+00	3.983871e-04	
695	1.500000e+00	4.097294e-04	
696	1.550000e+00	4.209222e-04	
697	1.600000e+00	4.319666e-04	
698	1.650000e+00	4.428635e-04	
699	1.700000e+00	4.536137e-04	
700	1.750000e+00	4.642181e-04	
701	1.800000e+00	4.746777e-04	
702	1.850000e+00	4.849933e-04	
703	1.900000e+00	4.951657e-04	
704	1.950000e+00	5.051959e-04	
705	2.000000e+00	5.150847e-04	
706	2.050000e+00	5.248329e-04	
707	2.100000e+00	5.344414e-04	
708	2.150000e+00	5.439110e-04	
709	2.200000e+00	5.532426e-04	
710	2.250000e+00	5.624369e-04	
711	2.300000e+00	5.714948e-04	
712	2.350000e+00	5.804171e-04	
713	2.400000e+00	5.892045e-04	
714	2.450000e+00	5.978579e-04	
715	2.500000e+00	6.063780e-04	
716	2.550000e+00	6.147656e-04	
717	2.600000e+00	6.230215e-04	
718	2.650000e+00	6.311465e-04	
719	2.700000e+00	6.391411e-04	
720	2.750000e+00	6.470062e-04	
721	2.800000e+00	6.547425e-04	
722	2.850000e+00	6.623506e-04	
723	2.900000e+00	6.698313e-04	
724	2.950000e+00	6.771851e-04	
725	3.000000e+00	6.844126e-04	
726	3.050000e+00	6.915144e-04	
727	3.100000e+00	6.984908e-04	
728	3.150000e+00	7.053424e-04	
729	3.200000e+00	7.120692e-04	
730	3.250000e+00	7.186713e-04	
731	3.300000e+00	7.251483e-04	
732	3.350000e+00	7.314994e-04	
733	3.400000e+00	7.377232e-04	
734	3.450000e+00	7.438169e-04	
735	3.500000e+00	7.497761e-04	
736	3.550000e+00	7.555936e-04	
737	3.600000e+00	7.612579e-04	
738	3.650000e+00	7.667520e-04	
739	3.700000e+00	7.720517e-04	
740	3.750000e+00	7.771270e-04	
741	3.800000e+00	7.819466e-04	
742	3.850000e+00	7.864863e-04	
743	3.900000e+00	7.907349e-04	
744	3.950000e+00	7.946963e-04	
745	4.000000e+00	7.983856e-04	
746	4.050000e+00	8.018244e-04	
747	4.100000e+00	8.050363e-04	
748	4.150000e+00	8.080442e-04	
749	4.200000e+00	8.108695e-04	
750	4.250000e+00	8.135312e-04	

Index   v-sweep         -i(vds)         
--------------------------------------------------------------------------------
751	4.300000e+00	8.160458e-04	
752	4.350000e+00	8.184281e-04	
753	4.400000e+00	8.206907e-04	
754	4.450000e+00	8.228449e-04	
755	4.500000e+00	8.249002e-04	
756	4.550000e+00	8.268653e-04	
757	4.600000e+00	8.287476e-04	
758	4.650000e+00	8.305537e-04	
759	4.700000e+00	8.322897e-04	
760	4.750000e+00	8.339606e-04	
761	4.800000e+00	8.355712e-04	
762	4.850000e+00	8.371257e-04	
763	4.900000e+00	8.386279e-04	
764	4.950000e+00	8.400812e-04	
765	5.000000e+00	8.414886e-04	
766	5.050000e+00	8.428531e-04	
767	5.100000e+00	8.441772e-04	
768	5.150000e+00	8.454632e-04	
769	5.200000e+00	8.467133e-04	
770	5.250000e+00	8.479294e-04	
771	5.300000e+00	8.491134e-04	
772	5.350000e+00	8.502670e-04	
773	5.400000e+00	8.513917e-04	
774	5.450000e+00	8.524889e-04	
775	5.500000e+00	8.535601e-04	
776	5.550000e+00	8.546064e-04	
777	5.600000e+00	8.556290e-04	
778	5.650000e+00	8.566290e-04	
779	5.700000e+00	8.576074e-04	
780	5.750000e+00	8.585652e-04	
781	5.800000e+00	8.595032e-04	
782	5.850000e+00	8.604224e-04	
783	5.900000e+00	8.613234e-04	
784	5.950000e+00	8.622071e-04	
785	6.000000e+00	8.630741e-04	
786	6.050000e+00	8.639252e-04	
787	6.100000e+00	8.647609e-04	
788	6.150000e+00	8.655819e-04	
789	6.200000e+00	8.663886e-04	
790	6.250000e+00	8.671818e-04	
791	6.300000e+00	8.679617e-04	
792	6.350000e+00	8.687291e-04	
793	6.400000e+00	8.694843e-04	
794	6.450000e+00	8.702277e-04	
795	6.500000e+00	8.709598e-04	
796	6.550000e+00	8.716810e-04	
797	6.600000e+00	8.723916e-04	
Note: No ".plot", ".print", or ".fourier" lines; no simulations run
