
Note: Compatibility modes selected: hs

Warning: m=xx on .subckt line will override multiplier m hierarchy!


Circuit: ***************************

Doing analysis at TEMP = -40.000000 and TNOM = -40.000000


No. of Data Rows : 798
                          ***************************
                          DC transfer characteristic  Mon Jan  9 13:58:05  2023
--------------------------------------------------------------------------------
Index   v-sweep         -i(vds)         
--------------------------------------------------------------------------------
0	0.000000e+00	-0.000000e+00	
1	5.000000e-02	2.674398e-06	
2	1.000000e-01	4.758454e-06	
3	1.500000e-01	6.261171e-06	
4	2.000000e-01	7.207277e-06	
5	2.500000e-01	7.700392e-06	
6	3.000000e-01	7.966927e-06	
7	3.500000e-01	8.155611e-06	
8	4.000000e-01	8.308366e-06	
9	4.500000e-01	8.438567e-06	
10	5.000000e-01	8.552645e-06	
11	5.500000e-01	8.654452e-06	
12	6.000000e-01	8.746555e-06	
13	6.500000e-01	8.830773e-06	
14	7.000000e-01	8.908452e-06	
15	7.500000e-01	8.980617e-06	
16	8.000000e-01	9.048068e-06	
17	8.500000e-01	9.111444e-06	
18	9.000000e-01	9.171259e-06	
19	9.500000e-01	9.227938e-06	
20	1.000000e+00	9.281834e-06	
21	1.050000e+00	9.333243e-06	
22	1.100000e+00	9.382415e-06	
23	1.150000e+00	9.429567e-06	
24	1.200000e+00	9.474884e-06	
25	1.250000e+00	9.518527e-06	
26	1.300000e+00	9.560637e-06	
27	1.350000e+00	9.601339e-06	
28	1.400000e+00	9.640741e-06	
29	1.450000e+00	9.678942e-06	
30	1.500000e+00	9.716027e-06	
31	1.550000e+00	9.752075e-06	
32	1.600000e+00	9.787156e-06	
33	1.650000e+00	9.821333e-06	
34	1.700000e+00	9.854663e-06	
35	1.750000e+00	9.887198e-06	
36	1.800000e+00	9.918986e-06	
37	1.850000e+00	9.950070e-06	
38	1.900000e+00	9.980490e-06	
39	1.950000e+00	1.001028e-05	
40	2.000000e+00	1.003948e-05	
41	2.050000e+00	1.006812e-05	
42	2.100000e+00	1.009622e-05	
43	2.150000e+00	1.012381e-05	
44	2.200000e+00	1.015092e-05	
45	2.250000e+00	1.017757e-05	
46	2.300000e+00	1.020379e-05	
47	2.350000e+00	1.022958e-05	
48	2.400000e+00	1.025498e-05	
49	2.450000e+00	1.027999e-05	
50	2.500000e+00	1.030464e-05	
51	2.550000e+00	1.032894e-05	
52	2.600000e+00	1.035291e-05	
53	2.650000e+00	1.037655e-05	
54	2.700000e+00	1.039989e-05	

Index   v-sweep         -i(vds)         
--------------------------------------------------------------------------------
55	2.750000e+00	1.042293e-05	
56	2.800000e+00	1.044568e-05	
57	2.850000e+00	1.046817e-05	
58	2.900000e+00	1.049039e-05	
59	2.950000e+00	1.051236e-05	
60	3.000000e+00	1.053408e-05	
61	3.050000e+00	1.055557e-05	
62	3.100000e+00	1.057683e-05	
63	3.150000e+00	1.059788e-05	
64	3.200000e+00	1.061872e-05	
65	3.250000e+00	1.063935e-05	
66	3.300000e+00	1.065978e-05	
67	3.350000e+00	1.068003e-05	
68	3.400000e+00	1.070010e-05	
69	3.450000e+00	1.071999e-05	
70	3.500000e+00	1.073970e-05	
71	3.550000e+00	1.075925e-05	
72	3.600000e+00	1.077865e-05	
73	3.650000e+00	1.079788e-05	
74	3.700000e+00	1.081697e-05	
75	3.750000e+00	1.083591e-05	
76	3.800000e+00	1.085471e-05	
77	3.850000e+00	1.087338e-05	
78	3.900000e+00	1.089191e-05	
79	3.950000e+00	1.091031e-05	
80	4.000000e+00	1.092859e-05	
81	4.050000e+00	1.094675e-05	
82	4.100000e+00	1.096479e-05	
83	4.150000e+00	1.098272e-05	
84	4.200000e+00	1.100054e-05	
85	4.250000e+00	1.101825e-05	
86	4.300000e+00	1.103585e-05	
87	4.350000e+00	1.105336e-05	
88	4.400000e+00	1.107076e-05	
89	4.450000e+00	1.108807e-05	
90	4.500000e+00	1.110529e-05	
91	4.550000e+00	1.112242e-05	
92	4.600000e+00	1.113946e-05	
93	4.650000e+00	1.115641e-05	
94	4.700000e+00	1.117328e-05	
95	4.750000e+00	1.119007e-05	
96	4.800000e+00	1.120678e-05	
97	4.850000e+00	1.122342e-05	
98	4.900000e+00	1.123998e-05	
99	4.950000e+00	1.125646e-05	
100	5.000000e+00	1.127288e-05	
101	5.050000e+00	1.128923e-05	
102	5.100000e+00	1.130551e-05	
103	5.150000e+00	1.132172e-05	
104	5.200000e+00	1.133787e-05	
105	5.250000e+00	1.135396e-05	
106	5.300000e+00	1.136998e-05	
107	5.350000e+00	1.138595e-05	
108	5.400000e+00	1.140186e-05	
109	5.450000e+00	1.141771e-05	
110	5.500000e+00	1.143351e-05	
111	5.550000e+00	1.144925e-05	
112	5.600000e+00	1.146495e-05	

Index   v-sweep         -i(vds)         
--------------------------------------------------------------------------------
113	5.650000e+00	1.148059e-05	
114	5.700000e+00	1.149618e-05	
115	5.750000e+00	1.151172e-05	
116	5.800000e+00	1.152721e-05	
117	5.850000e+00	1.154266e-05	
118	5.900000e+00	1.155806e-05	
119	5.950000e+00	1.157342e-05	
120	6.000000e+00	1.158874e-05	
121	6.050000e+00	1.160401e-05	
122	6.100000e+00	1.161924e-05	
123	6.150000e+00	1.163443e-05	
124	6.200000e+00	1.164958e-05	
125	6.250000e+00	1.166470e-05	
126	6.300000e+00	1.167977e-05	
127	6.350000e+00	1.169481e-05	
128	6.400000e+00	1.170981e-05	
129	6.450000e+00	1.172478e-05	
130	6.500000e+00	1.173971e-05	
131	6.550000e+00	1.175461e-05	
132	6.600000e+00	1.176948e-05	
133	0.000000e+00	-0.000000e+00	
134	5.000000e-02	1.362350e-05	
135	1.000000e-01	2.664301e-05	
136	1.500000e-01	3.906564e-05	
137	2.000000e-01	5.089840e-05	
138	2.500000e-01	6.214816e-05	
139	3.000000e-01	7.282171e-05	
140	3.500000e-01	8.292573e-05	
141	4.000000e-01	9.246676e-05	
142	4.500000e-01	1.014513e-04	
143	5.000000e-01	1.098856e-04	
144	5.500000e-01	1.177759e-04	
145	6.000000e-01	1.251282e-04	
146	6.500000e-01	1.319482e-04	
147	7.000000e-01	1.382413e-04	
148	7.500000e-01	1.440114e-04	
149	8.000000e-01	1.492607e-04	
150	8.500000e-01	1.539857e-04	
151	9.000000e-01	1.581719e-04	
152	9.500000e-01	1.617930e-04	
153	1.000000e+00	1.648396e-04	
154	1.050000e+00	1.673645e-04	
155	1.100000e+00	1.694683e-04	
156	1.150000e+00	1.712510e-04	
157	1.200000e+00	1.727900e-04	
158	1.250000e+00	1.741412e-04	
159	1.300000e+00	1.753443e-04	
160	1.350000e+00	1.764282e-04	
161	1.400000e+00	1.774144e-04	
162	1.450000e+00	1.783190e-04	
163	1.500000e+00	1.791546e-04	
164	1.550000e+00	1.799310e-04	
165	1.600000e+00	1.806563e-04	
166	1.650000e+00	1.813369e-04	
167	1.700000e+00	1.819780e-04	
168	1.750000e+00	1.825842e-04	
169	1.800000e+00	1.831590e-04	
170	1.850000e+00	1.837057e-04	

Index   v-sweep         -i(vds)         
--------------------------------------------------------------------------------
171	1.900000e+00	1.842270e-04	
172	1.950000e+00	1.847251e-04	
173	2.000000e+00	1.852022e-04	
174	2.050000e+00	1.856601e-04	
175	2.100000e+00	1.861001e-04	
176	2.150000e+00	1.865239e-04	
177	2.200000e+00	1.869325e-04	
178	2.250000e+00	1.873270e-04	
179	2.300000e+00	1.877085e-04	
180	2.350000e+00	1.880778e-04	
181	2.400000e+00	1.884357e-04	
182	2.450000e+00	1.887829e-04	
183	2.500000e+00	1.891202e-04	
184	2.550000e+00	1.894480e-04	
185	2.600000e+00	1.897669e-04	
186	2.650000e+00	1.900775e-04	
187	2.700000e+00	1.903801e-04	
188	2.750000e+00	1.906753e-04	
189	2.800000e+00	1.909634e-04	
190	2.850000e+00	1.912447e-04	
191	2.900000e+00	1.915196e-04	
192	2.950000e+00	1.917885e-04	
193	3.000000e+00	1.920515e-04	
194	3.050000e+00	1.923090e-04	
195	3.100000e+00	1.925613e-04	
196	3.150000e+00	1.928085e-04	
197	3.200000e+00	1.930509e-04	
198	3.250000e+00	1.932887e-04	
199	3.300000e+00	1.935222e-04	
200	3.350000e+00	1.937513e-04	
201	3.400000e+00	1.939765e-04	
202	3.450000e+00	1.941978e-04	
203	3.500000e+00	1.944153e-04	
204	3.550000e+00	1.946293e-04	
205	3.600000e+00	1.948398e-04	
206	3.650000e+00	1.950471e-04	
207	3.700000e+00	1.952511e-04	
208	3.750000e+00	1.954521e-04	
209	3.800000e+00	1.956502e-04	
210	3.850000e+00	1.958454e-04	
211	3.900000e+00	1.960379e-04	
212	3.950000e+00	1.962277e-04	
213	4.000000e+00	1.964150e-04	
214	4.050000e+00	1.965999e-04	
215	4.100000e+00	1.967824e-04	
216	4.150000e+00	1.969626e-04	
217	4.200000e+00	1.971405e-04	
218	4.250000e+00	1.973164e-04	
219	4.300000e+00	1.974902e-04	
220	4.350000e+00	1.976620e-04	
221	4.400000e+00	1.978318e-04	
222	4.450000e+00	1.979998e-04	
223	4.500000e+00	1.981660e-04	
224	4.550000e+00	1.983304e-04	
225	4.600000e+00	1.984932e-04	
226	4.650000e+00	1.986543e-04	
227	4.700000e+00	1.988138e-04	
228	4.750000e+00	1.989718e-04	

Index   v-sweep         -i(vds)         
--------------------------------------------------------------------------------
229	4.800000e+00	1.991282e-04	
230	4.850000e+00	1.992832e-04	
231	4.900000e+00	1.994369e-04	
232	4.950000e+00	1.995891e-04	
233	5.000000e+00	1.997400e-04	
234	5.050000e+00	1.998897e-04	
235	5.100000e+00	2.000381e-04	
236	5.150000e+00	2.001853e-04	
237	5.200000e+00	2.003313e-04	
238	5.250000e+00	2.004761e-04	
239	5.300000e+00	2.006199e-04	
240	5.350000e+00	2.007626e-04	
241	5.400000e+00	2.009042e-04	
242	5.450000e+00	2.010448e-04	
243	5.500000e+00	2.011844e-04	
244	5.550000e+00	2.013231e-04	
245	5.600000e+00	2.014608e-04	
246	5.650000e+00	2.015976e-04	
247	5.700000e+00	2.017335e-04	
248	5.750000e+00	2.018685e-04	
249	5.800000e+00	2.020027e-04	
250	5.850000e+00	2.021361e-04	
251	5.900000e+00	2.022687e-04	
252	5.950000e+00	2.024005e-04	
253	6.000000e+00	2.025315e-04	
254	6.050000e+00	2.026618e-04	
255	6.100000e+00	2.027914e-04	
256	6.150000e+00	2.029203e-04	
257	6.200000e+00	2.030485e-04	
258	6.250000e+00	2.031761e-04	
259	6.300000e+00	2.033029e-04	
260	6.350000e+00	2.034292e-04	
261	6.400000e+00	2.035548e-04	
262	6.450000e+00	2.036799e-04	
263	6.500000e+00	2.038043e-04	
264	6.550000e+00	2.039282e-04	
265	6.600000e+00	2.040515e-04	
266	0.000000e+00	-0.000000e+00	
267	5.000000e-02	2.151178e-05	
268	1.000000e-01	4.243676e-05	
269	1.500000e-01	6.278205e-05	
270	2.000000e-01	8.255463e-05	
271	2.500000e-01	1.017614e-04	
272	3.000000e-01	1.204090e-04	
273	3.500000e-01	1.385043e-04	
274	4.000000e-01	1.560536e-04	
275	4.500000e-01	1.730635e-04	
276	5.000000e-01	1.895402e-04	
277	5.500000e-01	2.054901e-04	
278	6.000000e-01	2.209191e-04	
279	6.500000e-01	2.358334e-04	
280	7.000000e-01	2.502387e-04	
281	7.500000e-01	2.641410e-04	
282	8.000000e-01	2.775458e-04	
283	8.500000e-01	2.904587e-04	
284	9.000000e-01	3.028849e-04	
285	9.500000e-01	3.148298e-04	
286	1.000000e+00	3.262980e-04	

Index   v-sweep         -i(vds)         
--------------------------------------------------------------------------------
287	1.050000e+00	3.372940e-04	
288	1.100000e+00	3.478216e-04	
289	1.150000e+00	3.578834e-04	
290	1.200000e+00	3.674797e-04	
291	1.250000e+00	3.766070e-04	
292	1.300000e+00	3.852535e-04	
293	1.350000e+00	3.933916e-04	
294	1.400000e+00	4.009649e-04	
295	1.450000e+00	4.078792e-04	
296	1.500000e+00	4.140268e-04	
297	1.550000e+00	4.193582e-04	
298	1.600000e+00	4.239259e-04	
299	1.650000e+00	4.278466e-04	
300	1.700000e+00	4.312460e-04	
301	1.750000e+00	4.342303e-04	
302	1.800000e+00	4.368825e-04	
303	1.850000e+00	4.392654e-04	
304	1.900000e+00	4.414268e-04	
305	1.950000e+00	4.434036e-04	
306	2.000000e+00	4.452242e-04	
307	2.050000e+00	4.469115e-04	
308	2.100000e+00	4.484834e-04	
309	2.150000e+00	4.499547e-04	
310	2.200000e+00	4.513375e-04	
311	2.250000e+00	4.526420e-04	
312	2.300000e+00	4.538766e-04	
313	2.350000e+00	4.550485e-04	
314	2.400000e+00	4.561637e-04	
315	2.450000e+00	4.572276e-04	
316	2.500000e+00	4.582448e-04	
317	2.550000e+00	4.592193e-04	
318	2.600000e+00	4.601545e-04	
319	2.650000e+00	4.610536e-04	
320	2.700000e+00	4.619193e-04	
321	2.750000e+00	4.627540e-04	
322	2.800000e+00	4.635600e-04	
323	2.850000e+00	4.643392e-04	
324	2.900000e+00	4.650933e-04	
325	2.950000e+00	4.658240e-04	
326	3.000000e+00	4.665328e-04	
327	3.050000e+00	4.672209e-04	
328	3.100000e+00	4.678896e-04	
329	3.150000e+00	4.685399e-04	
330	3.200000e+00	4.691730e-04	
331	3.250000e+00	4.697897e-04	
332	3.300000e+00	4.703909e-04	
333	3.350000e+00	4.709773e-04	
334	3.400000e+00	4.715499e-04	
335	3.450000e+00	4.721091e-04	
336	3.500000e+00	4.726557e-04	
337	3.550000e+00	4.731903e-04	
338	3.600000e+00	4.737135e-04	
339	3.650000e+00	4.742257e-04	
340	3.700000e+00	4.747274e-04	
341	3.750000e+00	4.752191e-04	
342	3.800000e+00	4.757013e-04	
343	3.850000e+00	4.761743e-04	
344	3.900000e+00	4.766386e-04	

Index   v-sweep         -i(vds)         
--------------------------------------------------------------------------------
345	3.950000e+00	4.770944e-04	
346	4.000000e+00	4.775422e-04	
347	4.050000e+00	4.779822e-04	
348	4.100000e+00	4.784148e-04	
349	4.150000e+00	4.788403e-04	
350	4.200000e+00	4.792589e-04	
351	4.250000e+00	4.796709e-04	
352	4.300000e+00	4.800765e-04	
353	4.350000e+00	4.804760e-04	
354	4.400000e+00	4.808696e-04	
355	4.450000e+00	4.812576e-04	
356	4.500000e+00	4.816401e-04	
357	4.550000e+00	4.820172e-04	
358	4.600000e+00	4.823893e-04	
359	4.650000e+00	4.827565e-04	
360	4.700000e+00	4.831190e-04	
361	4.750000e+00	4.834768e-04	
362	4.800000e+00	4.838303e-04	
363	4.850000e+00	4.841794e-04	
364	4.900000e+00	4.845245e-04	
365	4.950000e+00	4.848655e-04	
366	5.000000e+00	4.852027e-04	
367	5.050000e+00	4.855361e-04	
368	5.100000e+00	4.858659e-04	
369	5.150000e+00	4.861922e-04	
370	5.200000e+00	4.865152e-04	
371	5.250000e+00	4.868348e-04	
372	5.300000e+00	4.871513e-04	
373	5.350000e+00	4.874647e-04	
374	5.400000e+00	4.877751e-04	
375	5.450000e+00	4.880826e-04	
376	5.500000e+00	4.883873e-04	
377	5.550000e+00	4.886893e-04	
378	5.600000e+00	4.889887e-04	
379	5.650000e+00	4.892855e-04	
380	5.700000e+00	4.895798e-04	
381	5.750000e+00	4.898717e-04	
382	5.800000e+00	4.901612e-04	
383	5.850000e+00	4.904485e-04	
384	5.900000e+00	4.907336e-04	
385	5.950000e+00	4.910166e-04	
386	6.000000e+00	4.912974e-04	
387	6.050000e+00	4.915763e-04	
388	6.100000e+00	4.918531e-04	
389	6.150000e+00	4.921281e-04	
390	6.200000e+00	4.924012e-04	
391	6.250000e+00	4.926725e-04	
392	6.300000e+00	4.929420e-04	
393	6.350000e+00	4.932099e-04	
394	6.400000e+00	4.934760e-04	
395	6.450000e+00	4.937406e-04	
396	6.500000e+00	4.940036e-04	
397	6.550000e+00	4.942650e-04	
398	6.600000e+00	4.945250e-04	
399	0.000000e+00	-0.000000e+00	
400	5.000000e-02	2.737193e-05	
401	1.000000e-01	5.418686e-05	
402	1.500000e-01	8.045118e-05	

Index   v-sweep         -i(vds)         
--------------------------------------------------------------------------------
403	2.000000e-01	1.061712e-04	
404	2.500000e-01	1.313531e-04	
405	3.000000e-01	1.560030e-04	
406	3.500000e-01	1.801269e-04	
407	4.000000e-01	2.037308e-04	
408	4.500000e-01	2.268204e-04	
409	5.000000e-01	2.494015e-04	
410	5.500000e-01	2.714798e-04	
411	6.000000e-01	2.930607e-04	
412	6.500000e-01	3.141499e-04	
413	7.000000e-01	3.347526e-04	
414	7.500000e-01	3.548743e-04	
415	8.000000e-01	3.745200e-04	
416	8.500000e-01	3.936950e-04	
417	9.000000e-01	4.124043e-04	
418	9.500000e-01	4.306528e-04	
419	1.000000e+00	4.484454e-04	
420	1.050000e+00	4.657869e-04	
421	1.100000e+00	4.826820e-04	
422	1.150000e+00	4.991352e-04	
423	1.200000e+00	5.151510e-04	
424	1.250000e+00	5.307336e-04	
425	1.300000e+00	5.458871e-04	
426	1.350000e+00	5.606154e-04	
427	1.400000e+00	5.749219e-04	
428	1.450000e+00	5.888096e-04	
429	1.500000e+00	6.022806e-04	
430	1.550000e+00	6.153356e-04	
431	1.600000e+00	6.279731e-04	
432	1.650000e+00	6.401877e-04	
433	1.700000e+00	6.519666e-04	
434	1.750000e+00	6.632840e-04	
435	1.800000e+00	6.740905e-04	
436	1.850000e+00	6.842995e-04	
437	1.900000e+00	6.937800e-04	
438	1.950000e+00	7.023845e-04	
439	2.000000e+00	7.100195e-04	
440	2.050000e+00	7.166985e-04	
441	2.100000e+00	7.225232e-04	
442	2.150000e+00	7.276279e-04	
443	2.200000e+00	7.321409e-04	
444	2.250000e+00	7.361700e-04	
445	2.300000e+00	7.398008e-04	
446	2.350000e+00	7.431007e-04	
447	2.400000e+00	7.461226e-04	
448	2.450000e+00	7.489084e-04	
449	2.500000e+00	7.514915e-04	
450	2.550000e+00	7.538990e-04	
451	2.600000e+00	7.561529e-04	
452	2.650000e+00	7.582715e-04	
453	2.700000e+00	7.602701e-04	
454	2.750000e+00	7.621615e-04	
455	2.800000e+00	7.639566e-04	
456	2.850000e+00	7.656648e-04	
457	2.900000e+00	7.672941e-04	
458	2.950000e+00	7.688516e-04	
459	3.000000e+00	7.703433e-04	
460	3.050000e+00	7.717746e-04	

Index   v-sweep         -i(vds)         
--------------------------------------------------------------------------------
461	3.100000e+00	7.731504e-04	
462	3.150000e+00	7.744746e-04	
463	3.200000e+00	7.757512e-04	
464	3.250000e+00	7.769835e-04	
465	3.300000e+00	7.781745e-04	
466	3.350000e+00	7.793270e-04	
467	3.400000e+00	7.804433e-04	
468	3.450000e+00	7.815257e-04	
469	3.500000e+00	7.825764e-04	
470	3.550000e+00	7.835970e-04	
471	3.600000e+00	7.845894e-04	
472	3.650000e+00	7.855551e-04	
473	3.700000e+00	7.864956e-04	
474	3.750000e+00	7.874122e-04	
475	3.800000e+00	7.883060e-04	
476	3.850000e+00	7.891784e-04	
477	3.900000e+00	7.900303e-04	
478	3.950000e+00	7.908627e-04	
479	4.000000e+00	7.916765e-04	
480	4.050000e+00	7.924727e-04	
481	4.100000e+00	7.932520e-04	
482	4.150000e+00	7.940152e-04	
483	4.200000e+00	7.947629e-04	
484	4.250000e+00	7.954960e-04	
485	4.300000e+00	7.962149e-04	
486	4.350000e+00	7.969203e-04	
487	4.400000e+00	7.976127e-04	
488	4.450000e+00	7.982927e-04	
489	4.500000e+00	7.989608e-04	
490	4.550000e+00	7.996174e-04	
491	4.600000e+00	8.002630e-04	
492	4.650000e+00	8.008981e-04	
493	4.700000e+00	8.015230e-04	
494	4.750000e+00	8.021381e-04	
495	4.800000e+00	8.027438e-04	
496	4.850000e+00	8.033404e-04	
497	4.900000e+00	8.039283e-04	
498	4.950000e+00	8.045078e-04	
499	5.000000e+00	8.050791e-04	
500	5.050000e+00	8.056427e-04	
501	5.100000e+00	8.061987e-04	
502	5.150000e+00	8.067474e-04	
503	5.200000e+00	8.072891e-04	
504	5.250000e+00	8.078240e-04	
505	5.300000e+00	8.083523e-04	
506	5.350000e+00	8.088743e-04	
507	5.400000e+00	8.093902e-04	
508	5.450000e+00	8.099002e-04	
509	5.500000e+00	8.104044e-04	
510	5.550000e+00	8.109032e-04	
511	5.600000e+00	8.113965e-04	
512	5.650000e+00	8.118847e-04	
513	5.700000e+00	8.123679e-04	
514	5.750000e+00	8.128462e-04	
515	5.800000e+00	8.133198e-04	
516	5.850000e+00	8.137889e-04	
517	5.900000e+00	8.142535e-04	
518	5.950000e+00	8.147139e-04	

Index   v-sweep         -i(vds)         
--------------------------------------------------------------------------------
519	6.000000e+00	8.151702e-04	
520	6.050000e+00	8.156224e-04	
521	6.100000e+00	8.160707e-04	
522	6.150000e+00	8.165153e-04	
523	6.200000e+00	8.169562e-04	
524	6.250000e+00	8.173935e-04	
525	6.300000e+00	8.178274e-04	
526	6.350000e+00	8.182579e-04	
527	6.400000e+00	8.186852e-04	
528	6.450000e+00	8.191094e-04	
529	6.500000e+00	8.195304e-04	
530	6.550000e+00	8.199485e-04	
531	6.600000e+00	8.203637e-04	
532	0.000000e+00	-0.000000e+00	
533	5.000000e-02	3.169569e-05	
534	1.000000e-01	6.287320e-05	
535	1.500000e-01	9.353801e-05	
536	2.000000e-01	1.236956e-04	
537	2.500000e-01	1.533512e-04	
538	3.000000e-01	1.825102e-04	
539	3.500000e-01	2.111777e-04	
540	4.000000e-01	2.393589e-04	
541	4.500000e-01	2.670589e-04	
542	5.000000e-01	2.942825e-04	
543	5.500000e-01	3.210348e-04	
544	6.000000e-01	3.473206e-04	
545	6.500000e-01	3.731446e-04	
546	7.000000e-01	3.985115e-04	
547	7.500000e-01	4.234260e-04	
548	8.000000e-01	4.478926e-04	
549	8.500000e-01	4.719159e-04	
550	9.000000e-01	4.955003e-04	
551	9.500000e-01	5.186501e-04	
552	1.000000e+00	5.413696e-04	
553	1.050000e+00	5.636632e-04	
554	1.100000e+00	5.855350e-04	
555	1.150000e+00	6.069890e-04	
556	1.200000e+00	6.280294e-04	
557	1.250000e+00	6.486601e-04	
558	1.300000e+00	6.688850e-04	
559	1.350000e+00	6.887080e-04	
560	1.400000e+00	7.081328e-04	
561	1.450000e+00	7.271632e-04	
562	1.500000e+00	7.458026e-04	
563	1.550000e+00	7.640546e-04	
564	1.600000e+00	7.819225e-04	
565	1.650000e+00	7.994095e-04	
566	1.700000e+00	8.165185e-04	
567	1.750000e+00	8.332523e-04	
568	1.800000e+00	8.496131e-04	
569	1.850000e+00	8.656026e-04	
570	1.900000e+00	8.812214e-04	
571	1.950000e+00	8.964690e-04	
572	2.000000e+00	9.113423e-04	
573	2.050000e+00	9.258343e-04	
574	2.100000e+00	9.399315e-04	
575	2.150000e+00	9.536091e-04	
576	2.200000e+00	9.668226e-04	

Index   v-sweep         -i(vds)         
--------------------------------------------------------------------------------
577	2.250000e+00	9.794964e-04	
578	2.300000e+00	9.915122e-04	
579	2.350000e+00	1.002713e-03	
580	2.400000e+00	1.012944e-03	
581	2.450000e+00	1.022119e-03	
582	2.500000e+00	1.030254e-03	
583	2.550000e+00	1.037448e-03	
584	2.600000e+00	1.043831e-03	
585	2.650000e+00	1.049533e-03	
586	2.700000e+00	1.054666e-03	
587	2.750000e+00	1.059323e-03	
588	2.800000e+00	1.063579e-03	
589	2.850000e+00	1.067494e-03	
590	2.900000e+00	1.071116e-03	
591	2.950000e+00	1.074485e-03	
592	3.000000e+00	1.077634e-03	
593	3.050000e+00	1.080588e-03	
594	3.100000e+00	1.083370e-03	
595	3.150000e+00	1.086000e-03	
596	3.200000e+00	1.088491e-03	
597	3.250000e+00	1.090860e-03	
598	3.300000e+00	1.093116e-03	
599	3.350000e+00	1.095270e-03	
600	3.400000e+00	1.097331e-03	
601	3.450000e+00	1.099306e-03	
602	3.500000e+00	1.101203e-03	
603	3.550000e+00	1.103028e-03	
604	3.600000e+00	1.104785e-03	
605	3.650000e+00	1.106480e-03	
606	3.700000e+00	1.108117e-03	
607	3.750000e+00	1.109700e-03	
608	3.800000e+00	1.111232e-03	
609	3.850000e+00	1.112716e-03	
610	3.900000e+00	1.114156e-03	
611	3.950000e+00	1.115554e-03	
612	4.000000e+00	1.116913e-03	
613	4.050000e+00	1.118234e-03	
614	4.100000e+00	1.119520e-03	
615	4.150000e+00	1.120773e-03	
616	4.200000e+00	1.121994e-03	
617	4.250000e+00	1.123185e-03	
618	4.300000e+00	1.124348e-03	
619	4.350000e+00	1.125483e-03	
620	4.400000e+00	1.126593e-03	
621	4.450000e+00	1.127678e-03	
622	4.500000e+00	1.128740e-03	
623	4.550000e+00	1.129779e-03	
624	4.600000e+00	1.130797e-03	
625	4.650000e+00	1.131794e-03	
626	4.700000e+00	1.132772e-03	
627	4.750000e+00	1.133731e-03	
628	4.800000e+00	1.134672e-03	
629	4.850000e+00	1.135595e-03	
630	4.900000e+00	1.136503e-03	
631	4.950000e+00	1.137394e-03	
632	5.000000e+00	1.138270e-03	
633	5.050000e+00	1.139132e-03	
634	5.100000e+00	1.139979e-03	

Index   v-sweep         -i(vds)         
--------------------------------------------------------------------------------
635	5.150000e+00	1.140813e-03	
636	5.200000e+00	1.141634e-03	
637	5.250000e+00	1.142443e-03	
638	5.300000e+00	1.143239e-03	
639	5.350000e+00	1.144024e-03	
640	5.400000e+00	1.144797e-03	
641	5.450000e+00	1.145560e-03	
642	5.500000e+00	1.146312e-03	
643	5.550000e+00	1.147055e-03	
644	5.600000e+00	1.147787e-03	
645	5.650000e+00	1.148511e-03	
646	5.700000e+00	1.149225e-03	
647	5.750000e+00	1.149930e-03	
648	5.800000e+00	1.150627e-03	
649	5.850000e+00	1.151316e-03	
650	5.900000e+00	1.151997e-03	
651	5.950000e+00	1.152671e-03	
652	6.000000e+00	1.153337e-03	
653	6.050000e+00	1.153996e-03	
654	6.100000e+00	1.154648e-03	
655	6.150000e+00	1.155294e-03	
656	6.200000e+00	1.155933e-03	
657	6.250000e+00	1.156566e-03	
658	6.300000e+00	1.157192e-03	
659	6.350000e+00	1.157813e-03	
660	6.400000e+00	1.158429e-03	
661	6.450000e+00	1.159038e-03	
662	6.500000e+00	1.159643e-03	
663	6.550000e+00	1.160242e-03	
664	6.600000e+00	1.160836e-03	
665	0.000000e+00	-0.000000e+00	
666	5.000000e-02	3.483792e-05	
667	1.000000e-01	6.920066e-05	
668	1.500000e-01	1.030928e-04	
669	2.000000e-01	1.365190e-04	
670	2.500000e-01	1.694836e-04	
671	3.000000e-01	2.019912e-04	
672	3.500000e-01	2.340462e-04	
673	4.000000e-01	2.656527e-04	
674	4.500000e-01	2.968152e-04	
675	5.000000e-01	3.275379e-04	
676	5.500000e-01	3.578249e-04	
677	6.000000e-01	3.876803e-04	
678	6.500000e-01	4.171081e-04	
679	7.000000e-01	4.461125e-04	
680	7.500000e-01	4.746973e-04	
681	8.000000e-01	5.028664e-04	
682	8.500000e-01	5.306237e-04	
683	9.000000e-01	5.579730e-04	
684	9.500000e-01	5.849181e-04	
685	1.000000e+00	6.114626e-04	
686	1.050000e+00	6.376101e-04	
687	1.100000e+00	6.633643e-04	
688	1.150000e+00	6.887288e-04	
689	1.200000e+00	7.137070e-04	
690	1.250000e+00	7.383024e-04	
691	1.300000e+00	7.625184e-04	
692	1.350000e+00	7.863583e-04	

Index   v-sweep         -i(vds)         
--------------------------------------------------------------------------------
693	1.400000e+00	8.098255e-04	
694	1.450000e+00	8.329232e-04	
695	1.500000e+00	8.556547e-04	
696	1.550000e+00	8.780231e-04	
697	1.600000e+00	9.000315e-04	
698	1.650000e+00	9.216831e-04	
699	1.700000e+00	9.429807e-04	
700	1.750000e+00	9.639273e-04	
701	1.800000e+00	9.845259e-04	
702	1.850000e+00	1.004779e-03	
703	1.900000e+00	1.024690e-03	
704	1.950000e+00	1.044261e-03	
705	2.000000e+00	1.063494e-03	
706	2.050000e+00	1.082393e-03	
707	2.100000e+00	1.100958e-03	
708	2.150000e+00	1.119192e-03	
709	2.200000e+00	1.137096e-03	
710	2.250000e+00	1.154672e-03	
711	2.300000e+00	1.171918e-03	
712	2.350000e+00	1.188834e-03	
713	2.400000e+00	1.205416e-03	
714	2.450000e+00	1.221658e-03	
715	2.500000e+00	1.237547e-03	
716	2.550000e+00	1.253063e-03	
717	2.600000e+00	1.268170e-03	
718	2.650000e+00	1.282810e-03	
719	2.700000e+00	1.296889e-03	
720	2.750000e+00	1.310275e-03	
721	2.800000e+00	1.322805e-03	
722	2.850000e+00	1.334329e-03	
723	2.900000e+00	1.344767e-03	
724	2.950000e+00	1.354132e-03	
725	3.000000e+00	1.362510e-03	
726	3.050000e+00	1.370021e-03	
727	3.100000e+00	1.376790e-03	
728	3.150000e+00	1.382928e-03	
729	3.200000e+00	1.388530e-03	
730	3.250000e+00	1.393675e-03	
731	3.300000e+00	1.398427e-03	
732	3.350000e+00	1.402839e-03	
733	3.400000e+00	1.406954e-03	
734	3.450000e+00	1.410810e-03	
735	3.500000e+00	1.414435e-03	
736	3.550000e+00	1.417857e-03	
737	3.600000e+00	1.421095e-03	
738	3.650000e+00	1.424168e-03	
739	3.700000e+00	1.427093e-03	
740	3.750000e+00	1.429882e-03	
741	3.800000e+00	1.432548e-03	
742	3.850000e+00	1.435102e-03	
743	3.900000e+00	1.437551e-03	
744	3.950000e+00	1.439905e-03	
745	4.000000e+00	1.442170e-03	
746	4.050000e+00	1.444354e-03	
747	4.100000e+00	1.446461e-03	
748	4.150000e+00	1.448497e-03	
749	4.200000e+00	1.450467e-03	
750	4.250000e+00	1.452374e-03	

Index   v-sweep         -i(vds)         
--------------------------------------------------------------------------------
751	4.300000e+00	1.454223e-03	
752	4.350000e+00	1.456018e-03	
753	4.400000e+00	1.457760e-03	
754	4.450000e+00	1.459454e-03	
755	4.500000e+00	1.461102e-03	
756	4.550000e+00	1.462707e-03	
757	4.600000e+00	1.464270e-03	
758	4.650000e+00	1.465794e-03	
759	4.700000e+00	1.467281e-03	
760	4.750000e+00	1.468733e-03	
761	4.800000e+00	1.470151e-03	
762	4.850000e+00	1.471538e-03	
763	4.900000e+00	1.472893e-03	
764	4.950000e+00	1.474220e-03	
765	5.000000e+00	1.475519e-03	
766	5.050000e+00	1.476791e-03	
767	5.100000e+00	1.478038e-03	
768	5.150000e+00	1.479261e-03	
769	5.200000e+00	1.480460e-03	
770	5.250000e+00	1.481637e-03	
771	5.300000e+00	1.482793e-03	
772	5.350000e+00	1.483928e-03	
773	5.400000e+00	1.485043e-03	
774	5.450000e+00	1.486139e-03	
775	5.500000e+00	1.487217e-03	
776	5.550000e+00	1.488278e-03	
777	5.600000e+00	1.489322e-03	
778	5.650000e+00	1.490349e-03	
779	5.700000e+00	1.491361e-03	
780	5.750000e+00	1.492358e-03	
781	5.800000e+00	1.493341e-03	
782	5.850000e+00	1.494310e-03	
783	5.900000e+00	1.495265e-03	
784	5.950000e+00	1.496207e-03	
785	6.000000e+00	1.497137e-03	
786	6.050000e+00	1.498054e-03	
787	6.100000e+00	1.498960e-03	
788	6.150000e+00	1.499855e-03	
789	6.200000e+00	1.500739e-03	
790	6.250000e+00	1.501613e-03	
791	6.300000e+00	1.502476e-03	
792	6.350000e+00	1.503329e-03	
793	6.400000e+00	1.504173e-03	
794	6.450000e+00	1.505008e-03	
795	6.500000e+00	1.505834e-03	
796	6.550000e+00	1.506652e-03	
797	6.600000e+00	1.507461e-03	
Note: No ".plot", ".print", or ".fourier" lines; no simulations run
