
Note: Compatibility modes selected: hs

Warning: m=xx on .subckt line will override multiplier m hierarchy!


Circuit: ***************************

Doing analysis at TEMP = -40.000000 and TNOM = -40.000000


No. of Data Rows : 798
                          ***************************
                          DC transfer characteristic  Mon Jan  9 13:58:05  2023
--------------------------------------------------------------------------------
Index   v-sweep         -i(vds)         
--------------------------------------------------------------------------------
0	0.000000e+00	-0.000000e+00	
1	5.000000e-02	1.843114e-05	
2	1.000000e-01	3.305774e-05	
3	1.500000e-01	4.398343e-05	
4	2.000000e-01	5.143688e-05	
5	2.500000e-01	5.616523e-05	
6	3.000000e-01	5.947455e-05	
7	3.500000e-01	6.213877e-05	
8	4.000000e-01	6.443172e-05	
9	4.500000e-01	6.647770e-05	
10	5.000000e-01	6.834705e-05	
11	5.500000e-01	7.008404e-05	
12	6.000000e-01	7.171839e-05	
13	6.500000e-01	7.327101e-05	
14	7.000000e-01	7.475715e-05	
15	7.500000e-01	7.618828e-05	
16	8.000000e-01	7.757322e-05	
17	8.500000e-01	7.891889e-05	
18	9.000000e-01	8.023084e-05	
19	9.500000e-01	8.151355e-05	
20	1.000000e+00	8.277070e-05	
21	1.050000e+00	8.400538e-05	
22	1.100000e+00	8.522014e-05	
23	1.150000e+00	8.641717e-05	
24	1.200000e+00	8.759834e-05	
25	1.250000e+00	8.876524e-05	
26	1.300000e+00	8.991926e-05	
27	1.350000e+00	9.106162e-05	
28	1.400000e+00	9.219337e-05	
29	1.450000e+00	9.331545e-05	
30	1.500000e+00	9.442868e-05	
31	1.550000e+00	9.553379e-05	
32	1.600000e+00	9.663145e-05	
33	1.650000e+00	9.772224e-05	
34	1.700000e+00	9.880669e-05	
35	1.750000e+00	9.988528e-05	
36	1.800000e+00	1.009584e-04	
37	1.850000e+00	1.020265e-04	
38	1.900000e+00	1.030900e-04	
39	1.950000e+00	1.041490e-04	
40	2.000000e+00	1.052041e-04	
41	2.050000e+00	1.062553e-04	
42	2.100000e+00	1.073030e-04	
43	2.150000e+00	1.083474e-04	
44	2.200000e+00	1.093887e-04	
45	2.250000e+00	1.104271e-04	
46	2.300000e+00	1.114629e-04	
47	2.350000e+00	1.124961e-04	
48	2.400000e+00	1.135269e-04	
49	2.450000e+00	1.145555e-04	
50	2.500000e+00	1.155821e-04	
51	2.550000e+00	1.166066e-04	
52	2.600000e+00	1.176294e-04	
53	2.650000e+00	1.186505e-04	
54	2.700000e+00	1.196699e-04	

Index   v-sweep         -i(vds)         
--------------------------------------------------------------------------------
55	2.750000e+00	1.206879e-04	
56	2.800000e+00	1.217045e-04	
57	2.850000e+00	1.227197e-04	
58	2.900000e+00	1.237338e-04	
59	2.950000e+00	1.247467e-04	
60	3.000000e+00	1.257585e-04	
61	3.050000e+00	1.267694e-04	
62	3.100000e+00	1.277793e-04	
63	3.150000e+00	1.287884e-04	
64	3.200000e+00	1.297967e-04	
65	3.250000e+00	1.308042e-04	
66	3.300000e+00	1.318111e-04	
67	3.350000e+00	1.328174e-04	
68	3.400000e+00	1.338231e-04	
69	3.450000e+00	1.348284e-04	
70	3.500000e+00	1.358331e-04	
71	3.550000e+00	1.368374e-04	
72	3.600000e+00	1.378414e-04	
73	3.650000e+00	1.388450e-04	
74	3.700000e+00	1.398484e-04	
75	3.750000e+00	1.408515e-04	
76	3.800000e+00	1.418543e-04	
77	3.850000e+00	1.428571e-04	
78	3.900000e+00	1.438596e-04	
79	3.950000e+00	1.448621e-04	
80	4.000000e+00	1.458644e-04	
81	4.050000e+00	1.468668e-04	
82	4.100000e+00	1.478691e-04	
83	4.150000e+00	1.488714e-04	
84	4.200000e+00	1.498738e-04	
85	4.250000e+00	1.508762e-04	
86	4.300000e+00	1.518787e-04	
87	4.350000e+00	1.528813e-04	
88	4.400000e+00	1.538841e-04	
89	4.450000e+00	1.548870e-04	
90	4.500000e+00	1.558902e-04	
91	4.550000e+00	1.568935e-04	
92	4.600000e+00	1.578970e-04	
93	4.650000e+00	1.589008e-04	
94	4.700000e+00	1.599049e-04	
95	4.750000e+00	1.609092e-04	
96	4.800000e+00	1.619139e-04	
97	4.850000e+00	1.629188e-04	
98	4.900000e+00	1.639241e-04	
99	4.950000e+00	1.649298e-04	
100	5.000000e+00	1.659358e-04	
101	5.050000e+00	1.669422e-04	
102	5.100000e+00	1.679490e-04	
103	5.150000e+00	1.689562e-04	
104	5.200000e+00	1.699638e-04	
105	5.250000e+00	1.709718e-04	
106	5.300000e+00	1.719803e-04	
107	5.350000e+00	1.729893e-04	
108	5.400000e+00	1.739987e-04	
109	5.450000e+00	1.750087e-04	
110	5.500000e+00	1.760191e-04	
111	5.550000e+00	1.770300e-04	
112	5.600000e+00	1.780414e-04	

Index   v-sweep         -i(vds)         
--------------------------------------------------------------------------------
113	5.650000e+00	1.790534e-04	
114	5.700000e+00	1.800659e-04	
115	5.750000e+00	1.810789e-04	
116	5.800000e+00	1.820925e-04	
117	5.850000e+00	1.831067e-04	
118	5.900000e+00	1.841214e-04	
119	5.950000e+00	1.851367e-04	
120	6.000000e+00	1.861526e-04	
121	6.050000e+00	1.871690e-04	
122	6.100000e+00	1.881861e-04	
123	6.150000e+00	1.892038e-04	
124	6.200000e+00	1.902221e-04	
125	6.250000e+00	1.912410e-04	
126	6.300000e+00	1.922605e-04	
127	6.350000e+00	1.932807e-04	
128	6.400000e+00	1.943015e-04	
129	6.450000e+00	1.953229e-04	
130	6.500000e+00	1.963450e-04	
131	6.550000e+00	1.973678e-04	
132	6.600000e+00	1.983911e-04	
133	0.000000e+00	-0.000000e+00	
134	5.000000e-02	8.070850e-05	
135	1.000000e-01	1.573760e-04	
136	1.500000e-01	2.300891e-04	
137	2.000000e-01	2.989323e-04	
138	2.500000e-01	3.639873e-04	
139	3.000000e-01	4.253336e-04	
140	3.500000e-01	4.830479e-04	
141	4.000000e-01	5.372042e-04	
142	4.500000e-01	5.878723e-04	
143	5.000000e-01	6.351154e-04	
144	5.500000e-01	6.789829e-04	
145	6.000000e-01	7.194883e-04	
146	6.500000e-01	7.565474e-04	
147	7.000000e-01	7.898297e-04	
148	7.500000e-01	8.186480e-04	
149	8.000000e-01	8.425035e-04	
150	8.500000e-01	8.618740e-04	
151	9.000000e-01	8.778087e-04	
152	9.500000e-01	8.912494e-04	
153	1.000000e+00	9.028654e-04	
154	1.050000e+00	9.131108e-04	
155	1.100000e+00	9.222974e-04	
156	1.150000e+00	9.306447e-04	
157	1.200000e+00	9.383121e-04	
158	1.250000e+00	9.454184e-04	
159	1.300000e+00	9.520541e-04	
160	1.350000e+00	9.582898e-04	
161	1.400000e+00	9.641816e-04	
162	1.450000e+00	9.697745e-04	
163	1.500000e+00	9.751055e-04	
164	1.550000e+00	9.802051e-04	
165	1.600000e+00	9.850989e-04	
166	1.650000e+00	9.898083e-04	
167	1.700000e+00	9.943517e-04	
168	1.750000e+00	9.987450e-04	
169	1.800000e+00	1.003002e-03	
170	1.850000e+00	1.007134e-03	

Index   v-sweep         -i(vds)         
--------------------------------------------------------------------------------
171	1.900000e+00	1.011152e-03	
172	1.950000e+00	1.015065e-03	
173	2.000000e+00	1.018881e-03	
174	2.050000e+00	1.022608e-03	
175	2.100000e+00	1.026251e-03	
176	2.150000e+00	1.029817e-03	
177	2.200000e+00	1.033311e-03	
178	2.250000e+00	1.036737e-03	
179	2.300000e+00	1.040100e-03	
180	2.350000e+00	1.043404e-03	
181	2.400000e+00	1.046652e-03	
182	2.450000e+00	1.049848e-03	
183	2.500000e+00	1.052994e-03	
184	2.550000e+00	1.056094e-03	
185	2.600000e+00	1.059150e-03	
186	2.650000e+00	1.062163e-03	
187	2.700000e+00	1.065137e-03	
188	2.750000e+00	1.068074e-03	
189	2.800000e+00	1.070975e-03	
190	2.850000e+00	1.073842e-03	
191	2.900000e+00	1.076676e-03	
192	2.950000e+00	1.079480e-03	
193	3.000000e+00	1.082254e-03	
194	3.050000e+00	1.085001e-03	
195	3.100000e+00	1.087720e-03	
196	3.150000e+00	1.090415e-03	
197	3.200000e+00	1.093085e-03	
198	3.250000e+00	1.095731e-03	
199	3.300000e+00	1.098355e-03	
200	3.350000e+00	1.100958e-03	
201	3.400000e+00	1.103541e-03	
202	3.450000e+00	1.106104e-03	
203	3.500000e+00	1.108648e-03	
204	3.550000e+00	1.111174e-03	
205	3.600000e+00	1.113683e-03	
206	3.650000e+00	1.116175e-03	
207	3.700000e+00	1.118651e-03	
208	3.750000e+00	1.121112e-03	
209	3.800000e+00	1.123559e-03	
210	3.850000e+00	1.125991e-03	
211	3.900000e+00	1.128410e-03	
212	3.950000e+00	1.130816e-03	
213	4.000000e+00	1.133209e-03	
214	4.050000e+00	1.135591e-03	
215	4.100000e+00	1.137961e-03	
216	4.150000e+00	1.140319e-03	
217	4.200000e+00	1.142668e-03	
218	4.250000e+00	1.145006e-03	
219	4.300000e+00	1.147334e-03	
220	4.350000e+00	1.149652e-03	
221	4.400000e+00	1.151961e-03	
222	4.450000e+00	1.154262e-03	
223	4.500000e+00	1.156554e-03	
224	4.550000e+00	1.158838e-03	
225	4.600000e+00	1.161115e-03	
226	4.650000e+00	1.163383e-03	
227	4.700000e+00	1.165645e-03	
228	4.750000e+00	1.167899e-03	

Index   v-sweep         -i(vds)         
--------------------------------------------------------------------------------
229	4.800000e+00	1.170147e-03	
230	4.850000e+00	1.172388e-03	
231	4.900000e+00	1.174624e-03	
232	4.950000e+00	1.176853e-03	
233	5.000000e+00	1.179076e-03	
234	5.050000e+00	1.181294e-03	
235	5.100000e+00	1.183507e-03	
236	5.150000e+00	1.185714e-03	
237	5.200000e+00	1.187917e-03	
238	5.250000e+00	1.190115e-03	
239	5.300000e+00	1.192308e-03	
240	5.350000e+00	1.194497e-03	
241	5.400000e+00	1.196682e-03	
242	5.450000e+00	1.198863e-03	
243	5.500000e+00	1.201040e-03	
244	5.550000e+00	1.203213e-03	
245	5.600000e+00	1.205383e-03	
246	5.650000e+00	1.207549e-03	
247	5.700000e+00	1.209712e-03	
248	5.750000e+00	1.211872e-03	
249	5.800000e+00	1.214029e-03	
250	5.850000e+00	1.216183e-03	
251	5.900000e+00	1.218334e-03	
252	5.950000e+00	1.220482e-03	
253	6.000000e+00	1.222628e-03	
254	6.050000e+00	1.224772e-03	
255	6.100000e+00	1.226913e-03	
256	6.150000e+00	1.229052e-03	
257	6.200000e+00	1.231189e-03	
258	6.250000e+00	1.233324e-03	
259	6.300000e+00	1.235457e-03	
260	6.350000e+00	1.237588e-03	
261	6.400000e+00	1.239717e-03	
262	6.450000e+00	1.241845e-03	
263	6.500000e+00	1.243971e-03	
264	6.550000e+00	1.246095e-03	
265	6.600000e+00	1.248219e-03	
266	0.000000e+00	-0.000000e+00	
267	5.000000e-02	1.244360e-04	
268	1.000000e-01	2.447128e-04	
269	1.500000e-01	3.609194e-04	
270	2.000000e-01	4.731422e-04	
271	2.500000e-01	5.814652e-04	
272	3.000000e-01	6.859696e-04	
273	3.500000e-01	7.867346e-04	
274	4.000000e-01	8.838364e-04	
275	4.500000e-01	9.773493e-04	
276	5.000000e-01	1.067344e-03	
277	5.500000e-01	1.153890e-03	
278	6.000000e-01	1.237052e-03	
279	6.500000e-01	1.316891e-03	
280	7.000000e-01	1.393461e-03	
281	7.500000e-01	1.466809e-03	
282	8.000000e-01	1.536960e-03	
283	8.500000e-01	1.603905e-03	
284	9.000000e-01	1.667549e-03	
285	9.500000e-01	1.727613e-03	
286	1.000000e+00	1.783428e-03	

Index   v-sweep         -i(vds)         
--------------------------------------------------------------------------------
287	1.050000e+00	1.833748e-03	
288	1.100000e+00	1.877195e-03	
289	1.150000e+00	1.913429e-03	
290	1.200000e+00	1.943407e-03	
291	1.250000e+00	1.968517e-03	
292	1.300000e+00	1.989958e-03	
293	1.350000e+00	2.008619e-03	
294	1.400000e+00	2.025131e-03	
295	1.450000e+00	2.039945e-03	
296	1.500000e+00	2.053391e-03	
297	1.550000e+00	2.065714e-03	
298	1.600000e+00	2.077098e-03	
299	1.650000e+00	2.087690e-03	
300	1.700000e+00	2.097602e-03	
301	1.750000e+00	2.106926e-03	
302	1.800000e+00	2.115737e-03	
303	1.850000e+00	2.124095e-03	
304	1.900000e+00	2.132052e-03	
305	1.950000e+00	2.139650e-03	
306	2.000000e+00	2.146926e-03	
307	2.050000e+00	2.153912e-03	
308	2.100000e+00	2.160633e-03	
309	2.150000e+00	2.167114e-03	
310	2.200000e+00	2.173375e-03	
311	2.250000e+00	2.179433e-03	
312	2.300000e+00	2.185305e-03	
313	2.350000e+00	2.191005e-03	
314	2.400000e+00	2.196545e-03	
315	2.450000e+00	2.201937e-03	
316	2.500000e+00	2.207190e-03	
317	2.550000e+00	2.212314e-03	
318	2.600000e+00	2.217317e-03	
319	2.650000e+00	2.222206e-03	
320	2.700000e+00	2.226989e-03	
321	2.750000e+00	2.231672e-03	
322	2.800000e+00	2.236260e-03	
323	2.850000e+00	2.240759e-03	
324	2.900000e+00	2.245173e-03	
325	2.950000e+00	2.249508e-03	
326	3.000000e+00	2.253767e-03	
327	3.050000e+00	2.257954e-03	
328	3.100000e+00	2.262072e-03	
329	3.150000e+00	2.266126e-03	
330	3.200000e+00	2.270118e-03	
331	3.250000e+00	2.274052e-03	
332	3.300000e+00	2.277929e-03	
333	3.350000e+00	2.281753e-03	
334	3.400000e+00	2.285526e-03	
335	3.450000e+00	2.289250e-03	
336	3.500000e+00	2.292928e-03	
337	3.550000e+00	2.296561e-03	
338	3.600000e+00	2.300151e-03	
339	3.650000e+00	2.303701e-03	
340	3.700000e+00	2.307211e-03	
341	3.750000e+00	2.310685e-03	
342	3.800000e+00	2.314122e-03	
343	3.850000e+00	2.317525e-03	
344	3.900000e+00	2.320895e-03	

Index   v-sweep         -i(vds)         
--------------------------------------------------------------------------------
345	3.950000e+00	2.324233e-03	
346	4.000000e+00	2.327541e-03	
347	4.050000e+00	2.330820e-03	
348	4.100000e+00	2.334071e-03	
349	4.150000e+00	2.337295e-03	
350	4.200000e+00	2.340493e-03	
351	4.250000e+00	2.343666e-03	
352	4.300000e+00	2.346815e-03	
353	4.350000e+00	2.349942e-03	
354	4.400000e+00	2.353046e-03	
355	4.450000e+00	2.356129e-03	
356	4.500000e+00	2.359192e-03	
357	4.550000e+00	2.362235e-03	
358	4.600000e+00	2.365259e-03	
359	4.650000e+00	2.368265e-03	
360	4.700000e+00	2.371253e-03	
361	4.750000e+00	2.374225e-03	
362	4.800000e+00	2.377181e-03	
363	4.850000e+00	2.380120e-03	
364	4.900000e+00	2.383045e-03	
365	4.950000e+00	2.385956e-03	
366	5.000000e+00	2.388852e-03	
367	5.050000e+00	2.391735e-03	
368	5.100000e+00	2.394605e-03	
369	5.150000e+00	2.397463e-03	
370	5.200000e+00	2.400309e-03	
371	5.250000e+00	2.403143e-03	
372	5.300000e+00	2.405966e-03	
373	5.350000e+00	2.408779e-03	
374	5.400000e+00	2.411581e-03	
375	5.450000e+00	2.414373e-03	
376	5.500000e+00	2.417156e-03	
377	5.550000e+00	2.419930e-03	
378	5.600000e+00	2.422695e-03	
379	5.650000e+00	2.425451e-03	
380	5.700000e+00	2.428199e-03	
381	5.750000e+00	2.430939e-03	
382	5.800000e+00	2.433672e-03	
383	5.850000e+00	2.436397e-03	
384	5.900000e+00	2.439116e-03	
385	5.950000e+00	2.441827e-03	
386	6.000000e+00	2.444532e-03	
387	6.050000e+00	2.447231e-03	
388	6.100000e+00	2.449924e-03	
389	6.150000e+00	2.452611e-03	
390	6.200000e+00	2.455293e-03	
391	6.250000e+00	2.457969e-03	
392	6.300000e+00	2.460640e-03	
393	6.350000e+00	2.463306e-03	
394	6.400000e+00	2.465968e-03	
395	6.450000e+00	2.468625e-03	
396	6.500000e+00	2.471277e-03	
397	6.550000e+00	2.473926e-03	
398	6.600000e+00	2.476570e-03	
399	0.000000e+00	-0.000000e+00	
400	5.000000e-02	1.566425e-04	
401	1.000000e-01	3.091828e-04	
402	1.500000e-01	4.577031e-04	

Index   v-sweep         -i(vds)         
--------------------------------------------------------------------------------
403	2.000000e-01	6.022833e-04	
404	2.500000e-01	7.430014e-04	
405	3.000000e-01	8.799330e-04	
406	3.500000e-01	1.013152e-03	
407	4.000000e-01	1.142729e-03	
408	4.500000e-01	1.268735e-03	
409	5.000000e-01	1.391237e-03	
410	5.500000e-01	1.510300e-03	
411	6.000000e-01	1.625987e-03	
412	6.500000e-01	1.738360e-03	
413	7.000000e-01	1.847477e-03	
414	7.500000e-01	1.953395e-03	
415	8.000000e-01	2.056166e-03	
416	8.500000e-01	2.155841e-03	
417	9.000000e-01	2.252464e-03	
418	9.500000e-01	2.346071e-03	
419	1.000000e+00	2.436684e-03	
420	1.050000e+00	2.524303e-03	
421	1.100000e+00	2.608879e-03	
422	1.150000e+00	2.690273e-03	
423	1.200000e+00	2.768150e-03	
424	1.250000e+00	2.841799e-03	
425	1.300000e+00	2.909917e-03	
426	1.350000e+00	2.970767e-03	
427	1.400000e+00	3.023148e-03	
428	1.450000e+00	3.067285e-03	
429	1.500000e+00	3.104452e-03	
430	1.550000e+00	3.136123e-03	
431	1.600000e+00	3.163540e-03	
432	1.650000e+00	3.187645e-03	
433	1.700000e+00	3.209130e-03	
434	1.750000e+00	3.228507e-03	
435	1.800000e+00	3.246157e-03	
436	1.850000e+00	3.262370e-03	
437	1.900000e+00	3.277373e-03	
438	1.950000e+00	3.291341e-03	
439	2.000000e+00	3.304418e-03	
440	2.050000e+00	3.316717e-03	
441	2.100000e+00	3.328334e-03	
442	2.150000e+00	3.339346e-03	
443	2.200000e+00	3.349819e-03	
444	2.250000e+00	3.359810e-03	
445	2.300000e+00	3.369365e-03	
446	2.350000e+00	3.378526e-03	
447	2.400000e+00	3.387327e-03	
448	2.450000e+00	3.395801e-03	
449	2.500000e+00	3.403973e-03	
450	2.550000e+00	3.411869e-03	
451	2.600000e+00	3.419509e-03	
452	2.650000e+00	3.426911e-03	
453	2.700000e+00	3.434094e-03	
454	2.750000e+00	3.441072e-03	
455	2.800000e+00	3.447858e-03	
456	2.850000e+00	3.454466e-03	
457	2.900000e+00	3.460905e-03	
458	2.950000e+00	3.467188e-03	
459	3.000000e+00	3.473322e-03	
460	3.050000e+00	3.479317e-03	

Index   v-sweep         -i(vds)         
--------------------------------------------------------------------------------
461	3.100000e+00	3.485180e-03	
462	3.150000e+00	3.490919e-03	
463	3.200000e+00	3.496540e-03	
464	3.250000e+00	3.502050e-03	
465	3.300000e+00	3.507454e-03	
466	3.350000e+00	3.512757e-03	
467	3.400000e+00	3.517965e-03	
468	3.450000e+00	3.523083e-03	
469	3.500000e+00	3.528113e-03	
470	3.550000e+00	3.533062e-03	
471	3.600000e+00	3.537932e-03	
472	3.650000e+00	3.542727e-03	
473	3.700000e+00	3.547451e-03	
474	3.750000e+00	3.552106e-03	
475	3.800000e+00	3.556696e-03	
476	3.850000e+00	3.561223e-03	
477	3.900000e+00	3.565691e-03	
478	3.950000e+00	3.570101e-03	
479	4.000000e+00	3.574456e-03	
480	4.050000e+00	3.578759e-03	
481	4.100000e+00	3.583012e-03	
482	4.150000e+00	3.587216e-03	
483	4.200000e+00	3.591374e-03	
484	4.250000e+00	3.595488e-03	
485	4.300000e+00	3.599559e-03	
486	4.350000e+00	3.603589e-03	
487	4.400000e+00	3.607579e-03	
488	4.450000e+00	3.611532e-03	
489	4.500000e+00	3.615449e-03	
490	4.550000e+00	3.619331e-03	
491	4.600000e+00	3.623179e-03	
492	4.650000e+00	3.626995e-03	
493	4.700000e+00	3.630780e-03	
494	4.750000e+00	3.634536e-03	
495	4.800000e+00	3.638262e-03	
496	4.850000e+00	3.641962e-03	
497	4.900000e+00	3.645634e-03	
498	4.950000e+00	3.649282e-03	
499	5.000000e+00	3.652904e-03	
500	5.050000e+00	3.656504e-03	
501	5.100000e+00	3.660080e-03	
502	5.150000e+00	3.663635e-03	
503	5.200000e+00	3.667169e-03	
504	5.250000e+00	3.670682e-03	
505	5.300000e+00	3.674176e-03	
506	5.350000e+00	3.677652e-03	
507	5.400000e+00	3.681109e-03	
508	5.450000e+00	3.684549e-03	
509	5.500000e+00	3.687972e-03	
510	5.550000e+00	3.691379e-03	
511	5.600000e+00	3.694771e-03	
512	5.650000e+00	3.698148e-03	
513	5.700000e+00	3.701510e-03	
514	5.750000e+00	3.704859e-03	
515	5.800000e+00	3.708195e-03	
516	5.850000e+00	3.711517e-03	
517	5.900000e+00	3.714828e-03	
518	5.950000e+00	3.718126e-03	

Index   v-sweep         -i(vds)         
--------------------------------------------------------------------------------
519	6.000000e+00	3.721414e-03	
520	6.050000e+00	3.724690e-03	
521	6.100000e+00	3.727956e-03	
522	6.150000e+00	3.731211e-03	
523	6.200000e+00	3.734457e-03	
524	6.250000e+00	3.737694e-03	
525	6.300000e+00	3.740922e-03	
526	6.350000e+00	3.744140e-03	
527	6.400000e+00	3.747351e-03	
528	6.450000e+00	3.750554e-03	
529	6.500000e+00	3.753749e-03	
530	6.550000e+00	3.756936e-03	
531	6.600000e+00	3.760117e-03	
532	0.000000e+00	-0.000000e+00	
533	5.000000e-02	1.799586e-04	
534	1.000000e-01	3.560072e-04	
535	1.500000e-01	5.282178e-04	
536	2.000000e-01	6.966603e-04	
537	2.500000e-01	8.614032e-04	
538	3.000000e-01	1.022513e-03	
539	3.500000e-01	1.180055e-03	
540	4.000000e-01	1.334092e-03	
541	4.500000e-01	1.484686e-03	
542	5.000000e-01	1.631898e-03	
543	5.500000e-01	1.775785e-03	
544	6.000000e-01	1.916405e-03	
545	6.500000e-01	2.053813e-03	
546	7.000000e-01	2.188063e-03	
547	7.500000e-01	2.319208e-03	
548	8.000000e-01	2.447296e-03	
549	8.500000e-01	2.572378e-03	
550	9.000000e-01	2.694500e-03	
551	9.500000e-01	2.813706e-03	
552	1.000000e+00	2.930040e-03	
553	1.050000e+00	3.043540e-03	
554	1.100000e+00	3.154241e-03	
555	1.150000e+00	3.262172e-03	
556	1.200000e+00	3.367353e-03	
557	1.250000e+00	3.469787e-03	
558	1.300000e+00	3.569450e-03	
559	1.350000e+00	3.666265e-03	
560	1.400000e+00	3.760060e-03	
561	1.450000e+00	3.850469e-03	
562	1.500000e+00	3.936777e-03	
563	1.550000e+00	4.017722e-03	
564	1.600000e+00	4.091542e-03	
565	1.650000e+00	4.156680e-03	
566	1.700000e+00	4.212746e-03	
567	1.750000e+00	4.260600e-03	
568	1.800000e+00	4.301656e-03	
569	1.850000e+00	4.337289e-03	
570	1.900000e+00	4.368625e-03	
571	1.950000e+00	4.396531e-03	
572	2.000000e+00	4.421659e-03	
573	2.050000e+00	4.444506e-03	
574	2.100000e+00	4.465452e-03	
575	2.150000e+00	4.484794e-03	
576	2.200000e+00	4.502767e-03	

Index   v-sweep         -i(vds)         
--------------------------------------------------------------------------------
577	2.250000e+00	4.519558e-03	
578	2.300000e+00	4.535320e-03	
579	2.350000e+00	4.550177e-03	
580	2.400000e+00	4.564234e-03	
581	2.450000e+00	4.577578e-03	
582	2.500000e+00	4.590283e-03	
583	2.550000e+00	4.602413e-03	
584	2.600000e+00	4.614020e-03	
585	2.650000e+00	4.625154e-03	
586	2.700000e+00	4.635853e-03	
587	2.750000e+00	4.646155e-03	
588	2.800000e+00	4.656091e-03	
589	2.850000e+00	4.665690e-03	
590	2.900000e+00	4.674975e-03	
591	2.950000e+00	4.683970e-03	
592	3.000000e+00	4.692695e-03	
593	3.050000e+00	4.701167e-03	
594	3.100000e+00	4.709403e-03	
595	3.150000e+00	4.717419e-03	
596	3.200000e+00	4.725226e-03	
597	3.250000e+00	4.732839e-03	
598	3.300000e+00	4.740267e-03	
599	3.350000e+00	4.747522e-03	
600	3.400000e+00	4.754613e-03	
601	3.450000e+00	4.761549e-03	
602	3.500000e+00	4.768338e-03	
603	3.550000e+00	4.774988e-03	
604	3.600000e+00	4.781505e-03	
605	3.650000e+00	4.787897e-03	
606	3.700000e+00	4.794169e-03	
607	3.750000e+00	4.800327e-03	
608	3.800000e+00	4.806377e-03	
609	3.850000e+00	4.812324e-03	
610	3.900000e+00	4.818171e-03	
611	3.950000e+00	4.823925e-03	
612	4.000000e+00	4.829589e-03	
613	4.050000e+00	4.835166e-03	
614	4.100000e+00	4.840662e-03	
615	4.150000e+00	4.846079e-03	
616	4.200000e+00	4.851420e-03	
617	4.250000e+00	4.856689e-03	
618	4.300000e+00	4.861890e-03	
619	4.350000e+00	4.867024e-03	
620	4.400000e+00	4.872094e-03	
621	4.450000e+00	4.877104e-03	
622	4.500000e+00	4.882055e-03	
623	4.550000e+00	4.886950e-03	
624	4.600000e+00	4.891791e-03	
625	4.650000e+00	4.896581e-03	
626	4.700000e+00	4.901321e-03	
627	4.750000e+00	4.906013e-03	
628	4.800000e+00	4.910660e-03	
629	4.850000e+00	4.915263e-03	
630	4.900000e+00	4.919823e-03	
631	4.950000e+00	4.924343e-03	
632	5.000000e+00	4.928824e-03	
633	5.050000e+00	4.933267e-03	
634	5.100000e+00	4.937674e-03	

Index   v-sweep         -i(vds)         
--------------------------------------------------------------------------------
635	5.150000e+00	4.942046e-03	
636	5.200000e+00	4.946385e-03	
637	5.250000e+00	4.950692e-03	
638	5.300000e+00	4.954968e-03	
639	5.350000e+00	4.959215e-03	
640	5.400000e+00	4.963432e-03	
641	5.450000e+00	4.967623e-03	
642	5.500000e+00	4.971787e-03	
643	5.550000e+00	4.975925e-03	
644	5.600000e+00	4.980039e-03	
645	5.650000e+00	4.984129e-03	
646	5.700000e+00	4.988197e-03	
647	5.750000e+00	4.992243e-03	
648	5.800000e+00	4.996268e-03	
649	5.850000e+00	5.000272e-03	
650	5.900000e+00	5.004258e-03	
651	5.950000e+00	5.008224e-03	
652	6.000000e+00	5.012173e-03	
653	6.050000e+00	5.016104e-03	
654	6.100000e+00	5.020019e-03	
655	6.150000e+00	5.023917e-03	
656	6.200000e+00	5.027801e-03	
657	6.250000e+00	5.031669e-03	
658	6.300000e+00	5.035523e-03	
659	6.350000e+00	5.039364e-03	
660	6.400000e+00	5.043191e-03	
661	6.450000e+00	5.047006e-03	
662	6.500000e+00	5.050808e-03	
663	6.550000e+00	5.054599e-03	
664	6.600000e+00	5.058379e-03	
665	0.000000e+00	-0.000000e+00	
666	5.000000e-02	1.963498e-04	
667	1.000000e-01	3.890604e-04	
668	1.500000e-01	5.781927e-04	
669	2.000000e-01	7.638060e-04	
670	2.500000e-01	9.459583e-04	
671	3.000000e-01	1.124707e-03	
672	3.500000e-01	1.300106e-03	
673	4.000000e-01	1.472211e-03	
674	4.500000e-01	1.641075e-03	
675	5.000000e-01	1.806750e-03	
676	5.500000e-01	1.969285e-03	
677	6.000000e-01	2.128731e-03	
678	6.500000e-01	2.285136e-03	
679	7.000000e-01	2.438546e-03	
680	7.500000e-01	2.589007e-03	
681	8.000000e-01	2.736565e-03	
682	8.500000e-01	2.881262e-03	
683	9.000000e-01	3.023140e-03	
684	9.500000e-01	3.162242e-03	
685	1.000000e+00	3.298605e-03	
686	1.050000e+00	3.432270e-03	
687	1.100000e+00	3.563272e-03	
688	1.150000e+00	3.691647e-03	
689	1.200000e+00	3.817429e-03	
690	1.250000e+00	3.940648e-03	
691	1.300000e+00	4.061333e-03	
692	1.350000e+00	4.179509e-03	

Index   v-sweep         -i(vds)         
--------------------------------------------------------------------------------
693	1.400000e+00	4.295191e-03	
694	1.450000e+00	4.408390e-03	
695	1.500000e+00	4.519096e-03	
696	1.550000e+00	4.627277e-03	
697	1.600000e+00	4.732849e-03	
698	1.650000e+00	4.835646e-03	
699	1.700000e+00	4.935338e-03	
700	1.750000e+00	5.031311e-03	
701	1.800000e+00	5.122498e-03	
702	1.850000e+00	5.207321e-03	
703	1.900000e+00	5.284065e-03	
704	1.950000e+00	5.351714e-03	
705	2.000000e+00	5.410450e-03	
706	2.050000e+00	5.461336e-03	
707	2.100000e+00	5.505706e-03	
708	2.150000e+00	5.544788e-03	
709	2.200000e+00	5.579591e-03	
710	2.250000e+00	5.610903e-03	
711	2.300000e+00	5.639338e-03	
712	2.350000e+00	5.665369e-03	
713	2.400000e+00	5.689371e-03	
714	2.450000e+00	5.711639e-03	
715	2.500000e+00	5.732410e-03	
716	2.550000e+00	5.751879e-03	
717	2.600000e+00	5.770204e-03	
718	2.650000e+00	5.787516e-03	
719	2.700000e+00	5.803928e-03	
720	2.750000e+00	5.819533e-03	
721	2.800000e+00	5.834410e-03	
722	2.850000e+00	5.848629e-03	
723	2.900000e+00	5.862250e-03	
724	2.950000e+00	5.875324e-03	
725	3.000000e+00	5.887897e-03	
726	3.050000e+00	5.900009e-03	
727	3.100000e+00	5.911695e-03	
728	3.150000e+00	5.922988e-03	
729	3.200000e+00	5.933915e-03	
730	3.250000e+00	5.944502e-03	
731	3.300000e+00	5.954771e-03	
732	3.350000e+00	5.964744e-03	
733	3.400000e+00	5.974439e-03	
734	3.450000e+00	5.983872e-03	
735	3.500000e+00	5.993061e-03	
736	3.550000e+00	6.002018e-03	
737	3.600000e+00	6.010758e-03	
738	3.650000e+00	6.019291e-03	
739	3.700000e+00	6.027630e-03	
740	3.750000e+00	6.035784e-03	
741	3.800000e+00	6.043763e-03	
742	3.850000e+00	6.051576e-03	
743	3.900000e+00	6.059232e-03	
744	3.950000e+00	6.066737e-03	
745	4.000000e+00	6.074100e-03	
746	4.050000e+00	6.081326e-03	
747	4.100000e+00	6.088423e-03	
748	4.150000e+00	6.095395e-03	
749	4.200000e+00	6.102250e-03	
750	4.250000e+00	6.108992e-03	

Index   v-sweep         -i(vds)         
--------------------------------------------------------------------------------
751	4.300000e+00	6.115626e-03	
752	4.350000e+00	6.122157e-03	
753	4.400000e+00	6.128589e-03	
754	4.450000e+00	6.134927e-03	
755	4.500000e+00	6.141174e-03	
756	4.550000e+00	6.147334e-03	
757	4.600000e+00	6.153412e-03	
758	4.650000e+00	6.159409e-03	
759	4.700000e+00	6.165331e-03	
760	4.750000e+00	6.171179e-03	
761	4.800000e+00	6.176957e-03	
762	4.850000e+00	6.182667e-03	
763	4.900000e+00	6.188313e-03	
764	4.950000e+00	6.193896e-03	
765	5.000000e+00	6.199420e-03	
766	5.050000e+00	6.204887e-03	
767	5.100000e+00	6.210298e-03	
768	5.150000e+00	6.215656e-03	
769	5.200000e+00	6.220964e-03	
770	5.250000e+00	6.226223e-03	
771	5.300000e+00	6.231434e-03	
772	5.350000e+00	6.236600e-03	
773	5.400000e+00	6.241723e-03	
774	5.450000e+00	6.246804e-03	
775	5.500000e+00	6.251845e-03	
776	5.550000e+00	6.256848e-03	
777	5.600000e+00	6.261813e-03	
778	5.650000e+00	6.266742e-03	
779	5.700000e+00	6.271637e-03	
780	5.750000e+00	6.276498e-03	
781	5.800000e+00	6.281328e-03	
782	5.850000e+00	6.286127e-03	
783	5.900000e+00	6.290897e-03	
784	5.950000e+00	6.295639e-03	
785	6.000000e+00	6.300353e-03	
786	6.050000e+00	6.305041e-03	
787	6.100000e+00	6.309703e-03	
788	6.150000e+00	6.314342e-03	
789	6.200000e+00	6.318957e-03	
790	6.250000e+00	6.323549e-03	
791	6.300000e+00	6.328120e-03	
792	6.350000e+00	6.332670e-03	
793	6.400000e+00	6.337200e-03	
794	6.450000e+00	6.341711e-03	
795	6.500000e+00	6.346203e-03	
796	6.550000e+00	6.350678e-03	
797	6.600000e+00	6.355135e-03	
Note: No ".plot", ".print", or ".fourier" lines; no simulations run
