
Note: Compatibility modes selected: hs

Warning: m=xx on .subckt line will override multiplier m hierarchy!


Circuit: ***************************

Doing analysis at TEMP = 125.000000 and TNOM = 125.000000


No. of Data Rows : 798
                          ***************************
                          DC transfer characteristic  Mon Jan  9 13:58:05  2023
--------------------------------------------------------------------------------
Index   v-sweep         -i(vds)         
--------------------------------------------------------------------------------
0	0.000000e+00	-0.000000e+00	
1	5.000000e-02	8.328060e-06	
2	1.000000e-01	1.559362e-05	
3	1.500000e-01	2.191736e-05	
4	2.000000e-01	2.733676e-05	
5	2.500000e-01	3.186913e-05	
6	3.000000e-01	3.552867e-05	
7	3.500000e-01	3.833545e-05	
8	4.000000e-01	4.033574e-05	
9	4.500000e-01	4.166037e-05	
10	5.000000e-01	4.255840e-05	
11	5.500000e-01	4.324584e-05	
12	6.000000e-01	4.382014e-05	
13	6.500000e-01	4.432027e-05	
14	7.000000e-01	4.476568e-05	
15	7.500000e-01	4.516820e-05	
16	8.000000e-01	4.553594e-05	
17	8.500000e-01	4.587478e-05	
18	9.000000e-01	4.618920e-05	
19	9.500000e-01	4.648269e-05	
20	1.000000e+00	4.675802e-05	
21	1.050000e+00	4.701745e-05	
22	1.100000e+00	4.726285e-05	
23	1.150000e+00	4.749575e-05	
24	1.200000e+00	4.771748e-05	
25	1.250000e+00	4.792913e-05	
26	1.300000e+00	4.813166e-05	
27	1.350000e+00	4.832589e-05	
28	1.400000e+00	4.851255e-05	
29	1.450000e+00	4.869225e-05	
30	1.500000e+00	4.886556e-05	
31	1.550000e+00	4.903296e-05	
32	1.600000e+00	4.919488e-05	
33	1.650000e+00	4.935173e-05	
34	1.700000e+00	4.950384e-05	
35	1.750000e+00	4.965153e-05	
36	1.800000e+00	4.979509e-05	
37	1.850000e+00	4.993477e-05	
38	1.900000e+00	5.007081e-05	
39	1.950000e+00	5.020342e-05	
40	2.000000e+00	5.033281e-05	
41	2.050000e+00	5.045914e-05	
42	2.100000e+00	5.058258e-05	
43	2.150000e+00	5.070329e-05	
44	2.200000e+00	5.082141e-05	
45	2.250000e+00	5.093707e-05	
46	2.300000e+00	5.105039e-05	
47	2.350000e+00	5.116148e-05	
48	2.400000e+00	5.127044e-05	
49	2.450000e+00	5.137738e-05	
50	2.500000e+00	5.148239e-05	
51	2.550000e+00	5.158556e-05	
52	2.600000e+00	5.168695e-05	
53	2.650000e+00	5.178666e-05	
54	2.700000e+00	5.188474e-05	

Index   v-sweep         -i(vds)         
--------------------------------------------------------------------------------
55	2.750000e+00	5.198127e-05	
56	2.800000e+00	5.207631e-05	
57	2.850000e+00	5.216992e-05	
58	2.900000e+00	5.226216e-05	
59	2.950000e+00	5.235308e-05	
60	3.000000e+00	5.244272e-05	
61	3.050000e+00	5.253115e-05	
62	3.100000e+00	5.261839e-05	
63	3.150000e+00	5.270451e-05	
64	3.200000e+00	5.278953e-05	
65	3.250000e+00	5.287349e-05	
66	3.300000e+00	5.295644e-05	
67	3.350000e+00	5.303841e-05	
68	3.400000e+00	5.311943e-05	
69	3.450000e+00	5.319954e-05	
70	3.500000e+00	5.327876e-05	
71	3.550000e+00	5.335713e-05	
72	3.600000e+00	5.343467e-05	
73	3.650000e+00	5.351141e-05	
74	3.700000e+00	5.358738e-05	
75	3.750000e+00	5.366260e-05	
76	3.800000e+00	5.373709e-05	
77	3.850000e+00	5.381089e-05	
78	3.900000e+00	5.388400e-05	
79	3.950000e+00	5.395645e-05	
80	4.000000e+00	5.402826e-05	
81	4.050000e+00	5.409945e-05	
82	4.100000e+00	5.417003e-05	
83	4.150000e+00	5.424004e-05	
84	4.200000e+00	5.430947e-05	
85	4.250000e+00	5.437836e-05	
86	4.300000e+00	5.444671e-05	
87	4.350000e+00	5.451455e-05	
88	4.400000e+00	5.458187e-05	
89	4.450000e+00	5.464871e-05	
90	4.500000e+00	5.471507e-05	
91	4.550000e+00	5.478097e-05	
92	4.600000e+00	5.484642e-05	
93	4.650000e+00	5.491143e-05	
94	4.700000e+00	5.497601e-05	
95	4.750000e+00	5.504018e-05	
96	4.800000e+00	5.510394e-05	
97	4.850000e+00	5.516732e-05	
98	4.900000e+00	5.523030e-05	
99	4.950000e+00	5.529292e-05	
100	5.000000e+00	5.535517e-05	
101	5.050000e+00	5.541707e-05	
102	5.100000e+00	5.547863e-05	
103	5.150000e+00	5.553985e-05	
104	5.200000e+00	5.560074e-05	
105	5.250000e+00	5.566131e-05	
106	5.300000e+00	5.572157e-05	
107	5.350000e+00	5.578153e-05	
108	5.400000e+00	5.584119e-05	
109	5.450000e+00	5.590056e-05	
110	5.500000e+00	5.595965e-05	
111	5.550000e+00	5.601846e-05	
112	5.600000e+00	5.607701e-05	

Index   v-sweep         -i(vds)         
--------------------------------------------------------------------------------
113	5.650000e+00	5.613529e-05	
114	5.700000e+00	5.619332e-05	
115	5.750000e+00	5.625110e-05	
116	5.800000e+00	5.630863e-05	
117	5.850000e+00	5.636593e-05	
118	5.900000e+00	5.642299e-05	
119	5.950000e+00	5.647982e-05	
120	6.000000e+00	5.653644e-05	
121	6.050000e+00	5.659283e-05	
122	6.100000e+00	5.664901e-05	
123	6.150000e+00	5.670499e-05	
124	6.200000e+00	5.676076e-05	
125	6.250000e+00	5.681633e-05	
126	6.300000e+00	5.687171e-05	
127	6.350000e+00	5.692690e-05	
128	6.400000e+00	5.698190e-05	
129	6.450000e+00	5.703672e-05	
130	6.500000e+00	5.709137e-05	
131	6.550000e+00	5.714583e-05	
132	6.600000e+00	5.720013e-05	
133	0.000000e+00	-0.000000e+00	
134	5.000000e-02	2.448904e-05	
135	1.000000e-01	4.792599e-05	
136	1.500000e-01	7.043117e-05	
137	2.000000e-01	9.204136e-05	
138	2.500000e-01	1.127723e-04	
139	3.000000e-01	1.326344e-04	
140	3.500000e-01	1.516367e-04	
141	4.000000e-01	1.697876e-04	
142	4.500000e-01	1.870954e-04	
143	5.000000e-01	2.035684e-04	
144	5.500000e-01	2.192147e-04	
145	6.000000e-01	2.340423e-04	
146	6.500000e-01	2.480591e-04	
147	7.000000e-01	2.612730e-04	
148	7.500000e-01	2.736916e-04	
149	8.000000e-01	2.853226e-04	
150	8.500000e-01	2.961737e-04	
151	9.000000e-01	3.062524e-04	
152	9.500000e-01	3.155661e-04	
153	1.000000e+00	3.241222e-04	
154	1.050000e+00	3.319281e-04	
155	1.100000e+00	3.389910e-04	
156	1.150000e+00	3.453185e-04	
157	1.200000e+00	3.509225e-04	
158	1.250000e+00	3.558314e-04	
159	1.300000e+00	3.601072e-04	
160	1.350000e+00	3.638419e-04	
161	1.400000e+00	3.671333e-04	
162	1.450000e+00	3.700657e-04	
163	1.500000e+00	3.727060e-04	
164	1.550000e+00	3.751056e-04	
165	1.600000e+00	3.773043e-04	
166	1.650000e+00	3.793331e-04	
167	1.700000e+00	3.812165e-04	
168	1.750000e+00	3.829740e-04	
169	1.800000e+00	3.846217e-04	
170	1.850000e+00	3.861726e-04	

Index   v-sweep         -i(vds)         
--------------------------------------------------------------------------------
171	1.900000e+00	3.876378e-04	
172	1.950000e+00	3.890263e-04	
173	2.000000e+00	3.903459e-04	
174	2.050000e+00	3.916034e-04	
175	2.100000e+00	3.928045e-04	
176	2.150000e+00	3.939541e-04	
177	2.200000e+00	3.950566e-04	
178	2.250000e+00	3.961159e-04	
179	2.300000e+00	3.971352e-04	
180	2.350000e+00	3.981177e-04	
181	2.400000e+00	3.990660e-04	
182	2.450000e+00	3.999825e-04	
183	2.500000e+00	4.008692e-04	
184	2.550000e+00	4.017283e-04	
185	2.600000e+00	4.025614e-04	
186	2.650000e+00	4.033701e-04	
187	2.700000e+00	4.041559e-04	
188	2.750000e+00	4.049201e-04	
189	2.800000e+00	4.056640e-04	
190	2.850000e+00	4.063886e-04	
191	2.900000e+00	4.070950e-04	
192	2.950000e+00	4.077841e-04	
193	3.000000e+00	4.084569e-04	
194	3.050000e+00	4.091140e-04	
195	3.100000e+00	4.097564e-04	
196	3.150000e+00	4.103847e-04	
197	3.200000e+00	4.109995e-04	
198	3.250000e+00	4.116015e-04	
199	3.300000e+00	4.121912e-04	
200	3.350000e+00	4.127693e-04	
201	3.400000e+00	4.133361e-04	
202	3.450000e+00	4.138922e-04	
203	3.500000e+00	4.144380e-04	
204	3.550000e+00	4.149740e-04	
205	3.600000e+00	4.155005e-04	
206	3.650000e+00	4.160179e-04	
207	3.700000e+00	4.165267e-04	
208	3.750000e+00	4.170270e-04	
209	3.800000e+00	4.175192e-04	
210	3.850000e+00	4.180038e-04	
211	3.900000e+00	4.184808e-04	
212	3.950000e+00	4.189506e-04	
213	4.000000e+00	4.194135e-04	
214	4.050000e+00	4.198697e-04	
215	4.100000e+00	4.203195e-04	
216	4.150000e+00	4.207630e-04	
217	4.200000e+00	4.212005e-04	
218	4.250000e+00	4.216323e-04	
219	4.300000e+00	4.220584e-04	
220	4.350000e+00	4.224791e-04	
221	4.400000e+00	4.228945e-04	
222	4.450000e+00	4.233049e-04	
223	4.500000e+00	4.237104e-04	
224	4.550000e+00	4.241111e-04	
225	4.600000e+00	4.245073e-04	
226	4.650000e+00	4.248990e-04	
227	4.700000e+00	4.252864e-04	
228	4.750000e+00	4.256696e-04	

Index   v-sweep         -i(vds)         
--------------------------------------------------------------------------------
229	4.800000e+00	4.260488e-04	
230	4.850000e+00	4.264240e-04	
231	4.900000e+00	4.267955e-04	
232	4.950000e+00	4.271632e-04	
233	5.000000e+00	4.275274e-04	
234	5.050000e+00	4.278881e-04	
235	5.100000e+00	4.282454e-04	
236	5.150000e+00	4.285995e-04	
237	5.200000e+00	4.289504e-04	
238	5.250000e+00	4.292982e-04	
239	5.300000e+00	4.296430e-04	
240	5.350000e+00	4.299848e-04	
241	5.400000e+00	4.303239e-04	
242	5.450000e+00	4.306602e-04	
243	5.500000e+00	4.309938e-04	
244	5.550000e+00	4.313248e-04	
245	5.600000e+00	4.316533e-04	
246	5.650000e+00	4.319793e-04	
247	5.700000e+00	4.323029e-04	
248	5.750000e+00	4.326241e-04	
249	5.800000e+00	4.329431e-04	
250	5.850000e+00	4.332599e-04	
251	5.900000e+00	4.335745e-04	
252	5.950000e+00	4.338870e-04	
253	6.000000e+00	4.341974e-04	
254	6.050000e+00	4.345059e-04	
255	6.100000e+00	4.348124e-04	
256	6.150000e+00	4.351170e-04	
257	6.200000e+00	4.354198e-04	
258	6.250000e+00	4.357208e-04	
259	6.300000e+00	4.360200e-04	
260	6.350000e+00	4.363175e-04	
261	6.400000e+00	4.366133e-04	
262	6.450000e+00	4.369074e-04	
263	6.500000e+00	4.372000e-04	
264	6.550000e+00	4.374911e-04	
265	6.600000e+00	4.377806e-04	
266	0.000000e+00	-0.000000e+00	
267	5.000000e-02	3.577776e-05	
268	1.000000e-01	7.057406e-05	
269	1.500000e-01	1.045079e-04	
270	2.000000e-01	1.376147e-04	
271	2.500000e-01	1.699090e-04	
272	3.000000e-01	2.013999e-04	
273	3.500000e-01	2.320951e-04	
274	4.000000e-01	2.620020e-04	
275	4.500000e-01	2.911276e-04	
276	5.000000e-01	3.194790e-04	
277	5.500000e-01	3.470632e-04	
278	6.000000e-01	3.738869e-04	
279	6.500000e-01	3.999571e-04	
280	7.000000e-01	4.252802e-04	
281	7.500000e-01	4.498631e-04	
282	8.000000e-01	4.737122e-04	
283	8.500000e-01	4.968339e-04	
284	9.000000e-01	5.192346e-04	
285	9.500000e-01	5.409207e-04	
286	1.000000e+00	5.618983e-04	

Index   v-sweep         -i(vds)         
--------------------------------------------------------------------------------
287	1.050000e+00	5.821736e-04	
288	1.100000e+00	6.017527e-04	
289	1.150000e+00	6.206414e-04	
290	1.200000e+00	6.388458e-04	
291	1.250000e+00	6.563715e-04	
292	1.300000e+00	6.732242e-04	
293	1.350000e+00	6.894093e-04	
294	1.400000e+00	7.049322e-04	
295	1.450000e+00	7.197977e-04	
296	1.500000e+00	7.340102e-04	
297	1.550000e+00	7.475733e-04	
298	1.600000e+00	7.604890e-04	
299	1.650000e+00	7.727566e-04	
300	1.700000e+00	7.843701e-04	
301	1.750000e+00	7.953142e-04	
302	1.800000e+00	8.055579e-04	
303	1.850000e+00	8.150522e-04	
304	1.900000e+00	8.237431e-04	
305	1.950000e+00	8.316065e-04	
306	2.000000e+00	8.386749e-04	
307	2.050000e+00	8.450271e-04	
308	2.100000e+00	8.507598e-04	
309	2.150000e+00	8.559656e-04	
310	2.200000e+00	8.607246e-04	
311	2.250000e+00	8.651032e-04	
312	2.300000e+00	8.691554e-04	
313	2.350000e+00	8.729255e-04	
314	2.400000e+00	8.764496e-04	
315	2.450000e+00	8.797577e-04	
316	2.500000e+00	8.828747e-04	
317	2.550000e+00	8.858214e-04	
318	2.600000e+00	8.886155e-04	
319	2.650000e+00	8.912723e-04	
320	2.700000e+00	8.938046e-04	
321	2.750000e+00	8.962238e-04	
322	2.800000e+00	8.985397e-04	
323	2.850000e+00	9.007608e-04	
324	2.900000e+00	9.028947e-04	
325	2.950000e+00	9.049481e-04	
326	3.000000e+00	9.069270e-04	
327	3.050000e+00	9.088367e-04	
328	3.100000e+00	9.106820e-04	
329	3.150000e+00	9.124671e-04	
330	3.200000e+00	9.141960e-04	
331	3.250000e+00	9.158722e-04	
332	3.300000e+00	9.174989e-04	
333	3.350000e+00	9.190791e-04	
334	3.400000e+00	9.206153e-04	
335	3.450000e+00	9.221100e-04	
336	3.500000e+00	9.235656e-04	
337	3.550000e+00	9.249841e-04	
338	3.600000e+00	9.263673e-04	
339	3.650000e+00	9.277172e-04	
340	3.700000e+00	9.290353e-04	
341	3.750000e+00	9.303231e-04	
342	3.800000e+00	9.315822e-04	
343	3.850000e+00	9.328138e-04	
344	3.900000e+00	9.340193e-04	

Index   v-sweep         -i(vds)         
--------------------------------------------------------------------------------
345	3.950000e+00	9.351997e-04	
346	4.000000e+00	9.363561e-04	
347	4.050000e+00	9.374897e-04	
348	4.100000e+00	9.386013e-04	
349	4.150000e+00	9.396919e-04	
350	4.200000e+00	9.407623e-04	
351	4.250000e+00	9.418134e-04	
352	4.300000e+00	9.428459e-04	
353	4.350000e+00	9.438606e-04	
354	4.400000e+00	9.448581e-04	
355	4.450000e+00	9.458391e-04	
356	4.500000e+00	9.468043e-04	
357	4.550000e+00	9.477541e-04	
358	4.600000e+00	9.486892e-04	
359	4.650000e+00	9.496102e-04	
360	4.700000e+00	9.505174e-04	
361	4.750000e+00	9.514115e-04	
362	4.800000e+00	9.522928e-04	
363	4.850000e+00	9.531618e-04	
364	4.900000e+00	9.540189e-04	
365	4.950000e+00	9.548646e-04	
366	5.000000e+00	9.556992e-04	
367	5.050000e+00	9.565231e-04	
368	5.100000e+00	9.573367e-04	
369	5.150000e+00	9.581402e-04	
370	5.200000e+00	9.589340e-04	
371	5.250000e+00	9.597184e-04	
372	5.300000e+00	9.604938e-04	
373	5.350000e+00	9.612604e-04	
374	5.400000e+00	9.620184e-04	
375	5.450000e+00	9.627682e-04	
376	5.500000e+00	9.635100e-04	
377	5.550000e+00	9.642440e-04	
378	5.600000e+00	9.649706e-04	
379	5.650000e+00	9.656898e-04	
380	5.700000e+00	9.664019e-04	
381	5.750000e+00	9.671072e-04	
382	5.800000e+00	9.678058e-04	
383	5.850000e+00	9.684980e-04	
384	5.900000e+00	9.691838e-04	
385	5.950000e+00	9.698636e-04	
386	6.000000e+00	9.705374e-04	
387	6.050000e+00	9.712054e-04	
388	6.100000e+00	9.718679e-04	
389	6.150000e+00	9.725249e-04	
390	6.200000e+00	9.731767e-04	
391	6.250000e+00	9.738232e-04	
392	6.300000e+00	9.744648e-04	
393	6.350000e+00	9.751015e-04	
394	6.400000e+00	9.757335e-04	
395	6.450000e+00	9.763609e-04	
396	6.500000e+00	9.769837e-04	
397	6.550000e+00	9.776022e-04	
398	6.600000e+00	9.782165e-04	
399	0.000000e+00	-0.000000e+00	
400	5.000000e-02	4.385459e-05	
401	1.000000e-01	8.680607e-05	
402	1.500000e-01	1.289720e-04	

Index   v-sweep         -i(vds)         
--------------------------------------------------------------------------------
403	2.000000e-01	1.703866e-04	
404	2.500000e-01	2.110629e-04	
405	3.000000e-01	2.510087e-04	
406	3.500000e-01	2.902305e-04	
407	4.000000e-01	3.287343e-04	
408	4.500000e-01	3.665260e-04	
409	5.000000e-01	4.036113e-04	
410	5.500000e-01	4.399961e-04	
411	6.000000e-01	4.756860e-04	
412	6.500000e-01	5.106865e-04	
413	7.000000e-01	5.450033e-04	
414	7.500000e-01	5.786417e-04	
415	8.000000e-01	6.116073e-04	
416	8.500000e-01	6.439055e-04	
417	9.000000e-01	6.755414e-04	
418	9.500000e-01	7.065204e-04	
419	1.000000e+00	7.368477e-04	
420	1.050000e+00	7.665284e-04	
421	1.100000e+00	7.955677e-04	
422	1.150000e+00	8.239704e-04	
423	1.200000e+00	8.517416e-04	
424	1.250000e+00	8.788863e-04	
425	1.300000e+00	9.054093e-04	
426	1.350000e+00	9.313154e-04	
427	1.400000e+00	9.566093e-04	
428	1.450000e+00	9.812958e-04	
429	1.500000e+00	1.005380e-03	
430	1.550000e+00	1.028865e-03	
431	1.600000e+00	1.051757e-03	
432	1.650000e+00	1.074059e-03	
433	1.700000e+00	1.095777e-03	
434	1.750000e+00	1.116914e-03	
435	1.800000e+00	1.137474e-03	
436	1.850000e+00	1.157462e-03	
437	1.900000e+00	1.176881e-03	
438	1.950000e+00	1.195735e-03	
439	2.000000e+00	1.214027e-03	
440	2.050000e+00	1.231758e-03	
441	2.100000e+00	1.248932e-03	
442	2.150000e+00	1.265546e-03	
443	2.200000e+00	1.281599e-03	
444	2.250000e+00	1.297082e-03	
445	2.300000e+00	1.311979e-03	
446	2.350000e+00	1.326259e-03	
447	2.400000e+00	1.339870e-03	
448	2.450000e+00	1.352736e-03	
449	2.500000e+00	1.364764e-03	
450	2.550000e+00	1.375881e-03	
451	2.600000e+00	1.386064e-03	
452	2.650000e+00	1.395353e-03	
453	2.700000e+00	1.403830e-03	
454	2.750000e+00	1.411587e-03	
455	2.800000e+00	1.418720e-03	
456	2.850000e+00	1.425309e-03	
457	2.900000e+00	1.431427e-03	
458	2.950000e+00	1.437133e-03	
459	3.000000e+00	1.442476e-03	
460	3.050000e+00	1.447500e-03	

Index   v-sweep         -i(vds)         
--------------------------------------------------------------------------------
461	3.100000e+00	1.452239e-03	
462	3.150000e+00	1.456724e-03	
463	3.200000e+00	1.460981e-03	
464	3.250000e+00	1.465031e-03	
465	3.300000e+00	1.468894e-03	
466	3.350000e+00	1.472586e-03	
467	3.400000e+00	1.476122e-03	
468	3.450000e+00	1.479514e-03	
469	3.500000e+00	1.482774e-03	
470	3.550000e+00	1.485912e-03	
471	3.600000e+00	1.488937e-03	
472	3.650000e+00	1.491856e-03	
473	3.700000e+00	1.494678e-03	
474	3.750000e+00	1.497407e-03	
475	3.800000e+00	1.500051e-03	
476	3.850000e+00	1.502615e-03	
477	3.900000e+00	1.505103e-03	
478	3.950000e+00	1.507519e-03	
479	4.000000e+00	1.509869e-03	
480	4.050000e+00	1.512155e-03	
481	4.100000e+00	1.514381e-03	
482	4.150000e+00	1.516550e-03	
483	4.200000e+00	1.518666e-03	
484	4.250000e+00	1.520730e-03	
485	4.300000e+00	1.522745e-03	
486	4.350000e+00	1.524714e-03	
487	4.400000e+00	1.526639e-03	
488	4.450000e+00	1.528522e-03	
489	4.500000e+00	1.530364e-03	
490	4.550000e+00	1.532168e-03	
491	4.600000e+00	1.533935e-03	
492	4.650000e+00	1.535667e-03	
493	4.700000e+00	1.537365e-03	
494	4.750000e+00	1.539031e-03	
495	4.800000e+00	1.540666e-03	
496	4.850000e+00	1.542271e-03	
497	4.900000e+00	1.543848e-03	
498	4.950000e+00	1.545397e-03	
499	5.000000e+00	1.546920e-03	
500	5.050000e+00	1.548417e-03	
501	5.100000e+00	1.549890e-03	
502	5.150000e+00	1.551340e-03	
503	5.200000e+00	1.552766e-03	
504	5.250000e+00	1.554171e-03	
505	5.300000e+00	1.555555e-03	
506	5.350000e+00	1.556919e-03	
507	5.400000e+00	1.558262e-03	
508	5.450000e+00	1.559587e-03	
509	5.500000e+00	1.560894e-03	
510	5.550000e+00	1.562183e-03	
511	5.600000e+00	1.563455e-03	
512	5.650000e+00	1.564711e-03	
513	5.700000e+00	1.565950e-03	
514	5.750000e+00	1.567174e-03	
515	5.800000e+00	1.568384e-03	
516	5.850000e+00	1.569578e-03	
517	5.900000e+00	1.570759e-03	
518	5.950000e+00	1.571927e-03	

Index   v-sweep         -i(vds)         
--------------------------------------------------------------------------------
519	6.000000e+00	1.573081e-03	
520	6.050000e+00	1.574222e-03	
521	6.100000e+00	1.575352e-03	
522	6.150000e+00	1.576469e-03	
523	6.200000e+00	1.577575e-03	
524	6.250000e+00	1.578669e-03	
525	6.300000e+00	1.579753e-03	
526	6.350000e+00	1.580826e-03	
527	6.400000e+00	1.581889e-03	
528	6.450000e+00	1.582942e-03	
529	6.500000e+00	1.583985e-03	
530	6.550000e+00	1.585019e-03	
531	6.600000e+00	1.586044e-03	
532	0.000000e+00	-0.000000e+00	
533	5.000000e-02	4.967791e-05	
534	1.000000e-01	9.852987e-05	
535	1.500000e-01	1.466723e-04	
536	2.000000e-01	1.941380e-04	
537	2.500000e-01	2.409391e-04	
538	3.000000e-01	2.870821e-04	
539	3.500000e-01	3.325725e-04	
540	4.000000e-01	3.774150e-04	
541	4.500000e-01	4.216145e-04	
542	5.000000e-01	4.651756e-04	
543	5.500000e-01	5.081032e-04	
544	6.000000e-01	5.504017e-04	
545	6.500000e-01	5.920757e-04	
546	7.000000e-01	6.331298e-04	
547	7.500000e-01	6.735685e-04	
548	8.000000e-01	7.133962e-04	
549	8.500000e-01	7.526172e-04	
550	9.000000e-01	7.912361e-04	
551	9.500000e-01	8.292569e-04	
552	1.000000e+00	8.666842e-04	
553	1.050000e+00	9.035220e-04	
554	1.100000e+00	9.397746e-04	
555	1.150000e+00	9.754461e-04	
556	1.200000e+00	1.010541e-03	
557	1.250000e+00	1.045062e-03	
558	1.300000e+00	1.079015e-03	
559	1.350000e+00	1.112403e-03	
560	1.400000e+00	1.145230e-03	
561	1.450000e+00	1.177500e-03	
562	1.500000e+00	1.209217e-03	
563	1.550000e+00	1.240385e-03	
564	1.600000e+00	1.271007e-03	
565	1.650000e+00	1.301087e-03	
566	1.700000e+00	1.330630e-03	
567	1.750000e+00	1.359638e-03	
568	1.800000e+00	1.388116e-03	
569	1.850000e+00	1.416066e-03	
570	1.900000e+00	1.443493e-03	
571	1.950000e+00	1.470401e-03	
572	2.000000e+00	1.496792e-03	
573	2.050000e+00	1.522669e-03	
574	2.100000e+00	1.548038e-03	
575	2.150000e+00	1.572900e-03	
576	2.200000e+00	1.597259e-03	

Index   v-sweep         -i(vds)         
--------------------------------------------------------------------------------
577	2.250000e+00	1.621118e-03	
578	2.300000e+00	1.644480e-03	
579	2.350000e+00	1.667349e-03	
580	2.400000e+00	1.689727e-03	
581	2.450000e+00	1.711616e-03	
582	2.500000e+00	1.733019e-03	
583	2.550000e+00	1.753938e-03	
584	2.600000e+00	1.774374e-03	
585	2.650000e+00	1.794327e-03	
586	2.700000e+00	1.813796e-03	
587	2.750000e+00	1.832776e-03	
588	2.800000e+00	1.851262e-03	
589	2.850000e+00	1.869238e-03	
590	2.900000e+00	1.886681e-03	
591	2.950000e+00	1.903549e-03	
592	3.000000e+00	1.919780e-03	
593	3.050000e+00	1.935284e-03	
594	3.100000e+00	1.949955e-03	
595	3.150000e+00	1.963696e-03	
596	3.200000e+00	1.976456e-03	
597	3.250000e+00	1.988240e-03	
598	3.300000e+00	1.999103e-03	
599	3.350000e+00	2.009128e-03	
600	3.400000e+00	2.018405e-03	
601	3.450000e+00	2.027020e-03	
602	3.500000e+00	2.035052e-03	
603	3.550000e+00	2.042569e-03	
604	3.600000e+00	2.049628e-03	
605	3.650000e+00	2.056281e-03	
606	3.700000e+00	2.062570e-03	
607	3.750000e+00	2.068532e-03	
608	3.800000e+00	2.074199e-03	
609	3.850000e+00	2.079598e-03	
610	3.900000e+00	2.084753e-03	
611	3.950000e+00	2.089686e-03	
612	4.000000e+00	2.094415e-03	
613	4.050000e+00	2.098955e-03	
614	4.100000e+00	2.103322e-03	
615	4.150000e+00	2.107528e-03	
616	4.200000e+00	2.111585e-03	
617	4.250000e+00	2.115503e-03	
618	4.300000e+00	2.119291e-03	
619	4.350000e+00	2.122957e-03	
620	4.400000e+00	2.126510e-03	
621	4.450000e+00	2.129957e-03	
622	4.500000e+00	2.133302e-03	
623	4.550000e+00	2.136553e-03	
624	4.600000e+00	2.139715e-03	
625	4.650000e+00	2.142792e-03	
626	4.700000e+00	2.145789e-03	
627	4.750000e+00	2.148710e-03	
628	4.800000e+00	2.151559e-03	
629	4.850000e+00	2.154340e-03	
630	4.900000e+00	2.157055e-03	
631	4.950000e+00	2.159709e-03	
632	5.000000e+00	2.162303e-03	
633	5.050000e+00	2.164841e-03	
634	5.100000e+00	2.167325e-03	

Index   v-sweep         -i(vds)         
--------------------------------------------------------------------------------
635	5.150000e+00	2.169757e-03	
636	5.200000e+00	2.172140e-03	
637	5.250000e+00	2.174476e-03	
638	5.300000e+00	2.176766e-03	
639	5.350000e+00	2.179013e-03	
640	5.400000e+00	2.181218e-03	
641	5.450000e+00	2.183383e-03	
642	5.500000e+00	2.185510e-03	
643	5.550000e+00	2.187600e-03	
644	5.600000e+00	2.189655e-03	
645	5.650000e+00	2.191675e-03	
646	5.700000e+00	2.193662e-03	
647	5.750000e+00	2.195618e-03	
648	5.800000e+00	2.197543e-03	
649	5.850000e+00	2.199439e-03	
650	5.900000e+00	2.201306e-03	
651	5.950000e+00	2.203146e-03	
652	6.000000e+00	2.204960e-03	
653	6.050000e+00	2.206748e-03	
654	6.100000e+00	2.208511e-03	
655	6.150000e+00	2.210251e-03	
656	6.200000e+00	2.211967e-03	
657	6.250000e+00	2.213662e-03	
658	6.300000e+00	2.215335e-03	
659	6.350000e+00	2.216987e-03	
660	6.400000e+00	2.218619e-03	
661	6.450000e+00	2.220232e-03	
662	6.500000e+00	2.221825e-03	
663	6.550000e+00	2.223401e-03	
664	6.600000e+00	2.224959e-03	
665	0.000000e+00	-0.000000e+00	
666	5.000000e-02	5.387456e-05	
667	1.000000e-01	1.069953e-04	
668	1.500000e-01	1.594776e-04	
669	2.000000e-01	2.113535e-04	
670	2.500000e-01	2.626339e-04	
671	3.000000e-01	3.133246e-04	
672	3.500000e-01	3.634299e-04	
673	4.000000e-01	4.129537e-04	
674	4.500000e-01	4.619000e-04	
675	5.000000e-01	5.102727e-04	
676	5.500000e-01	5.580754e-04	
677	6.000000e-01	6.053119e-04	
678	6.500000e-01	6.519859e-04	
679	7.000000e-01	6.981012e-04	
680	7.500000e-01	7.436613e-04	
681	8.000000e-01	7.886699e-04	
682	8.500000e-01	8.331305e-04	
683	9.000000e-01	8.770468e-04	
684	9.500000e-01	9.204222e-04	
685	1.000000e+00	9.632603e-04	
686	1.050000e+00	1.005564e-03	
687	1.100000e+00	1.047338e-03	
688	1.150000e+00	1.088585e-03	
689	1.200000e+00	1.129308e-03	
690	1.250000e+00	1.169510e-03	
691	1.300000e+00	1.209196e-03	
692	1.350000e+00	1.248367e-03	

Index   v-sweep         -i(vds)         
--------------------------------------------------------------------------------
693	1.400000e+00	1.287029e-03	
694	1.450000e+00	1.325183e-03	
695	1.500000e+00	1.362833e-03	
696	1.550000e+00	1.399982e-03	
697	1.600000e+00	1.436633e-03	
698	1.650000e+00	1.472790e-03	
699	1.700000e+00	1.508456e-03	
700	1.750000e+00	1.543633e-03	
701	1.800000e+00	1.578324e-03	
702	1.850000e+00	1.612533e-03	
703	1.900000e+00	1.646263e-03	
704	1.950000e+00	1.679516e-03	
705	2.000000e+00	1.712296e-03	
706	2.050000e+00	1.744606e-03	
707	2.100000e+00	1.776447e-03	
708	2.150000e+00	1.807824e-03	
709	2.200000e+00	1.838739e-03	
710	2.250000e+00	1.869195e-03	
711	2.300000e+00	1.899194e-03	
712	2.350000e+00	1.928740e-03	
713	2.400000e+00	1.957834e-03	
714	2.450000e+00	1.986481e-03	
715	2.500000e+00	2.014682e-03	
716	2.550000e+00	2.042440e-03	
717	2.600000e+00	2.069757e-03	
718	2.650000e+00	2.096637e-03	
719	2.700000e+00	2.123082e-03	
720	2.750000e+00	2.149093e-03	
721	2.800000e+00	2.174674e-03	
722	2.850000e+00	2.199827e-03	
723	2.900000e+00	2.224553e-03	
724	2.950000e+00	2.248856e-03	
725	3.000000e+00	2.272736e-03	
726	3.050000e+00	2.296195e-03	
727	3.100000e+00	2.319235e-03	
728	3.150000e+00	2.341856e-03	
729	3.200000e+00	2.364058e-03	
730	3.250000e+00	2.385840e-03	
731	3.300000e+00	2.407198e-03	
732	3.350000e+00	2.428129e-03	
733	3.400000e+00	2.448621e-03	
734	3.450000e+00	2.468659e-03	
735	3.500000e+00	2.488217e-03	
736	3.550000e+00	2.507254e-03	
737	3.600000e+00	2.525708e-03	
738	3.650000e+00	2.543494e-03	
739	3.700000e+00	2.560505e-03	
740	3.750000e+00	2.576632e-03	
741	3.800000e+00	2.591795e-03	
742	3.850000e+00	2.605958e-03	
743	3.900000e+00	2.619140e-03	
744	3.950000e+00	2.631397e-03	
745	4.000000e+00	2.642807e-03	
746	4.050000e+00	2.653451e-03	
747	4.100000e+00	2.663410e-03	
748	4.150000e+00	2.672755e-03	
749	4.200000e+00	2.681553e-03	
750	4.250000e+00	2.689859e-03	

Index   v-sweep         -i(vds)         
--------------------------------------------------------------------------------
751	4.300000e+00	2.697723e-03	
752	4.350000e+00	2.705189e-03	
753	4.400000e+00	2.712293e-03	
754	4.450000e+00	2.719068e-03	
755	4.500000e+00	2.725543e-03	
756	4.550000e+00	2.731743e-03	
757	4.600000e+00	2.737690e-03	
758	4.650000e+00	2.743404e-03	
759	4.700000e+00	2.748903e-03	
760	4.750000e+00	2.754202e-03	
761	4.800000e+00	2.759315e-03	
762	4.850000e+00	2.764254e-03	
763	4.900000e+00	2.769032e-03	
764	4.950000e+00	2.773659e-03	
765	5.000000e+00	2.778143e-03	
766	5.050000e+00	2.782494e-03	
767	5.100000e+00	2.786718e-03	
768	5.150000e+00	2.790825e-03	
769	5.200000e+00	2.794819e-03	
770	5.250000e+00	2.798707e-03	
771	5.300000e+00	2.802494e-03	
772	5.350000e+00	2.806187e-03	
773	5.400000e+00	2.809789e-03	
774	5.450000e+00	2.813304e-03	
775	5.500000e+00	2.816738e-03	
776	5.550000e+00	2.820094e-03	
777	5.600000e+00	2.823375e-03	
778	5.650000e+00	2.826585e-03	
779	5.700000e+00	2.829727e-03	
780	5.750000e+00	2.832804e-03	
781	5.800000e+00	2.835819e-03	
782	5.850000e+00	2.838774e-03	
783	5.900000e+00	2.841672e-03	
784	5.950000e+00	2.844516e-03	
785	6.000000e+00	2.847306e-03	
786	6.050000e+00	2.850046e-03	
787	6.100000e+00	2.852738e-03	
788	6.150000e+00	2.855383e-03	
789	6.200000e+00	2.857983e-03	
790	6.250000e+00	2.860540e-03	
791	6.300000e+00	2.863055e-03	
792	6.350000e+00	2.865531e-03	
793	6.400000e+00	2.867967e-03	
794	6.450000e+00	2.870367e-03	
795	6.500000e+00	2.872730e-03	
796	6.550000e+00	2.875059e-03	
797	6.600000e+00	2.877355e-03	
Note: No ".plot", ".print", or ".fourier" lines; no simulations run
