
Note: Compatibility modes selected: hs

Warning: m=xx on .subckt line will override multiplier m hierarchy!


Circuit: ***************************

Doing analysis at TEMP = 125.000000 and TNOM = 125.000000


No. of Data Rows : 798
                          ***************************
                          DC transfer characteristic  Mon Jan  9 13:58:05  2023
--------------------------------------------------------------------------------
Index   v-sweep         -i(vds)         
--------------------------------------------------------------------------------
0	0.000000e+00	-0.000000e+00	
1	5.000000e-02	6.854393e-07	
2	1.000000e-01	1.283508e-06	
3	1.500000e-01	1.803730e-06	
4	2.000000e-01	2.248984e-06	
5	2.500000e-01	2.620537e-06	
6	3.000000e-01	2.919428e-06	
7	3.500000e-01	3.147213e-06	
8	4.000000e-01	3.307712e-06	
9	4.500000e-01	3.412046e-06	
10	5.000000e-01	3.481517e-06	
11	5.500000e-01	3.534434e-06	
12	6.000000e-01	3.578806e-06	
13	6.500000e-01	3.617661e-06	
14	7.000000e-01	3.652449e-06	
15	7.500000e-01	3.684033e-06	
16	8.000000e-01	3.713002e-06	
17	8.500000e-01	3.739785e-06	
18	9.000000e-01	3.764709e-06	
19	9.500000e-01	3.788032e-06	
20	1.000000e+00	3.809960e-06	
21	1.050000e+00	3.830661e-06	
22	1.100000e+00	3.850276e-06	
23	1.150000e+00	3.868919e-06	
24	1.200000e+00	3.886692e-06	
25	1.250000e+00	3.903677e-06	
26	1.300000e+00	3.919948e-06	
27	1.350000e+00	3.935567e-06	
28	1.400000e+00	3.950591e-06	
29	1.450000e+00	3.965066e-06	
30	1.500000e+00	3.979037e-06	
31	1.550000e+00	3.992540e-06	
32	1.600000e+00	4.005610e-06	
33	1.650000e+00	4.018277e-06	
34	1.700000e+00	4.030568e-06	
35	1.750000e+00	4.042508e-06	
36	1.800000e+00	4.054119e-06	
37	1.850000e+00	4.065421e-06	
38	1.900000e+00	4.076433e-06	
39	1.950000e+00	4.087171e-06	
40	2.000000e+00	4.097651e-06	
41	2.050000e+00	4.107887e-06	
42	2.100000e+00	4.117892e-06	
43	2.150000e+00	4.127678e-06	
44	2.200000e+00	4.137257e-06	
45	2.250000e+00	4.146638e-06	
46	2.300000e+00	4.155831e-06	
47	2.350000e+00	4.164845e-06	
48	2.400000e+00	4.173689e-06	
49	2.450000e+00	4.182371e-06	
50	2.500000e+00	4.190896e-06	
51	2.550000e+00	4.199273e-06	
52	2.600000e+00	4.207508e-06	
53	2.650000e+00	4.215607e-06	
54	2.700000e+00	4.223575e-06	

Index   v-sweep         -i(vds)         
--------------------------------------------------------------------------------
55	2.750000e+00	4.231418e-06	
56	2.800000e+00	4.239141e-06	
57	2.850000e+00	4.246748e-06	
58	2.900000e+00	4.254245e-06	
59	2.950000e+00	4.261635e-06	
60	3.000000e+00	4.268922e-06	
61	3.050000e+00	4.276111e-06	
62	3.100000e+00	4.283204e-06	
63	3.150000e+00	4.290206e-06	
64	3.200000e+00	4.297119e-06	
65	3.250000e+00	4.303948e-06	
66	3.300000e+00	4.310694e-06	
67	3.350000e+00	4.317360e-06	
68	3.400000e+00	4.323950e-06	
69	3.450000e+00	4.330466e-06	
70	3.500000e+00	4.336910e-06	
71	3.550000e+00	4.343285e-06	
72	3.600000e+00	4.349593e-06	
73	3.650000e+00	4.355836e-06	
74	3.700000e+00	4.362017e-06	
75	3.750000e+00	4.368137e-06	
76	3.800000e+00	4.374198e-06	
77	3.850000e+00	4.380201e-06	
78	3.900000e+00	4.386150e-06	
79	3.950000e+00	4.392045e-06	
80	4.000000e+00	4.397888e-06	
81	4.050000e+00	4.403681e-06	
82	4.100000e+00	4.409425e-06	
83	4.150000e+00	4.415122e-06	
84	4.200000e+00	4.420772e-06	
85	4.250000e+00	4.426378e-06	
86	4.300000e+00	4.431940e-06	
87	4.350000e+00	4.437460e-06	
88	4.400000e+00	4.442939e-06	
89	4.450000e+00	4.448378e-06	
90	4.500000e+00	4.453779e-06	
91	4.550000e+00	4.459142e-06	
92	4.600000e+00	4.464468e-06	
93	4.650000e+00	4.469758e-06	
94	4.700000e+00	4.475014e-06	
95	4.750000e+00	4.480236e-06	
96	4.800000e+00	4.485425e-06	
97	4.850000e+00	4.490582e-06	
98	4.900000e+00	4.495708e-06	
99	4.950000e+00	4.500804e-06	
100	5.000000e+00	4.505870e-06	
101	5.050000e+00	4.510907e-06	
102	5.100000e+00	4.515916e-06	
103	5.150000e+00	4.520898e-06	
104	5.200000e+00	4.525853e-06	
105	5.250000e+00	4.530783e-06	
106	5.300000e+00	4.535686e-06	
107	5.350000e+00	4.540565e-06	
108	5.400000e+00	4.545420e-06	
109	5.450000e+00	4.550251e-06	
110	5.500000e+00	4.555060e-06	
111	5.550000e+00	4.559846e-06	
112	5.600000e+00	4.564609e-06	

Index   v-sweep         -i(vds)         
--------------------------------------------------------------------------------
113	5.650000e+00	4.569352e-06	
114	5.700000e+00	4.574074e-06	
115	5.750000e+00	4.578775e-06	
116	5.800000e+00	4.583456e-06	
117	5.850000e+00	4.588118e-06	
118	5.900000e+00	4.592761e-06	
119	5.950000e+00	4.597385e-06	
120	6.000000e+00	4.601991e-06	
121	6.050000e+00	4.606580e-06	
122	6.100000e+00	4.611151e-06	
123	6.150000e+00	4.615705e-06	
124	6.200000e+00	4.620242e-06	
125	6.250000e+00	4.624763e-06	
126	6.300000e+00	4.629269e-06	
127	6.350000e+00	4.633759e-06	
128	6.400000e+00	4.638233e-06	
129	6.450000e+00	4.642693e-06	
130	6.500000e+00	4.647138e-06	
131	6.550000e+00	4.651569e-06	
132	6.600000e+00	4.655986e-06	
133	0.000000e+00	-0.000000e+00	
134	5.000000e-02	1.975681e-06	
135	1.000000e-01	3.866991e-06	
136	1.500000e-01	5.683445e-06	
137	2.000000e-01	7.427877e-06	
138	2.500000e-01	9.101444e-06	
139	3.000000e-01	1.070487e-05	
140	3.500000e-01	1.223878e-05	
141	4.000000e-01	1.370375e-05	
142	4.500000e-01	1.510036e-05	
143	5.000000e-01	1.642917e-05	
144	5.500000e-01	1.769073e-05	
145	6.000000e-01	1.888561e-05	
146	6.500000e-01	2.001435e-05	
147	7.000000e-01	2.107749e-05	
148	7.500000e-01	2.207558e-05	
149	8.000000e-01	2.300916e-05	
150	8.500000e-01	2.387876e-05	
151	9.000000e-01	2.468494e-05	
152	9.500000e-01	2.542824e-05	
153	1.000000e+00	2.610926e-05	
154	1.050000e+00	2.672863e-05	
155	1.100000e+00	2.728713e-05	
156	1.150000e+00	2.778583e-05	
157	1.200000e+00	2.822652e-05	
158	1.250000e+00	2.861254e-05	
159	1.300000e+00	2.894952e-05	
160	1.350000e+00	2.924488e-05	
161	1.400000e+00	2.950615e-05	
162	1.450000e+00	2.973975e-05	
163	1.500000e+00	2.995076e-05	
164	1.550000e+00	3.014307e-05	
165	1.600000e+00	3.031971e-05	
166	1.650000e+00	3.048305e-05	
167	1.700000e+00	3.063496e-05	
168	1.750000e+00	3.077695e-05	
169	1.800000e+00	3.091026e-05	
170	1.850000e+00	3.103591e-05	

Index   v-sweep         -i(vds)         
--------------------------------------------------------------------------------
171	1.900000e+00	3.115474e-05	
172	1.950000e+00	3.126748e-05	
173	2.000000e+00	3.137472e-05	
174	2.050000e+00	3.147700e-05	
175	2.100000e+00	3.157477e-05	
176	2.150000e+00	3.166841e-05	
177	2.200000e+00	3.175827e-05	
178	2.250000e+00	3.184467e-05	
179	2.300000e+00	3.192785e-05	
180	2.350000e+00	3.200806e-05	
181	2.400000e+00	3.208552e-05	
182	2.450000e+00	3.216041e-05	
183	2.500000e+00	3.223291e-05	
184	2.550000e+00	3.230317e-05	
185	2.600000e+00	3.237133e-05	
186	2.650000e+00	3.243752e-05	
187	2.700000e+00	3.250185e-05	
188	2.750000e+00	3.256443e-05	
189	2.800000e+00	3.262537e-05	
190	2.850000e+00	3.268474e-05	
191	2.900000e+00	3.274264e-05	
192	2.950000e+00	3.279913e-05	
193	3.000000e+00	3.285429e-05	
194	3.050000e+00	3.290819e-05	
195	3.100000e+00	3.296088e-05	
196	3.150000e+00	3.301243e-05	
197	3.200000e+00	3.306288e-05	
198	3.250000e+00	3.311229e-05	
199	3.300000e+00	3.316070e-05	
200	3.350000e+00	3.320816e-05	
201	3.400000e+00	3.325471e-05	
202	3.450000e+00	3.330038e-05	
203	3.500000e+00	3.334521e-05	
204	3.550000e+00	3.338924e-05	
205	3.600000e+00	3.343249e-05	
206	3.650000e+00	3.347501e-05	
207	3.700000e+00	3.351681e-05	
208	3.750000e+00	3.355793e-05	
209	3.800000e+00	3.359839e-05	
210	3.850000e+00	3.363821e-05	
211	3.900000e+00	3.367743e-05	
212	3.950000e+00	3.371605e-05	
213	4.000000e+00	3.375411e-05	
214	4.050000e+00	3.379162e-05	
215	4.100000e+00	3.382861e-05	
216	4.150000e+00	3.386508e-05	
217	4.200000e+00	3.390106e-05	
218	4.250000e+00	3.393657e-05	
219	4.300000e+00	3.397162e-05	
220	4.350000e+00	3.400622e-05	
221	4.400000e+00	3.404040e-05	
222	4.450000e+00	3.407415e-05	
223	4.500000e+00	3.410751e-05	
224	4.550000e+00	3.414048e-05	
225	4.600000e+00	3.417307e-05	
226	4.650000e+00	3.420530e-05	
227	4.700000e+00	3.423717e-05	
228	4.750000e+00	3.426870e-05	

Index   v-sweep         -i(vds)         
--------------------------------------------------------------------------------
229	4.800000e+00	3.429990e-05	
230	4.850000e+00	3.433077e-05	
231	4.900000e+00	3.436134e-05	
232	4.950000e+00	3.439160e-05	
233	5.000000e+00	3.442156e-05	
234	5.050000e+00	3.445124e-05	
235	5.100000e+00	3.448065e-05	
236	5.150000e+00	3.450978e-05	
237	5.200000e+00	3.453866e-05	
238	5.250000e+00	3.456728e-05	
239	5.300000e+00	3.459565e-05	
240	5.350000e+00	3.462378e-05	
241	5.400000e+00	3.465168e-05	
242	5.450000e+00	3.467935e-05	
243	5.500000e+00	3.470680e-05	
244	5.550000e+00	3.473404e-05	
245	5.600000e+00	3.476107e-05	
246	5.650000e+00	3.478790e-05	
247	5.700000e+00	3.481452e-05	
248	5.750000e+00	3.484096e-05	
249	5.800000e+00	3.486721e-05	
250	5.850000e+00	3.489327e-05	
251	5.900000e+00	3.491916e-05	
252	5.950000e+00	3.494487e-05	
253	6.000000e+00	3.497041e-05	
254	6.050000e+00	3.499579e-05	
255	6.100000e+00	3.502101e-05	
256	6.150000e+00	3.504607e-05	
257	6.200000e+00	3.507098e-05	
258	6.250000e+00	3.509575e-05	
259	6.300000e+00	3.512036e-05	
260	6.350000e+00	3.514483e-05	
261	6.400000e+00	3.516917e-05	
262	6.450000e+00	3.519337e-05	
263	6.500000e+00	3.521744e-05	
264	6.550000e+00	3.524138e-05	
265	6.600000e+00	3.526519e-05	
266	0.000000e+00	-0.000000e+00	
267	5.000000e-02	2.876344e-06	
268	1.000000e-01	5.675130e-06	
269	1.500000e-01	8.405782e-06	
270	2.000000e-01	1.107105e-05	
271	2.500000e-01	1.367200e-05	
272	3.000000e-01	1.620928e-05	
273	3.500000e-01	1.868341e-05	
274	4.000000e-01	2.109491e-05	
275	4.500000e-01	2.344426e-05	
276	5.000000e-01	2.573194e-05	
277	5.500000e-01	2.795843e-05	
278	6.000000e-01	3.012420e-05	
279	6.500000e-01	3.222972e-05	
280	7.000000e-01	3.427545e-05	
281	7.500000e-01	3.626186e-05	
282	8.000000e-01	3.818938e-05	
283	8.500000e-01	4.005848e-05	
284	9.000000e-01	4.186959e-05	
285	9.500000e-01	4.362316e-05	
286	1.000000e+00	4.531962e-05	

Index   v-sweep         -i(vds)         
--------------------------------------------------------------------------------
287	1.050000e+00	4.695940e-05	
288	1.100000e+00	4.854293e-05	
289	1.150000e+00	5.007062e-05	
290	1.200000e+00	5.154290e-05	
291	1.250000e+00	5.296017e-05	
292	1.300000e+00	5.432283e-05	
293	1.350000e+00	5.563130e-05	
294	1.400000e+00	5.688595e-05	
295	1.450000e+00	5.808717e-05	
296	1.500000e+00	5.923532e-05	
297	1.550000e+00	6.033074e-05	
298	1.600000e+00	6.137372e-05	
299	1.650000e+00	6.236450e-05	
300	1.700000e+00	6.330318e-05	
301	1.750000e+00	6.418961e-05	
302	1.800000e+00	6.502323e-05	
303	1.850000e+00	6.580277e-05	
304	1.900000e+00	6.652608e-05	
305	1.950000e+00	6.719082e-05	
306	2.000000e+00	6.779615e-05	
307	2.050000e+00	6.834440e-05	
308	2.100000e+00	6.884079e-05	
309	2.150000e+00	6.929178e-05	
310	2.200000e+00	6.970374e-05	
311	2.250000e+00	7.008226e-05	
312	2.300000e+00	7.043206e-05	
313	2.350000e+00	7.075703e-05	
314	2.400000e+00	7.106038e-05	
315	2.450000e+00	7.134478e-05	
316	2.500000e+00	7.161244e-05	
317	2.550000e+00	7.186523e-05	
318	2.600000e+00	7.210470e-05	
319	2.650000e+00	7.233221e-05	
320	2.700000e+00	7.254889e-05	
321	2.750000e+00	7.275575e-05	
322	2.800000e+00	7.295364e-05	
323	2.850000e+00	7.314332e-05	
324	2.900000e+00	7.332546e-05	
325	2.950000e+00	7.350064e-05	
326	3.000000e+00	7.366939e-05	
327	3.050000e+00	7.383216e-05	
328	3.100000e+00	7.398938e-05	
329	3.150000e+00	7.414142e-05	
330	3.200000e+00	7.428862e-05	
331	3.250000e+00	7.443129e-05	
332	3.300000e+00	7.456970e-05	
333	3.350000e+00	7.470410e-05	
334	3.400000e+00	7.483474e-05	
335	3.450000e+00	7.496182e-05	
336	3.500000e+00	7.508553e-05	
337	3.550000e+00	7.520606e-05	
338	3.600000e+00	7.532357e-05	
339	3.650000e+00	7.543822e-05	
340	3.700000e+00	7.555015e-05	
341	3.750000e+00	7.565949e-05	
342	3.800000e+00	7.576637e-05	
343	3.850000e+00	7.587089e-05	
344	3.900000e+00	7.597317e-05	

Index   v-sweep         -i(vds)         
--------------------------------------------------------------------------------
345	3.950000e+00	7.607331e-05	
346	4.000000e+00	7.617141e-05	
347	4.050000e+00	7.626754e-05	
348	4.100000e+00	7.636179e-05	
349	4.150000e+00	7.645425e-05	
350	4.200000e+00	7.654498e-05	
351	4.250000e+00	7.663406e-05	
352	4.300000e+00	7.672156e-05	
353	4.350000e+00	7.680752e-05	
354	4.400000e+00	7.689202e-05	
355	4.450000e+00	7.697511e-05	
356	4.500000e+00	7.705684e-05	
357	4.550000e+00	7.713726e-05	
358	4.600000e+00	7.721642e-05	
359	4.650000e+00	7.729437e-05	
360	4.700000e+00	7.737115e-05	
361	4.750000e+00	7.744681e-05	
362	4.800000e+00	7.752137e-05	
363	4.850000e+00	7.759488e-05	
364	4.900000e+00	7.766738e-05	
365	4.950000e+00	7.773890e-05	
366	5.000000e+00	7.780947e-05	
367	5.050000e+00	7.787912e-05	
368	5.100000e+00	7.794789e-05	
369	5.150000e+00	7.801580e-05	
370	5.200000e+00	7.808288e-05	
371	5.250000e+00	7.814917e-05	
372	5.300000e+00	7.821467e-05	
373	5.350000e+00	7.827942e-05	
374	5.400000e+00	7.834344e-05	
375	5.450000e+00	7.840676e-05	
376	5.500000e+00	7.846939e-05	
377	5.550000e+00	7.853136e-05	
378	5.600000e+00	7.859269e-05	
379	5.650000e+00	7.865339e-05	
380	5.700000e+00	7.871348e-05	
381	5.750000e+00	7.877299e-05	
382	5.800000e+00	7.883193e-05	
383	5.850000e+00	7.889031e-05	
384	5.900000e+00	7.894816e-05	
385	5.950000e+00	7.900548e-05	
386	6.000000e+00	7.906229e-05	
387	6.050000e+00	7.911861e-05	
388	6.100000e+00	7.917446e-05	
389	6.150000e+00	7.922983e-05	
390	6.200000e+00	7.928476e-05	
391	6.250000e+00	7.933924e-05	
392	6.300000e+00	7.939329e-05	
393	6.350000e+00	7.944693e-05	
394	6.400000e+00	7.950016e-05	
395	6.450000e+00	7.955299e-05	
396	6.500000e+00	7.960544e-05	
397	6.550000e+00	7.965752e-05	
398	6.600000e+00	7.970923e-05	
399	0.000000e+00	-0.000000e+00	
400	5.000000e-02	3.520227e-06	
401	1.000000e-01	6.969834e-06	
402	1.500000e-01	1.035815e-05	

Index   v-sweep         -i(vds)         
--------------------------------------------------------------------------------
403	2.000000e-01	1.368783e-05	
404	2.500000e-01	1.695985e-05	
405	3.000000e-01	2.017476e-05	
406	3.500000e-01	2.333300e-05	
407	4.000000e-01	2.643498e-05	
408	4.500000e-01	2.948111e-05	
409	5.000000e-01	3.247178e-05	
410	5.500000e-01	3.540739e-05	
411	6.000000e-01	3.828831e-05	
412	6.500000e-01	4.111494e-05	
413	7.000000e-01	4.388766e-05	
414	7.500000e-01	4.660685e-05	
415	8.000000e-01	4.927287e-05	
416	8.500000e-01	5.188610e-05	
417	9.000000e-01	5.444690e-05	
418	9.500000e-01	5.695564e-05	
419	1.000000e+00	5.941268e-05	
420	1.050000e+00	6.181837e-05	
421	1.100000e+00	6.417308e-05	
422	1.150000e+00	6.647714e-05	
423	1.200000e+00	6.873090e-05	
424	1.250000e+00	7.093471e-05	
425	1.300000e+00	7.308891e-05	
426	1.350000e+00	7.519384e-05	
427	1.400000e+00	7.724982e-05	
428	1.450000e+00	7.925720e-05	
429	1.500000e+00	8.121629e-05	
430	1.550000e+00	8.312742e-05	
431	1.600000e+00	8.499091e-05	
432	1.650000e+00	8.680708e-05	
433	1.700000e+00	8.857624e-05	
434	1.750000e+00	9.029870e-05	
435	1.800000e+00	9.197476e-05	
436	1.850000e+00	9.360472e-05	
437	1.900000e+00	9.518887e-05	
438	1.950000e+00	9.672749e-05	
439	2.000000e+00	9.822086e-05	
440	2.050000e+00	9.966923e-05	
441	2.100000e+00	1.010728e-04	
442	2.150000e+00	1.024318e-04	
443	2.200000e+00	1.037464e-04	
444	2.250000e+00	1.050166e-04	
445	2.300000e+00	1.062423e-04	
446	2.350000e+00	1.074231e-04	
447	2.400000e+00	1.085583e-04	
448	2.450000e+00	1.096462e-04	
449	2.500000e+00	1.106843e-04	
450	2.550000e+00	1.116683e-04	
451	2.600000e+00	1.125931e-04	
452	2.650000e+00	1.134540e-04	
453	2.700000e+00	1.142493e-04	
454	2.750000e+00	1.149807e-04	
455	2.800000e+00	1.156530e-04	
456	2.850000e+00	1.162723e-04	
457	2.900000e+00	1.168448e-04	
458	2.950000e+00	1.173763e-04	
459	3.000000e+00	1.178717e-04	
460	3.050000e+00	1.183355e-04	

Index   v-sweep         -i(vds)         
--------------------------------------------------------------------------------
461	3.100000e+00	1.187712e-04	
462	3.150000e+00	1.191820e-04	
463	3.200000e+00	1.195705e-04	
464	3.250000e+00	1.199390e-04	
465	3.300000e+00	1.202894e-04	
466	3.350000e+00	1.206234e-04	
467	3.400000e+00	1.209426e-04	
468	3.450000e+00	1.212481e-04	
469	3.500000e+00	1.215411e-04	
470	3.550000e+00	1.218225e-04	
471	3.600000e+00	1.220933e-04	
472	3.650000e+00	1.223543e-04	
473	3.700000e+00	1.226061e-04	
474	3.750000e+00	1.228494e-04	
475	3.800000e+00	1.230847e-04	
476	3.850000e+00	1.233125e-04	
477	3.900000e+00	1.235334e-04	
478	3.950000e+00	1.237477e-04	
479	4.000000e+00	1.239558e-04	
480	4.050000e+00	1.241582e-04	
481	4.100000e+00	1.243550e-04	
482	4.150000e+00	1.245466e-04	
483	4.200000e+00	1.247333e-04	
484	4.250000e+00	1.249153e-04	
485	4.300000e+00	1.250928e-04	
486	4.350000e+00	1.252662e-04	
487	4.400000e+00	1.254355e-04	
488	4.450000e+00	1.256011e-04	
489	4.500000e+00	1.257629e-04	
490	4.550000e+00	1.259213e-04	
491	4.600000e+00	1.260764e-04	
492	4.650000e+00	1.262283e-04	
493	4.700000e+00	1.263771e-04	
494	4.750000e+00	1.265230e-04	
495	4.800000e+00	1.266661e-04	
496	4.850000e+00	1.268066e-04	
497	4.900000e+00	1.269444e-04	
498	4.950000e+00	1.270798e-04	
499	5.000000e+00	1.272128e-04	
500	5.050000e+00	1.273435e-04	
501	5.100000e+00	1.274721e-04	
502	5.150000e+00	1.275985e-04	
503	5.200000e+00	1.277229e-04	
504	5.250000e+00	1.278453e-04	
505	5.300000e+00	1.279658e-04	
506	5.350000e+00	1.280845e-04	
507	5.400000e+00	1.282015e-04	
508	5.450000e+00	1.283167e-04	
509	5.500000e+00	1.284303e-04	
510	5.550000e+00	1.285423e-04	
511	5.600000e+00	1.286528e-04	
512	5.650000e+00	1.287619e-04	
513	5.700000e+00	1.288695e-04	
514	5.750000e+00	1.289757e-04	
515	5.800000e+00	1.290806e-04	
516	5.850000e+00	1.291842e-04	
517	5.900000e+00	1.292865e-04	
518	5.950000e+00	1.293876e-04	

Index   v-sweep         -i(vds)         
--------------------------------------------------------------------------------
519	6.000000e+00	1.294876e-04	
520	6.050000e+00	1.295864e-04	
521	6.100000e+00	1.296841e-04	
522	6.150000e+00	1.297808e-04	
523	6.200000e+00	1.298764e-04	
524	6.250000e+00	1.299710e-04	
525	6.300000e+00	1.300647e-04	
526	6.350000e+00	1.301574e-04	
527	6.400000e+00	1.302492e-04	
528	6.450000e+00	1.303401e-04	
529	6.500000e+00	1.304301e-04	
530	6.550000e+00	1.305193e-04	
531	6.600000e+00	1.306077e-04	
532	0.000000e+00	-0.000000e+00	
533	5.000000e-02	3.984043e-06	
534	1.000000e-01	7.904025e-06	
535	1.500000e-01	1.176919e-05	
536	2.000000e-01	1.558212e-05	
537	2.500000e-01	1.934370e-05	
538	3.000000e-01	2.305440e-05	
539	3.500000e-01	2.671458e-05	
540	4.000000e-01	3.032459e-05	
541	4.500000e-01	3.388474e-05	
542	5.000000e-01	3.739535e-05	
543	5.500000e-01	4.085675e-05	
544	6.000000e-01	4.426924e-05	
545	6.500000e-01	4.763314e-05	
546	7.000000e-01	5.094875e-05	
547	7.500000e-01	5.421638e-05	
548	8.000000e-01	5.743634e-05	
549	8.500000e-01	6.060893e-05	
550	9.000000e-01	6.373444e-05	
551	9.500000e-01	6.681317e-05	
552	1.000000e+00	6.984541e-05	
553	1.050000e+00	7.283146e-05	
554	1.100000e+00	7.577160e-05	
555	1.150000e+00	7.866612e-05	
556	1.200000e+00	8.151530e-05	
557	1.250000e+00	8.431943e-05	
558	1.300000e+00	8.707877e-05	
559	1.350000e+00	8.979362e-05	
560	1.400000e+00	9.246425e-05	
561	1.450000e+00	9.509092e-05	
562	1.500000e+00	9.767390e-05	
563	1.550000e+00	1.002135e-04	
564	1.600000e+00	1.027099e-04	
565	1.650000e+00	1.051634e-04	
566	1.700000e+00	1.075743e-04	
567	1.750000e+00	1.099429e-04	
568	1.800000e+00	1.122693e-04	
569	1.850000e+00	1.145538e-04	
570	1.900000e+00	1.167968e-04	
571	1.950000e+00	1.189984e-04	
572	2.000000e+00	1.211589e-04	
573	2.050000e+00	1.232785e-04	
574	2.100000e+00	1.253575e-04	
575	2.150000e+00	1.273961e-04	
576	2.200000e+00	1.293946e-04	

Index   v-sweep         -i(vds)         
--------------------------------------------------------------------------------
577	2.250000e+00	1.313531e-04	
578	2.300000e+00	1.332720e-04	
579	2.350000e+00	1.351514e-04	
580	2.400000e+00	1.369916e-04	
581	2.450000e+00	1.387927e-04	
582	2.500000e+00	1.405551e-04	
583	2.550000e+00	1.422788e-04	
584	2.600000e+00	1.439641e-04	
585	2.650000e+00	1.456112e-04	
586	2.700000e+00	1.472202e-04	
587	2.750000e+00	1.487911e-04	
588	2.800000e+00	1.503241e-04	
589	2.850000e+00	1.518192e-04	
590	2.900000e+00	1.532762e-04	
591	2.950000e+00	1.546947e-04	
592	3.000000e+00	1.560741e-04	
593	3.050000e+00	1.574132e-04	
594	3.100000e+00	1.587099e-04	
595	3.150000e+00	1.599611e-04	
596	3.200000e+00	1.611620e-04	
597	3.250000e+00	1.623064e-04	
598	3.300000e+00	1.633880e-04	
599	3.350000e+00	1.644020e-04	
600	3.400000e+00	1.653471e-04	
601	3.450000e+00	1.662253e-04	
602	3.500000e+00	1.670410e-04	
603	3.550000e+00	1.678000e-04	
604	3.600000e+00	1.685081e-04	
605	3.650000e+00	1.691707e-04	
606	3.700000e+00	1.697928e-04	
607	3.750000e+00	1.703787e-04	
608	3.800000e+00	1.709322e-04	
609	3.850000e+00	1.714567e-04	
610	3.900000e+00	1.719548e-04	
611	3.950000e+00	1.724291e-04	
612	4.000000e+00	1.728817e-04	
613	4.050000e+00	1.733146e-04	
614	4.100000e+00	1.737293e-04	
615	4.150000e+00	1.741273e-04	
616	4.200000e+00	1.745099e-04	
617	4.250000e+00	1.748782e-04	
618	4.300000e+00	1.752333e-04	
619	4.350000e+00	1.755762e-04	
620	4.400000e+00	1.759075e-04	
621	4.450000e+00	1.762282e-04	
622	4.500000e+00	1.765387e-04	
623	4.550000e+00	1.768399e-04	
624	4.600000e+00	1.771322e-04	
625	4.650000e+00	1.774162e-04	
626	4.700000e+00	1.776922e-04	
627	4.750000e+00	1.779608e-04	
628	4.800000e+00	1.782224e-04	
629	4.850000e+00	1.784773e-04	
630	4.900000e+00	1.787259e-04	
631	4.950000e+00	1.789684e-04	
632	5.000000e+00	1.792052e-04	
633	5.050000e+00	1.794365e-04	
634	5.100000e+00	1.796627e-04	

Index   v-sweep         -i(vds)         
--------------------------------------------------------------------------------
635	5.150000e+00	1.798838e-04	
636	5.200000e+00	1.801003e-04	
637	5.250000e+00	1.803122e-04	
638	5.300000e+00	1.805197e-04	
639	5.350000e+00	1.807231e-04	
640	5.400000e+00	1.809226e-04	
641	5.450000e+00	1.811182e-04	
642	5.500000e+00	1.813101e-04	
643	5.550000e+00	1.814986e-04	
644	5.600000e+00	1.816836e-04	
645	5.650000e+00	1.818654e-04	
646	5.700000e+00	1.820441e-04	
647	5.750000e+00	1.822198e-04	
648	5.800000e+00	1.823926e-04	
649	5.850000e+00	1.825627e-04	
650	5.900000e+00	1.827300e-04	
651	5.950000e+00	1.828947e-04	
652	6.000000e+00	1.830570e-04	
653	6.050000e+00	1.832169e-04	
654	6.100000e+00	1.833744e-04	
655	6.150000e+00	1.835297e-04	
656	6.200000e+00	1.836828e-04	
657	6.250000e+00	1.838338e-04	
658	6.300000e+00	1.839828e-04	
659	6.350000e+00	1.841299e-04	
660	6.400000e+00	1.842751e-04	
661	6.450000e+00	1.844184e-04	
662	6.500000e+00	1.845600e-04	
663	6.550000e+00	1.846999e-04	
664	6.600000e+00	1.848381e-04	
665	0.000000e+00	-0.000000e+00	
666	5.000000e-02	4.317954e-06	
667	1.000000e-01	8.577837e-06	
668	1.500000e-01	1.278883e-05	
669	2.000000e-01	1.695342e-05	
670	2.500000e-01	2.107246e-05	
671	3.000000e-01	2.514634e-05	
672	3.500000e-01	2.917537e-05	
673	4.000000e-01	3.315980e-05	
674	4.500000e-01	3.709991e-05	
675	5.000000e-01	4.099595e-05	
676	5.500000e-01	4.484817e-05	
677	6.000000e-01	4.865683e-05	
678	6.500000e-01	5.242218e-05	
679	7.000000e-01	5.614447e-05	
680	7.500000e-01	5.982395e-05	
681	8.000000e-01	6.346085e-05	
682	8.500000e-01	6.705543e-05	
683	9.000000e-01	7.060793e-05	
684	9.500000e-01	7.411858e-05	
685	1.000000e+00	7.758762e-05	
686	1.050000e+00	8.101529e-05	
687	1.100000e+00	8.440182e-05	
688	1.150000e+00	8.774745e-05	
689	1.200000e+00	9.105241e-05	
690	1.250000e+00	9.431692e-05	
691	1.300000e+00	9.754122e-05	
692	1.350000e+00	1.007255e-04	

Index   v-sweep         -i(vds)         
--------------------------------------------------------------------------------
693	1.400000e+00	1.038701e-04	
694	1.450000e+00	1.069750e-04	
695	1.500000e+00	1.100407e-04	
696	1.550000e+00	1.130673e-04	
697	1.600000e+00	1.160549e-04	
698	1.650000e+00	1.190039e-04	
699	1.700000e+00	1.219144e-04	
700	1.750000e+00	1.247867e-04	
701	1.800000e+00	1.276210e-04	
702	1.850000e+00	1.304174e-04	
703	1.900000e+00	1.331762e-04	
704	1.950000e+00	1.358976e-04	
705	2.000000e+00	1.385818e-04	
706	2.050000e+00	1.412289e-04	
707	2.100000e+00	1.438393e-04	
708	2.150000e+00	1.464130e-04	
709	2.200000e+00	1.489504e-04	
710	2.250000e+00	1.514515e-04	
711	2.300000e+00	1.539167e-04	
712	2.350000e+00	1.563460e-04	
713	2.400000e+00	1.587396e-04	
714	2.450000e+00	1.610979e-04	
715	2.500000e+00	1.634209e-04	
716	2.550000e+00	1.657088e-04	
717	2.600000e+00	1.679618e-04	
718	2.650000e+00	1.701802e-04	
719	2.700000e+00	1.723640e-04	
720	2.750000e+00	1.745135e-04	
721	2.800000e+00	1.766289e-04	
722	2.850000e+00	1.787102e-04	
723	2.900000e+00	1.807578e-04	
724	2.950000e+00	1.827717e-04	
725	3.000000e+00	1.847522e-04	
726	3.050000e+00	1.866993e-04	
727	3.100000e+00	1.886133e-04	
728	3.150000e+00	1.904942e-04	
729	3.200000e+00	1.923423e-04	
730	3.250000e+00	1.941576e-04	
731	3.300000e+00	1.959402e-04	
732	3.350000e+00	1.976903e-04	
733	3.400000e+00	1.994078e-04	
734	3.450000e+00	2.010928e-04	
735	3.500000e+00	2.027451e-04	
736	3.550000e+00	2.043646e-04	
737	3.600000e+00	2.059508e-04	
738	3.650000e+00	2.075031e-04	
739	3.700000e+00	2.090202e-04	
740	3.750000e+00	2.105005e-04	
741	3.800000e+00	2.119411e-04	
742	3.850000e+00	2.133379e-04	
743	3.900000e+00	2.146851e-04	
744	3.950000e+00	2.159762e-04	
745	4.000000e+00	2.172042e-04	
746	4.050000e+00	2.183645e-04	
747	4.100000e+00	2.194550e-04	
748	4.150000e+00	2.204769e-04	
749	4.200000e+00	2.214339e-04	
750	4.250000e+00	2.223308e-04	

Index   v-sweep         -i(vds)         
--------------------------------------------------------------------------------
751	4.300000e+00	2.231730e-04	
752	4.350000e+00	2.239655e-04	
753	4.400000e+00	2.247133e-04	
754	4.450000e+00	2.254207e-04	
755	4.500000e+00	2.260915e-04	
756	4.550000e+00	2.267292e-04	
757	4.600000e+00	2.273368e-04	
758	4.650000e+00	2.279169e-04	
759	4.700000e+00	2.284719e-04	
760	4.750000e+00	2.290037e-04	
761	4.800000e+00	2.295143e-04	
762	4.850000e+00	2.300052e-04	
763	4.900000e+00	2.304780e-04	
764	4.950000e+00	2.309338e-04	
765	5.000000e+00	2.313739e-04	
766	5.050000e+00	2.317993e-04	
767	5.100000e+00	2.322110e-04	
768	5.150000e+00	2.326099e-04	
769	5.200000e+00	2.329966e-04	
770	5.250000e+00	2.333720e-04	
771	5.300000e+00	2.337367e-04	
772	5.350000e+00	2.340912e-04	
773	5.400000e+00	2.344362e-04	
774	5.450000e+00	2.347722e-04	
775	5.500000e+00	2.350995e-04	
776	5.550000e+00	2.354187e-04	
777	5.600000e+00	2.357302e-04	
778	5.650000e+00	2.360343e-04	
779	5.700000e+00	2.363314e-04	
780	5.750000e+00	2.366218e-04	
781	5.800000e+00	2.369058e-04	
782	5.850000e+00	2.371838e-04	
783	5.900000e+00	2.374559e-04	
784	5.950000e+00	2.377224e-04	
785	6.000000e+00	2.379835e-04	
786	6.050000e+00	2.382396e-04	
787	6.100000e+00	2.384907e-04	
788	6.150000e+00	2.387371e-04	
789	6.200000e+00	2.389790e-04	
790	6.250000e+00	2.392165e-04	
791	6.300000e+00	2.394499e-04	
792	6.350000e+00	2.396792e-04	
793	6.400000e+00	2.399047e-04	
794	6.450000e+00	2.401264e-04	
795	6.500000e+00	2.403446e-04	
796	6.550000e+00	2.405593e-04	
797	6.600000e+00	2.407706e-04	
Note: No ".plot", ".print", or ".fourier" lines; no simulations run
