
Note: Compatibility modes selected: hs

Warning: m=xx on .subckt line will override multiplier m hierarchy!


Circuit: ***************************

Doing analysis at TEMP = 25.000000 and TNOM = 25.000000


No. of Data Rows : 798
                          ***************************
                          DC transfer characteristic  Mon Jan  9 13:58:05  2023
--------------------------------------------------------------------------------
Index   v-sweep         -i(vds)         
--------------------------------------------------------------------------------
0	0.000000e+00	-0.000000e+00	
1	5.000000e-02	1.437142e-06	
2	1.000000e-01	2.655590e-06	
3	1.500000e-01	3.658421e-06	
4	2.000000e-01	4.449710e-06	
5	2.500000e-01	5.037256e-06	
6	3.000000e-01	5.443729e-06	
7	3.500000e-01	5.726696e-06	
8	4.000000e-01	5.949481e-06	
9	4.500000e-01	6.140885e-06	
10	5.000000e-01	6.311763e-06	
11	5.500000e-01	6.467719e-06	
12	6.000000e-01	6.612272e-06	
13	6.500000e-01	6.747825e-06	
14	7.000000e-01	6.876103e-06	
15	7.500000e-01	6.998385e-06	
16	8.000000e-01	7.115650e-06	
17	8.500000e-01	7.228659e-06	
18	9.000000e-01	7.338017e-06	
19	9.500000e-01	7.444212e-06	
20	1.000000e+00	7.547644e-06	
21	1.050000e+00	7.648645e-06	
22	1.100000e+00	7.747490e-06	
23	1.150000e+00	7.844415e-06	
24	1.200000e+00	7.939618e-06	
25	1.250000e+00	8.033272e-06	
26	1.300000e+00	8.125524e-06	
27	1.350000e+00	8.216503e-06	
28	1.400000e+00	8.306323e-06	
29	1.450000e+00	8.395082e-06	
30	1.500000e+00	8.482869e-06	
31	1.550000e+00	8.569762e-06	
32	1.600000e+00	8.655831e-06	
33	1.650000e+00	8.741137e-06	
34	1.700000e+00	8.825738e-06	
35	1.750000e+00	8.909683e-06	
36	1.800000e+00	8.993019e-06	
37	1.850000e+00	9.075787e-06	
38	1.900000e+00	9.158026e-06	
39	1.950000e+00	9.239769e-06	
40	2.000000e+00	9.321049e-06	
41	2.050000e+00	9.401895e-06	
42	2.100000e+00	9.482334e-06	
43	2.150000e+00	9.562389e-06	
44	2.200000e+00	9.642085e-06	
45	2.250000e+00	9.721443e-06	
46	2.300000e+00	9.800481e-06	
47	2.350000e+00	9.879219e-06	
48	2.400000e+00	9.957674e-06	
49	2.450000e+00	1.003586e-05	
50	2.500000e+00	1.011380e-05	
51	2.550000e+00	1.019149e-05	
52	2.600000e+00	1.026896e-05	
53	2.650000e+00	1.034622e-05	
54	2.700000e+00	1.042327e-05	

Index   v-sweep         -i(vds)         
--------------------------------------------------------------------------------
55	2.750000e+00	1.050014e-05	
56	2.800000e+00	1.057682e-05	
57	2.850000e+00	1.065334e-05	
58	2.900000e+00	1.072969e-05	
59	2.950000e+00	1.080589e-05	
60	3.000000e+00	1.088194e-05	
61	3.050000e+00	1.095786e-05	
62	3.100000e+00	1.103365e-05	
63	3.150000e+00	1.110932e-05	
64	3.200000e+00	1.118488e-05	
65	3.250000e+00	1.126032e-05	
66	3.300000e+00	1.133566e-05	
67	3.350000e+00	1.141091e-05	
68	3.400000e+00	1.148606e-05	
69	3.450000e+00	1.156113e-05	
70	3.500000e+00	1.163612e-05	
71	3.550000e+00	1.171103e-05	
72	3.600000e+00	1.178588e-05	
73	3.650000e+00	1.186065e-05	
74	3.700000e+00	1.193537e-05	
75	3.750000e+00	1.201002e-05	
76	3.800000e+00	1.208463e-05	
77	3.850000e+00	1.215918e-05	
78	3.900000e+00	1.223369e-05	
79	3.950000e+00	1.230815e-05	
80	4.000000e+00	1.238258e-05	
81	4.050000e+00	1.245697e-05	
82	4.100000e+00	1.253132e-05	
83	4.150000e+00	1.260565e-05	
84	4.200000e+00	1.267995e-05	
85	4.250000e+00	1.275423e-05	
86	4.300000e+00	1.282848e-05	
87	4.350000e+00	1.290272e-05	
88	4.400000e+00	1.297694e-05	
89	4.450000e+00	1.305115e-05	
90	4.500000e+00	1.312534e-05	
91	4.550000e+00	1.319953e-05	
92	4.600000e+00	1.327371e-05	
93	4.650000e+00	1.334788e-05	
94	4.700000e+00	1.342206e-05	
95	4.750000e+00	1.349623e-05	
96	4.800000e+00	1.357040e-05	
97	4.850000e+00	1.364458e-05	
98	4.900000e+00	1.371877e-05	
99	4.950000e+00	1.379296e-05	
100	5.000000e+00	1.386715e-05	
101	5.050000e+00	1.394136e-05	
102	5.100000e+00	1.401558e-05	
103	5.150000e+00	1.408982e-05	
104	5.200000e+00	1.416407e-05	
105	5.250000e+00	1.423833e-05	
106	5.300000e+00	1.431262e-05	
107	5.350000e+00	1.438692e-05	
108	5.400000e+00	1.446124e-05	
109	5.450000e+00	1.453559e-05	
110	5.500000e+00	1.460995e-05	
111	5.550000e+00	1.468435e-05	
112	5.600000e+00	1.475876e-05	

Index   v-sweep         -i(vds)         
--------------------------------------------------------------------------------
113	5.650000e+00	1.483321e-05	
114	5.700000e+00	1.490768e-05	
115	5.750000e+00	1.498218e-05	
116	5.800000e+00	1.505671e-05	
117	5.850000e+00	1.513127e-05	
118	5.900000e+00	1.520587e-05	
119	5.950000e+00	1.528049e-05	
120	6.000000e+00	1.535515e-05	
121	6.050000e+00	1.542985e-05	
122	6.100000e+00	1.550457e-05	
123	6.150000e+00	1.557934e-05	
124	6.200000e+00	1.565414e-05	
125	6.250000e+00	1.572898e-05	
126	6.300000e+00	1.580386e-05	
127	6.350000e+00	1.587878e-05	
128	6.400000e+00	1.595374e-05	
129	6.450000e+00	1.602874e-05	
130	6.500000e+00	1.610378e-05	
131	6.550000e+00	1.617887e-05	
132	6.600000e+00	1.625400e-05	
133	0.000000e+00	-0.000000e+00	
134	5.000000e-02	4.990194e-06	
135	1.000000e-01	9.759167e-06	
136	1.500000e-01	1.431023e-05	
137	2.000000e-01	1.864665e-05	
138	2.500000e-01	2.277160e-05	
139	3.000000e-01	2.668822e-05	
140	3.500000e-01	3.039960e-05	
141	4.000000e-01	3.390877e-05	
142	4.500000e-01	3.721870e-05	
143	5.000000e-01	4.033234e-05	
144	5.500000e-01	4.325260e-05	
145	6.000000e-01	4.598233e-05	
146	6.500000e-01	4.852435e-05	
147	7.000000e-01	5.088132e-05	
148	7.500000e-01	5.305543e-05	
149	8.000000e-01	5.504749e-05	
150	8.500000e-01	5.685444e-05	
151	9.000000e-01	5.846668e-05	
152	9.500000e-01	5.987541e-05	
153	1.000000e+00	6.109113e-05	
154	1.050000e+00	6.214390e-05	
155	1.100000e+00	6.306722e-05	
156	1.150000e+00	6.388893e-05	
157	1.200000e+00	6.463009e-05	
158	1.250000e+00	6.530635e-05	
159	1.300000e+00	6.592942e-05	
160	1.350000e+00	6.650821e-05	
161	1.400000e+00	6.704961e-05	
162	1.450000e+00	6.755907e-05	
163	1.500000e+00	6.804092e-05	
164	1.550000e+00	6.849871e-05	
165	1.600000e+00	6.893532e-05	
166	1.650000e+00	6.935317e-05	
167	1.700000e+00	6.975429e-05	
168	1.750000e+00	7.014041e-05	
169	1.800000e+00	7.051298e-05	
170	1.850000e+00	7.087327e-05	

Index   v-sweep         -i(vds)         
--------------------------------------------------------------------------------
171	1.900000e+00	7.122239e-05	
172	1.950000e+00	7.156129e-05	
173	2.000000e+00	7.189081e-05	
174	2.050000e+00	7.221170e-05	
175	2.100000e+00	7.252462e-05	
176	2.150000e+00	7.283015e-05	
177	2.200000e+00	7.312882e-05	
178	2.250000e+00	7.342111e-05	
179	2.300000e+00	7.370743e-05	
180	2.350000e+00	7.398818e-05	
181	2.400000e+00	7.426370e-05	
182	2.450000e+00	7.453432e-05	
183	2.500000e+00	7.480032e-05	
184	2.550000e+00	7.506198e-05	
185	2.600000e+00	7.531953e-05	
186	2.650000e+00	7.557320e-05	
187	2.700000e+00	7.582321e-05	
188	2.750000e+00	7.606975e-05	
189	2.800000e+00	7.631299e-05	
190	2.850000e+00	7.655310e-05	
191	2.900000e+00	7.679023e-05	
192	2.950000e+00	7.702454e-05	
193	3.000000e+00	7.725615e-05	
194	3.050000e+00	7.748519e-05	
195	3.100000e+00	7.771179e-05	
196	3.150000e+00	7.793604e-05	
197	3.200000e+00	7.815807e-05	
198	3.250000e+00	7.837795e-05	
199	3.300000e+00	7.859580e-05	
200	3.350000e+00	7.881169e-05	
201	3.400000e+00	7.902571e-05	
202	3.450000e+00	7.923794e-05	
203	3.500000e+00	7.944846e-05	
204	3.550000e+00	7.965732e-05	
205	3.600000e+00	7.986461e-05	
206	3.650000e+00	8.007038e-05	
207	3.700000e+00	8.027470e-05	
208	3.750000e+00	8.047762e-05	
209	3.800000e+00	8.067919e-05	
210	3.850000e+00	8.087948e-05	
211	3.900000e+00	8.107853e-05	
212	3.950000e+00	8.127638e-05	
213	4.000000e+00	8.147309e-05	
214	4.050000e+00	8.166870e-05	
215	4.100000e+00	8.186325e-05	
216	4.150000e+00	8.205678e-05	
217	4.200000e+00	8.224932e-05	
218	4.250000e+00	8.244092e-05	
219	4.300000e+00	8.263161e-05	
220	4.350000e+00	8.282143e-05	
221	4.400000e+00	8.301040e-05	
222	4.450000e+00	8.319855e-05	
223	4.500000e+00	8.338593e-05	
224	4.550000e+00	8.357255e-05	
225	4.600000e+00	8.375844e-05	
226	4.650000e+00	8.394364e-05	
227	4.700000e+00	8.412816e-05	
228	4.750000e+00	8.431202e-05	

Index   v-sweep         -i(vds)         
--------------------------------------------------------------------------------
229	4.800000e+00	8.449527e-05	
230	4.850000e+00	8.467791e-05	
231	4.900000e+00	8.485997e-05	
232	4.950000e+00	8.504146e-05	
233	5.000000e+00	8.522242e-05	
234	5.050000e+00	8.540286e-05	
235	5.100000e+00	8.558280e-05	
236	5.150000e+00	8.576225e-05	
237	5.200000e+00	8.594124e-05	
238	5.250000e+00	8.611978e-05	
239	5.300000e+00	8.629788e-05	
240	5.350000e+00	8.647558e-05	
241	5.400000e+00	8.665287e-05	
242	5.450000e+00	8.682977e-05	
243	5.500000e+00	8.700630e-05	
244	5.550000e+00	8.718247e-05	
245	5.600000e+00	8.735830e-05	
246	5.650000e+00	8.753380e-05	
247	5.700000e+00	8.770897e-05	
248	5.750000e+00	8.788384e-05	
249	5.800000e+00	8.805842e-05	
250	5.850000e+00	8.823271e-05	
251	5.900000e+00	8.840672e-05	
252	5.950000e+00	8.858047e-05	
253	6.000000e+00	8.875397e-05	
254	6.050000e+00	8.892723e-05	
255	6.100000e+00	8.910025e-05	
256	6.150000e+00	8.927305e-05	
257	6.200000e+00	8.944564e-05	
258	6.250000e+00	8.961801e-05	
259	6.300000e+00	8.979019e-05	
260	6.350000e+00	8.996218e-05	
261	6.400000e+00	9.013399e-05	
262	6.450000e+00	9.030562e-05	
263	6.500000e+00	9.047709e-05	
264	6.550000e+00	9.064840e-05	
265	6.600000e+00	9.081955e-05	
266	0.000000e+00	-0.000000e+00	
267	5.000000e-02	7.474184e-06	
268	1.000000e-01	1.473269e-05	
269	1.500000e-01	2.177876e-05	
270	2.000000e-01	2.861554e-05	
271	2.500000e-01	3.524613e-05	
272	3.000000e-01	4.167358e-05	
273	3.500000e-01	4.790086e-05	
274	4.000000e-01	5.393090e-05	
275	4.500000e-01	5.976656e-05	
276	5.000000e-01	6.541065e-05	
277	5.500000e-01	7.086590e-05	
278	6.000000e-01	7.613503e-05	
279	6.500000e-01	8.122067e-05	
280	7.000000e-01	8.612540e-05	
281	7.500000e-01	9.085175e-05	
282	8.000000e-01	9.540218e-05	
283	8.500000e-01	9.977907e-05	
284	9.000000e-01	1.039847e-04	
285	9.500000e-01	1.080213e-04	
286	1.000000e+00	1.118907e-04	

Index   v-sweep         -i(vds)         
--------------------------------------------------------------------------------
287	1.050000e+00	1.155943e-04	
288	1.100000e+00	1.191326e-04	
289	1.150000e+00	1.225043e-04	
290	1.200000e+00	1.257033e-04	
291	1.250000e+00	1.287149e-04	
292	1.300000e+00	1.315094e-04	
293	1.350000e+00	1.340466e-04	
294	1.400000e+00	1.363003e-04	
295	1.450000e+00	1.382796e-04	
296	1.500000e+00	1.400200e-04	
297	1.550000e+00	1.415631e-04	
298	1.600000e+00	1.429458e-04	
299	1.650000e+00	1.441977e-04	
300	1.700000e+00	1.453419e-04	
301	1.750000e+00	1.463961e-04	
302	1.800000e+00	1.473744e-04	
303	1.850000e+00	1.482879e-04	
304	1.900000e+00	1.491454e-04	
305	1.950000e+00	1.499541e-04	
306	2.000000e+00	1.507200e-04	
307	2.050000e+00	1.514480e-04	
308	2.100000e+00	1.521422e-04	
309	2.150000e+00	1.528061e-04	
310	2.200000e+00	1.534428e-04	
311	2.250000e+00	1.540547e-04	
312	2.300000e+00	1.546441e-04	
313	2.350000e+00	1.552129e-04	
314	2.400000e+00	1.557630e-04	
315	2.450000e+00	1.562956e-04	
316	2.500000e+00	1.568122e-04	
317	2.550000e+00	1.573140e-04	
318	2.600000e+00	1.578021e-04	
319	2.650000e+00	1.582773e-04	
320	2.700000e+00	1.587405e-04	
321	2.750000e+00	1.591925e-04	
322	2.800000e+00	1.596341e-04	
323	2.850000e+00	1.600657e-04	
324	2.900000e+00	1.604882e-04	
325	2.950000e+00	1.609018e-04	
326	3.000000e+00	1.613073e-04	
327	3.050000e+00	1.617049e-04	
328	3.100000e+00	1.620952e-04	
329	3.150000e+00	1.624785e-04	
330	3.200000e+00	1.628552e-04	
331	3.250000e+00	1.632256e-04	
332	3.300000e+00	1.635900e-04	
333	3.350000e+00	1.639487e-04	
334	3.400000e+00	1.643020e-04	
335	3.450000e+00	1.646501e-04	
336	3.500000e+00	1.649932e-04	
337	3.550000e+00	1.653317e-04	
338	3.600000e+00	1.656657e-04	
339	3.650000e+00	1.659953e-04	
340	3.700000e+00	1.663208e-04	
341	3.750000e+00	1.666424e-04	
342	3.800000e+00	1.669602e-04	
343	3.850000e+00	1.672744e-04	
344	3.900000e+00	1.675851e-04	

Index   v-sweep         -i(vds)         
--------------------------------------------------------------------------------
345	3.950000e+00	1.678925e-04	
346	4.000000e+00	1.681967e-04	
347	4.050000e+00	1.684978e-04	
348	4.100000e+00	1.687959e-04	
349	4.150000e+00	1.690913e-04	
350	4.200000e+00	1.693839e-04	
351	4.250000e+00	1.696739e-04	
352	4.300000e+00	1.699613e-04	
353	4.350000e+00	1.702464e-04	
354	4.400000e+00	1.705291e-04	
355	4.450000e+00	1.708096e-04	
356	4.500000e+00	1.710879e-04	
357	4.550000e+00	1.713641e-04	
358	4.600000e+00	1.716383e-04	
359	4.650000e+00	1.719106e-04	
360	4.700000e+00	1.721810e-04	
361	4.750000e+00	1.724497e-04	
362	4.800000e+00	1.727166e-04	
363	4.850000e+00	1.729818e-04	
364	4.900000e+00	1.732455e-04	
365	4.950000e+00	1.735076e-04	
366	5.000000e+00	1.737682e-04	
367	5.050000e+00	1.740273e-04	
368	5.100000e+00	1.742851e-04	
369	5.150000e+00	1.745415e-04	
370	5.200000e+00	1.747966e-04	
371	5.250000e+00	1.750505e-04	
372	5.300000e+00	1.753031e-04	
373	5.350000e+00	1.755546e-04	
374	5.400000e+00	1.758050e-04	
375	5.450000e+00	1.760543e-04	
376	5.500000e+00	1.763025e-04	
377	5.550000e+00	1.765497e-04	
378	5.600000e+00	1.767960e-04	
379	5.650000e+00	1.770413e-04	
380	5.700000e+00	1.772857e-04	
381	5.750000e+00	1.775292e-04	
382	5.800000e+00	1.777718e-04	
383	5.850000e+00	1.780137e-04	
384	5.900000e+00	1.782547e-04	
385	5.950000e+00	1.784950e-04	
386	6.000000e+00	1.787346e-04	
387	6.050000e+00	1.789734e-04	
388	6.100000e+00	1.792115e-04	
389	6.150000e+00	1.794490e-04	
390	6.200000e+00	1.796858e-04	
391	6.250000e+00	1.799220e-04	
392	6.300000e+00	1.801576e-04	
393	6.350000e+00	1.803927e-04	
394	6.400000e+00	1.806272e-04	
395	6.450000e+00	1.808611e-04	
396	6.500000e+00	1.810945e-04	
397	6.550000e+00	1.813274e-04	
398	6.600000e+00	1.815598e-04	
399	0.000000e+00	-0.000000e+00	
400	5.000000e-02	9.251867e-06	
401	1.000000e-01	1.829993e-05	
402	1.500000e-01	2.714705e-05	

Index   v-sweep         -i(vds)         
--------------------------------------------------------------------------------
403	2.000000e-01	3.579600e-05	
404	2.500000e-01	4.424954e-05	
405	3.000000e-01	5.251035e-05	
406	3.500000e-01	6.058109e-05	
407	4.000000e-01	6.846433e-05	
408	4.500000e-01	7.616264e-05	
409	5.000000e-01	8.367849e-05	
410	5.500000e-01	9.101435e-05	
411	6.000000e-01	9.817262e-05	
412	6.500000e-01	1.051557e-04	
413	7.000000e-01	1.119658e-04	
414	7.500000e-01	1.186052e-04	
415	8.000000e-01	1.250763e-04	
416	8.500000e-01	1.313811e-04	
417	9.000000e-01	1.375218e-04	
418	9.500000e-01	1.435004e-04	
419	1.000000e+00	1.493191e-04	
420	1.050000e+00	1.549798e-04	
421	1.100000e+00	1.604845e-04	
422	1.150000e+00	1.658349e-04	
423	1.200000e+00	1.710329e-04	
424	1.250000e+00	1.760801e-04	
425	1.300000e+00	1.809779e-04	
426	1.350000e+00	1.857274e-04	
427	1.400000e+00	1.903289e-04	
428	1.450000e+00	1.947816e-04	
429	1.500000e+00	1.990825e-04	
430	1.550000e+00	2.032237e-04	
431	1.600000e+00	2.071889e-04	
432	1.650000e+00	2.109467e-04	
433	1.700000e+00	2.144499e-04	
434	1.750000e+00	2.176487e-04	
435	1.800000e+00	2.205188e-04	
436	1.850000e+00	2.230730e-04	
437	1.900000e+00	2.253483e-04	
438	1.950000e+00	2.273878e-04	
439	2.000000e+00	2.292308e-04	
440	2.050000e+00	2.309101e-04	
441	2.100000e+00	2.324520e-04	
442	2.150000e+00	2.338775e-04	
443	2.200000e+00	2.352036e-04	
444	2.250000e+00	2.364438e-04	
445	2.300000e+00	2.376093e-04	
446	2.350000e+00	2.387091e-04	
447	2.400000e+00	2.397508e-04	
448	2.450000e+00	2.407408e-04	
449	2.500000e+00	2.416845e-04	
450	2.550000e+00	2.425866e-04	
451	2.600000e+00	2.434509e-04	
452	2.650000e+00	2.442808e-04	
453	2.700000e+00	2.450795e-04	
454	2.750000e+00	2.458494e-04	
455	2.800000e+00	2.465928e-04	
456	2.850000e+00	2.473119e-04	
457	2.900000e+00	2.480085e-04	
458	2.950000e+00	2.486840e-04	
459	3.000000e+00	2.493401e-04	
460	3.050000e+00	2.499780e-04	

Index   v-sweep         -i(vds)         
--------------------------------------------------------------------------------
461	3.100000e+00	2.505989e-04	
462	3.150000e+00	2.512039e-04	
463	3.200000e+00	2.517939e-04	
464	3.250000e+00	2.523698e-04	
465	3.300000e+00	2.529325e-04	
466	3.350000e+00	2.534827e-04	
467	3.400000e+00	2.540210e-04	
468	3.450000e+00	2.545482e-04	
469	3.500000e+00	2.550648e-04	
470	3.550000e+00	2.555714e-04	
471	3.600000e+00	2.560684e-04	
472	3.650000e+00	2.565563e-04	
473	3.700000e+00	2.570356e-04	
474	3.750000e+00	2.575067e-04	
475	3.800000e+00	2.579699e-04	
476	3.850000e+00	2.584256e-04	
477	3.900000e+00	2.588742e-04	
478	3.950000e+00	2.593160e-04	
479	4.000000e+00	2.597513e-04	
480	4.050000e+00	2.601803e-04	
481	4.100000e+00	2.606033e-04	
482	4.150000e+00	2.610206e-04	
483	4.200000e+00	2.614324e-04	
484	4.250000e+00	2.618389e-04	
485	4.300000e+00	2.622404e-04	
486	4.350000e+00	2.626371e-04	
487	4.400000e+00	2.630291e-04	
488	4.450000e+00	2.634166e-04	
489	4.500000e+00	2.637998e-04	
490	4.550000e+00	2.641789e-04	
491	4.600000e+00	2.645540e-04	
492	4.650000e+00	2.649253e-04	
493	4.700000e+00	2.652929e-04	
494	4.750000e+00	2.656570e-04	
495	4.800000e+00	2.660177e-04	
496	4.850000e+00	2.663751e-04	
497	4.900000e+00	2.667294e-04	
498	4.950000e+00	2.670806e-04	
499	5.000000e+00	2.674289e-04	
500	5.050000e+00	2.677744e-04	
501	5.100000e+00	2.681171e-04	
502	5.150000e+00	2.684572e-04	
503	5.200000e+00	2.687948e-04	
504	5.250000e+00	2.691300e-04	
505	5.300000e+00	2.694628e-04	
506	5.350000e+00	2.697933e-04	
507	5.400000e+00	2.701216e-04	
508	5.450000e+00	2.704479e-04	
509	5.500000e+00	2.707720e-04	
510	5.550000e+00	2.710943e-04	
511	5.600000e+00	2.714146e-04	
512	5.650000e+00	2.717331e-04	
513	5.700000e+00	2.720498e-04	
514	5.750000e+00	2.723648e-04	
515	5.800000e+00	2.726781e-04	
516	5.850000e+00	2.729899e-04	
517	5.900000e+00	2.733001e-04	
518	5.950000e+00	2.736088e-04	

Index   v-sweep         -i(vds)         
--------------------------------------------------------------------------------
519	6.000000e+00	2.739161e-04	
520	6.050000e+00	2.742220e-04	
521	6.100000e+00	2.745266e-04	
522	6.150000e+00	2.748298e-04	
523	6.200000e+00	2.751318e-04	
524	6.250000e+00	2.754326e-04	
525	6.300000e+00	2.757323e-04	
526	6.350000e+00	2.760308e-04	
527	6.400000e+00	2.763282e-04	
528	6.450000e+00	2.766246e-04	
529	6.500000e+00	2.769199e-04	
530	6.550000e+00	2.772143e-04	
531	6.600000e+00	2.775077e-04	
532	0.000000e+00	-0.000000e+00	
533	5.000000e-02	1.050235e-05	
534	1.000000e-01	2.081676e-05	
535	1.500000e-01	3.094562e-05	
536	2.000000e-01	4.089129e-05	
537	2.500000e-01	5.065609e-05	
538	3.000000e-01	6.024229e-05	
539	3.500000e-01	6.965214e-05	
540	4.000000e-01	7.888783e-05	
541	4.500000e-01	8.795153e-05	
542	5.000000e-01	9.684537e-05	
543	5.500000e-01	1.055714e-04	
544	6.000000e-01	1.141318e-04	
545	6.500000e-01	1.225284e-04	
546	7.000000e-01	1.307633e-04	
547	7.500000e-01	1.388385e-04	
548	8.000000e-01	1.467558e-04	
549	8.500000e-01	1.545171e-04	
550	9.000000e-01	1.621243e-04	
551	9.500000e-01	1.695792e-04	
552	1.000000e+00	1.768836e-04	
553	1.050000e+00	1.840392e-04	
554	1.100000e+00	1.910477e-04	
555	1.150000e+00	1.979108e-04	
556	1.200000e+00	2.046303e-04	
557	1.250000e+00	2.112076e-04	
558	1.300000e+00	2.176444e-04	
559	1.350000e+00	2.239422e-04	
560	1.400000e+00	2.301024e-04	
561	1.450000e+00	2.361266e-04	
562	1.500000e+00	2.420161e-04	
563	1.550000e+00	2.477720e-04	
564	1.600000e+00	2.533955e-04	
565	1.650000e+00	2.588874e-04	
566	1.700000e+00	2.642482e-04	
567	1.750000e+00	2.694774e-04	
568	1.800000e+00	2.745735e-04	
569	1.850000e+00	2.795328e-04	
570	1.900000e+00	2.843470e-04	
571	1.950000e+00	2.890006e-04	
572	2.000000e+00	2.934652e-04	
573	2.050000e+00	2.976967e-04	
574	2.100000e+00	3.016405e-04	
575	2.150000e+00	3.052525e-04	
576	2.200000e+00	3.085199e-04	

Index   v-sweep         -i(vds)         
--------------------------------------------------------------------------------
577	2.250000e+00	3.114617e-04	
578	2.300000e+00	3.141144e-04	
579	2.350000e+00	3.165189e-04	
580	2.400000e+00	3.187123e-04	
581	2.450000e+00	3.207266e-04	
582	2.500000e+00	3.225881e-04	
583	2.550000e+00	3.243181e-04	
584	2.600000e+00	3.259343e-04	
585	2.650000e+00	3.274512e-04	
586	2.700000e+00	3.288807e-04	
587	2.750000e+00	3.302329e-04	
588	2.800000e+00	3.315162e-04	
589	2.850000e+00	3.327376e-04	
590	2.900000e+00	3.339034e-04	
591	2.950000e+00	3.350188e-04	
592	3.000000e+00	3.360884e-04	
593	3.050000e+00	3.371160e-04	
594	3.100000e+00	3.381053e-04	
595	3.150000e+00	3.390592e-04	
596	3.200000e+00	3.399806e-04	
597	3.250000e+00	3.408718e-04	
598	3.300000e+00	3.417349e-04	
599	3.350000e+00	3.425720e-04	
600	3.400000e+00	3.433847e-04	
601	3.450000e+00	3.441747e-04	
602	3.500000e+00	3.449434e-04	
603	3.550000e+00	3.456920e-04	
604	3.600000e+00	3.464219e-04	
605	3.650000e+00	3.471340e-04	
606	3.700000e+00	3.478293e-04	
607	3.750000e+00	3.485089e-04	
608	3.800000e+00	3.491734e-04	
609	3.850000e+00	3.498238e-04	
610	3.900000e+00	3.504608e-04	
611	3.950000e+00	3.510849e-04	
612	4.000000e+00	3.516969e-04	
613	4.050000e+00	3.522974e-04	
614	4.100000e+00	3.528868e-04	
615	4.150000e+00	3.534657e-04	
616	4.200000e+00	3.540346e-04	
617	4.250000e+00	3.545939e-04	
618	4.300000e+00	3.551441e-04	
619	4.350000e+00	3.556855e-04	
620	4.400000e+00	3.562185e-04	
621	4.450000e+00	3.567436e-04	
622	4.500000e+00	3.572609e-04	
623	4.550000e+00	3.577709e-04	
624	4.600000e+00	3.582738e-04	
625	4.650000e+00	3.587700e-04	
626	4.700000e+00	3.592596e-04	
627	4.750000e+00	3.597430e-04	
628	4.800000e+00	3.602205e-04	
629	4.850000e+00	3.606921e-04	
630	4.900000e+00	3.611582e-04	
631	4.950000e+00	3.616190e-04	
632	5.000000e+00	3.620747e-04	
633	5.050000e+00	3.625254e-04	
634	5.100000e+00	3.629714e-04	

Index   v-sweep         -i(vds)         
--------------------------------------------------------------------------------
635	5.150000e+00	3.634128e-04	
636	5.200000e+00	3.638499e-04	
637	5.250000e+00	3.642827e-04	
638	5.300000e+00	3.647114e-04	
639	5.350000e+00	3.651362e-04	
640	5.400000e+00	3.655571e-04	
641	5.450000e+00	3.659745e-04	
642	5.500000e+00	3.663883e-04	
643	5.550000e+00	3.667987e-04	
644	5.600000e+00	3.672059e-04	
645	5.650000e+00	3.676099e-04	
646	5.700000e+00	3.680108e-04	
647	5.750000e+00	3.684088e-04	
648	5.800000e+00	3.688040e-04	
649	5.850000e+00	3.691964e-04	
650	5.900000e+00	3.695862e-04	
651	5.950000e+00	3.699734e-04	
652	6.000000e+00	3.703582e-04	
653	6.050000e+00	3.707406e-04	
654	6.100000e+00	3.711207e-04	
655	6.150000e+00	3.714986e-04	
656	6.200000e+00	3.718743e-04	
657	6.250000e+00	3.722480e-04	
658	6.300000e+00	3.726197e-04	
659	6.350000e+00	3.729894e-04	
660	6.400000e+00	3.733573e-04	
661	6.450000e+00	3.737234e-04	
662	6.500000e+00	3.740877e-04	
663	6.550000e+00	3.744503e-04	
664	6.600000e+00	3.748114e-04	
665	0.000000e+00	-0.000000e+00	
666	5.000000e-02	1.135670e-05	
667	1.000000e-01	2.254293e-05	
668	1.500000e-01	3.356064e-05	
669	2.000000e-01	4.441178e-05	
670	2.500000e-01	5.509825e-05	
671	3.000000e-01	6.562194e-05	
672	3.500000e-01	7.598469e-05	
673	4.000000e-01	8.618833e-05	
674	4.500000e-01	9.623464e-05	
675	5.000000e-01	1.061254e-04	
676	5.500000e-01	1.158623e-04	
677	6.000000e-01	1.254472e-04	
678	6.500000e-01	1.348816e-04	
679	7.000000e-01	1.441673e-04	
680	7.500000e-01	1.533058e-04	
681	8.000000e-01	1.622988e-04	
682	8.500000e-01	1.711479e-04	
683	9.000000e-01	1.798546e-04	
684	9.500000e-01	1.884204e-04	
685	1.000000e+00	1.968469e-04	
686	1.050000e+00	2.051356e-04	
687	1.100000e+00	2.132878e-04	
688	1.150000e+00	2.213051e-04	
689	1.200000e+00	2.291888e-04	
690	1.250000e+00	2.369404e-04	
691	1.300000e+00	2.445612e-04	
692	1.350000e+00	2.520525e-04	

Index   v-sweep         -i(vds)         
--------------------------------------------------------------------------------
693	1.400000e+00	2.594156e-04	
694	1.450000e+00	2.666520e-04	
695	1.500000e+00	2.737627e-04	
696	1.550000e+00	2.807491e-04	
697	1.600000e+00	2.876124e-04	
698	1.650000e+00	2.943538e-04	
699	1.700000e+00	3.009743e-04	
700	1.750000e+00	3.074752e-04	
701	1.800000e+00	3.138575e-04	
702	1.850000e+00	3.201221e-04	
703	1.900000e+00	3.262699e-04	
704	1.950000e+00	3.323016e-04	
705	2.000000e+00	3.382177e-04	
706	2.050000e+00	3.440183e-04	
707	2.100000e+00	3.497029e-04	
708	2.150000e+00	3.552700e-04	
709	2.200000e+00	3.607162e-04	
710	2.250000e+00	3.660352e-04	
711	2.300000e+00	3.712150e-04	
712	2.350000e+00	3.762347e-04	
713	2.400000e+00	3.810605e-04	
714	2.450000e+00	3.856447e-04	
715	2.500000e+00	3.899349e-04	
716	2.550000e+00	3.938928e-04	
717	2.600000e+00	3.975085e-04	
718	2.650000e+00	4.007991e-04	
719	2.700000e+00	4.037968e-04	
720	2.750000e+00	4.065382e-04	
721	2.800000e+00	4.090579e-04	
722	2.850000e+00	4.113863e-04	
723	2.900000e+00	4.135492e-04	
724	2.950000e+00	4.155681e-04	
725	3.000000e+00	4.174609e-04	
726	3.050000e+00	4.192428e-04	
727	3.100000e+00	4.209263e-04	
728	3.150000e+00	4.225221e-04	
729	3.200000e+00	4.240393e-04	
730	3.250000e+00	4.254856e-04	
731	3.300000e+00	4.268678e-04	
732	3.350000e+00	4.281916e-04	
733	3.400000e+00	4.294621e-04	
734	3.450000e+00	4.306838e-04	
735	3.500000e+00	4.318606e-04	
736	3.550000e+00	4.329958e-04	
737	3.600000e+00	4.340927e-04	
738	3.650000e+00	4.351540e-04	
739	3.700000e+00	4.361822e-04	
740	3.750000e+00	4.371794e-04	
741	3.800000e+00	4.381477e-04	
742	3.850000e+00	4.390889e-04	
743	3.900000e+00	4.400047e-04	
744	3.950000e+00	4.408966e-04	
745	4.000000e+00	4.417660e-04	
746	4.050000e+00	4.426141e-04	
747	4.100000e+00	4.434422e-04	
748	4.150000e+00	4.442512e-04	
749	4.200000e+00	4.450423e-04	
750	4.250000e+00	4.458162e-04	

Index   v-sweep         -i(vds)         
--------------------------------------------------------------------------------
751	4.300000e+00	4.465739e-04	
752	4.350000e+00	4.473162e-04	
753	4.400000e+00	4.480438e-04	
754	4.450000e+00	4.487575e-04	
755	4.500000e+00	4.494578e-04	
756	4.550000e+00	4.501453e-04	
757	4.600000e+00	4.508208e-04	
758	4.650000e+00	4.514846e-04	
759	4.700000e+00	4.521372e-04	
760	4.750000e+00	4.527793e-04	
761	4.800000e+00	4.534112e-04	
762	4.850000e+00	4.540333e-04	
763	4.900000e+00	4.546461e-04	
764	4.950000e+00	4.552499e-04	
765	5.000000e+00	4.558452e-04	
766	5.050000e+00	4.564321e-04	
767	5.100000e+00	4.570112e-04	
768	5.150000e+00	4.575826e-04	
769	5.200000e+00	4.581467e-04	
770	5.250000e+00	4.587038e-04	
771	5.300000e+00	4.592541e-04	
772	5.350000e+00	4.597979e-04	
773	5.400000e+00	4.603354e-04	
774	5.450000e+00	4.608670e-04	
775	5.500000e+00	4.613927e-04	
776	5.550000e+00	4.619128e-04	
777	5.600000e+00	4.624276e-04	
778	5.650000e+00	4.629371e-04	
779	5.700000e+00	4.634417e-04	
780	5.750000e+00	4.639414e-04	
781	5.800000e+00	4.644366e-04	
782	5.850000e+00	4.649272e-04	
783	5.900000e+00	4.654135e-04	
784	5.950000e+00	4.658957e-04	
785	6.000000e+00	4.663739e-04	
786	6.050000e+00	4.668481e-04	
787	6.100000e+00	4.673187e-04	
788	6.150000e+00	4.677856e-04	
789	6.200000e+00	4.682491e-04	
790	6.250000e+00	4.687092e-04	
791	6.300000e+00	4.691660e-04	
792	6.350000e+00	4.696198e-04	
793	6.400000e+00	4.700705e-04	
794	6.450000e+00	4.705182e-04	
795	6.500000e+00	4.709632e-04	
796	6.550000e+00	4.714055e-04	
797	6.600000e+00	4.718451e-04	
Note: No ".plot", ".print", or ".fourier" lines; no simulations run
