
Note: Compatibility modes selected: hs

Warning: m=xx on .subckt line will override multiplier m hierarchy!


Circuit: ***************************

Doing analysis at TEMP = -40.000000 and TNOM = -40.000000


No. of Data Rows : 798
                          ***************************
                          DC transfer characteristic  Mon Jan  9 13:58:05  2023
--------------------------------------------------------------------------------
Index   v-sweep         -i(vds)         
--------------------------------------------------------------------------------
0	0.000000e+00	-0.000000e+00	
1	5.000000e-02	1.386110e-06	
2	1.000000e-01	2.452189e-06	
3	1.500000e-01	3.202026e-06	
4	2.000000e-01	3.648641e-06	
5	2.500000e-01	3.851763e-06	
6	3.000000e-01	3.941472e-06	
7	3.500000e-01	3.999106e-06	
8	4.000000e-01	4.044737e-06	
9	4.500000e-01	4.083493e-06	
10	5.000000e-01	4.117452e-06	
11	5.500000e-01	4.147764e-06	
12	6.000000e-01	4.175174e-06	
13	6.500000e-01	4.200205e-06	
14	7.000000e-01	4.223246e-06	
15	7.500000e-01	4.244596e-06	
16	8.000000e-01	4.264487e-06	
17	8.500000e-01	4.283109e-06	
18	9.000000e-01	4.300615e-06	
19	9.500000e-01	4.317133e-06	
20	1.000000e+00	4.332768e-06	
21	1.050000e+00	4.347610e-06	
22	1.100000e+00	4.361737e-06	
23	1.150000e+00	4.375215e-06	
24	1.200000e+00	4.388100e-06	
25	1.250000e+00	4.400444e-06	
26	1.300000e+00	4.412290e-06	
27	1.350000e+00	4.423677e-06	
28	1.400000e+00	4.434639e-06	
29	1.450000e+00	4.445207e-06	
30	1.500000e+00	4.455409e-06	
31	1.550000e+00	4.465268e-06	
32	1.600000e+00	4.474809e-06	
33	1.650000e+00	4.484049e-06	
34	1.700000e+00	4.493009e-06	
35	1.750000e+00	4.501705e-06	
36	1.800000e+00	4.510152e-06	
37	1.850000e+00	4.518363e-06	
38	1.900000e+00	4.526353e-06	
39	1.950000e+00	4.534132e-06	
40	2.000000e+00	4.541712e-06	
41	2.050000e+00	4.549102e-06	
42	2.100000e+00	4.556313e-06	
43	2.150000e+00	4.563352e-06	
44	2.200000e+00	4.570228e-06	
45	2.250000e+00	4.576948e-06	
46	2.300000e+00	4.583520e-06	
47	2.350000e+00	4.589950e-06	
48	2.400000e+00	4.596244e-06	
49	2.450000e+00	4.602408e-06	
50	2.500000e+00	4.608447e-06	
51	2.550000e+00	4.614367e-06	
52	2.600000e+00	4.620172e-06	
53	2.650000e+00	4.625867e-06	
54	2.700000e+00	4.631456e-06	

Index   v-sweep         -i(vds)         
--------------------------------------------------------------------------------
55	2.750000e+00	4.636944e-06	
56	2.800000e+00	4.642333e-06	
57	2.850000e+00	4.647629e-06	
58	2.900000e+00	4.652833e-06	
59	2.950000e+00	4.657950e-06	
60	3.000000e+00	4.662982e-06	
61	3.050000e+00	4.667933e-06	
62	3.100000e+00	4.672805e-06	
63	3.150000e+00	4.677601e-06	
64	3.200000e+00	4.682323e-06	
65	3.250000e+00	4.686974e-06	
66	3.300000e+00	4.691557e-06	
67	3.350000e+00	4.696073e-06	
68	3.400000e+00	4.700525e-06	
69	3.450000e+00	4.704915e-06	
70	3.500000e+00	4.709243e-06	
71	3.550000e+00	4.713514e-06	
72	3.600000e+00	4.717727e-06	
73	3.650000e+00	4.721886e-06	
74	3.700000e+00	4.725991e-06	
75	3.750000e+00	4.730044e-06	
76	3.800000e+00	4.734047e-06	
77	3.850000e+00	4.738001e-06	
78	3.900000e+00	4.741907e-06	
79	3.950000e+00	4.745767e-06	
80	4.000000e+00	4.749582e-06	
81	4.050000e+00	4.753353e-06	
82	4.100000e+00	4.757082e-06	
83	4.150000e+00	4.760770e-06	
84	4.200000e+00	4.764417e-06	
85	4.250000e+00	4.768025e-06	
86	4.300000e+00	4.771595e-06	
87	4.350000e+00	4.775128e-06	
88	4.400000e+00	4.778624e-06	
89	4.450000e+00	4.782085e-06	
90	4.500000e+00	4.785512e-06	
91	4.550000e+00	4.788905e-06	
92	4.600000e+00	4.792266e-06	
93	4.650000e+00	4.795594e-06	
94	4.700000e+00	4.798891e-06	
95	4.750000e+00	4.802158e-06	
96	4.800000e+00	4.805396e-06	
97	4.850000e+00	4.808604e-06	
98	4.900000e+00	4.811784e-06	
99	4.950000e+00	4.814936e-06	
100	5.000000e+00	4.818061e-06	
101	5.050000e+00	4.821160e-06	
102	5.100000e+00	4.824233e-06	
103	5.150000e+00	4.827281e-06	
104	5.200000e+00	4.830304e-06	
105	5.250000e+00	4.833303e-06	
106	5.300000e+00	4.836278e-06	
107	5.350000e+00	4.839231e-06	
108	5.400000e+00	4.842160e-06	
109	5.450000e+00	4.845068e-06	
110	5.500000e+00	4.847954e-06	
111	5.550000e+00	4.850819e-06	
112	5.600000e+00	4.853663e-06	

Index   v-sweep         -i(vds)         
--------------------------------------------------------------------------------
113	5.650000e+00	4.856486e-06	
114	5.700000e+00	4.859290e-06	
115	5.750000e+00	4.862074e-06	
116	5.800000e+00	4.864839e-06	
117	5.850000e+00	4.867586e-06	
118	5.900000e+00	4.870314e-06	
119	5.950000e+00	4.873024e-06	
120	6.000000e+00	4.875716e-06	
121	6.050000e+00	4.878391e-06	
122	6.100000e+00	4.881049e-06	
123	6.150000e+00	4.883691e-06	
124	6.200000e+00	4.886316e-06	
125	6.250000e+00	4.888925e-06	
126	6.300000e+00	4.891518e-06	
127	6.350000e+00	4.894096e-06	
128	6.400000e+00	4.896658e-06	
129	6.450000e+00	4.899206e-06	
130	6.500000e+00	4.901739e-06	
131	6.550000e+00	4.904258e-06	
132	6.600000e+00	4.906762e-06	
133	0.000000e+00	-0.000000e+00	
134	5.000000e-02	7.759414e-06	
135	1.000000e-01	1.519836e-05	
136	1.500000e-01	2.231903e-05	
137	2.000000e-01	2.912356e-05	
138	2.500000e-01	3.561410e-05	
139	3.000000e-01	4.179275e-05	
140	3.500000e-01	4.766164e-05	
141	4.000000e-01	5.322282e-05	
142	4.500000e-01	5.847838e-05	
143	5.000000e-01	6.343036e-05	
144	5.500000e-01	6.808079e-05	
145	6.000000e-01	7.243169e-05	
146	6.500000e-01	7.648508e-05	
147	7.000000e-01	8.024294e-05	
148	7.500000e-01	8.370726e-05	
149	8.000000e-01	8.688003e-05	
150	8.500000e-01	8.976323e-05	
151	9.000000e-01	9.235888e-05	
152	9.500000e-01	9.466905e-05	
153	1.000000e+00	9.669616e-05	
154	1.050000e+00	9.844391e-05	
155	1.100000e+00	9.992097e-05	
156	1.150000e+00	1.011487e-04	
157	1.200000e+00	1.021653e-04	
158	1.250000e+00	1.030161e-04	
159	1.300000e+00	1.037409e-04	
160	1.350000e+00	1.043695e-04	
161	1.400000e+00	1.049236e-04	
162	1.450000e+00	1.054183e-04	
163	1.500000e+00	1.058651e-04	
164	1.550000e+00	1.062722e-04	
165	1.600000e+00	1.066460e-04	
166	1.650000e+00	1.069916e-04	
167	1.700000e+00	1.073129e-04	
168	1.750000e+00	1.076131e-04	
169	1.800000e+00	1.078948e-04	
170	1.850000e+00	1.081600e-04	

Index   v-sweep         -i(vds)         
--------------------------------------------------------------------------------
171	1.900000e+00	1.084107e-04	
172	1.950000e+00	1.086483e-04	
173	2.000000e+00	1.088742e-04	
174	2.050000e+00	1.090894e-04	
175	2.100000e+00	1.092948e-04	
176	2.150000e+00	1.094915e-04	
177	2.200000e+00	1.096799e-04	
178	2.250000e+00	1.098609e-04	
179	2.300000e+00	1.100350e-04	
180	2.350000e+00	1.102027e-04	
181	2.400000e+00	1.103644e-04	
182	2.450000e+00	1.105206e-04	
183	2.500000e+00	1.106716e-04	
184	2.550000e+00	1.108178e-04	
185	2.600000e+00	1.109594e-04	
186	2.650000e+00	1.110968e-04	
187	2.700000e+00	1.112302e-04	
188	2.750000e+00	1.113597e-04	
189	2.800000e+00	1.114857e-04	
190	2.850000e+00	1.116083e-04	
191	2.900000e+00	1.117277e-04	
192	2.950000e+00	1.118441e-04	
193	3.000000e+00	1.119576e-04	
194	3.050000e+00	1.120683e-04	
195	3.100000e+00	1.121764e-04	
196	3.150000e+00	1.122820e-04	
197	3.200000e+00	1.123853e-04	
198	3.250000e+00	1.124863e-04	
199	3.300000e+00	1.125851e-04	
200	3.350000e+00	1.126819e-04	
201	3.400000e+00	1.127766e-04	
202	3.450000e+00	1.128695e-04	
203	3.500000e+00	1.129606e-04	
204	3.550000e+00	1.130499e-04	
205	3.600000e+00	1.131375e-04	
206	3.650000e+00	1.132235e-04	
207	3.700000e+00	1.133080e-04	
208	3.750000e+00	1.133909e-04	
209	3.800000e+00	1.134725e-04	
210	3.850000e+00	1.135526e-04	
211	3.900000e+00	1.136314e-04	
212	3.950000e+00	1.137090e-04	
213	4.000000e+00	1.137853e-04	
214	4.050000e+00	1.138604e-04	
215	4.100000e+00	1.139343e-04	
216	4.150000e+00	1.140072e-04	
217	4.200000e+00	1.140789e-04	
218	4.250000e+00	1.141497e-04	
219	4.300000e+00	1.142194e-04	
220	4.350000e+00	1.142882e-04	
221	4.400000e+00	1.143560e-04	
222	4.450000e+00	1.144229e-04	
223	4.500000e+00	1.144889e-04	
224	4.550000e+00	1.145540e-04	
225	4.600000e+00	1.146184e-04	
226	4.650000e+00	1.146819e-04	
227	4.700000e+00	1.147447e-04	
228	4.750000e+00	1.148067e-04	

Index   v-sweep         -i(vds)         
--------------------------------------------------------------------------------
229	4.800000e+00	1.148680e-04	
230	4.850000e+00	1.149285e-04	
231	4.900000e+00	1.149884e-04	
232	4.950000e+00	1.150476e-04	
233	5.000000e+00	1.151062e-04	
234	5.050000e+00	1.151641e-04	
235	5.100000e+00	1.152214e-04	
236	5.150000e+00	1.152781e-04	
237	5.200000e+00	1.153342e-04	
238	5.250000e+00	1.153898e-04	
239	5.300000e+00	1.154448e-04	
240	5.350000e+00	1.154993e-04	
241	5.400000e+00	1.155533e-04	
242	5.450000e+00	1.156067e-04	
243	5.500000e+00	1.156597e-04	
244	5.550000e+00	1.157122e-04	
245	5.600000e+00	1.157642e-04	
246	5.650000e+00	1.158158e-04	
247	5.700000e+00	1.158669e-04	
248	5.750000e+00	1.159176e-04	
249	5.800000e+00	1.159678e-04	
250	5.850000e+00	1.160177e-04	
251	5.900000e+00	1.160672e-04	
252	5.950000e+00	1.161162e-04	
253	6.000000e+00	1.161649e-04	
254	6.050000e+00	1.162132e-04	
255	6.100000e+00	1.162612e-04	
256	6.150000e+00	1.163087e-04	
257	6.200000e+00	1.163560e-04	
258	6.250000e+00	1.164029e-04	
259	6.300000e+00	1.164495e-04	
260	6.350000e+00	1.164957e-04	
261	6.400000e+00	1.165416e-04	
262	6.450000e+00	1.165873e-04	
263	6.500000e+00	1.166326e-04	
264	6.550000e+00	1.166776e-04	
265	6.600000e+00	1.167223e-04	
266	0.000000e+00	-0.000000e+00	
267	5.000000e-02	1.244663e-05	
268	1.000000e-01	2.459589e-05	
269	1.500000e-01	3.644989e-05	
270	2.000000e-01	4.801072e-05	
271	2.500000e-01	5.928043e-05	
272	3.000000e-01	7.026108e-05	
273	3.500000e-01	8.095468e-05	
274	4.000000e-01	9.136324e-05	
275	4.500000e-01	1.014887e-04	
276	5.000000e-01	1.113332e-04	
277	5.500000e-01	1.208985e-04	
278	6.000000e-01	1.301865e-04	
279	6.500000e-01	1.391993e-04	
280	7.000000e-01	1.479387e-04	
281	7.500000e-01	1.564066e-04	
282	8.000000e-01	1.646048e-04	
283	8.500000e-01	1.725352e-04	
284	9.000000e-01	1.801996e-04	
285	9.500000e-01	1.875998e-04	
286	1.000000e+00	1.947376e-04	

Index   v-sweep         -i(vds)         
--------------------------------------------------------------------------------
287	1.050000e+00	2.016147e-04	
288	1.100000e+00	2.082328e-04	
289	1.150000e+00	2.145938e-04	
290	1.200000e+00	2.206991e-04	
291	1.250000e+00	2.265506e-04	
292	1.300000e+00	2.321497e-04	
293	1.350000e+00	2.374979e-04	
294	1.400000e+00	2.425966e-04	
295	1.450000e+00	2.474469e-04	
296	1.500000e+00	2.520497e-04	
297	1.550000e+00	2.564053e-04	
298	1.600000e+00	2.605129e-04	
299	1.650000e+00	2.643699e-04	
300	1.700000e+00	2.679704e-04	
301	1.750000e+00	2.713029e-04	
302	1.800000e+00	2.743489e-04	
303	1.850000e+00	2.770862e-04	
304	1.900000e+00	2.795032e-04	
305	1.950000e+00	2.816119e-04	
306	2.000000e+00	2.834474e-04	
307	2.050000e+00	2.850536e-04	
308	2.100000e+00	2.864721e-04	
309	2.150000e+00	2.877374e-04	
310	2.200000e+00	2.888770e-04	
311	2.250000e+00	2.899124e-04	
312	2.300000e+00	2.908602e-04	
313	2.350000e+00	2.917337e-04	
314	2.400000e+00	2.925435e-04	
315	2.450000e+00	2.932980e-04	
316	2.500000e+00	2.940042e-04	
317	2.550000e+00	2.946679e-04	
318	2.600000e+00	2.952938e-04	
319	2.650000e+00	2.958859e-04	
320	2.700000e+00	2.964478e-04	
321	2.750000e+00	2.969822e-04	
322	2.800000e+00	2.974919e-04	
323	2.850000e+00	2.979788e-04	
324	2.900000e+00	2.984451e-04	
325	2.950000e+00	2.988922e-04	
326	3.000000e+00	2.993219e-04	
327	3.050000e+00	2.997353e-04	
328	3.100000e+00	3.001336e-04	
329	3.150000e+00	3.005180e-04	
330	3.200000e+00	3.008893e-04	
331	3.250000e+00	3.012484e-04	
332	3.300000e+00	3.015961e-04	
333	3.350000e+00	3.019331e-04	
334	3.400000e+00	3.022600e-04	
335	3.450000e+00	3.025775e-04	
336	3.500000e+00	3.028860e-04	
337	3.550000e+00	3.031860e-04	
338	3.600000e+00	3.034781e-04	
339	3.650000e+00	3.037625e-04	
340	3.700000e+00	3.040398e-04	
341	3.750000e+00	3.043102e-04	
342	3.800000e+00	3.045742e-04	
343	3.850000e+00	3.048319e-04	
344	3.900000e+00	3.050838e-04	

Index   v-sweep         -i(vds)         
--------------------------------------------------------------------------------
345	3.950000e+00	3.053300e-04	
346	4.000000e+00	3.055709e-04	
347	4.050000e+00	3.058066e-04	
348	4.100000e+00	3.060374e-04	
349	4.150000e+00	3.062635e-04	
350	4.200000e+00	3.064852e-04	
351	4.250000e+00	3.067024e-04	
352	4.300000e+00	3.069156e-04	
353	4.350000e+00	3.071248e-04	
354	4.400000e+00	3.073301e-04	
355	4.450000e+00	3.075318e-04	
356	4.500000e+00	3.077299e-04	
357	4.550000e+00	3.079247e-04	
358	4.600000e+00	3.081161e-04	
359	4.650000e+00	3.083045e-04	
360	4.700000e+00	3.084897e-04	
361	4.750000e+00	3.086721e-04	
362	4.800000e+00	3.088516e-04	
363	4.850000e+00	3.090284e-04	
364	4.900000e+00	3.092026e-04	
365	4.950000e+00	3.093742e-04	
366	5.000000e+00	3.095433e-04	
367	5.050000e+00	3.097101e-04	
368	5.100000e+00	3.098746e-04	
369	5.150000e+00	3.100369e-04	
370	5.200000e+00	3.101970e-04	
371	5.250000e+00	3.103550e-04	
372	5.300000e+00	3.105110e-04	
373	5.350000e+00	3.106651e-04	
374	5.400000e+00	3.108172e-04	
375	5.450000e+00	3.109676e-04	
376	5.500000e+00	3.111161e-04	
377	5.550000e+00	3.112630e-04	
378	5.600000e+00	3.114081e-04	
379	5.650000e+00	3.115517e-04	
380	5.700000e+00	3.116937e-04	
381	5.750000e+00	3.118341e-04	
382	5.800000e+00	3.119731e-04	
383	5.850000e+00	3.121106e-04	
384	5.900000e+00	3.122467e-04	
385	5.950000e+00	3.123814e-04	
386	6.000000e+00	3.125149e-04	
387	6.050000e+00	3.126470e-04	
388	6.100000e+00	3.127779e-04	
389	6.150000e+00	3.129076e-04	
390	6.200000e+00	3.130361e-04	
391	6.250000e+00	3.131634e-04	
392	6.300000e+00	3.132896e-04	
393	6.350000e+00	3.134147e-04	
394	6.400000e+00	3.135388e-04	
395	6.450000e+00	3.136618e-04	
396	6.500000e+00	3.137838e-04	
397	6.550000e+00	3.139049e-04	
398	6.600000e+00	3.140249e-04	
399	0.000000e+00	-0.000000e+00	
400	5.000000e-02	1.596613e-05	
401	1.000000e-01	3.165948e-05	
402	1.500000e-01	4.708190e-05	

Index   v-sweep         -i(vds)         
--------------------------------------------------------------------------------
403	2.000000e-01	6.223522e-05	
404	2.500000e-01	7.712126e-05	
405	3.000000e-01	9.174179e-05	
406	3.500000e-01	1.060986e-04	
407	4.000000e-01	1.201935e-04	
408	4.500000e-01	1.340281e-04	
409	5.000000e-01	1.476043e-04	
410	5.500000e-01	1.609237e-04	
411	6.000000e-01	1.739881e-04	
412	6.500000e-01	1.867990e-04	
413	7.000000e-01	1.993583e-04	
414	7.500000e-01	2.116675e-04	
415	8.000000e-01	2.237284e-04	
416	8.500000e-01	2.355424e-04	
417	9.000000e-01	2.471112e-04	
418	9.500000e-01	2.584365e-04	
419	1.000000e+00	2.695198e-04	
420	1.050000e+00	2.803627e-04	
421	1.100000e+00	2.909666e-04	
422	1.150000e+00	3.013333e-04	
423	1.200000e+00	3.114641e-04	
424	1.250000e+00	3.213607e-04	
425	1.300000e+00	3.310244e-04	
426	1.350000e+00	3.404568e-04	
427	1.400000e+00	3.496593e-04	
428	1.450000e+00	3.586334e-04	
429	1.500000e+00	3.673805e-04	
430	1.550000e+00	3.759021e-04	
431	1.600000e+00	3.841994e-04	
432	1.650000e+00	3.922739e-04	
433	1.700000e+00	4.001269e-04	
434	1.750000e+00	4.077597e-04	
435	1.800000e+00	4.151735e-04	
436	1.850000e+00	4.223696e-04	
437	1.900000e+00	4.293491e-04	
438	1.950000e+00	4.361128e-04	
439	2.000000e+00	4.426618e-04	
440	2.050000e+00	4.489965e-04	
441	2.100000e+00	4.551171e-04	
442	2.150000e+00	4.610232e-04	
443	2.200000e+00	4.667134e-04	
444	2.250000e+00	4.721845e-04	
445	2.300000e+00	4.774305e-04	
446	2.350000e+00	4.824406e-04	
447	2.400000e+00	4.871966e-04	
448	2.450000e+00	4.916701e-04	
449	2.500000e+00	4.958231e-04	
450	2.550000e+00	4.996177e-04	
451	2.600000e+00	5.030328e-04	
452	2.650000e+00	5.060757e-04	
453	2.700000e+00	5.087790e-04	
454	2.750000e+00	5.111868e-04	
455	2.800000e+00	5.133440e-04	
456	2.850000e+00	5.152905e-04	
457	2.900000e+00	5.170596e-04	
458	2.950000e+00	5.186786e-04	
459	3.000000e+00	5.201695e-04	
460	3.050000e+00	5.215504e-04	

Index   v-sweep         -i(vds)         
--------------------------------------------------------------------------------
461	3.100000e+00	5.228356e-04	
462	3.150000e+00	5.240374e-04	
463	3.200000e+00	5.251655e-04	
464	3.250000e+00	5.262284e-04	
465	3.300000e+00	5.272331e-04	
466	3.350000e+00	5.281855e-04	
467	3.400000e+00	5.290907e-04	
468	3.450000e+00	5.299531e-04	
469	3.500000e+00	5.307767e-04	
470	3.550000e+00	5.315646e-04	
471	3.600000e+00	5.323198e-04	
472	3.650000e+00	5.330450e-04	
473	3.700000e+00	5.337424e-04	
474	3.750000e+00	5.344140e-04	
475	3.800000e+00	5.350617e-04	
476	3.850000e+00	5.356871e-04	
477	3.900000e+00	5.362917e-04	
478	3.950000e+00	5.368768e-04	
479	4.000000e+00	5.374437e-04	
480	4.050000e+00	5.379934e-04	
481	4.100000e+00	5.385270e-04	
482	4.150000e+00	5.390454e-04	
483	4.200000e+00	5.395494e-04	
484	4.250000e+00	5.400399e-04	
485	4.300000e+00	5.405174e-04	
486	4.350000e+00	5.409827e-04	
487	4.400000e+00	5.414365e-04	
488	4.450000e+00	5.418792e-04	
489	4.500000e+00	5.423115e-04	
490	4.550000e+00	5.427338e-04	
491	4.600000e+00	5.431465e-04	
492	4.650000e+00	5.435502e-04	
493	4.700000e+00	5.439451e-04	
494	4.750000e+00	5.443318e-04	
495	4.800000e+00	5.447105e-04	
496	4.850000e+00	5.450816e-04	
497	4.900000e+00	5.454454e-04	
498	4.950000e+00	5.458022e-04	
499	5.000000e+00	5.461523e-04	
500	5.050000e+00	5.464959e-04	
501	5.100000e+00	5.468333e-04	
502	5.150000e+00	5.471648e-04	
503	5.200000e+00	5.474906e-04	
504	5.250000e+00	5.478108e-04	
505	5.300000e+00	5.481257e-04	
506	5.350000e+00	5.484356e-04	
507	5.400000e+00	5.487404e-04	
508	5.450000e+00	5.490406e-04	
509	5.500000e+00	5.493361e-04	
510	5.550000e+00	5.496272e-04	
511	5.600000e+00	5.499141e-04	
512	5.650000e+00	5.501968e-04	
513	5.700000e+00	5.504755e-04	
514	5.750000e+00	5.507503e-04	
515	5.800000e+00	5.510215e-04	
516	5.850000e+00	5.512890e-04	
517	5.900000e+00	5.515531e-04	
518	5.950000e+00	5.518137e-04	

Index   v-sweep         -i(vds)         
--------------------------------------------------------------------------------
519	6.000000e+00	5.520711e-04	
520	6.050000e+00	5.523253e-04	
521	6.100000e+00	5.525765e-04	
522	6.150000e+00	5.528247e-04	
523	6.200000e+00	5.530700e-04	
524	6.250000e+00	5.533125e-04	
525	6.300000e+00	5.535523e-04	
526	6.350000e+00	5.537895e-04	
527	6.400000e+00	5.540241e-04	
528	6.450000e+00	5.542562e-04	
529	6.500000e+00	5.544860e-04	
530	6.550000e+00	5.547134e-04	
531	6.600000e+00	5.549385e-04	
532	0.000000e+00	-0.000000e+00	
533	5.000000e-02	1.860935e-05	
534	1.000000e-01	3.697094e-05	
535	1.500000e-01	5.508634e-05	
536	2.000000e-01	7.295709e-05	
537	2.500000e-01	9.058473e-05	
538	3.000000e-01	1.079708e-04	
539	3.500000e-01	1.251167e-04	
540	4.000000e-01	1.420241e-04	
541	4.500000e-01	1.586943e-04	
542	5.000000e-01	1.751289e-04	
543	5.500000e-01	1.913293e-04	
544	6.000000e-01	2.072970e-04	
545	6.500000e-01	2.230333e-04	
546	7.000000e-01	2.385398e-04	
547	7.500000e-01	2.538178e-04	
548	8.000000e-01	2.688687e-04	
549	8.500000e-01	2.836939e-04	
550	9.000000e-01	2.982948e-04	
551	9.500000e-01	3.126728e-04	
552	1.000000e+00	3.268291e-04	
553	1.050000e+00	3.407652e-04	
554	1.100000e+00	3.544824e-04	
555	1.150000e+00	3.679819e-04	
556	1.200000e+00	3.812651e-04	
557	1.250000e+00	3.943333e-04	
558	1.300000e+00	4.071878e-04	
559	1.350000e+00	4.198299e-04	
560	1.400000e+00	4.322608e-04	
561	1.450000e+00	4.444817e-04	
562	1.500000e+00	4.564939e-04	
563	1.550000e+00	4.682987e-04	
564	1.600000e+00	4.798973e-04	
565	1.650000e+00	4.912908e-04	
566	1.700000e+00	5.024806e-04	
567	1.750000e+00	5.134676e-04	
568	1.800000e+00	5.242533e-04	
569	1.850000e+00	5.348386e-04	
570	1.900000e+00	5.452248e-04	
571	1.950000e+00	5.554130e-04	
572	2.000000e+00	5.654043e-04	
573	2.050000e+00	5.751999e-04	
574	2.100000e+00	5.848008e-04	
575	2.150000e+00	5.942081e-04	
576	2.200000e+00	6.034228e-04	

Index   v-sweep         -i(vds)         
--------------------------------------------------------------------------------
577	2.250000e+00	6.124460e-04	
578	2.300000e+00	6.212787e-04	
579	2.350000e+00	6.299219e-04	
580	2.400000e+00	6.383763e-04	
581	2.450000e+00	6.466429e-04	
582	2.500000e+00	6.547225e-04	
583	2.550000e+00	6.626155e-04	
584	2.600000e+00	6.703225e-04	
585	2.650000e+00	6.778435e-04	
586	2.700000e+00	6.851785e-04	
587	2.750000e+00	6.923266e-04	
588	2.800000e+00	6.992861e-04	
589	2.850000e+00	7.060540e-04	
590	2.900000e+00	7.126247e-04	
591	2.950000e+00	7.189895e-04	
592	3.000000e+00	7.251337e-04	
593	3.050000e+00	7.310344e-04	
594	3.100000e+00	7.366579e-04	
595	3.150000e+00	7.419598e-04	
596	3.200000e+00	7.468920e-04	
597	3.250000e+00	7.514174e-04	
598	3.300000e+00	7.555239e-04	
599	3.350000e+00	7.592274e-04	
600	3.400000e+00	7.625639e-04	
601	3.450000e+00	7.655773e-04	
602	3.500000e+00	7.683117e-04	
603	3.550000e+00	7.708067e-04	
604	3.600000e+00	7.730962e-04	
605	3.650000e+00	7.752086e-04	
606	3.700000e+00	7.771677e-04	
607	3.750000e+00	7.789931e-04	
608	3.800000e+00	7.807011e-04	
609	3.850000e+00	7.823055e-04	
610	3.900000e+00	7.838176e-04	
611	3.950000e+00	7.852474e-04	
612	4.000000e+00	7.866031e-04	
613	4.050000e+00	7.878918e-04	
614	4.100000e+00	7.891199e-04	
615	4.150000e+00	7.902927e-04	
616	4.200000e+00	7.914149e-04	
617	4.250000e+00	7.924906e-04	
618	4.300000e+00	7.935235e-04	
619	4.350000e+00	7.945169e-04	
620	4.400000e+00	7.954736e-04	
621	4.450000e+00	7.963962e-04	
622	4.500000e+00	7.972872e-04	
623	4.550000e+00	7.981484e-04	
624	4.600000e+00	7.989820e-04	
625	4.650000e+00	7.997896e-04	
626	4.700000e+00	8.005727e-04	
627	4.750000e+00	8.013328e-04	
628	4.800000e+00	8.020713e-04	
629	4.850000e+00	8.027892e-04	
630	4.900000e+00	8.034878e-04	
631	4.950000e+00	8.041681e-04	
632	5.000000e+00	8.048310e-04	
633	5.050000e+00	8.054773e-04	
634	5.100000e+00	8.061080e-04	

Index   v-sweep         -i(vds)         
--------------------------------------------------------------------------------
635	5.150000e+00	8.067237e-04	
636	5.200000e+00	8.073252e-04	
637	5.250000e+00	8.079131e-04	
638	5.300000e+00	8.084880e-04	
639	5.350000e+00	8.090506e-04	
640	5.400000e+00	8.096013e-04	
641	5.450000e+00	8.101407e-04	
642	5.500000e+00	8.106693e-04	
643	5.550000e+00	8.111875e-04	
644	5.600000e+00	8.116956e-04	
645	5.650000e+00	8.121943e-04	
646	5.700000e+00	8.126837e-04	
647	5.750000e+00	8.131643e-04	
648	5.800000e+00	8.136364e-04	
649	5.850000e+00	8.141004e-04	
650	5.900000e+00	8.145565e-04	
651	5.950000e+00	8.150051e-04	
652	6.000000e+00	8.154463e-04	
653	6.050000e+00	8.158806e-04	
654	6.100000e+00	8.163081e-04	
655	6.150000e+00	8.167290e-04	
656	6.200000e+00	8.171437e-04	
657	6.250000e+00	8.175522e-04	
658	6.300000e+00	8.179549e-04	
659	6.350000e+00	8.183519e-04	
660	6.400000e+00	8.187435e-04	
661	6.450000e+00	8.191297e-04	
662	6.500000e+00	8.195108e-04	
663	6.550000e+00	8.198870e-04	
664	6.600000e+00	8.202584e-04	
665	0.000000e+00	-0.000000e+00	
666	5.000000e-02	2.058315e-05	
667	1.000000e-01	4.094288e-05	
668	1.500000e-01	6.108050e-05	
669	2.000000e-01	8.099728e-05	
670	2.500000e-01	1.006945e-04	
671	3.000000e-01	1.201734e-04	
672	3.500000e-01	1.394353e-04	
673	4.000000e-01	1.584814e-04	
674	4.500000e-01	1.773129e-04	
675	5.000000e-01	1.959311e-04	
676	5.500000e-01	2.143372e-04	
677	6.000000e-01	2.325324e-04	
678	6.500000e-01	2.505178e-04	
679	7.000000e-01	2.682948e-04	
680	7.500000e-01	2.858643e-04	
681	8.000000e-01	3.032278e-04	
682	8.500000e-01	3.203862e-04	
683	9.000000e-01	3.373407e-04	
684	9.500000e-01	3.540926e-04	
685	1.000000e+00	3.706429e-04	
686	1.050000e+00	3.869927e-04	
687	1.100000e+00	4.031432e-04	
688	1.150000e+00	4.190955e-04	
689	1.200000e+00	4.348507e-04	
690	1.250000e+00	4.504098e-04	
691	1.300000e+00	4.657740e-04	
692	1.350000e+00	4.809444e-04	

Index   v-sweep         -i(vds)         
--------------------------------------------------------------------------------
693	1.400000e+00	4.959219e-04	
694	1.450000e+00	5.107077e-04	
695	1.500000e+00	5.253029e-04	
696	1.550000e+00	5.397084e-04	
697	1.600000e+00	5.539253e-04	
698	1.650000e+00	5.679547e-04	
699	1.700000e+00	5.817974e-04	
700	1.750000e+00	5.954547e-04	
701	1.800000e+00	6.089274e-04	
702	1.850000e+00	6.222166e-04	
703	1.900000e+00	6.353233e-04	
704	1.950000e+00	6.482483e-04	
705	2.000000e+00	6.609928e-04	
706	2.050000e+00	6.735577e-04	
707	2.100000e+00	6.859439e-04	
708	2.150000e+00	6.981524e-04	
709	2.200000e+00	7.101841e-04	
710	2.250000e+00	7.220400e-04	
711	2.300000e+00	7.337209e-04	
712	2.350000e+00	7.452279e-04	
713	2.400000e+00	7.565617e-04	
714	2.450000e+00	7.677234e-04	
715	2.500000e+00	7.787137e-04	
716	2.550000e+00	7.895337e-04	
717	2.600000e+00	8.001840e-04	
718	2.650000e+00	8.106656e-04	
719	2.700000e+00	8.209794e-04	
720	2.750000e+00	8.311261e-04	
721	2.800000e+00	8.411065e-04	
722	2.850000e+00	8.509213e-04	
723	2.900000e+00	8.605714e-04	
724	2.950000e+00	8.700575e-04	
725	3.000000e+00	8.793801e-04	
726	3.050000e+00	8.885399e-04	
727	3.100000e+00	8.975373e-04	
728	3.150000e+00	9.063727e-04	
729	3.200000e+00	9.150465e-04	
730	3.250000e+00	9.235584e-04	
731	3.300000e+00	9.319083e-04	
732	3.350000e+00	9.400954e-04	
733	3.400000e+00	9.481181e-04	
734	3.450000e+00	9.559742e-04	
735	3.500000e+00	9.636595e-04	
736	3.550000e+00	9.711677e-04	
737	3.600000e+00	9.784889e-04	
738	3.650000e+00	9.856079e-04	
739	3.700000e+00	9.925017e-04	
740	3.750000e+00	9.991369e-04	
741	3.800000e+00	1.005470e-03	
742	3.850000e+00	1.011449e-03	
743	3.900000e+00	1.017027e-03	
744	3.950000e+00	1.022172e-03	
745	4.000000e+00	1.026880e-03	
746	4.050000e+00	1.031169e-03	
747	4.100000e+00	1.035075e-03	
748	4.150000e+00	1.038640e-03	
749	4.200000e+00	1.041904e-03	
750	4.250000e+00	1.044908e-03	

Index   v-sweep         -i(vds)         
--------------------------------------------------------------------------------
751	4.300000e+00	1.047684e-03	
752	4.350000e+00	1.050262e-03	
753	4.400000e+00	1.052665e-03	
754	4.450000e+00	1.054915e-03	
755	4.500000e+00	1.057028e-03	
756	4.550000e+00	1.059021e-03	
757	4.600000e+00	1.060905e-03	
758	4.650000e+00	1.062692e-03	
759	4.700000e+00	1.064390e-03	
760	4.750000e+00	1.066008e-03	
761	4.800000e+00	1.067553e-03	
762	4.850000e+00	1.069032e-03	
763	4.900000e+00	1.070449e-03	
764	4.950000e+00	1.071810e-03	
765	5.000000e+00	1.073118e-03	
766	5.050000e+00	1.074378e-03	
767	5.100000e+00	1.075593e-03	
768	5.150000e+00	1.076766e-03	
769	5.200000e+00	1.077900e-03	
770	5.250000e+00	1.078997e-03	
771	5.300000e+00	1.080060e-03	
772	5.350000e+00	1.081091e-03	
773	5.400000e+00	1.082091e-03	
774	5.450000e+00	1.083063e-03	
775	5.500000e+00	1.084008e-03	
776	5.550000e+00	1.084927e-03	
777	5.600000e+00	1.085822e-03	
778	5.650000e+00	1.086694e-03	
779	5.700000e+00	1.087544e-03	
780	5.750000e+00	1.088373e-03	
781	5.800000e+00	1.089183e-03	
782	5.850000e+00	1.089974e-03	
783	5.900000e+00	1.090747e-03	
784	5.950000e+00	1.091503e-03	
785	6.000000e+00	1.092243e-03	
786	6.050000e+00	1.092967e-03	
787	6.100000e+00	1.093676e-03	
788	6.150000e+00	1.094371e-03	
789	6.200000e+00	1.095052e-03	
790	6.250000e+00	1.095720e-03	
791	6.300000e+00	1.096375e-03	
792	6.350000e+00	1.097019e-03	
793	6.400000e+00	1.097650e-03	
794	6.450000e+00	1.098271e-03	
795	6.500000e+00	1.098880e-03	
796	6.550000e+00	1.099480e-03	
797	6.600000e+00	1.100069e-03	
Note: No ".plot", ".print", or ".fourier" lines; no simulations run
