
Note: Compatibility modes selected: hs

Warning: m=xx on .subckt line will override multiplier m hierarchy!


Circuit: ***************************

Doing analysis at TEMP = 25.000000 and TNOM = 25.000000


No. of Data Rows : 798
                          ***************************
                          DC transfer characteristic  Mon Jan  9 13:58:05  2023
--------------------------------------------------------------------------------
Index   v-sweep         -i(vds)         
--------------------------------------------------------------------------------
0	0.000000e+00	-0.000000e+00	
1	5.000000e-02	4.578634e-06	
2	1.000000e-01	8.412225e-06	
3	1.500000e-01	1.150561e-05	
4	2.000000e-01	1.386571e-05	
5	2.500000e-01	1.550765e-05	
6	3.000000e-01	1.648428e-05	
7	3.500000e-01	1.697228e-05	
8	4.000000e-01	1.723978e-05	
9	4.500000e-01	1.743152e-05	
10	5.000000e-01	1.758902e-05	
11	5.500000e-01	1.772538e-05	
12	6.000000e-01	1.784646e-05	
13	6.500000e-01	1.795565e-05	
14	7.000000e-01	1.805521e-05	
15	7.500000e-01	1.814677e-05	
16	8.000000e-01	1.823154e-05	
17	8.500000e-01	1.831049e-05	
18	9.000000e-01	1.838437e-05	
19	9.500000e-01	1.845380e-05	
20	1.000000e+00	1.851929e-05	
21	1.050000e+00	1.858127e-05	
22	1.100000e+00	1.864009e-05	
23	1.150000e+00	1.869607e-05	
24	1.200000e+00	1.874946e-05	
25	1.250000e+00	1.880051e-05	
26	1.300000e+00	1.884940e-05	
27	1.350000e+00	1.889631e-05	
28	1.400000e+00	1.894140e-05	
29	1.450000e+00	1.898481e-05	
30	1.500000e+00	1.902664e-05	
31	1.550000e+00	1.906703e-05	
32	1.600000e+00	1.910605e-05	
33	1.650000e+00	1.914381e-05	
34	1.700000e+00	1.918039e-05	
35	1.750000e+00	1.921584e-05	
36	1.800000e+00	1.925025e-05	
37	1.850000e+00	1.928367e-05	
38	1.900000e+00	1.931616e-05	
39	1.950000e+00	1.934776e-05	
40	2.000000e+00	1.937854e-05	
41	2.050000e+00	1.940852e-05	
42	2.100000e+00	1.943775e-05	
43	2.150000e+00	1.946626e-05	
44	2.200000e+00	1.949410e-05	
45	2.250000e+00	1.952129e-05	
46	2.300000e+00	1.954787e-05	
47	2.350000e+00	1.957385e-05	
48	2.400000e+00	1.959927e-05	
49	2.450000e+00	1.962415e-05	
50	2.500000e+00	1.964852e-05	
51	2.550000e+00	1.967239e-05	
52	2.600000e+00	1.969579e-05	
53	2.650000e+00	1.971874e-05	
54	2.700000e+00	1.974125e-05	

Index   v-sweep         -i(vds)         
--------------------------------------------------------------------------------
55	2.750000e+00	1.976334e-05	
56	2.800000e+00	1.978502e-05	
57	2.850000e+00	1.980632e-05	
58	2.900000e+00	1.982725e-05	
59	2.950000e+00	1.984781e-05	
60	3.000000e+00	1.986803e-05	
61	3.050000e+00	1.988791e-05	
62	3.100000e+00	1.990747e-05	
63	3.150000e+00	1.992672e-05	
64	3.200000e+00	1.994567e-05	
65	3.250000e+00	1.996433e-05	
66	3.300000e+00	1.998270e-05	
67	3.350000e+00	2.000081e-05	
68	3.400000e+00	2.001865e-05	
69	3.450000e+00	2.003623e-05	
70	3.500000e+00	2.005357e-05	
71	3.550000e+00	2.007067e-05	
72	3.600000e+00	2.008754e-05	
73	3.650000e+00	2.010418e-05	
74	3.700000e+00	2.012061e-05	
75	3.750000e+00	2.013682e-05	
76	3.800000e+00	2.015283e-05	
77	3.850000e+00	2.016864e-05	
78	3.900000e+00	2.018426e-05	
79	3.950000e+00	2.019969e-05	
80	4.000000e+00	2.021494e-05	
81	4.050000e+00	2.023001e-05	
82	4.100000e+00	2.024490e-05	
83	4.150000e+00	2.025963e-05	
84	4.200000e+00	2.027420e-05	
85	4.250000e+00	2.028861e-05	
86	4.300000e+00	2.030286e-05	
87	4.350000e+00	2.031696e-05	
88	4.400000e+00	2.033092e-05	
89	4.450000e+00	2.034473e-05	
90	4.500000e+00	2.035841e-05	
91	4.550000e+00	2.037194e-05	
92	4.600000e+00	2.038535e-05	
93	4.650000e+00	2.039863e-05	
94	4.700000e+00	2.041178e-05	
95	4.750000e+00	2.042481e-05	
96	4.800000e+00	2.043772e-05	
97	4.850000e+00	2.045051e-05	
98	4.900000e+00	2.046319e-05	
99	4.950000e+00	2.047576e-05	
100	5.000000e+00	2.048822e-05	
101	5.050000e+00	2.050057e-05	
102	5.100000e+00	2.051282e-05	
103	5.150000e+00	2.052497e-05	
104	5.200000e+00	2.053701e-05	
105	5.250000e+00	2.054897e-05	
106	5.300000e+00	2.056082e-05	
107	5.350000e+00	2.057259e-05	
108	5.400000e+00	2.058426e-05	
109	5.450000e+00	2.059585e-05	
110	5.500000e+00	2.060734e-05	
111	5.550000e+00	2.061876e-05	
112	5.600000e+00	2.063009e-05	

Index   v-sweep         -i(vds)         
--------------------------------------------------------------------------------
113	5.650000e+00	2.064134e-05	
114	5.700000e+00	2.065251e-05	
115	5.750000e+00	2.066360e-05	
116	5.800000e+00	2.067462e-05	
117	5.850000e+00	2.068556e-05	
118	5.900000e+00	2.069642e-05	
119	5.950000e+00	2.070722e-05	
120	6.000000e+00	2.071794e-05	
121	6.050000e+00	2.072860e-05	
122	6.100000e+00	2.073919e-05	
123	6.150000e+00	2.074971e-05	
124	6.200000e+00	2.076017e-05	
125	6.250000e+00	2.077056e-05	
126	6.300000e+00	2.078089e-05	
127	6.350000e+00	2.079116e-05	
128	6.400000e+00	2.080137e-05	
129	6.450000e+00	2.081152e-05	
130	6.500000e+00	2.082161e-05	
131	6.550000e+00	2.083164e-05	
132	6.600000e+00	2.084162e-05	
133	0.000000e+00	-0.000000e+00	
134	5.000000e-02	1.919045e-05	
135	1.000000e-01	3.764970e-05	
136	1.500000e-01	5.538222e-05	
137	2.000000e-01	7.239243e-05	
138	2.500000e-01	8.868471e-05	
139	3.000000e-01	1.042634e-04	
140	3.500000e-01	1.191329e-04	
141	4.000000e-01	1.332974e-04	
142	4.500000e-01	1.467612e-04	
143	5.000000e-01	1.595285e-04	
144	5.500000e-01	1.716036e-04	
145	6.000000e-01	1.829906e-04	
146	6.500000e-01	1.936936e-04	
147	7.000000e-01	2.037168e-04	
148	7.500000e-01	2.130644e-04	
149	8.000000e-01	2.217405e-04	
150	8.500000e-01	2.297493e-04	
151	9.000000e-01	2.370950e-04	
152	9.500000e-01	2.437822e-04	
153	1.000000e+00	2.498158e-04	
154	1.050000e+00	2.552016e-04	
155	1.100000e+00	2.599476e-04	
156	1.150000e+00	2.640670e-04	
157	1.200000e+00	2.675856e-04	
158	1.250000e+00	2.705538e-04	
159	1.300000e+00	2.730514e-04	
160	1.350000e+00	2.751729e-04	
161	1.400000e+00	2.770029e-04	
162	1.450000e+00	2.786069e-04	
163	1.500000e+00	2.800327e-04	
164	1.550000e+00	2.813153e-04	
165	1.600000e+00	2.824804e-04	
166	1.650000e+00	2.835476e-04	
167	1.700000e+00	2.845320e-04	
168	1.750000e+00	2.854454e-04	
169	1.800000e+00	2.862975e-04	
170	1.850000e+00	2.870958e-04	

Index   v-sweep         -i(vds)         
--------------------------------------------------------------------------------
171	1.900000e+00	2.878468e-04	
172	1.950000e+00	2.885557e-04	
173	2.000000e+00	2.892271e-04	
174	2.050000e+00	2.898646e-04	
175	2.100000e+00	2.904716e-04	
176	2.150000e+00	2.910508e-04	
177	2.200000e+00	2.916047e-04	
178	2.250000e+00	2.921354e-04	
179	2.300000e+00	2.926447e-04	
180	2.350000e+00	2.931343e-04	
181	2.400000e+00	2.936057e-04	
182	2.450000e+00	2.940601e-04	
183	2.500000e+00	2.944988e-04	
184	2.550000e+00	2.949229e-04	
185	2.600000e+00	2.953331e-04	
186	2.650000e+00	2.957306e-04	
187	2.700000e+00	2.961159e-04	
188	2.750000e+00	2.964898e-04	
189	2.800000e+00	2.968531e-04	
190	2.850000e+00	2.972062e-04	
191	2.900000e+00	2.975498e-04	
192	2.950000e+00	2.978843e-04	
193	3.000000e+00	2.982102e-04	
194	3.050000e+00	2.985279e-04	
195	3.100000e+00	2.988379e-04	
196	3.150000e+00	2.991406e-04	
197	3.200000e+00	2.994362e-04	
198	3.250000e+00	2.997251e-04	
199	3.300000e+00	3.000076e-04	
200	3.350000e+00	3.002840e-04	
201	3.400000e+00	3.005546e-04	
202	3.450000e+00	3.008195e-04	
203	3.500000e+00	3.010791e-04	
204	3.550000e+00	3.013336e-04	
205	3.600000e+00	3.015832e-04	
206	3.650000e+00	3.018280e-04	
207	3.700000e+00	3.020682e-04	
208	3.750000e+00	3.023041e-04	
209	3.800000e+00	3.025358e-04	
210	3.850000e+00	3.027635e-04	
211	3.900000e+00	3.029872e-04	
212	3.950000e+00	3.032072e-04	
213	4.000000e+00	3.034236e-04	
214	4.050000e+00	3.036365e-04	
215	4.100000e+00	3.038461e-04	
216	4.150000e+00	3.040523e-04	
217	4.200000e+00	3.042555e-04	
218	4.250000e+00	3.044556e-04	
219	4.300000e+00	3.046528e-04	
220	4.350000e+00	3.048472e-04	
221	4.400000e+00	3.050388e-04	
222	4.450000e+00	3.052278e-04	
223	4.500000e+00	3.054142e-04	
224	4.550000e+00	3.055981e-04	
225	4.600000e+00	3.057796e-04	
226	4.650000e+00	3.059588e-04	
227	4.700000e+00	3.061357e-04	
228	4.750000e+00	3.063105e-04	

Index   v-sweep         -i(vds)         
--------------------------------------------------------------------------------
229	4.800000e+00	3.064831e-04	
230	4.850000e+00	3.066536e-04	
231	4.900000e+00	3.068222e-04	
232	4.950000e+00	3.069888e-04	
233	5.000000e+00	3.071535e-04	
234	5.050000e+00	3.073164e-04	
235	5.100000e+00	3.074775e-04	
236	5.150000e+00	3.076369e-04	
237	5.200000e+00	3.077946e-04	
238	5.250000e+00	3.079506e-04	
239	5.300000e+00	3.081051e-04	
240	5.350000e+00	3.082580e-04	
241	5.400000e+00	3.084094e-04	
242	5.450000e+00	3.085593e-04	
243	5.500000e+00	3.087079e-04	
244	5.550000e+00	3.088550e-04	
245	5.600000e+00	3.090008e-04	
246	5.650000e+00	3.091452e-04	
247	5.700000e+00	3.092884e-04	
248	5.750000e+00	3.094303e-04	
249	5.800000e+00	3.095710e-04	
250	5.850000e+00	3.097105e-04	
251	5.900000e+00	3.098489e-04	
252	5.950000e+00	3.099861e-04	
253	6.000000e+00	3.101222e-04	
254	6.050000e+00	3.102572e-04	
255	6.100000e+00	3.103912e-04	
256	6.150000e+00	3.105242e-04	
257	6.200000e+00	3.106561e-04	
258	6.250000e+00	3.107871e-04	
259	6.300000e+00	3.109171e-04	
260	6.350000e+00	3.110462e-04	
261	6.400000e+00	3.111743e-04	
262	6.450000e+00	3.113016e-04	
263	6.500000e+00	3.114280e-04	
264	6.550000e+00	3.115536e-04	
265	6.600000e+00	3.116783e-04	
266	0.000000e+00	-0.000000e+00	
267	5.000000e-02	2.980968e-05	
268	1.000000e-01	5.895368e-05	
269	1.500000e-01	8.743599e-05	
270	2.000000e-01	1.152606e-04	
271	2.500000e-01	1.424314e-04	
272	3.000000e-01	1.689524e-04	
273	3.500000e-01	1.948274e-04	
274	4.000000e-01	2.200603e-04	
275	4.500000e-01	2.446549e-04	
276	5.000000e-01	2.686150e-04	
277	5.500000e-01	2.919443e-04	
278	6.000000e-01	3.146466e-04	
279	6.500000e-01	3.367256e-04	
280	7.000000e-01	3.581849e-04	
281	7.500000e-01	3.790282e-04	
282	8.000000e-01	3.992591e-04	
283	8.500000e-01	4.188811e-04	
284	9.000000e-01	4.378979e-04	
285	9.500000e-01	4.563130e-04	
286	1.000000e+00	4.741298e-04	

Index   v-sweep         -i(vds)         
--------------------------------------------------------------------------------
287	1.050000e+00	4.913519e-04	
288	1.100000e+00	5.079826e-04	
289	1.150000e+00	5.240253e-04	
290	1.200000e+00	5.394835e-04	
291	1.250000e+00	5.543605e-04	
292	1.300000e+00	5.686596e-04	
293	1.350000e+00	5.823841e-04	
294	1.400000e+00	5.955371e-04	
295	1.450000e+00	6.081218e-04	
296	1.500000e+00	6.201413e-04	
297	1.550000e+00	6.315985e-04	
298	1.600000e+00	6.424962e-04	
299	1.650000e+00	6.528369e-04	
300	1.700000e+00	6.626226e-04	
301	1.750000e+00	6.718546e-04	
302	1.800000e+00	6.805327e-04	
303	1.850000e+00	6.886545e-04	
304	1.900000e+00	6.962135e-04	
305	1.950000e+00	7.031967e-04	
306	2.000000e+00	7.095854e-04	
307	2.050000e+00	7.153616e-04	
308	2.100000e+00	7.205267e-04	
309	2.150000e+00	7.251155e-04	
310	2.200000e+00	7.291918e-04	
311	2.250000e+00	7.328300e-04	
312	2.300000e+00	7.361005e-04	
313	2.350000e+00	7.390631e-04	
314	2.400000e+00	7.417670e-04	
315	2.450000e+00	7.442515e-04	
316	2.500000e+00	7.465484e-04	
317	2.550000e+00	7.486833e-04	
318	2.600000e+00	7.506771e-04	
319	2.650000e+00	7.525469e-04	
320	2.700000e+00	7.543072e-04	
321	2.750000e+00	7.559700e-04	
322	2.800000e+00	7.575453e-04	
323	2.850000e+00	7.590418e-04	
324	2.900000e+00	7.604671e-04	
325	2.950000e+00	7.618276e-04	
326	3.000000e+00	7.631288e-04	
327	3.050000e+00	7.643757e-04	
328	3.100000e+00	7.655727e-04	
329	3.150000e+00	7.667235e-04	
330	3.200000e+00	7.678317e-04	
331	3.250000e+00	7.689002e-04	
332	3.300000e+00	7.699318e-04	
333	3.350000e+00	7.709289e-04	
334	3.400000e+00	7.718938e-04	
335	3.450000e+00	7.728285e-04	
336	3.500000e+00	7.737348e-04	
337	3.550000e+00	7.746144e-04	
338	3.600000e+00	7.754688e-04	
339	3.650000e+00	7.762995e-04	
340	3.700000e+00	7.771077e-04	
341	3.750000e+00	7.778947e-04	
342	3.800000e+00	7.786614e-04	
343	3.850000e+00	7.794091e-04	
344	3.900000e+00	7.801385e-04	

Index   v-sweep         -i(vds)         
--------------------------------------------------------------------------------
345	3.950000e+00	7.808505e-04	
346	4.000000e+00	7.815461e-04	
347	4.050000e+00	7.822259e-04	
348	4.100000e+00	7.828907e-04	
349	4.150000e+00	7.835411e-04	
350	4.200000e+00	7.841778e-04	
351	4.250000e+00	7.848013e-04	
352	4.300000e+00	7.854123e-04	
353	4.350000e+00	7.860111e-04	
354	4.400000e+00	7.865984e-04	
355	4.450000e+00	7.871746e-04	
356	4.500000e+00	7.877401e-04	
357	4.550000e+00	7.882953e-04	
358	4.600000e+00	7.888407e-04	
359	4.650000e+00	7.893766e-04	
360	4.700000e+00	7.899033e-04	
361	4.750000e+00	7.904212e-04	
362	4.800000e+00	7.909307e-04	
363	4.850000e+00	7.914319e-04	
364	4.900000e+00	7.919253e-04	
365	4.950000e+00	7.924110e-04	
366	5.000000e+00	7.928894e-04	
367	5.050000e+00	7.933607e-04	
368	5.100000e+00	7.938251e-04	
369	5.150000e+00	7.942829e-04	
370	5.200000e+00	7.947343e-04	
371	5.250000e+00	7.951795e-04	
372	5.300000e+00	7.956186e-04	
373	5.350000e+00	7.960520e-04	
374	5.400000e+00	7.964797e-04	
375	5.450000e+00	7.969019e-04	
376	5.500000e+00	7.973189e-04	
377	5.550000e+00	7.977308e-04	
378	5.600000e+00	7.981377e-04	
379	5.650000e+00	7.985397e-04	
380	5.700000e+00	7.989371e-04	
381	5.750000e+00	7.993300e-04	
382	5.800000e+00	7.997185e-04	
383	5.850000e+00	8.001027e-04	
384	5.900000e+00	8.004827e-04	
385	5.950000e+00	8.008587e-04	
386	6.000000e+00	8.012308e-04	
387	6.050000e+00	8.015991e-04	
388	6.100000e+00	8.019637e-04	
389	6.150000e+00	8.023247e-04	
390	6.200000e+00	8.026821e-04	
391	6.250000e+00	8.030362e-04	
392	6.300000e+00	8.033870e-04	
393	6.350000e+00	8.037345e-04	
394	6.400000e+00	8.040789e-04	
395	6.450000e+00	8.044202e-04	
396	6.500000e+00	8.047586e-04	
397	6.550000e+00	8.050940e-04	
398	6.600000e+00	8.054267e-04	
399	0.000000e+00	-0.000000e+00	
400	5.000000e-02	3.768636e-05	
401	1.000000e-01	7.477272e-05	
402	1.500000e-01	1.112625e-04	

Index   v-sweep         -i(vds)         
--------------------------------------------------------------------------------
403	2.000000e-01	1.471589e-04	
404	2.500000e-01	1.824655e-04	
405	3.000000e-01	2.171854e-04	
406	3.500000e-01	2.513219e-04	
407	4.000000e-01	2.848782e-04	
408	4.500000e-01	3.178577e-04	
409	5.000000e-01	3.502635e-04	
410	5.500000e-01	3.820988e-04	
411	6.000000e-01	4.133667e-04	
412	6.500000e-01	4.440704e-04	
413	7.000000e-01	4.742129e-04	
414	7.500000e-01	5.037974e-04	
415	8.000000e-01	5.328269e-04	
416	8.500000e-01	5.613045e-04	
417	9.000000e-01	5.892332e-04	
418	9.500000e-01	6.166159e-04	
419	1.000000e+00	6.434557e-04	
420	1.050000e+00	6.697555e-04	
421	1.100000e+00	6.955182e-04	
422	1.150000e+00	7.207468e-04	
423	1.200000e+00	7.454441e-04	
424	1.250000e+00	7.696129e-04	
425	1.300000e+00	7.932562e-04	
426	1.350000e+00	8.163767e-04	
427	1.400000e+00	8.389773e-04	
428	1.450000e+00	8.610607e-04	
429	1.500000e+00	8.826297e-04	
430	1.550000e+00	9.036870e-04	
431	1.600000e+00	9.242354e-04	
432	1.650000e+00	9.442774e-04	
433	1.700000e+00	9.638158e-04	
434	1.750000e+00	9.828533e-04	
435	1.800000e+00	1.001392e-03	
436	1.850000e+00	1.019436e-03	
437	1.900000e+00	1.036986e-03	
438	1.950000e+00	1.054045e-03	
439	2.000000e+00	1.070616e-03	
440	2.050000e+00	1.086701e-03	
441	2.100000e+00	1.102302e-03	
442	2.150000e+00	1.117422e-03	
443	2.200000e+00	1.132062e-03	
444	2.250000e+00	1.146225e-03	
445	2.300000e+00	1.159912e-03	
446	2.350000e+00	1.173125e-03	
447	2.400000e+00	1.185863e-03	
448	2.450000e+00	1.198125e-03	
449	2.500000e+00	1.209910e-03	
450	2.550000e+00	1.221212e-03	
451	2.600000e+00	1.232020e-03	
452	2.650000e+00	1.242317e-03	
453	2.700000e+00	1.252073e-03	
454	2.750000e+00	1.261244e-03	
455	2.800000e+00	1.269779e-03	
456	2.850000e+00	1.277634e-03	
457	2.900000e+00	1.284793e-03	
458	2.950000e+00	1.291281e-03	
459	3.000000e+00	1.297155e-03	
460	3.050000e+00	1.302486e-03	

Index   v-sweep         -i(vds)         
--------------------------------------------------------------------------------
461	3.100000e+00	1.307347e-03	
462	3.150000e+00	1.311803e-03	
463	3.200000e+00	1.315909e-03	
464	3.250000e+00	1.319713e-03	
465	3.300000e+00	1.323253e-03	
466	3.350000e+00	1.326563e-03	
467	3.400000e+00	1.329669e-03	
468	3.450000e+00	1.332595e-03	
469	3.500000e+00	1.335360e-03	
470	3.550000e+00	1.337981e-03	
471	3.600000e+00	1.340471e-03	
472	3.650000e+00	1.342843e-03	
473	3.700000e+00	1.345107e-03	
474	3.750000e+00	1.347273e-03	
475	3.800000e+00	1.349349e-03	
476	3.850000e+00	1.351342e-03	
477	3.900000e+00	1.353258e-03	
478	3.950000e+00	1.355103e-03	
479	4.000000e+00	1.356882e-03	
480	4.050000e+00	1.358600e-03	
481	4.100000e+00	1.360260e-03	
482	4.150000e+00	1.361867e-03	
483	4.200000e+00	1.363424e-03	
484	4.250000e+00	1.364933e-03	
485	4.300000e+00	1.366398e-03	
486	4.350000e+00	1.367820e-03	
487	4.400000e+00	1.369204e-03	
488	4.450000e+00	1.370550e-03	
489	4.500000e+00	1.371860e-03	
490	4.550000e+00	1.373137e-03	
491	4.600000e+00	1.374382e-03	
492	4.650000e+00	1.375596e-03	
493	4.700000e+00	1.376782e-03	
494	4.750000e+00	1.377940e-03	
495	4.800000e+00	1.379072e-03	
496	4.850000e+00	1.380179e-03	
497	4.900000e+00	1.381262e-03	
498	4.950000e+00	1.382322e-03	
499	5.000000e+00	1.383361e-03	
500	5.050000e+00	1.384378e-03	
501	5.100000e+00	1.385375e-03	
502	5.150000e+00	1.386353e-03	
503	5.200000e+00	1.387312e-03	
504	5.250000e+00	1.388254e-03	
505	5.300000e+00	1.389178e-03	
506	5.350000e+00	1.390086e-03	
507	5.400000e+00	1.390979e-03	
508	5.450000e+00	1.391856e-03	
509	5.500000e+00	1.392718e-03	
510	5.550000e+00	1.393566e-03	
511	5.600000e+00	1.394401e-03	
512	5.650000e+00	1.395222e-03	
513	5.700000e+00	1.396031e-03	
514	5.750000e+00	1.396828e-03	
515	5.800000e+00	1.397613e-03	
516	5.850000e+00	1.398386e-03	
517	5.900000e+00	1.399148e-03	
518	5.950000e+00	1.399900e-03	

Index   v-sweep         -i(vds)         
--------------------------------------------------------------------------------
519	6.000000e+00	1.400641e-03	
520	6.050000e+00	1.401373e-03	
521	6.100000e+00	1.402094e-03	
522	6.150000e+00	1.402807e-03	
523	6.200000e+00	1.403510e-03	
524	6.250000e+00	1.404205e-03	
525	6.300000e+00	1.404891e-03	
526	6.350000e+00	1.405568e-03	
527	6.400000e+00	1.406238e-03	
528	6.450000e+00	1.406900e-03	
529	6.500000e+00	1.407555e-03	
530	6.550000e+00	1.408202e-03	
531	6.600000e+00	1.408842e-03	
532	0.000000e+00	-0.000000e+00	
533	5.000000e-02	4.356710e-05	
534	1.000000e-01	8.659666e-05	
535	1.500000e-01	1.290914e-04	
536	2.000000e-01	1.710542e-04	
537	2.500000e-01	2.124877e-04	
538	3.000000e-01	2.533946e-04	
539	3.500000e-01	2.937777e-04	
540	4.000000e-01	3.336397e-04	
541	4.500000e-01	3.729831e-04	
542	5.000000e-01	4.118106e-04	
543	5.500000e-01	4.501250e-04	
544	6.000000e-01	4.879287e-04	
545	6.500000e-01	5.252244e-04	
546	7.000000e-01	5.620146e-04	
547	7.500000e-01	5.983020e-04	
548	8.000000e-01	6.340890e-04	
549	8.500000e-01	6.693782e-04	
550	9.000000e-01	7.041720e-04	
551	9.500000e-01	7.384730e-04	
552	1.000000e+00	7.722837e-04	
553	1.050000e+00	8.056065e-04	
554	1.100000e+00	8.384438e-04	
555	1.150000e+00	8.707980e-04	
556	1.200000e+00	9.026717e-04	
557	1.250000e+00	9.340671e-04	
558	1.300000e+00	9.649866e-04	
559	1.350000e+00	9.954326e-04	
560	1.400000e+00	1.025407e-03	
561	1.450000e+00	1.054913e-03	
562	1.500000e+00	1.083953e-03	
563	1.550000e+00	1.112528e-03	
564	1.600000e+00	1.140641e-03	
565	1.650000e+00	1.168295e-03	
566	1.700000e+00	1.195491e-03	
567	1.750000e+00	1.222232e-03	
568	1.800000e+00	1.248520e-03	
569	1.850000e+00	1.274357e-03	
570	1.900000e+00	1.299746e-03	
571	1.950000e+00	1.324688e-03	
572	2.000000e+00	1.349186e-03	
573	2.050000e+00	1.373242e-03	
574	2.100000e+00	1.396858e-03	
575	2.150000e+00	1.420036e-03	
576	2.200000e+00	1.442778e-03	

Index   v-sweep         -i(vds)         
--------------------------------------------------------------------------------
577	2.250000e+00	1.465086e-03	
578	2.300000e+00	1.486963e-03	
579	2.350000e+00	1.508410e-03	
580	2.400000e+00	1.529429e-03	
581	2.450000e+00	1.550023e-03	
582	2.500000e+00	1.570193e-03	
583	2.550000e+00	1.589941e-03	
584	2.600000e+00	1.609269e-03	
585	2.650000e+00	1.628179e-03	
586	2.700000e+00	1.646673e-03	
587	2.750000e+00	1.664752e-03	
588	2.800000e+00	1.682418e-03	
589	2.850000e+00	1.699673e-03	
590	2.900000e+00	1.716518e-03	
591	2.950000e+00	1.732953e-03	
592	3.000000e+00	1.748980e-03	
593	3.050000e+00	1.764600e-03	
594	3.100000e+00	1.779810e-03	
595	3.150000e+00	1.794611e-03	
596	3.200000e+00	1.808998e-03	
597	3.250000e+00	1.822966e-03	
598	3.300000e+00	1.836506e-03	
599	3.350000e+00	1.849600e-03	
600	3.400000e+00	1.862225e-03	
601	3.450000e+00	1.874341e-03	
602	3.500000e+00	1.885895e-03	
603	3.550000e+00	1.896819e-03	
604	3.600000e+00	1.907048e-03	
605	3.650000e+00	1.916535e-03	
606	3.700000e+00	1.925269e-03	
607	3.750000e+00	1.933281e-03	
608	3.800000e+00	1.940626e-03	
609	3.850000e+00	1.947373e-03	
610	3.900000e+00	1.953592e-03	
611	3.950000e+00	1.959346e-03	
612	4.000000e+00	1.964693e-03	
613	4.050000e+00	1.969681e-03	
614	4.100000e+00	1.974354e-03	
615	4.150000e+00	1.978746e-03	
616	4.200000e+00	1.982887e-03	
617	4.250000e+00	1.986805e-03	
618	4.300000e+00	1.990521e-03	
619	4.350000e+00	1.994054e-03	
620	4.400000e+00	1.997422e-03	
621	4.450000e+00	2.000639e-03	
622	4.500000e+00	2.003718e-03	
623	4.550000e+00	2.006669e-03	
624	4.600000e+00	2.009504e-03	
625	4.650000e+00	2.012230e-03	
626	4.700000e+00	2.014856e-03	
627	4.750000e+00	2.017389e-03	
628	4.800000e+00	2.019835e-03	
629	4.850000e+00	2.022200e-03	
630	4.900000e+00	2.024489e-03	
631	4.950000e+00	2.026707e-03	
632	5.000000e+00	2.028858e-03	
633	5.050000e+00	2.030945e-03	
634	5.100000e+00	2.032974e-03	

Index   v-sweep         -i(vds)         
--------------------------------------------------------------------------------
635	5.150000e+00	2.034946e-03	
636	5.200000e+00	2.036865e-03	
637	5.250000e+00	2.038734e-03	
638	5.300000e+00	2.040555e-03	
639	5.350000e+00	2.042330e-03	
640	5.400000e+00	2.044063e-03	
641	5.450000e+00	2.045754e-03	
642	5.500000e+00	2.047407e-03	
643	5.550000e+00	2.049022e-03	
644	5.600000e+00	2.050602e-03	
645	5.650000e+00	2.052147e-03	
646	5.700000e+00	2.053660e-03	
647	5.750000e+00	2.055142e-03	
648	5.800000e+00	2.056594e-03	
649	5.850000e+00	2.058017e-03	
650	5.900000e+00	2.059413e-03	
651	5.950000e+00	2.060783e-03	
652	6.000000e+00	2.062127e-03	
653	6.050000e+00	2.063447e-03	
654	6.100000e+00	2.064744e-03	
655	6.150000e+00	2.066018e-03	
656	6.200000e+00	2.067270e-03	
657	6.250000e+00	2.068502e-03	
658	6.300000e+00	2.069713e-03	
659	6.350000e+00	2.070905e-03	
660	6.400000e+00	2.072078e-03	
661	6.450000e+00	2.073234e-03	
662	6.500000e+00	2.074372e-03	
663	6.550000e+00	2.075493e-03	
664	6.600000e+00	2.076598e-03	
665	0.000000e+00	-0.000000e+00	
666	5.000000e-02	4.796056e-05	
667	1.000000e-01	9.544125e-05	
668	1.500000e-01	1.424443e-04	
669	2.000000e-01	1.889720e-04	
670	2.500000e-01	2.350266e-04	
671	3.000000e-01	2.806103e-04	
672	3.500000e-01	3.257253e-04	
673	4.000000e-01	3.703738e-04	
674	4.500000e-01	4.145581e-04	
675	5.000000e-01	4.582801e-04	
676	5.500000e-01	5.015422e-04	
677	6.000000e-01	5.443465e-04	
678	6.500000e-01	5.866950e-04	
679	7.000000e-01	6.285900e-04	
680	7.500000e-01	6.700334e-04	
681	8.000000e-01	7.110275e-04	
682	8.500000e-01	7.515742e-04	
683	9.000000e-01	7.916757e-04	
684	9.500000e-01	8.313339e-04	
685	1.000000e+00	8.705510e-04	
686	1.050000e+00	9.093290e-04	
687	1.100000e+00	9.476698e-04	
688	1.150000e+00	9.855755e-04	
689	1.200000e+00	1.023048e-03	
690	1.250000e+00	1.060089e-03	
691	1.300000e+00	1.096702e-03	
692	1.350000e+00	1.132886e-03	

Index   v-sweep         -i(vds)         
--------------------------------------------------------------------------------
693	1.400000e+00	1.168646e-03	
694	1.450000e+00	1.203982e-03	
695	1.500000e+00	1.238897e-03	
696	1.550000e+00	1.273392e-03	
697	1.600000e+00	1.307470e-03	
698	1.650000e+00	1.341132e-03	
699	1.700000e+00	1.374379e-03	
700	1.750000e+00	1.407215e-03	
701	1.800000e+00	1.439641e-03	
702	1.850000e+00	1.471658e-03	
703	1.900000e+00	1.503269e-03	
704	1.950000e+00	1.534475e-03	
705	2.000000e+00	1.565278e-03	
706	2.050000e+00	1.595680e-03	
707	2.100000e+00	1.625682e-03	
708	2.150000e+00	1.655287e-03	
709	2.200000e+00	1.684497e-03	
710	2.250000e+00	1.713312e-03	
711	2.300000e+00	1.741734e-03	
712	2.350000e+00	1.769767e-03	
713	2.400000e+00	1.797410e-03	
714	2.450000e+00	1.824666e-03	
715	2.500000e+00	1.851536e-03	
716	2.550000e+00	1.878023e-03	
717	2.600000e+00	1.904128e-03	
718	2.650000e+00	1.929852e-03	
719	2.700000e+00	1.955197e-03	
720	2.750000e+00	1.980165e-03	
721	2.800000e+00	2.004757e-03	
722	2.850000e+00	2.028976e-03	
723	2.900000e+00	2.052822e-03	
724	2.950000e+00	2.076297e-03	
725	3.000000e+00	2.099403e-03	
726	3.050000e+00	2.122141e-03	
727	3.100000e+00	2.144513e-03	
728	3.150000e+00	2.166521e-03	
729	3.200000e+00	2.188165e-03	
730	3.250000e+00	2.209447e-03	
731	3.300000e+00	2.230369e-03	
732	3.350000e+00	2.250932e-03	
733	3.400000e+00	2.271137e-03	
734	3.450000e+00	2.290986e-03	
735	3.500000e+00	2.310479e-03	
736	3.550000e+00	2.329618e-03	
737	3.600000e+00	2.348404e-03	
738	3.650000e+00	2.366837e-03	
739	3.700000e+00	2.384917e-03	
740	3.750000e+00	2.402645e-03	
741	3.800000e+00	2.420020e-03	
742	3.850000e+00	2.437041e-03	
743	3.900000e+00	2.453704e-03	
744	3.950000e+00	2.470007e-03	
745	4.000000e+00	2.485941e-03	
746	4.050000e+00	2.501496e-03	
747	4.100000e+00	2.516655e-03	
748	4.150000e+00	2.531394e-03	
749	4.200000e+00	2.545674e-03	
750	4.250000e+00	2.559445e-03	

Index   v-sweep         -i(vds)         
--------------------------------------------------------------------------------
751	4.300000e+00	2.572638e-03	
752	4.350000e+00	2.585178e-03	
753	4.400000e+00	2.596995e-03	
754	4.450000e+00	2.608041e-03	
755	4.500000e+00	2.618304e-03	
756	4.550000e+00	2.627809e-03	
757	4.600000e+00	2.636604e-03	
758	4.650000e+00	2.644752e-03	
759	4.700000e+00	2.652318e-03	
760	4.750000e+00	2.659366e-03	
761	4.800000e+00	2.665953e-03	
762	4.850000e+00	2.672129e-03	
763	4.900000e+00	2.677938e-03	
764	4.950000e+00	2.683419e-03	
765	5.000000e+00	2.688605e-03	
766	5.050000e+00	2.693525e-03	
767	5.100000e+00	2.698205e-03	
768	5.150000e+00	2.702665e-03	
769	5.200000e+00	2.706925e-03	
770	5.250000e+00	2.711002e-03	
771	5.300000e+00	2.714911e-03	
772	5.350000e+00	2.718665e-03	
773	5.400000e+00	2.722275e-03	
774	5.450000e+00	2.725752e-03	
775	5.500000e+00	2.729105e-03	
776	5.550000e+00	2.732343e-03	
777	5.600000e+00	2.735474e-03	
778	5.650000e+00	2.738503e-03	
779	5.700000e+00	2.741438e-03	
780	5.750000e+00	2.744285e-03	
781	5.800000e+00	2.747047e-03	
782	5.850000e+00	2.749731e-03	
783	5.900000e+00	2.752341e-03	
784	5.950000e+00	2.754880e-03	
785	6.000000e+00	2.757352e-03	
786	6.050000e+00	2.759761e-03	
787	6.100000e+00	2.762109e-03	
788	6.150000e+00	2.764401e-03	
789	6.200000e+00	2.766638e-03	
790	6.250000e+00	2.768823e-03	
791	6.300000e+00	2.770959e-03	
792	6.350000e+00	2.773048e-03	
793	6.400000e+00	2.775091e-03	
794	6.450000e+00	2.777092e-03	
795	6.500000e+00	2.779051e-03	
796	6.550000e+00	2.780970e-03	
797	6.600000e+00	2.782852e-03	
Note: No ".plot", ".print", or ".fourier" lines; no simulations run
