
Note: Compatibility modes selected: hs

Warning: m=xx on .subckt line will override multiplier m hierarchy!


Circuit: ***************************

Doing analysis at TEMP = -40.000000 and TNOM = -40.000000


No. of Data Rows : 798
                          ***************************
                          DC transfer characteristic  Mon Jan  9 13:58:05  2023
--------------------------------------------------------------------------------
Index   v-sweep         -i(vds)         
--------------------------------------------------------------------------------
0	0.000000e+00	-0.000000e+00	
1	5.000000e-02	1.549725e-06	
2	1.000000e-01	2.786638e-06	
3	1.500000e-01	3.717004e-06	
4	2.000000e-01	4.356245e-06	
5	2.500000e-01	4.759527e-06	
6	3.000000e-01	5.036280e-06	
7	3.500000e-01	5.258001e-06	
8	4.000000e-01	5.449003e-06	
9	4.500000e-01	5.619616e-06	
10	5.000000e-01	5.775600e-06	
11	5.500000e-01	5.920581e-06	
12	6.000000e-01	6.057002e-06	
13	6.500000e-01	6.186586e-06	
14	7.000000e-01	6.310598e-06	
15	7.500000e-01	6.429988e-06	
16	8.000000e-01	6.545490e-06	
17	8.500000e-01	6.657683e-06	
18	9.000000e-01	6.767029e-06	
19	9.500000e-01	6.873903e-06	
20	1.000000e+00	6.978615e-06	
21	1.050000e+00	7.081421e-06	
22	1.100000e+00	7.182539e-06	
23	1.150000e+00	7.282152e-06	
24	1.200000e+00	7.380417e-06	
25	1.250000e+00	7.477468e-06	
26	1.300000e+00	7.573423e-06	
27	1.350000e+00	7.668384e-06	
28	1.400000e+00	7.762440e-06	
29	1.450000e+00	7.855671e-06	
30	1.500000e+00	7.948146e-06	
31	1.550000e+00	8.039928e-06	
32	1.600000e+00	8.131072e-06	
33	1.650000e+00	8.221628e-06	
34	1.700000e+00	8.311641e-06	
35	1.750000e+00	8.401150e-06	
36	1.800000e+00	8.490194e-06	
37	1.850000e+00	8.578805e-06	
38	1.900000e+00	8.667014e-06	
39	1.950000e+00	8.754847e-06	
40	2.000000e+00	8.842332e-06	
41	2.050000e+00	8.929490e-06	
42	2.100000e+00	9.016344e-06	
43	2.150000e+00	9.102913e-06	
44	2.200000e+00	9.189216e-06	
45	2.250000e+00	9.275269e-06	
46	2.300000e+00	9.361088e-06	
47	2.350000e+00	9.446689e-06	
48	2.400000e+00	9.532084e-06	
49	2.450000e+00	9.617287e-06	
50	2.500000e+00	9.702309e-06	
51	2.550000e+00	9.787162e-06	
52	2.600000e+00	9.871856e-06	
53	2.650000e+00	9.956400e-06	
54	2.700000e+00	1.004081e-05	

Index   v-sweep         -i(vds)         
--------------------------------------------------------------------------------
55	2.750000e+00	1.012508e-05	
56	2.800000e+00	1.020923e-05	
57	2.850000e+00	1.029327e-05	
58	2.900000e+00	1.037720e-05	
59	2.950000e+00	1.046103e-05	
60	3.000000e+00	1.054476e-05	
61	3.050000e+00	1.062841e-05	
62	3.100000e+00	1.071197e-05	
63	3.150000e+00	1.079547e-05	
64	3.200000e+00	1.087889e-05	
65	3.250000e+00	1.096224e-05	
66	3.300000e+00	1.104554e-05	
67	3.350000e+00	1.112877e-05	
68	3.400000e+00	1.121196e-05	
69	3.450000e+00	1.129510e-05	
70	3.500000e+00	1.137820e-05	
71	3.550000e+00	1.146126e-05	
72	3.600000e+00	1.154429e-05	
73	3.650000e+00	1.162729e-05	
74	3.700000e+00	1.171025e-05	
75	3.750000e+00	1.179319e-05	
76	3.800000e+00	1.187612e-05	
77	3.850000e+00	1.195902e-05	
78	3.900000e+00	1.204191e-05	
79	3.950000e+00	1.212478e-05	
80	4.000000e+00	1.220765e-05	
81	4.050000e+00	1.229051e-05	
82	4.100000e+00	1.237337e-05	
83	4.150000e+00	1.245622e-05	
84	4.200000e+00	1.253907e-05	
85	4.250000e+00	1.262193e-05	
86	4.300000e+00	1.270479e-05	
87	4.350000e+00	1.278766e-05	
88	4.400000e+00	1.287054e-05	
89	4.450000e+00	1.295343e-05	
90	4.500000e+00	1.303633e-05	
91	4.550000e+00	1.311924e-05	
92	4.600000e+00	1.320218e-05	
93	4.650000e+00	1.328513e-05	
94	4.700000e+00	1.336810e-05	
95	4.750000e+00	1.345109e-05	
96	4.800000e+00	1.353410e-05	
97	4.850000e+00	1.361714e-05	
98	4.900000e+00	1.370021e-05	
99	4.950000e+00	1.378330e-05	
100	5.000000e+00	1.386642e-05	
101	5.050000e+00	1.394957e-05	
102	5.100000e+00	1.403275e-05	
103	5.150000e+00	1.411596e-05	
104	5.200000e+00	1.419921e-05	
105	5.250000e+00	1.428249e-05	
106	5.300000e+00	1.436581e-05	
107	5.350000e+00	1.444916e-05	
108	5.400000e+00	1.453256e-05	
109	5.450000e+00	1.461599e-05	
110	5.500000e+00	1.469945e-05	
111	5.550000e+00	1.478296e-05	
112	5.600000e+00	1.486652e-05	

Index   v-sweep         -i(vds)         
--------------------------------------------------------------------------------
113	5.650000e+00	1.495011e-05	
114	5.700000e+00	1.503375e-05	
115	5.750000e+00	1.511743e-05	
116	5.800000e+00	1.520115e-05	
117	5.850000e+00	1.528492e-05	
118	5.900000e+00	1.536874e-05	
119	5.950000e+00	1.545260e-05	
120	6.000000e+00	1.553651e-05	
121	6.050000e+00	1.562047e-05	
122	6.100000e+00	1.570448e-05	
123	6.150000e+00	1.578854e-05	
124	6.200000e+00	1.587264e-05	
125	6.250000e+00	1.595680e-05	
126	6.300000e+00	1.604101e-05	
127	6.350000e+00	1.612527e-05	
128	6.400000e+00	1.620958e-05	
129	6.450000e+00	1.629394e-05	
130	6.500000e+00	1.637836e-05	
131	6.550000e+00	1.646283e-05	
132	6.600000e+00	1.654735e-05	
133	0.000000e+00	-0.000000e+00	
134	5.000000e-02	6.520470e-06	
135	1.000000e-01	1.272582e-05	
136	1.500000e-01	1.862152e-05	
137	2.000000e-01	2.421293e-05	
138	2.500000e-01	2.950528e-05	
139	3.000000e-01	3.450368e-05	
140	3.500000e-01	3.921310e-05	
141	4.000000e-01	4.363841e-05	
142	4.500000e-01	4.778428e-05	
143	5.000000e-01	5.165518e-05	
144	5.500000e-01	5.525509e-05	
145	6.000000e-01	5.858689e-05	
146	6.500000e-01	6.165050e-05	
147	7.000000e-01	6.443758e-05	
148	7.500000e-01	6.692104e-05	
149	8.000000e-01	6.905697e-05	
150	8.500000e-01	7.083339e-05	
151	9.000000e-01	7.230148e-05	
152	9.500000e-01	7.353471e-05	
153	1.000000e+00	7.459419e-05	
154	1.050000e+00	7.552346e-05	
155	1.100000e+00	7.635273e-05	
156	1.150000e+00	7.710328e-05	
157	1.200000e+00	7.779046e-05	
158	1.250000e+00	7.842562e-05	
159	1.300000e+00	7.901737e-05	
160	1.350000e+00	7.957239e-05	
161	1.400000e+00	8.009593e-05	
162	1.450000e+00	8.059221e-05	
163	1.500000e+00	8.106467e-05	
164	1.550000e+00	8.151614e-05	
165	1.600000e+00	8.194897e-05	
166	1.650000e+00	8.236516e-05	
167	1.700000e+00	8.276638e-05	
168	1.750000e+00	8.315409e-05	
169	1.800000e+00	8.352953e-05	
170	1.850000e+00	8.389379e-05	

Index   v-sweep         -i(vds)         
--------------------------------------------------------------------------------
171	1.900000e+00	8.424782e-05	
172	1.950000e+00	8.459244e-05	
173	2.000000e+00	8.492840e-05	
174	2.050000e+00	8.525636e-05	
175	2.100000e+00	8.557689e-05	
176	2.150000e+00	8.589051e-05	
177	2.200000e+00	8.619771e-05	
178	2.250000e+00	8.649891e-05	
179	2.300000e+00	8.679449e-05	
180	2.350000e+00	8.708479e-05	
181	2.400000e+00	8.737015e-05	
182	2.450000e+00	8.765085e-05	
183	2.500000e+00	8.792716e-05	
184	2.550000e+00	8.819933e-05	
185	2.600000e+00	8.846758e-05	
186	2.650000e+00	8.873213e-05	
187	2.700000e+00	8.899316e-05	
188	2.750000e+00	8.925086e-05	
189	2.800000e+00	8.950540e-05	
190	2.850000e+00	8.975694e-05	
191	2.900000e+00	9.000561e-05	
192	2.950000e+00	9.025155e-05	
193	3.000000e+00	9.049490e-05	
194	3.050000e+00	9.073578e-05	
195	3.100000e+00	9.097429e-05	
196	3.150000e+00	9.121054e-05	
197	3.200000e+00	9.144464e-05	
198	3.250000e+00	9.167667e-05	
199	3.300000e+00	9.190673e-05	
200	3.350000e+00	9.213490e-05	
201	3.400000e+00	9.236126e-05	
202	3.450000e+00	9.258589e-05	
203	3.500000e+00	9.280885e-05	
204	3.550000e+00	9.303023e-05	
205	3.600000e+00	9.325007e-05	
206	3.650000e+00	9.346845e-05	
207	3.700000e+00	9.368542e-05	
208	3.750000e+00	9.390105e-05	
209	3.800000e+00	9.411537e-05	
210	3.850000e+00	9.432845e-05	
211	3.900000e+00	9.454033e-05	
212	3.950000e+00	9.475106e-05	
213	4.000000e+00	9.496068e-05	
214	4.050000e+00	9.516924e-05	
215	4.100000e+00	9.537678e-05	
216	4.150000e+00	9.558333e-05	
217	4.200000e+00	9.578893e-05	
218	4.250000e+00	9.599363e-05	
219	4.300000e+00	9.619745e-05	
220	4.350000e+00	9.640043e-05	
221	4.400000e+00	9.660260e-05	
222	4.450000e+00	9.680398e-05	
223	4.500000e+00	9.700462e-05	
224	4.550000e+00	9.720453e-05	
225	4.600000e+00	9.740375e-05	
226	4.650000e+00	9.760230e-05	
227	4.700000e+00	9.780020e-05	
228	4.750000e+00	9.799748e-05	

Index   v-sweep         -i(vds)         
--------------------------------------------------------------------------------
229	4.800000e+00	9.819416e-05	
230	4.850000e+00	9.839027e-05	
231	4.900000e+00	9.858583e-05	
232	4.950000e+00	9.878085e-05	
233	5.000000e+00	9.897536e-05	
234	5.050000e+00	9.916938e-05	
235	5.100000e+00	9.936292e-05	
236	5.150000e+00	9.955600e-05	
237	5.200000e+00	9.974865e-05	
238	5.250000e+00	9.994087e-05	
239	5.300000e+00	1.001327e-04	
240	5.350000e+00	1.003241e-04	
241	5.400000e+00	1.005152e-04	
242	5.450000e+00	1.007058e-04	
243	5.500000e+00	1.008962e-04	
244	5.550000e+00	1.010862e-04	
245	5.600000e+00	1.012759e-04	
246	5.650000e+00	1.014652e-04	
247	5.700000e+00	1.016543e-04	
248	5.750000e+00	1.018431e-04	
249	5.800000e+00	1.020316e-04	
250	5.850000e+00	1.022199e-04	
251	5.900000e+00	1.024079e-04	
252	5.950000e+00	1.025956e-04	
253	6.000000e+00	1.027832e-04	
254	6.050000e+00	1.029705e-04	
255	6.100000e+00	1.031576e-04	
256	6.150000e+00	1.033445e-04	
257	6.200000e+00	1.035312e-04	
258	6.250000e+00	1.037177e-04	
259	6.300000e+00	1.039040e-04	
260	6.350000e+00	1.040902e-04	
261	6.400000e+00	1.042762e-04	
262	6.450000e+00	1.044620e-04	
263	6.500000e+00	1.046477e-04	
264	6.550000e+00	1.048333e-04	
265	6.600000e+00	1.050187e-04	
266	0.000000e+00	-0.000000e+00	
267	5.000000e-02	1.001410e-05	
268	1.000000e-01	1.971061e-05	
269	1.500000e-01	2.909527e-05	
270	2.000000e-01	3.817371e-05	
271	2.500000e-01	4.695138e-05	
272	3.000000e-01	5.543361e-05	
273	3.500000e-01	6.362561e-05	
274	4.000000e-01	7.153242e-05	
275	4.500000e-01	7.915897e-05	
276	5.000000e-01	8.651001e-05	
277	5.500000e-01	9.359019e-05	
278	6.000000e-01	1.004039e-04	
279	6.500000e-01	1.069556e-04	
280	7.000000e-01	1.132491e-04	
281	7.500000e-01	1.192882e-04	
282	8.000000e-01	1.250760e-04	
283	8.500000e-01	1.306148e-04	
284	9.000000e-01	1.359048e-04	
285	9.500000e-01	1.409421e-04	
286	1.000000e+00	1.457133e-04	

Index   v-sweep         -i(vds)         
--------------------------------------------------------------------------------
287	1.050000e+00	1.501848e-04	
288	1.100000e+00	1.542877e-04	
289	1.150000e+00	1.579259e-04	
290	1.200000e+00	1.610400e-04	
291	1.250000e+00	1.636610e-04	
292	1.300000e+00	1.658765e-04	
293	1.350000e+00	1.677772e-04	
294	1.400000e+00	1.694356e-04	
295	1.450000e+00	1.709051e-04	
296	1.500000e+00	1.722249e-04	
297	1.550000e+00	1.734236e-04	
298	1.600000e+00	1.745228e-04	
299	1.650000e+00	1.755387e-04	
300	1.700000e+00	1.764842e-04	
301	1.750000e+00	1.773693e-04	
302	1.800000e+00	1.782022e-04	
303	1.850000e+00	1.789894e-04	
304	1.900000e+00	1.797363e-04	
305	1.950000e+00	1.804475e-04	
306	2.000000e+00	1.811268e-04	
307	2.050000e+00	1.817774e-04	
308	2.100000e+00	1.824021e-04	
309	2.150000e+00	1.830033e-04	
310	2.200000e+00	1.835831e-04	
311	2.250000e+00	1.841432e-04	
312	2.300000e+00	1.846854e-04	
313	2.350000e+00	1.852109e-04	
314	2.400000e+00	1.857211e-04	
315	2.450000e+00	1.862170e-04	
316	2.500000e+00	1.866997e-04	
317	2.550000e+00	1.871701e-04	
318	2.600000e+00	1.876289e-04	
319	2.650000e+00	1.880769e-04	
320	2.700000e+00	1.885149e-04	
321	2.750000e+00	1.889433e-04	
322	2.800000e+00	1.893628e-04	
323	2.850000e+00	1.897738e-04	
324	2.900000e+00	1.901769e-04	
325	2.950000e+00	1.905725e-04	
326	3.000000e+00	1.909609e-04	
327	3.050000e+00	1.913425e-04	
328	3.100000e+00	1.917178e-04	
329	3.150000e+00	1.920869e-04	
330	3.200000e+00	1.924503e-04	
331	3.250000e+00	1.928081e-04	
332	3.300000e+00	1.931607e-04	
333	3.350000e+00	1.935083e-04	
334	3.400000e+00	1.938511e-04	
335	3.450000e+00	1.941894e-04	
336	3.500000e+00	1.945233e-04	
337	3.550000e+00	1.948530e-04	
338	3.600000e+00	1.951788e-04	
339	3.650000e+00	1.955007e-04	
340	3.700000e+00	1.958190e-04	
341	3.750000e+00	1.961338e-04	
342	3.800000e+00	1.964452e-04	
343	3.850000e+00	1.967534e-04	
344	3.900000e+00	1.970586e-04	

Index   v-sweep         -i(vds)         
--------------------------------------------------------------------------------
345	3.950000e+00	1.973607e-04	
346	4.000000e+00	1.976601e-04	
347	4.050000e+00	1.979567e-04	
348	4.100000e+00	1.982507e-04	
349	4.150000e+00	1.985422e-04	
350	4.200000e+00	1.988313e-04	
351	4.250000e+00	1.991180e-04	
352	4.300000e+00	1.994025e-04	
353	4.350000e+00	1.996849e-04	
354	4.400000e+00	1.999652e-04	
355	4.450000e+00	2.002435e-04	
356	4.500000e+00	2.005199e-04	
357	4.550000e+00	2.007945e-04	
358	4.600000e+00	2.010673e-04	
359	4.650000e+00	2.013384e-04	
360	4.700000e+00	2.016078e-04	
361	4.750000e+00	2.018757e-04	
362	4.800000e+00	2.021421e-04	
363	4.850000e+00	2.024070e-04	
364	4.900000e+00	2.026704e-04	
365	4.950000e+00	2.029325e-04	
366	5.000000e+00	2.031934e-04	
367	5.050000e+00	2.034529e-04	
368	5.100000e+00	2.037112e-04	
369	5.150000e+00	2.039684e-04	
370	5.200000e+00	2.042244e-04	
371	5.250000e+00	2.044793e-04	
372	5.300000e+00	2.047332e-04	
373	5.350000e+00	2.049861e-04	
374	5.400000e+00	2.052380e-04	
375	5.450000e+00	2.054890e-04	
376	5.500000e+00	2.057391e-04	
377	5.550000e+00	2.059883e-04	
378	5.600000e+00	2.062366e-04	
379	5.650000e+00	2.064842e-04	
380	5.700000e+00	2.067310e-04	
381	5.750000e+00	2.069770e-04	
382	5.800000e+00	2.072223e-04	
383	5.850000e+00	2.074669e-04	
384	5.900000e+00	2.077108e-04	
385	5.950000e+00	2.079541e-04	
386	6.000000e+00	2.081967e-04	
387	6.050000e+00	2.084388e-04	
388	6.100000e+00	2.086803e-04	
389	6.150000e+00	2.089212e-04	
390	6.200000e+00	2.091616e-04	
391	6.250000e+00	2.094015e-04	
392	6.300000e+00	2.096409e-04	
393	6.350000e+00	2.098798e-04	
394	6.400000e+00	2.101182e-04	
395	6.450000e+00	2.103562e-04	
396	6.500000e+00	2.105938e-04	
397	6.550000e+00	2.108310e-04	
398	6.600000e+00	2.110678e-04	
399	0.000000e+00	-0.000000e+00	
400	5.000000e-02	1.258538e-05	
401	1.000000e-01	2.486123e-05	
402	1.500000e-01	3.683288e-05	

Index   v-sweep         -i(vds)         
--------------------------------------------------------------------------------
403	2.000000e-01	4.850555e-05	
404	2.500000e-01	5.988434e-05	
405	3.000000e-01	7.097422e-05	
406	3.500000e-01	8.178004e-05	
407	4.000000e-01	9.230654e-05	
408	4.500000e-01	1.025583e-04	
409	5.000000e-01	1.125399e-04	
410	5.500000e-01	1.222557e-04	
411	6.000000e-01	1.317099e-04	
412	6.500000e-01	1.409066e-04	
413	7.000000e-01	1.498499e-04	
414	7.500000e-01	1.585436e-04	
415	8.000000e-01	1.669914e-04	
416	8.500000e-01	1.751969e-04	
417	9.000000e-01	1.831635e-04	
418	9.500000e-01	1.908943e-04	
419	1.000000e+00	1.983921e-04	
420	1.050000e+00	2.056591e-04	
421	1.100000e+00	2.126966e-04	
422	1.150000e+00	2.195042e-04	
423	1.200000e+00	2.260783e-04	
424	1.250000e+00	2.324089e-04	
425	1.300000e+00	2.384729e-04	
426	1.350000e+00	2.442219e-04	
427	1.400000e+00	2.495690e-04	
428	1.450000e+00	2.543972e-04	
429	1.500000e+00	2.586199e-04	
430	1.550000e+00	2.622405e-04	
431	1.600000e+00	2.653372e-04	
432	1.650000e+00	2.680094e-04	
433	1.700000e+00	2.703459e-04	
434	1.750000e+00	2.724161e-04	
435	1.800000e+00	2.742729e-04	
436	1.850000e+00	2.759559e-04	
437	1.900000e+00	2.774954e-04	
438	1.950000e+00	2.789146e-04	
439	2.000000e+00	2.802317e-04	
440	2.050000e+00	2.814612e-04	
441	2.100000e+00	2.826147e-04	
442	2.150000e+00	2.837019e-04	
443	2.200000e+00	2.847304e-04	
444	2.250000e+00	2.857070e-04	
445	2.300000e+00	2.866370e-04	
446	2.350000e+00	2.875253e-04	
447	2.400000e+00	2.883758e-04	
448	2.450000e+00	2.891920e-04	
449	2.500000e+00	2.899770e-04	
450	2.550000e+00	2.907334e-04	
451	2.600000e+00	2.914635e-04	
452	2.650000e+00	2.921694e-04	
453	2.700000e+00	2.928528e-04	
454	2.750000e+00	2.935155e-04	
455	2.800000e+00	2.941589e-04	
456	2.850000e+00	2.947842e-04	
457	2.900000e+00	2.953927e-04	
458	2.950000e+00	2.959855e-04	
459	3.000000e+00	2.965635e-04	
460	3.050000e+00	2.971276e-04	

Index   v-sweep         -i(vds)         
--------------------------------------------------------------------------------
461	3.100000e+00	2.976786e-04	
462	3.150000e+00	2.982173e-04	
463	3.200000e+00	2.987444e-04	
464	3.250000e+00	2.992605e-04	
465	3.300000e+00	2.997661e-04	
466	3.350000e+00	3.002619e-04	
467	3.400000e+00	3.007483e-04	
468	3.450000e+00	3.012258e-04	
469	3.500000e+00	3.016948e-04	
470	3.550000e+00	3.021558e-04	
471	3.600000e+00	3.026090e-04	
472	3.650000e+00	3.030550e-04	
473	3.700000e+00	3.034940e-04	
474	3.750000e+00	3.039263e-04	
475	3.800000e+00	3.043522e-04	
476	3.850000e+00	3.047721e-04	
477	3.900000e+00	3.051861e-04	
478	3.950000e+00	3.055946e-04	
479	4.000000e+00	3.059977e-04	
480	4.050000e+00	3.063957e-04	
481	4.100000e+00	3.067889e-04	
482	4.150000e+00	3.071773e-04	
483	4.200000e+00	3.075612e-04	
484	4.250000e+00	3.079408e-04	
485	4.300000e+00	3.083163e-04	
486	4.350000e+00	3.086877e-04	
487	4.400000e+00	3.090554e-04	
488	4.450000e+00	3.094194e-04	
489	4.500000e+00	3.097799e-04	
490	4.550000e+00	3.101369e-04	
491	4.600000e+00	3.104907e-04	
492	4.650000e+00	3.108414e-04	
493	4.700000e+00	3.111891e-04	
494	4.750000e+00	3.115339e-04	
495	4.800000e+00	3.118759e-04	
496	4.850000e+00	3.122152e-04	
497	4.900000e+00	3.125519e-04	
498	4.950000e+00	3.128861e-04	
499	5.000000e+00	3.132180e-04	
500	5.050000e+00	3.135475e-04	
501	5.100000e+00	3.138749e-04	
502	5.150000e+00	3.142001e-04	
503	5.200000e+00	3.145233e-04	
504	5.250000e+00	3.148444e-04	
505	5.300000e+00	3.151637e-04	
506	5.350000e+00	3.154812e-04	
507	5.400000e+00	3.157968e-04	
508	5.450000e+00	3.161108e-04	
509	5.500000e+00	3.164231e-04	
510	5.550000e+00	3.167339e-04	
511	5.600000e+00	3.170431e-04	
512	5.650000e+00	3.173509e-04	
513	5.700000e+00	3.176573e-04	
514	5.750000e+00	3.179623e-04	
515	5.800000e+00	3.182660e-04	
516	5.850000e+00	3.185684e-04	
517	5.900000e+00	3.188696e-04	
518	5.950000e+00	3.191697e-04	

Index   v-sweep         -i(vds)         
--------------------------------------------------------------------------------
519	6.000000e+00	3.194686e-04	
520	6.050000e+00	3.197664e-04	
521	6.100000e+00	3.200632e-04	
522	6.150000e+00	3.203589e-04	
523	6.200000e+00	3.206537e-04	
524	6.250000e+00	3.209476e-04	
525	6.300000e+00	3.212406e-04	
526	6.350000e+00	3.215327e-04	
527	6.400000e+00	3.218239e-04	
528	6.450000e+00	3.221144e-04	
529	6.500000e+00	3.224041e-04	
530	6.550000e+00	3.226930e-04	
531	6.600000e+00	3.229812e-04	
532	0.000000e+00	-0.000000e+00	
533	5.000000e-02	1.444479e-05	
534	1.000000e-01	2.859689e-05	
535	1.500000e-01	4.246096e-05	
536	2.000000e-01	5.604158e-05	
537	2.500000e-01	6.934322e-05	
538	3.000000e-01	8.237025e-05	
539	3.500000e-01	9.512697e-05	
540	4.000000e-01	1.076176e-04	
541	4.500000e-01	1.198461e-04	
542	5.000000e-01	1.318166e-04	
543	5.500000e-01	1.435330e-04	
544	6.000000e-01	1.549990e-04	
545	6.500000e-01	1.662184e-04	
546	7.000000e-01	1.771948e-04	
547	7.500000e-01	1.879316e-04	
548	8.000000e-01	1.984324e-04	
549	8.500000e-01	2.087004e-04	
550	9.000000e-01	2.187388e-04	
551	9.500000e-01	2.285508e-04	
552	1.000000e+00	2.381394e-04	
553	1.050000e+00	2.475073e-04	
554	1.100000e+00	2.566575e-04	
555	1.150000e+00	2.655923e-04	
556	1.200000e+00	2.743142e-04	
557	1.250000e+00	2.828251e-04	
558	1.300000e+00	2.911265e-04	
559	1.350000e+00	2.992192e-04	
560	1.400000e+00	3.071024e-04	
561	1.450000e+00	3.147731e-04	
562	1.500000e+00	3.222237e-04	
563	1.550000e+00	3.294378e-04	
564	1.600000e+00	3.363831e-04	
565	1.650000e+00	3.429991e-04	
566	1.700000e+00	3.491870e-04	
567	1.750000e+00	3.548251e-04	
568	1.800000e+00	3.598237e-04	
569	1.850000e+00	3.641771e-04	
570	1.900000e+00	3.679526e-04	
571	1.950000e+00	3.712452e-04	
572	2.000000e+00	3.741456e-04	
573	2.050000e+00	3.767290e-04	
574	2.100000e+00	3.790543e-04	
575	2.150000e+00	3.811670e-04	
576	2.200000e+00	3.831025e-04	

Index   v-sweep         -i(vds)         
--------------------------------------------------------------------------------
577	2.250000e+00	3.848885e-04	
578	2.300000e+00	3.865468e-04	
579	2.350000e+00	3.880951e-04	
580	2.400000e+00	3.895476e-04	
581	2.450000e+00	3.909160e-04	
582	2.500000e+00	3.922102e-04	
583	2.550000e+00	3.934381e-04	
584	2.600000e+00	3.946068e-04	
585	2.650000e+00	3.957221e-04	
586	2.700000e+00	3.967891e-04	
587	2.750000e+00	3.978121e-04	
588	2.800000e+00	3.987951e-04	
589	2.850000e+00	3.997413e-04	
590	2.900000e+00	4.006537e-04	
591	2.950000e+00	4.015348e-04	
592	3.000000e+00	4.023871e-04	
593	3.050000e+00	4.032126e-04	
594	3.100000e+00	4.040131e-04	
595	3.150000e+00	4.047903e-04	
596	3.200000e+00	4.055458e-04	
597	3.250000e+00	4.062808e-04	
598	3.300000e+00	4.069968e-04	
599	3.350000e+00	4.076948e-04	
600	3.400000e+00	4.083758e-04	
601	3.450000e+00	4.090408e-04	
602	3.500000e+00	4.096907e-04	
603	3.550000e+00	4.103263e-04	
604	3.600000e+00	4.109484e-04	
605	3.650000e+00	4.115576e-04	
606	3.700000e+00	4.121547e-04	
607	3.750000e+00	4.127402e-04	
608	3.800000e+00	4.133147e-04	
609	3.850000e+00	4.138787e-04	
610	3.900000e+00	4.144327e-04	
611	3.950000e+00	4.149771e-04	
612	4.000000e+00	4.155125e-04	
613	4.050000e+00	4.160392e-04	
614	4.100000e+00	4.165576e-04	
615	4.150000e+00	4.170681e-04	
616	4.200000e+00	4.175710e-04	
617	4.250000e+00	4.180666e-04	
618	4.300000e+00	4.185553e-04	
619	4.350000e+00	4.190373e-04	
620	4.400000e+00	4.195129e-04	
621	4.450000e+00	4.199824e-04	
622	4.500000e+00	4.204461e-04	
623	4.550000e+00	4.209041e-04	
624	4.600000e+00	4.213567e-04	
625	4.650000e+00	4.218042e-04	
626	4.700000e+00	4.222466e-04	
627	4.750000e+00	4.226843e-04	
628	4.800000e+00	4.231174e-04	
629	4.850000e+00	4.235460e-04	
630	4.900000e+00	4.239704e-04	
631	4.950000e+00	4.243908e-04	
632	5.000000e+00	4.248072e-04	
633	5.050000e+00	4.252198e-04	
634	5.100000e+00	4.256289e-04	

Index   v-sweep         -i(vds)         
--------------------------------------------------------------------------------
635	5.150000e+00	4.260344e-04	
636	5.200000e+00	4.264366e-04	
637	5.250000e+00	4.268355e-04	
638	5.300000e+00	4.272313e-04	
639	5.350000e+00	4.276242e-04	
640	5.400000e+00	4.280141e-04	
641	5.450000e+00	4.284013e-04	
642	5.500000e+00	4.287858e-04	
643	5.550000e+00	4.291678e-04	
644	5.600000e+00	4.295472e-04	
645	5.650000e+00	4.299243e-04	
646	5.700000e+00	4.302991e-04	
647	5.750000e+00	4.306717e-04	
648	5.800000e+00	4.310421e-04	
649	5.850000e+00	4.314105e-04	
650	5.900000e+00	4.317770e-04	
651	5.950000e+00	4.321415e-04	
652	6.000000e+00	4.325042e-04	
653	6.050000e+00	4.328651e-04	
654	6.100000e+00	4.332244e-04	
655	6.150000e+00	4.335820e-04	
656	6.200000e+00	4.339380e-04	
657	6.250000e+00	4.342925e-04	
658	6.300000e+00	4.346455e-04	
659	6.350000e+00	4.349972e-04	
660	6.400000e+00	4.353475e-04	
661	6.450000e+00	4.356965e-04	
662	6.500000e+00	4.360442e-04	
663	6.550000e+00	4.363907e-04	
664	6.600000e+00	4.367360e-04	
665	0.000000e+00	-0.000000e+00	
666	5.000000e-02	1.575002e-05	
667	1.000000e-01	3.122922e-05	
668	1.500000e-01	4.644156e-05	
669	2.000000e-01	6.139090e-05	
670	2.500000e-01	7.608104e-05	
671	3.000000e-01	9.051571e-05	
672	3.500000e-01	1.046986e-04	
673	4.000000e-01	1.186332e-04	
674	4.500000e-01	1.323230e-04	
675	5.000000e-01	1.457716e-04	
676	5.500000e-01	1.589822e-04	
677	6.000000e-01	1.719581e-04	
678	6.500000e-01	1.847026e-04	
679	7.000000e-01	1.972187e-04	
680	7.500000e-01	2.095097e-04	
681	8.000000e-01	2.215783e-04	
682	8.500000e-01	2.334276e-04	
683	9.000000e-01	2.450605e-04	
684	9.500000e-01	2.564796e-04	
685	1.000000e+00	2.676876e-04	
686	1.050000e+00	2.786873e-04	
687	1.100000e+00	2.894811e-04	
688	1.150000e+00	3.000716e-04	
689	1.200000e+00	3.104610e-04	
690	1.250000e+00	3.206517e-04	
691	1.300000e+00	3.306459e-04	
692	1.350000e+00	3.404457e-04	

Index   v-sweep         -i(vds)         
--------------------------------------------------------------------------------
693	1.400000e+00	3.500529e-04	
694	1.450000e+00	3.594694e-04	
695	1.500000e+00	3.686966e-04	
696	1.550000e+00	3.777356e-04	
697	1.600000e+00	3.865868e-04	
698	1.650000e+00	3.952499e-04	
699	1.700000e+00	4.037228e-04	
700	1.750000e+00	4.120004e-04	
701	1.800000e+00	4.200730e-04	
702	1.850000e+00	4.279213e-04	
703	1.900000e+00	4.355101e-04	
704	1.950000e+00	4.427773e-04	
705	2.000000e+00	4.496270e-04	
706	2.050000e+00	4.559413e-04	
707	2.100000e+00	4.616259e-04	
708	2.150000e+00	4.666558e-04	
709	2.200000e+00	4.710770e-04	
710	2.250000e+00	4.749720e-04	
711	2.300000e+00	4.784278e-04	
712	2.350000e+00	4.815215e-04	
713	2.400000e+00	4.843159e-04	
714	2.450000e+00	4.868611e-04	
715	2.500000e+00	4.891970e-04	
716	2.550000e+00	4.913550e-04	
717	2.600000e+00	4.933604e-04	
718	2.650000e+00	4.952337e-04	
719	2.700000e+00	4.969916e-04	
720	2.750000e+00	4.986479e-04	
721	2.800000e+00	5.002142e-04	
722	2.850000e+00	5.017002e-04	
723	2.900000e+00	5.031141e-04	
724	2.950000e+00	5.044630e-04	
725	3.000000e+00	5.057530e-04	
726	3.050000e+00	5.069893e-04	
727	3.100000e+00	5.081766e-04	
728	3.150000e+00	5.093189e-04	
729	3.200000e+00	5.104197e-04	
730	3.250000e+00	5.114823e-04	
731	3.300000e+00	5.125094e-04	
732	3.350000e+00	5.135035e-04	
733	3.400000e+00	5.144670e-04	
734	3.450000e+00	5.154019e-04	
735	3.500000e+00	5.163100e-04	
736	3.550000e+00	5.171930e-04	
737	3.600000e+00	5.180524e-04	
738	3.650000e+00	5.188896e-04	
739	3.700000e+00	5.197059e-04	
740	3.750000e+00	5.205025e-04	
741	3.800000e+00	5.212805e-04	
742	3.850000e+00	5.220408e-04	
743	3.900000e+00	5.227844e-04	
744	3.950000e+00	5.235121e-04	
745	4.000000e+00	5.242248e-04	
746	4.050000e+00	5.249232e-04	
747	4.100000e+00	5.256079e-04	
748	4.150000e+00	5.262797e-04	
749	4.200000e+00	5.269391e-04	
750	4.250000e+00	5.275867e-04	

Index   v-sweep         -i(vds)         
--------------------------------------------------------------------------------
751	4.300000e+00	5.282231e-04	
752	4.350000e+00	5.288487e-04	
753	4.400000e+00	5.294641e-04	
754	4.450000e+00	5.300696e-04	
755	4.500000e+00	5.306657e-04	
756	4.550000e+00	5.312529e-04	
757	4.600000e+00	5.318314e-04	
758	4.650000e+00	5.324017e-04	
759	4.700000e+00	5.329640e-04	
760	4.750000e+00	5.335188e-04	
761	4.800000e+00	5.340663e-04	
762	4.850000e+00	5.346069e-04	
763	4.900000e+00	5.351407e-04	
764	4.950000e+00	5.356681e-04	
765	5.000000e+00	5.361894e-04	
766	5.050000e+00	5.367047e-04	
767	5.100000e+00	5.372143e-04	
768	5.150000e+00	5.377184e-04	
769	5.200000e+00	5.382173e-04	
770	5.250000e+00	5.387111e-04	
771	5.300000e+00	5.392001e-04	
772	5.350000e+00	5.396844e-04	
773	5.400000e+00	5.401642e-04	
774	5.450000e+00	5.406396e-04	
775	5.500000e+00	5.411109e-04	
776	5.550000e+00	5.415782e-04	
777	5.600000e+00	5.420417e-04	
778	5.650000e+00	5.425014e-04	
779	5.700000e+00	5.429575e-04	
780	5.750000e+00	5.434103e-04	
781	5.800000e+00	5.438597e-04	
782	5.850000e+00	5.443059e-04	
783	5.900000e+00	5.447491e-04	
784	5.950000e+00	5.451893e-04	
785	6.000000e+00	5.456266e-04	
786	6.050000e+00	5.460613e-04	
787	6.100000e+00	5.464933e-04	
788	6.150000e+00	5.469227e-04	
789	6.200000e+00	5.473497e-04	
790	6.250000e+00	5.477744e-04	
791	6.300000e+00	5.481968e-04	
792	6.350000e+00	5.486170e-04	
793	6.400000e+00	5.490351e-04	
794	6.450000e+00	5.494512e-04	
795	6.500000e+00	5.498653e-04	
796	6.550000e+00	5.502776e-04	
797	6.600000e+00	5.506880e-04	
Note: No ".plot", ".print", or ".fourier" lines; no simulations run
