
Note: Compatibility modes selected: hs

Warning: m=xx on .subckt line will override multiplier m hierarchy!


Circuit: ***************************

Doing analysis at TEMP = 25.000000 and TNOM = 25.000000


No. of Data Rows : 798
                          ***************************
                          DC transfer characteristic  Mon Jan  9 13:58:04  2023
--------------------------------------------------------------------------------
Index   v-sweep         -i(vds)         
--------------------------------------------------------------------------------
0	0.000000e+00	-0.000000e+00	
1	5.000000e-02	1.385685e-06	
2	1.000000e-01	2.546033e-06	
3	1.500000e-01	3.482472e-06	
4	2.000000e-01	4.197060e-06	
5	2.500000e-01	4.694331e-06	
6	3.000000e-01	4.990171e-06	
7	3.500000e-01	5.137873e-06	
8	4.000000e-01	5.218633e-06	
9	4.500000e-01	5.276439e-06	
10	5.000000e-01	5.323913e-06	
11	5.500000e-01	5.365017e-06	
12	6.000000e-01	5.401520e-06	
13	6.500000e-01	5.434446e-06	
14	7.000000e-01	5.464473e-06	
15	7.500000e-01	5.492090e-06	
16	8.000000e-01	5.517663e-06	
17	8.500000e-01	5.541481e-06	
18	9.000000e-01	5.563772e-06	
19	9.500000e-01	5.584722e-06	
20	1.000000e+00	5.604485e-06	
21	1.050000e+00	5.623189e-06	
22	1.100000e+00	5.640942e-06	
23	1.150000e+00	5.657838e-06	
24	1.200000e+00	5.673955e-06	
25	1.250000e+00	5.689363e-06	
26	1.300000e+00	5.704121e-06	
27	1.350000e+00	5.718283e-06	
28	1.400000e+00	5.731894e-06	
29	1.450000e+00	5.744998e-06	
30	1.500000e+00	5.757629e-06	
31	1.550000e+00	5.769821e-06	
32	1.600000e+00	5.781604e-06	
33	1.650000e+00	5.793005e-06	
34	1.700000e+00	5.804047e-06	
35	1.750000e+00	5.814752e-06	
36	1.800000e+00	5.825142e-06	
37	1.850000e+00	5.835233e-06	
38	1.900000e+00	5.845043e-06	
39	1.950000e+00	5.854587e-06	
40	2.000000e+00	5.863879e-06	
41	2.050000e+00	5.872932e-06	
42	2.100000e+00	5.881759e-06	
43	2.150000e+00	5.890371e-06	
44	2.200000e+00	5.898777e-06	
45	2.250000e+00	5.906988e-06	
46	2.300000e+00	5.915013e-06	
47	2.350000e+00	5.922860e-06	
48	2.400000e+00	5.930537e-06	
49	2.450000e+00	5.938052e-06	
50	2.500000e+00	5.945411e-06	
51	2.550000e+00	5.952621e-06	
52	2.600000e+00	5.959687e-06	
53	2.650000e+00	5.966617e-06	
54	2.700000e+00	5.973415e-06	

Index   v-sweep         -i(vds)         
--------------------------------------------------------------------------------
55	2.750000e+00	5.980087e-06	
56	2.800000e+00	5.986636e-06	
57	2.850000e+00	5.993069e-06	
58	2.900000e+00	5.999388e-06	
59	2.950000e+00	6.005599e-06	
60	3.000000e+00	6.011706e-06	
61	3.050000e+00	6.017711e-06	
62	3.100000e+00	6.023619e-06	
63	3.150000e+00	6.029432e-06	
64	3.200000e+00	6.035155e-06	
65	3.250000e+00	6.040790e-06	
66	3.300000e+00	6.046340e-06	
67	3.350000e+00	6.051808e-06	
68	3.400000e+00	6.057197e-06	
69	3.450000e+00	6.062508e-06	
70	3.500000e+00	6.067745e-06	
71	3.550000e+00	6.072910e-06	
72	3.600000e+00	6.078005e-06	
73	3.650000e+00	6.083033e-06	
74	3.700000e+00	6.087994e-06	
75	3.750000e+00	6.092892e-06	
76	3.800000e+00	6.097727e-06	
77	3.850000e+00	6.102503e-06	
78	3.900000e+00	6.107220e-06	
79	3.950000e+00	6.111881e-06	
80	4.000000e+00	6.116486e-06	
81	4.050000e+00	6.121038e-06	
82	4.100000e+00	6.125538e-06	
83	4.150000e+00	6.129987e-06	
84	4.200000e+00	6.134387e-06	
85	4.250000e+00	6.138739e-06	
86	4.300000e+00	6.143044e-06	
87	4.350000e+00	6.147304e-06	
88	4.400000e+00	6.151520e-06	
89	4.450000e+00	6.155693e-06	
90	4.500000e+00	6.159823e-06	
91	4.550000e+00	6.163913e-06	
92	4.600000e+00	6.167962e-06	
93	4.650000e+00	6.171973e-06	
94	4.700000e+00	6.175946e-06	
95	4.750000e+00	6.179882e-06	
96	4.800000e+00	6.183781e-06	
97	4.850000e+00	6.187646e-06	
98	4.900000e+00	6.191476e-06	
99	4.950000e+00	6.195272e-06	
100	5.000000e+00	6.199036e-06	
101	5.050000e+00	6.202767e-06	
102	5.100000e+00	6.206468e-06	
103	5.150000e+00	6.210137e-06	
104	5.200000e+00	6.213777e-06	
105	5.250000e+00	6.217387e-06	
106	5.300000e+00	6.220969e-06	
107	5.350000e+00	6.224523e-06	
108	5.400000e+00	6.228050e-06	
109	5.450000e+00	6.231550e-06	
110	5.500000e+00	6.235023e-06	
111	5.550000e+00	6.238471e-06	
112	5.600000e+00	6.241894e-06	

Index   v-sweep         -i(vds)         
--------------------------------------------------------------------------------
113	5.650000e+00	6.245293e-06	
114	5.700000e+00	6.248667e-06	
115	5.750000e+00	6.252018e-06	
116	5.800000e+00	6.255345e-06	
117	5.850000e+00	6.258651e-06	
118	5.900000e+00	6.261934e-06	
119	5.950000e+00	6.265195e-06	
120	6.000000e+00	6.268435e-06	
121	6.050000e+00	6.271654e-06	
122	6.100000e+00	6.274853e-06	
123	6.150000e+00	6.278032e-06	
124	6.200000e+00	6.281191e-06	
125	6.250000e+00	6.284331e-06	
126	6.300000e+00	6.287452e-06	
127	6.350000e+00	6.290554e-06	
128	6.400000e+00	6.293638e-06	
129	6.450000e+00	6.296704e-06	
130	6.500000e+00	6.299753e-06	
131	6.550000e+00	6.302785e-06	
132	6.600000e+00	6.305799e-06	
133	0.000000e+00	-0.000000e+00	
134	5.000000e-02	5.767345e-06	
135	1.000000e-01	1.131448e-05	
136	1.500000e-01	1.664271e-05	
137	2.000000e-01	2.175337e-05	
138	2.500000e-01	2.664774e-05	
139	3.000000e-01	3.132711e-05	
140	3.500000e-01	3.579277e-05	
141	4.000000e-01	4.004598e-05	
142	4.500000e-01	4.408801e-05	
143	5.000000e-01	4.792012e-05	
144	5.500000e-01	5.154353e-05	
145	6.000000e-01	5.495950e-05	
146	6.500000e-01	5.816926e-05	
147	7.000000e-01	6.117404e-05	
148	7.500000e-01	6.397506e-05	
149	8.000000e-01	6.657356e-05	
150	8.500000e-01	6.897079e-05	
151	9.000000e-01	7.116803e-05	
152	9.500000e-01	7.316663e-05	
153	1.000000e+00	7.496807e-05	
154	1.050000e+00	7.657413e-05	
155	1.100000e+00	7.798733e-05	
156	1.150000e+00	7.921188e-05	
157	1.200000e+00	8.025605e-05	
158	1.250000e+00	8.113576e-05	
159	1.300000e+00	8.187584e-05	
160	1.350000e+00	8.250483e-05	
161	1.400000e+00	8.304796e-05	
162	1.450000e+00	8.352451e-05	
163	1.500000e+00	8.394854e-05	
164	1.550000e+00	8.433027e-05	
165	1.600000e+00	8.467729e-05	
166	1.650000e+00	8.499535e-05	
167	1.700000e+00	8.528888e-05	
168	1.750000e+00	8.556139e-05	
169	1.800000e+00	8.581568e-05	
170	1.850000e+00	8.605403e-05	

Index   v-sweep         -i(vds)         
--------------------------------------------------------------------------------
171	1.900000e+00	8.627831e-05	
172	1.950000e+00	8.649010e-05	
173	2.000000e+00	8.669070e-05	
174	2.050000e+00	8.688125e-05	
175	2.100000e+00	8.706270e-05	
176	2.150000e+00	8.723588e-05	
177	2.200000e+00	8.740151e-05	
178	2.250000e+00	8.756022e-05	
179	2.300000e+00	8.771257e-05	
180	2.350000e+00	8.785905e-05	
181	2.400000e+00	8.800010e-05	
182	2.450000e+00	8.813609e-05	
183	2.500000e+00	8.826739e-05	
184	2.550000e+00	8.839430e-05	
185	2.600000e+00	8.851712e-05	
186	2.650000e+00	8.863609e-05	
187	2.700000e+00	8.875145e-05	
188	2.750000e+00	8.886342e-05	
189	2.800000e+00	8.897218e-05	
190	2.850000e+00	8.907793e-05	
191	2.900000e+00	8.918081e-05	
192	2.950000e+00	8.928099e-05	
193	3.000000e+00	8.937861e-05	
194	3.050000e+00	8.947379e-05	
195	3.100000e+00	8.956665e-05	
196	3.150000e+00	8.965731e-05	
197	3.200000e+00	8.974586e-05	
198	3.250000e+00	8.983242e-05	
199	3.300000e+00	8.991706e-05	
200	3.350000e+00	8.999988e-05	
201	3.400000e+00	9.008094e-05	
202	3.450000e+00	9.016034e-05	
203	3.500000e+00	9.023813e-05	
204	3.550000e+00	9.031438e-05	
205	3.600000e+00	9.038916e-05	
206	3.650000e+00	9.046252e-05	
207	3.700000e+00	9.053453e-05	
208	3.750000e+00	9.060523e-05	
209	3.800000e+00	9.067467e-05	
210	3.850000e+00	9.074290e-05	
211	3.900000e+00	9.080996e-05	
212	3.950000e+00	9.087591e-05	
213	4.000000e+00	9.094077e-05	
214	4.050000e+00	9.100459e-05	
215	4.100000e+00	9.106740e-05	
216	4.150000e+00	9.112924e-05	
217	4.200000e+00	9.119014e-05	
218	4.250000e+00	9.125013e-05	
219	4.300000e+00	9.130925e-05	
220	4.350000e+00	9.136751e-05	
221	4.400000e+00	9.142496e-05	
222	4.450000e+00	9.148162e-05	
223	4.500000e+00	9.153751e-05	
224	4.550000e+00	9.159265e-05	
225	4.600000e+00	9.164707e-05	
226	4.650000e+00	9.170080e-05	
227	4.700000e+00	9.175385e-05	
228	4.750000e+00	9.180624e-05	

Index   v-sweep         -i(vds)         
--------------------------------------------------------------------------------
229	4.800000e+00	9.185799e-05	
230	4.850000e+00	9.190913e-05	
231	4.900000e+00	9.195967e-05	
232	4.950000e+00	9.200963e-05	
233	5.000000e+00	9.205902e-05	
234	5.050000e+00	9.210786e-05	
235	5.100000e+00	9.215617e-05	
236	5.150000e+00	9.220397e-05	
237	5.200000e+00	9.225125e-05	
238	5.250000e+00	9.229805e-05	
239	5.300000e+00	9.234437e-05	
240	5.350000e+00	9.239023e-05	
241	5.400000e+00	9.243564e-05	
242	5.450000e+00	9.248060e-05	
243	5.500000e+00	9.252515e-05	
244	5.550000e+00	9.256927e-05	
245	5.600000e+00	9.261299e-05	
246	5.650000e+00	9.265631e-05	
247	5.700000e+00	9.269925e-05	
248	5.750000e+00	9.274181e-05	
249	5.800000e+00	9.278401e-05	
250	5.850000e+00	9.282585e-05	
251	5.900000e+00	9.286735e-05	
252	5.950000e+00	9.290850e-05	
253	6.000000e+00	9.294932e-05	
254	6.050000e+00	9.298982e-05	
255	6.100000e+00	9.303001e-05	
256	6.150000e+00	9.306988e-05	
257	6.200000e+00	9.310946e-05	
258	6.250000e+00	9.314874e-05	
259	6.300000e+00	9.318774e-05	
260	6.350000e+00	9.322646e-05	
261	6.400000e+00	9.326490e-05	
262	6.450000e+00	9.330307e-05	
263	6.500000e+00	9.334099e-05	
264	6.550000e+00	9.337864e-05	
265	6.600000e+00	9.341605e-05	
266	0.000000e+00	-0.000000e+00	
267	5.000000e-02	8.951461e-06	
268	1.000000e-01	1.770293e-05	
269	1.500000e-01	2.625559e-05	
270	2.000000e-01	3.461062e-05	
271	2.500000e-01	4.276920e-05	
272	3.000000e-01	5.073247e-05	
273	3.500000e-01	5.850159e-05	
274	4.000000e-01	6.607770e-05	
275	4.500000e-01	7.346193e-05	
276	5.000000e-01	8.065541e-05	
277	5.500000e-01	8.765926e-05	
278	6.000000e-01	9.447456e-05	
279	6.500000e-01	1.011024e-04	
280	7.000000e-01	1.075440e-04	
281	7.500000e-01	1.138002e-04	
282	8.000000e-01	1.198723e-04	
283	8.500000e-01	1.257612e-04	
284	9.000000e-01	1.314680e-04	
285	9.500000e-01	1.369938e-04	
286	1.000000e+00	1.423397e-04	

Index   v-sweep         -i(vds)         
--------------------------------------------------------------------------------
287	1.050000e+00	1.475065e-04	
288	1.100000e+00	1.524954e-04	
289	1.150000e+00	1.573074e-04	
290	1.200000e+00	1.619435e-04	
291	1.250000e+00	1.664046e-04	
292	1.300000e+00	1.706917e-04	
293	1.350000e+00	1.748059e-04	
294	1.400000e+00	1.787480e-04	
295	1.450000e+00	1.825191e-04	
296	1.500000e+00	1.861200e-04	
297	1.550000e+00	1.895515e-04	
298	1.600000e+00	1.928147e-04	
299	1.650000e+00	1.959100e-04	
300	1.700000e+00	1.988383e-04	
301	1.750000e+00	2.015999e-04	
302	1.800000e+00	2.041948e-04	
303	1.850000e+00	2.066224e-04	
304	1.900000e+00	2.088807e-04	
305	1.950000e+00	2.109664e-04	
306	2.000000e+00	2.128741e-04	
307	2.050000e+00	2.145989e-04	
308	2.100000e+00	2.161416e-04	
309	2.150000e+00	2.175127e-04	
310	2.200000e+00	2.187312e-04	
311	2.250000e+00	2.198193e-04	
312	2.300000e+00	2.207977e-04	
313	2.350000e+00	2.216845e-04	
314	2.400000e+00	2.224941e-04	
315	2.450000e+00	2.232382e-04	
316	2.500000e+00	2.239262e-04	
317	2.550000e+00	2.245659e-04	
318	2.600000e+00	2.251635e-04	
319	2.650000e+00	2.257240e-04	
320	2.700000e+00	2.262517e-04	
321	2.750000e+00	2.267503e-04	
322	2.800000e+00	2.272227e-04	
323	2.850000e+00	2.276716e-04	
324	2.900000e+00	2.280991e-04	
325	2.950000e+00	2.285072e-04	
326	3.000000e+00	2.288976e-04	
327	3.050000e+00	2.292717e-04	
328	3.100000e+00	2.296309e-04	
329	3.150000e+00	2.299763e-04	
330	3.200000e+00	2.303088e-04	
331	3.250000e+00	2.306295e-04	
332	3.300000e+00	2.309391e-04	
333	3.350000e+00	2.312384e-04	
334	3.400000e+00	2.315280e-04	
335	3.450000e+00	2.318086e-04	
336	3.500000e+00	2.320807e-04	
337	3.550000e+00	2.323448e-04	
338	3.600000e+00	2.326013e-04	
339	3.650000e+00	2.328507e-04	
340	3.700000e+00	2.330934e-04	
341	3.750000e+00	2.333296e-04	
342	3.800000e+00	2.335599e-04	
343	3.850000e+00	2.337844e-04	
344	3.900000e+00	2.340034e-04	

Index   v-sweep         -i(vds)         
--------------------------------------------------------------------------------
345	3.950000e+00	2.342172e-04	
346	4.000000e+00	2.344261e-04	
347	4.050000e+00	2.346303e-04	
348	4.100000e+00	2.348299e-04	
349	4.150000e+00	2.350252e-04	
350	4.200000e+00	2.352165e-04	
351	4.250000e+00	2.354037e-04	
352	4.300000e+00	2.355872e-04	
353	4.350000e+00	2.357671e-04	
354	4.400000e+00	2.359435e-04	
355	4.450000e+00	2.361165e-04	
356	4.500000e+00	2.362864e-04	
357	4.550000e+00	2.364532e-04	
358	4.600000e+00	2.366170e-04	
359	4.650000e+00	2.367779e-04	
360	4.700000e+00	2.369362e-04	
361	4.750000e+00	2.370917e-04	
362	4.800000e+00	2.372448e-04	
363	4.850000e+00	2.373953e-04	
364	4.900000e+00	2.375435e-04	
365	4.950000e+00	2.376894e-04	
366	5.000000e+00	2.378332e-04	
367	5.050000e+00	2.379747e-04	
368	5.100000e+00	2.381142e-04	
369	5.150000e+00	2.382518e-04	
370	5.200000e+00	2.383874e-04	
371	5.250000e+00	2.385211e-04	
372	5.300000e+00	2.386530e-04	
373	5.350000e+00	2.387832e-04	
374	5.400000e+00	2.389117e-04	
375	5.450000e+00	2.390386e-04	
376	5.500000e+00	2.391638e-04	
377	5.550000e+00	2.392876e-04	
378	5.600000e+00	2.394098e-04	
379	5.650000e+00	2.395306e-04	
380	5.700000e+00	2.396500e-04	
381	5.750000e+00	2.397680e-04	
382	5.800000e+00	2.398847e-04	
383	5.850000e+00	2.400002e-04	
384	5.900000e+00	2.401144e-04	
385	5.950000e+00	2.402273e-04	
386	6.000000e+00	2.403391e-04	
387	6.050000e+00	2.404498e-04	
388	6.100000e+00	2.405593e-04	
389	6.150000e+00	2.406678e-04	
390	6.200000e+00	2.407752e-04	
391	6.250000e+00	2.408815e-04	
392	6.300000e+00	2.409869e-04	
393	6.350000e+00	2.410913e-04	
394	6.400000e+00	2.411948e-04	
395	6.450000e+00	2.412974e-04	
396	6.500000e+00	2.413990e-04	
397	6.550000e+00	2.414998e-04	
398	6.600000e+00	2.415997e-04	
399	0.000000e+00	-0.000000e+00	
400	5.000000e-02	1.131299e-05	
401	1.000000e-01	2.244610e-05	
402	1.500000e-01	3.340032e-05	

Index   v-sweep         -i(vds)         
--------------------------------------------------------------------------------
403	2.000000e-01	4.417664e-05	
404	2.500000e-01	5.477605e-05	
405	3.000000e-01	6.519951e-05	
406	3.500000e-01	7.544802e-05	
407	4.000000e-01	8.552252e-05	
408	4.500000e-01	9.542397e-05	
409	5.000000e-01	1.051533e-04	
410	5.500000e-01	1.147115e-04	
411	6.000000e-01	1.240995e-04	
412	6.500000e-01	1.333181e-04	
413	7.000000e-01	1.423684e-04	
414	7.500000e-01	1.512513e-04	
415	8.000000e-01	1.599676e-04	
416	8.500000e-01	1.685182e-04	
417	9.000000e-01	1.769041e-04	
418	9.500000e-01	1.851261e-04	
419	1.000000e+00	1.931851e-04	
420	1.050000e+00	2.010820e-04	
421	1.100000e+00	2.088176e-04	
422	1.150000e+00	2.163929e-04	
423	1.200000e+00	2.238087e-04	
424	1.250000e+00	2.310657e-04	
425	1.300000e+00	2.381650e-04	
426	1.350000e+00	2.451072e-04	
427	1.400000e+00	2.518933e-04	
428	1.450000e+00	2.585241e-04	
429	1.500000e+00	2.650003e-04	
430	1.550000e+00	2.713228e-04	
431	1.600000e+00	2.774924e-04	
432	1.650000e+00	2.835099e-04	
433	1.700000e+00	2.893761e-04	
434	1.750000e+00	2.950917e-04	
435	1.800000e+00	3.006576e-04	
436	1.850000e+00	3.060745e-04	
437	1.900000e+00	3.113432e-04	
438	1.950000e+00	3.164643e-04	
439	2.000000e+00	3.214387e-04	
440	2.050000e+00	3.262671e-04	
441	2.100000e+00	3.309501e-04	
442	2.150000e+00	3.354883e-04	
443	2.200000e+00	3.398825e-04	
444	2.250000e+00	3.441332e-04	
445	2.300000e+00	3.482408e-04	
446	2.350000e+00	3.522058e-04	
447	2.400000e+00	3.560282e-04	
448	2.450000e+00	3.597079e-04	
449	2.500000e+00	3.632443e-04	
450	2.550000e+00	3.666359e-04	
451	2.600000e+00	3.698799e-04	
452	2.650000e+00	3.729714e-04	
453	2.700000e+00	3.759022e-04	
454	2.750000e+00	3.786602e-04	
455	2.800000e+00	3.812305e-04	
456	2.850000e+00	3.835996e-04	
457	2.900000e+00	3.857618e-04	
458	2.950000e+00	3.877232e-04	
459	3.000000e+00	3.895000e-04	
460	3.050000e+00	3.911129e-04	

Index   v-sweep         -i(vds)         
--------------------------------------------------------------------------------
461	3.100000e+00	3.925833e-04	
462	3.150000e+00	3.939308e-04	
463	3.200000e+00	3.951724e-04	
464	3.250000e+00	3.963223e-04	
465	3.300000e+00	3.973923e-04	
466	3.350000e+00	3.983925e-04	
467	3.400000e+00	3.993310e-04	
468	3.450000e+00	4.002148e-04	
469	3.500000e+00	4.010499e-04	
470	3.550000e+00	4.018412e-04	
471	3.600000e+00	4.025931e-04	
472	3.650000e+00	4.033092e-04	
473	3.700000e+00	4.039927e-04	
474	3.750000e+00	4.046465e-04	
475	3.800000e+00	4.052731e-04	
476	3.850000e+00	4.058745e-04	
477	3.900000e+00	4.064527e-04	
478	3.950000e+00	4.070094e-04	
479	4.000000e+00	4.075463e-04	
480	4.050000e+00	4.080645e-04	
481	4.100000e+00	4.085654e-04	
482	4.150000e+00	4.090501e-04	
483	4.200000e+00	4.095196e-04	
484	4.250000e+00	4.099749e-04	
485	4.300000e+00	4.104167e-04	
486	4.350000e+00	4.108458e-04	
487	4.400000e+00	4.112630e-04	
488	4.450000e+00	4.116689e-04	
489	4.500000e+00	4.120641e-04	
490	4.550000e+00	4.124491e-04	
491	4.600000e+00	4.128246e-04	
492	4.650000e+00	4.131908e-04	
493	4.700000e+00	4.135483e-04	
494	4.750000e+00	4.138976e-04	
495	4.800000e+00	4.142389e-04	
496	4.850000e+00	4.145726e-04	
497	4.900000e+00	4.148991e-04	
498	4.950000e+00	4.152188e-04	
499	5.000000e+00	4.155318e-04	
500	5.050000e+00	4.158384e-04	
501	5.100000e+00	4.161390e-04	
502	5.150000e+00	4.164338e-04	
503	5.200000e+00	4.167230e-04	
504	5.250000e+00	4.170069e-04	
505	5.300000e+00	4.172855e-04	
506	5.350000e+00	4.175593e-04	
507	5.400000e+00	4.178282e-04	
508	5.450000e+00	4.180926e-04	
509	5.500000e+00	4.183525e-04	
510	5.550000e+00	4.186082e-04	
511	5.600000e+00	4.188597e-04	
512	5.650000e+00	4.191073e-04	
513	5.700000e+00	4.193511e-04	
514	5.750000e+00	4.195912e-04	
515	5.800000e+00	4.198277e-04	
516	5.850000e+00	4.200607e-04	
517	5.900000e+00	4.202905e-04	
518	5.950000e+00	4.205170e-04	

Index   v-sweep         -i(vds)         
--------------------------------------------------------------------------------
519	6.000000e+00	4.207404e-04	
520	6.050000e+00	4.209608e-04	
521	6.100000e+00	4.211783e-04	
522	6.150000e+00	4.213930e-04	
523	6.200000e+00	4.216049e-04	
524	6.250000e+00	4.218142e-04	
525	6.300000e+00	4.220209e-04	
526	6.350000e+00	4.222251e-04	
527	6.400000e+00	4.224270e-04	
528	6.450000e+00	4.226264e-04	
529	6.500000e+00	4.228237e-04	
530	6.550000e+00	4.230187e-04	
531	6.600000e+00	4.232116e-04	
532	0.000000e+00	-0.000000e+00	
533	5.000000e-02	1.307591e-05	
534	1.000000e-01	2.599096e-05	
535	1.500000e-01	3.874595e-05	
536	2.000000e-01	5.134171e-05	
537	2.500000e-01	6.377905e-05	
538	3.000000e-01	7.605877e-05	
539	3.500000e-01	8.818167e-05	
540	4.000000e-01	1.001485e-04	
541	4.500000e-01	1.119602e-04	
542	5.000000e-01	1.236174e-04	
543	5.500000e-01	1.351209e-04	
544	6.000000e-01	1.464715e-04	
545	6.500000e-01	1.576699e-04	
546	7.000000e-01	1.687170e-04	
547	7.500000e-01	1.796135e-04	
548	8.000000e-01	1.903601e-04	
549	8.500000e-01	2.009576e-04	
550	9.000000e-01	2.114067e-04	
551	9.500000e-01	2.217082e-04	
552	1.000000e+00	2.318628e-04	
553	1.050000e+00	2.418712e-04	
554	1.100000e+00	2.517342e-04	
555	1.150000e+00	2.614524e-04	
556	1.200000e+00	2.710266e-04	
557	1.250000e+00	2.804574e-04	
558	1.300000e+00	2.897457e-04	
559	1.350000e+00	2.988920e-04	
560	1.400000e+00	3.078972e-04	
561	1.450000e+00	3.167618e-04	
562	1.500000e+00	3.254865e-04	
563	1.550000e+00	3.340721e-04	
564	1.600000e+00	3.425192e-04	
565	1.650000e+00	3.508285e-04	
566	1.700000e+00	3.590006e-04	
567	1.750000e+00	3.670363e-04	
568	1.800000e+00	3.749361e-04	
569	1.850000e+00	3.827007e-04	
570	1.900000e+00	3.903308e-04	
571	1.950000e+00	3.978271e-04	
572	2.000000e+00	4.051901e-04	
573	2.050000e+00	4.124204e-04	
574	2.100000e+00	4.195188e-04	
575	2.150000e+00	4.264859e-04	
576	2.200000e+00	4.333222e-04	

Index   v-sweep         -i(vds)         
--------------------------------------------------------------------------------
577	2.250000e+00	4.400284e-04	
578	2.300000e+00	4.466051e-04	
579	2.350000e+00	4.530528e-04	
580	2.400000e+00	4.593723e-04	
581	2.450000e+00	4.655640e-04	
582	2.500000e+00	4.716286e-04	
583	2.550000e+00	4.775667e-04	
584	2.600000e+00	4.833787e-04	
585	2.650000e+00	4.890653e-04	
586	2.700000e+00	4.946269e-04	
587	2.750000e+00	5.000641e-04	
588	2.800000e+00	5.053774e-04	
589	2.850000e+00	5.105673e-04	
590	2.900000e+00	5.156340e-04	
591	2.950000e+00	5.205781e-04	
592	3.000000e+00	5.253997e-04	
593	3.050000e+00	5.300989e-04	
594	3.100000e+00	5.346757e-04	
595	3.150000e+00	5.391297e-04	
596	3.200000e+00	5.434603e-04	
597	3.250000e+00	5.476658e-04	
598	3.300000e+00	5.517439e-04	
599	3.350000e+00	5.556903e-04	
600	3.400000e+00	5.594986e-04	
601	3.450000e+00	5.631585e-04	
602	3.500000e+00	5.666556e-04	
603	3.550000e+00	5.699709e-04	
604	3.600000e+00	5.730845e-04	
605	3.650000e+00	5.759805e-04	
606	3.700000e+00	5.786527e-04	
607	3.750000e+00	5.811070e-04	
608	3.800000e+00	5.833581e-04	
609	3.850000e+00	5.854257e-04	
610	3.900000e+00	5.873304e-04	
611	3.950000e+00	5.890917e-04	
612	4.000000e+00	5.907271e-04	
613	4.050000e+00	5.922519e-04	
614	4.100000e+00	5.936790e-04	
615	4.150000e+00	5.950195e-04	
616	4.200000e+00	5.962830e-04	
617	4.250000e+00	5.974774e-04	
618	4.300000e+00	5.986098e-04	
619	4.350000e+00	5.996860e-04	
620	4.400000e+00	6.007114e-04	
621	4.450000e+00	6.016904e-04	
622	4.500000e+00	6.026270e-04	
623	4.550000e+00	6.035247e-04	
624	4.600000e+00	6.043865e-04	
625	4.650000e+00	6.052151e-04	
626	4.700000e+00	6.060131e-04	
627	4.750000e+00	6.067825e-04	
628	4.800000e+00	6.075254e-04	
629	4.850000e+00	6.082435e-04	
630	4.900000e+00	6.089383e-04	
631	4.950000e+00	6.096114e-04	
632	5.000000e+00	6.102641e-04	
633	5.050000e+00	6.108975e-04	
634	5.100000e+00	6.115128e-04	

Index   v-sweep         -i(vds)         
--------------------------------------------------------------------------------
635	5.150000e+00	6.121110e-04	
636	5.200000e+00	6.126930e-04	
637	5.250000e+00	6.132596e-04	
638	5.300000e+00	6.138117e-04	
639	5.350000e+00	6.143500e-04	
640	5.400000e+00	6.148752e-04	
641	5.450000e+00	6.153879e-04	
642	5.500000e+00	6.158886e-04	
643	5.550000e+00	6.163780e-04	
644	5.600000e+00	6.168566e-04	
645	5.650000e+00	6.173248e-04	
646	5.700000e+00	6.177831e-04	
647	5.750000e+00	6.182319e-04	
648	5.800000e+00	6.186717e-04	
649	5.850000e+00	6.191027e-04	
650	5.900000e+00	6.195254e-04	
651	5.950000e+00	6.199401e-04	
652	6.000000e+00	6.203471e-04	
653	6.050000e+00	6.207467e-04	
654	6.100000e+00	6.211392e-04	
655	6.150000e+00	6.215248e-04	
656	6.200000e+00	6.219039e-04	
657	6.250000e+00	6.222766e-04	
658	6.300000e+00	6.226432e-04	
659	6.350000e+00	6.230039e-04	
660	6.400000e+00	6.233590e-04	
661	6.450000e+00	6.237085e-04	
662	6.500000e+00	6.240528e-04	
663	6.550000e+00	6.243919e-04	
664	6.600000e+00	6.247262e-04	
665	0.000000e+00	-0.000000e+00	
666	5.000000e-02	1.439280e-05	
667	1.000000e-01	2.864224e-05	
668	1.500000e-01	4.274899e-05	
669	2.000000e-01	5.671371e-05	
670	2.500000e-01	7.053706e-05	
671	3.000000e-01	8.421970e-05	
672	3.500000e-01	9.776228e-05	
673	4.000000e-01	1.111655e-04	
674	4.500000e-01	1.244299e-04	
675	5.000000e-01	1.375562e-04	
676	5.500000e-01	1.505450e-04	
677	6.000000e-01	1.633969e-04	
678	6.500000e-01	1.761127e-04	
679	7.000000e-01	1.886928e-04	
680	7.500000e-01	2.011380e-04	
681	8.000000e-01	2.134488e-04	
682	8.500000e-01	2.256258e-04	
683	9.000000e-01	2.376698e-04	
684	9.500000e-01	2.495812e-04	
685	1.000000e+00	2.613607e-04	
686	1.050000e+00	2.730088e-04	
687	1.100000e+00	2.845263e-04	
688	1.150000e+00	2.959136e-04	
689	1.200000e+00	3.071713e-04	
690	1.250000e+00	3.183001e-04	
691	1.300000e+00	3.293005e-04	
692	1.350000e+00	3.401731e-04	

Index   v-sweep         -i(vds)         
--------------------------------------------------------------------------------
693	1.400000e+00	3.509185e-04	
694	1.450000e+00	3.615372e-04	
695	1.500000e+00	3.720298e-04	
696	1.550000e+00	3.823969e-04	
697	1.600000e+00	3.926390e-04	
698	1.650000e+00	4.027567e-04	
699	1.700000e+00	4.127506e-04	
700	1.750000e+00	4.226211e-04	
701	1.800000e+00	4.323689e-04	
702	1.850000e+00	4.419945e-04	
703	1.900000e+00	4.514984e-04	
704	1.950000e+00	4.608812e-04	
705	2.000000e+00	4.701433e-04	
706	2.050000e+00	4.792854e-04	
707	2.100000e+00	4.883080e-04	
708	2.150000e+00	4.972115e-04	
709	2.200000e+00	5.059965e-04	
710	2.250000e+00	5.146636e-04	
711	2.300000e+00	5.232131e-04	
712	2.350000e+00	5.316458e-04	
713	2.400000e+00	5.399619e-04	
714	2.450000e+00	5.481622e-04	
715	2.500000e+00	5.562469e-04	
716	2.550000e+00	5.642168e-04	
717	2.600000e+00	5.720722e-04	
718	2.650000e+00	5.798136e-04	
719	2.700000e+00	5.874416e-04	
720	2.750000e+00	5.949566e-04	
721	2.800000e+00	6.023590e-04	
722	2.850000e+00	6.096495e-04	
723	2.900000e+00	6.168284e-04	
724	2.950000e+00	6.238962e-04	
725	3.000000e+00	6.308534e-04	
726	3.050000e+00	6.377004e-04	
727	3.100000e+00	6.444377e-04	
728	3.150000e+00	6.510658e-04	
729	3.200000e+00	6.575850e-04	
730	3.250000e+00	6.639958e-04	
731	3.300000e+00	6.702987e-04	
732	3.350000e+00	6.764940e-04	
733	3.400000e+00	6.825821e-04	
734	3.450000e+00	6.885634e-04	
735	3.500000e+00	6.944383e-04	
736	3.550000e+00	7.002070e-04	
737	3.600000e+00	7.058699e-04	
738	3.650000e+00	7.114272e-04	
739	3.700000e+00	7.168790e-04	
740	3.750000e+00	7.222254e-04	
741	3.800000e+00	7.274663e-04	
742	3.850000e+00	7.326014e-04	
743	3.900000e+00	7.376301e-04	
744	3.950000e+00	7.425515e-04	
745	4.000000e+00	7.473638e-04	
746	4.050000e+00	7.520645e-04	
747	4.100000e+00	7.566495e-04	
748	4.150000e+00	7.611126e-04	
749	4.200000e+00	7.654448e-04	
750	4.250000e+00	7.696327e-04	

Index   v-sweep         -i(vds)         
--------------------------------------------------------------------------------
751	4.300000e+00	7.736587e-04	
752	4.350000e+00	7.775012e-04	
753	4.400000e+00	7.811380e-04	
754	4.450000e+00	7.845514e-04	
755	4.500000e+00	7.877328e-04	
756	4.550000e+00	7.906843e-04	
757	4.600000e+00	7.934173e-04	
758	4.650000e+00	7.959490e-04	
759	4.700000e+00	7.982983e-04	
760	4.750000e+00	8.004844e-04	
761	4.800000e+00	8.025250e-04	
762	4.850000e+00	8.044362e-04	
763	4.900000e+00	8.062320e-04	
764	4.950000e+00	8.079244e-04	
765	5.000000e+00	8.095242e-04	
766	5.050000e+00	8.110404e-04	
767	5.100000e+00	8.124811e-04	
768	5.150000e+00	8.138533e-04	
769	5.200000e+00	8.151629e-04	
770	5.250000e+00	8.164153e-04	
771	5.300000e+00	8.176152e-04	
772	5.350000e+00	8.187668e-04	
773	5.400000e+00	8.198737e-04	
774	5.450000e+00	8.209393e-04	
775	5.500000e+00	8.219665e-04	
776	5.550000e+00	8.229579e-04	
777	5.600000e+00	8.239159e-04	
778	5.650000e+00	8.248427e-04	
779	5.700000e+00	8.257402e-04	
780	5.750000e+00	8.266103e-04	
781	5.800000e+00	8.274545e-04	
782	5.850000e+00	8.282744e-04	
783	5.900000e+00	8.290712e-04	
784	5.950000e+00	8.298464e-04	
785	6.000000e+00	8.306009e-04	
786	6.050000e+00	8.313359e-04	
787	6.100000e+00	8.320524e-04	
788	6.150000e+00	8.327513e-04	
789	6.200000e+00	8.334335e-04	
790	6.250000e+00	8.340996e-04	
791	6.300000e+00	8.347506e-04	
792	6.350000e+00	8.353870e-04	
793	6.400000e+00	8.360096e-04	
794	6.450000e+00	8.366189e-04	
795	6.500000e+00	8.372155e-04	
796	6.550000e+00	8.378000e-04	
797	6.600000e+00	8.383728e-04	
Note: No ".plot", ".print", or ".fourier" lines; no simulations run
