
Note: Compatibility modes selected: hs

Warning: m=xx on .subckt line will override multiplier m hierarchy!


Circuit: ***************************

Doing analysis at TEMP = -40.000000 and TNOM = -40.000000


No. of Data Rows : 798
                          ***************************
                          DC transfer characteristic  Mon Jan  9 13:58:05  2023
--------------------------------------------------------------------------------
Index   v-sweep         -i(vds)         
--------------------------------------------------------------------------------
0	0.000000e+00	-0.000000e+00	
1	5.000000e-02	8.812152e-06	
2	1.000000e-01	1.567180e-05	
3	1.500000e-01	2.060983e-05	
4	2.000000e-01	2.371036e-05	
5	2.500000e-01	2.532307e-05	
6	3.000000e-01	2.619855e-05	
7	3.500000e-01	2.682041e-05	
8	4.000000e-01	2.732426e-05	
9	4.500000e-01	2.775378e-05	
10	5.000000e-01	2.813012e-05	
11	5.500000e-01	2.846596e-05	
12	6.000000e-01	2.876979e-05	
13	6.500000e-01	2.904760e-05	
14	7.000000e-01	2.930384e-05	
15	7.500000e-01	2.954189e-05	
16	8.000000e-01	2.976440e-05	
17	8.500000e-01	2.997346e-05	
18	9.000000e-01	3.017078e-05	
19	9.500000e-01	3.035776e-05	
20	1.000000e+00	3.053556e-05	
21	1.050000e+00	3.070516e-05	
22	1.100000e+00	3.086739e-05	
23	1.150000e+00	3.102296e-05	
24	1.200000e+00	3.117247e-05	
25	1.250000e+00	3.131647e-05	
26	1.300000e+00	3.145542e-05	
27	1.350000e+00	3.158972e-05	
28	1.400000e+00	3.171974e-05	
29	1.450000e+00	3.184580e-05	
30	1.500000e+00	3.196818e-05	
31	1.550000e+00	3.208715e-05	
32	1.600000e+00	3.220292e-05	
33	1.650000e+00	3.231572e-05	
34	1.700000e+00	3.242572e-05	
35	1.750000e+00	3.253311e-05	
36	1.800000e+00	3.263803e-05	
37	1.850000e+00	3.274064e-05	
38	1.900000e+00	3.284105e-05	
39	1.950000e+00	3.293940e-05	
40	2.000000e+00	3.303579e-05	
41	2.050000e+00	3.313032e-05	
42	2.100000e+00	3.322309e-05	
43	2.150000e+00	3.331420e-05	
44	2.200000e+00	3.340371e-05	
45	2.250000e+00	3.349170e-05	
46	2.300000e+00	3.357826e-05	
47	2.350000e+00	3.366343e-05	
48	2.400000e+00	3.374729e-05	
49	2.450000e+00	3.382990e-05	
50	2.500000e+00	3.391130e-05	
51	2.550000e+00	3.399155e-05	
52	2.600000e+00	3.407070e-05	
53	2.650000e+00	3.414879e-05	
54	2.700000e+00	3.422586e-05	

Index   v-sweep         -i(vds)         
--------------------------------------------------------------------------------
55	2.750000e+00	3.430196e-05	
56	2.800000e+00	3.437712e-05	
57	2.850000e+00	3.445139e-05	
58	2.900000e+00	3.452479e-05	
59	2.950000e+00	3.459735e-05	
60	3.000000e+00	3.466912e-05	
61	3.050000e+00	3.474011e-05	
62	3.100000e+00	3.481036e-05	
63	3.150000e+00	3.487989e-05	
64	3.200000e+00	3.494872e-05	
65	3.250000e+00	3.501689e-05	
66	3.300000e+00	3.508441e-05	
67	3.350000e+00	3.515131e-05	
68	3.400000e+00	3.521761e-05	
69	3.450000e+00	3.528332e-05	
70	3.500000e+00	3.534848e-05	
71	3.550000e+00	3.541308e-05	
72	3.600000e+00	3.547716e-05	
73	3.650000e+00	3.554073e-05	
74	3.700000e+00	3.560381e-05	
75	3.750000e+00	3.566640e-05	
76	3.800000e+00	3.572854e-05	
77	3.850000e+00	3.579022e-05	
78	3.900000e+00	3.585147e-05	
79	3.950000e+00	3.591229e-05	
80	4.000000e+00	3.597271e-05	
81	4.050000e+00	3.603273e-05	
82	4.100000e+00	3.609236e-05	
83	4.150000e+00	3.615162e-05	
84	4.200000e+00	3.621051e-05	
85	4.250000e+00	3.626906e-05	
86	4.300000e+00	3.632725e-05	
87	4.350000e+00	3.638512e-05	
88	4.400000e+00	3.644266e-05	
89	4.450000e+00	3.649989e-05	
90	4.500000e+00	3.655681e-05	
91	4.550000e+00	3.661343e-05	
92	4.600000e+00	3.666976e-05	
93	4.650000e+00	3.672581e-05	
94	4.700000e+00	3.678159e-05	
95	4.750000e+00	3.683710e-05	
96	4.800000e+00	3.689235e-05	
97	4.850000e+00	3.694735e-05	
98	4.900000e+00	3.700210e-05	
99	4.950000e+00	3.705661e-05	
100	5.000000e+00	3.711089e-05	
101	5.050000e+00	3.716494e-05	
102	5.100000e+00	3.721877e-05	
103	5.150000e+00	3.727238e-05	
104	5.200000e+00	3.732578e-05	
105	5.250000e+00	3.737898e-05	
106	5.300000e+00	3.743197e-05	
107	5.350000e+00	3.748478e-05	
108	5.400000e+00	3.753739e-05	
109	5.450000e+00	3.758981e-05	
110	5.500000e+00	3.764206e-05	
111	5.550000e+00	3.769412e-05	
112	5.600000e+00	3.774602e-05	

Index   v-sweep         -i(vds)         
--------------------------------------------------------------------------------
113	5.650000e+00	3.779774e-05	
114	5.700000e+00	3.784931e-05	
115	5.750000e+00	3.790071e-05	
116	5.800000e+00	3.795195e-05	
117	5.850000e+00	3.800305e-05	
118	5.900000e+00	3.805399e-05	
119	5.950000e+00	3.810479e-05	
120	6.000000e+00	3.815544e-05	
121	6.050000e+00	3.820595e-05	
122	6.100000e+00	3.825633e-05	
123	6.150000e+00	3.830658e-05	
124	6.200000e+00	3.835670e-05	
125	6.250000e+00	3.840669e-05	
126	6.300000e+00	3.845655e-05	
127	6.350000e+00	3.850630e-05	
128	6.400000e+00	3.855592e-05	
129	6.450000e+00	3.860543e-05	
130	6.500000e+00	3.865483e-05	
131	6.550000e+00	3.870411e-05	
132	6.600000e+00	3.875329e-05	
133	0.000000e+00	-0.000000e+00	
134	5.000000e-02	4.532642e-05	
135	1.000000e-01	8.864160e-05	
136	1.500000e-01	1.299698e-04	
137	2.000000e-01	1.693350e-04	
138	2.500000e-01	2.067607e-04	
139	3.000000e-01	2.422699e-04	
140	3.500000e-01	2.758855e-04	
141	4.000000e-01	3.076297e-04	
142	4.500000e-01	3.375247e-04	
143	5.000000e-01	3.655919e-04	
144	5.500000e-01	3.918523e-04	
145	6.000000e-01	4.163265e-04	
146	6.500000e-01	4.390337e-04	
147	7.000000e-01	4.599916e-04	
148	7.500000e-01	4.792140e-04	
149	8.000000e-01	4.967066e-04	
150	8.500000e-01	5.124553e-04	
151	9.000000e-01	5.264066e-04	
152	9.500000e-01	5.384647e-04	
153	1.000000e+00	5.485961e-04	
154	1.050000e+00	5.569829e-04	
155	1.100000e+00	5.639666e-04	
156	1.150000e+00	5.698823e-04	
157	1.200000e+00	5.749885e-04	
158	1.250000e+00	5.794709e-04	
159	1.300000e+00	5.834618e-04	
160	1.350000e+00	5.870570e-04	
161	1.400000e+00	5.903277e-04	
162	1.450000e+00	5.933278e-04	
163	1.500000e+00	5.960990e-04	
164	1.550000e+00	5.986740e-04	
165	1.600000e+00	6.010792e-04	
166	1.650000e+00	6.033359e-04	
167	1.700000e+00	6.054619e-04	
168	1.750000e+00	6.074717e-04	
169	1.800000e+00	6.093778e-04	
170	1.850000e+00	6.111905e-04	

Index   v-sweep         -i(vds)         
--------------------------------------------------------------------------------
171	1.900000e+00	6.129188e-04	
172	1.950000e+00	6.145706e-04	
173	2.000000e+00	6.161525e-04	
174	2.050000e+00	6.176704e-04	
175	2.100000e+00	6.191294e-04	
176	2.150000e+00	6.205343e-04	
177	2.200000e+00	6.218889e-04	
178	2.250000e+00	6.231970e-04	
179	2.300000e+00	6.244617e-04	
180	2.350000e+00	6.256861e-04	
181	2.400000e+00	6.268726e-04	
182	2.450000e+00	6.280238e-04	
183	2.500000e+00	6.291418e-04	
184	2.550000e+00	6.302286e-04	
185	2.600000e+00	6.312859e-04	
186	2.650000e+00	6.323155e-04	
187	2.700000e+00	6.333189e-04	
188	2.750000e+00	6.342974e-04	
189	2.800000e+00	6.352523e-04	
190	2.850000e+00	6.361850e-04	
191	2.900000e+00	6.370964e-04	
192	2.950000e+00	6.379877e-04	
193	3.000000e+00	6.388597e-04	
194	3.050000e+00	6.397134e-04	
195	3.100000e+00	6.405497e-04	
196	3.150000e+00	6.413693e-04	
197	3.200000e+00	6.421729e-04	
198	3.250000e+00	6.429613e-04	
199	3.300000e+00	6.437350e-04	
200	3.350000e+00	6.444948e-04	
201	3.400000e+00	6.452412e-04	
202	3.450000e+00	6.459747e-04	
203	3.500000e+00	6.466959e-04	
204	3.550000e+00	6.474053e-04	
205	3.600000e+00	6.481032e-04	
206	3.650000e+00	6.487902e-04	
207	3.700000e+00	6.494667e-04	
208	3.750000e+00	6.501330e-04	
209	3.800000e+00	6.507896e-04	
210	3.850000e+00	6.514367e-04	
211	3.900000e+00	6.520749e-04	
212	3.950000e+00	6.527042e-04	
213	4.000000e+00	6.533252e-04	
214	4.050000e+00	6.539380e-04	
215	4.100000e+00	6.545429e-04	
216	4.150000e+00	6.551403e-04	
217	4.200000e+00	6.557304e-04	
218	4.250000e+00	6.563134e-04	
219	4.300000e+00	6.568895e-04	
220	4.350000e+00	6.574590e-04	
221	4.400000e+00	6.580221e-04	
222	4.450000e+00	6.585791e-04	
223	4.500000e+00	6.591300e-04	
224	4.550000e+00	6.596752e-04	
225	4.600000e+00	6.602147e-04	
226	4.650000e+00	6.607488e-04	
227	4.700000e+00	6.612776e-04	
228	4.750000e+00	6.618013e-04	

Index   v-sweep         -i(vds)         
--------------------------------------------------------------------------------
229	4.800000e+00	6.623201e-04	
230	4.850000e+00	6.628340e-04	
231	4.900000e+00	6.633433e-04	
232	4.950000e+00	6.638481e-04	
233	5.000000e+00	6.643485e-04	
234	5.050000e+00	6.648446e-04	
235	5.100000e+00	6.653366e-04	
236	5.150000e+00	6.658246e-04	
237	5.200000e+00	6.663087e-04	
238	5.250000e+00	6.667890e-04	
239	5.300000e+00	6.672656e-04	
240	5.350000e+00	6.677387e-04	
241	5.400000e+00	6.682083e-04	
242	5.450000e+00	6.686745e-04	
243	5.500000e+00	6.691374e-04	
244	5.550000e+00	6.695971e-04	
245	5.600000e+00	6.700537e-04	
246	5.650000e+00	6.705073e-04	
247	5.700000e+00	6.709579e-04	
248	5.750000e+00	6.714057e-04	
249	5.800000e+00	6.718507e-04	
250	5.850000e+00	6.722930e-04	
251	5.900000e+00	6.727326e-04	
252	5.950000e+00	6.731696e-04	
253	6.000000e+00	6.736042e-04	
254	6.050000e+00	6.740363e-04	
255	6.100000e+00	6.744660e-04	
256	6.150000e+00	6.748934e-04	
257	6.200000e+00	6.753185e-04	
258	6.250000e+00	6.757414e-04	
259	6.300000e+00	6.761622e-04	
260	6.350000e+00	6.765808e-04	
261	6.400000e+00	6.769974e-04	
262	6.450000e+00	6.774121e-04	
263	6.500000e+00	6.778247e-04	
264	6.550000e+00	6.782355e-04	
265	6.600000e+00	6.786444e-04	
266	0.000000e+00	-0.000000e+00	
267	5.000000e-02	7.163157e-05	
268	1.000000e-01	1.413030e-04	
269	1.500000e-01	2.090383e-04	
270	2.000000e-01	2.748615e-04	
271	2.500000e-01	3.387959e-04	
272	3.000000e-01	4.008644e-04	
273	3.500000e-01	4.610898e-04	
274	4.000000e-01	5.194943e-04	
275	4.500000e-01	5.760998e-04	
276	5.000000e-01	6.309277e-04	
277	5.500000e-01	6.839993e-04	
278	6.000000e-01	7.353353e-04	
279	6.500000e-01	7.849562e-04	
280	7.000000e-01	8.328818e-04	
281	7.500000e-01	8.791319e-04	
282	8.000000e-01	9.237256e-04	
283	8.500000e-01	9.666815e-04	
284	9.000000e-01	1.008018e-03	
285	9.500000e-01	1.047752e-03	
286	1.000000e+00	1.085900e-03	

Index   v-sweep         -i(vds)         
--------------------------------------------------------------------------------
287	1.050000e+00	1.122477e-03	
288	1.100000e+00	1.157495e-03	
289	1.150000e+00	1.190962e-03	
290	1.200000e+00	1.222878e-03	
291	1.250000e+00	1.253228e-03	
292	1.300000e+00	1.281965e-03	
293	1.350000e+00	1.308985e-03	
294	1.400000e+00	1.334078e-03	
295	1.450000e+00	1.356903e-03	
296	1.500000e+00	1.377104e-03	
297	1.550000e+00	1.394556e-03	
298	1.600000e+00	1.409481e-03	
299	1.650000e+00	1.422289e-03	
300	1.700000e+00	1.433400e-03	
301	1.750000e+00	1.443163e-03	
302	1.800000e+00	1.451847e-03	
303	1.850000e+00	1.459656e-03	
304	1.900000e+00	1.466744e-03	
305	1.950000e+00	1.473230e-03	
306	2.000000e+00	1.479207e-03	
307	2.050000e+00	1.484749e-03	
308	2.100000e+00	1.489914e-03	
309	2.150000e+00	1.494750e-03	
310	2.200000e+00	1.499297e-03	
311	2.250000e+00	1.503587e-03	
312	2.300000e+00	1.507649e-03	
313	2.350000e+00	1.511505e-03	
314	2.400000e+00	1.515175e-03	
315	2.450000e+00	1.518678e-03	
316	2.500000e+00	1.522027e-03	
317	2.550000e+00	1.525235e-03	
318	2.600000e+00	1.528315e-03	
319	2.650000e+00	1.531277e-03	
320	2.700000e+00	1.534129e-03	
321	2.750000e+00	1.536879e-03	
322	2.800000e+00	1.539534e-03	
323	2.850000e+00	1.542102e-03	
324	2.900000e+00	1.544587e-03	
325	2.950000e+00	1.546996e-03	
326	3.000000e+00	1.549332e-03	
327	3.050000e+00	1.551600e-03	
328	3.100000e+00	1.553804e-03	
329	3.150000e+00	1.555949e-03	
330	3.200000e+00	1.558036e-03	
331	3.250000e+00	1.560069e-03	
332	3.300000e+00	1.562052e-03	
333	3.350000e+00	1.563986e-03	
334	3.400000e+00	1.565874e-03	
335	3.450000e+00	1.567718e-03	
336	3.500000e+00	1.569521e-03	
337	3.550000e+00	1.571284e-03	
338	3.600000e+00	1.573010e-03	
339	3.650000e+00	1.574699e-03	
340	3.700000e+00	1.576354e-03	
341	3.750000e+00	1.577976e-03	
342	3.800000e+00	1.579567e-03	
343	3.850000e+00	1.581128e-03	
344	3.900000e+00	1.582659e-03	

Index   v-sweep         -i(vds)         
--------------------------------------------------------------------------------
345	3.950000e+00	1.584163e-03	
346	4.000000e+00	1.585641e-03	
347	4.050000e+00	1.587093e-03	
348	4.100000e+00	1.588520e-03	
349	4.150000e+00	1.589924e-03	
350	4.200000e+00	1.591306e-03	
351	4.250000e+00	1.592665e-03	
352	4.300000e+00	1.594004e-03	
353	4.350000e+00	1.595323e-03	
354	4.400000e+00	1.596622e-03	
355	4.450000e+00	1.597902e-03	
356	4.500000e+00	1.599165e-03	
357	4.550000e+00	1.600410e-03	
358	4.600000e+00	1.601638e-03	
359	4.650000e+00	1.602850e-03	
360	4.700000e+00	1.604046e-03	
361	4.750000e+00	1.605228e-03	
362	4.800000e+00	1.606395e-03	
363	4.850000e+00	1.607547e-03	
364	4.900000e+00	1.608687e-03	
365	4.950000e+00	1.609812e-03	
366	5.000000e+00	1.610926e-03	
367	5.050000e+00	1.612027e-03	
368	5.100000e+00	1.613116e-03	
369	5.150000e+00	1.614193e-03	
370	5.200000e+00	1.615260e-03	
371	5.250000e+00	1.616315e-03	
372	5.300000e+00	1.617360e-03	
373	5.350000e+00	1.618395e-03	
374	5.400000e+00	1.619420e-03	
375	5.450000e+00	1.620436e-03	
376	5.500000e+00	1.621442e-03	
377	5.550000e+00	1.622440e-03	
378	5.600000e+00	1.623428e-03	
379	5.650000e+00	1.624408e-03	
380	5.700000e+00	1.625381e-03	
381	5.750000e+00	1.626345e-03	
382	5.800000e+00	1.627301e-03	
383	5.850000e+00	1.628250e-03	
384	5.900000e+00	1.629192e-03	
385	5.950000e+00	1.630127e-03	
386	6.000000e+00	1.631054e-03	
387	6.050000e+00	1.631976e-03	
388	6.100000e+00	1.632890e-03	
389	6.150000e+00	1.633799e-03	
390	6.200000e+00	1.634701e-03	
391	6.250000e+00	1.635597e-03	
392	6.300000e+00	1.636488e-03	
393	6.350000e+00	1.637373e-03	
394	6.400000e+00	1.638252e-03	
395	6.450000e+00	1.639126e-03	
396	6.500000e+00	1.639995e-03	
397	6.550000e+00	1.640859e-03	
398	6.600000e+00	1.641718e-03	
399	0.000000e+00	-0.000000e+00	
400	5.000000e-02	9.117541e-05	
401	1.000000e-01	1.804861e-04	
402	1.500000e-01	2.679540e-04	

Index   v-sweep         -i(vds)         
--------------------------------------------------------------------------------
403	2.000000e-01	3.536004e-04	
404	2.500000e-01	4.374464e-04	
405	3.000000e-01	5.195130e-04	
406	3.500000e-01	5.998204e-04	
407	4.000000e-01	6.783890e-04	
408	4.500000e-01	7.552385e-04	
409	5.000000e-01	8.303884e-04	
410	5.500000e-01	9.038580e-04	
411	6.000000e-01	9.756662e-04	
412	6.500000e-01	1.045832e-03	
413	7.000000e-01	1.114372e-03	
414	7.500000e-01	1.181307e-03	
415	8.000000e-01	1.246652e-03	
416	8.500000e-01	1.310427e-03	
417	9.000000e-01	1.372647e-03	
418	9.500000e-01	1.433329e-03	
419	1.000000e+00	1.492491e-03	
420	1.050000e+00	1.550148e-03	
421	1.100000e+00	1.606316e-03	
422	1.150000e+00	1.661011e-03	
423	1.200000e+00	1.714247e-03	
424	1.250000e+00	1.766040e-03	
425	1.300000e+00	1.816401e-03	
426	1.350000e+00	1.865346e-03	
427	1.400000e+00	1.912884e-03	
428	1.450000e+00	1.959025e-03	
429	1.500000e+00	2.003776e-03	
430	1.550000e+00	2.047137e-03	
431	1.600000e+00	2.089101e-03	
432	1.650000e+00	2.129644e-03	
433	1.700000e+00	2.168714e-03	
434	1.750000e+00	2.206207e-03	
435	1.800000e+00	2.241927e-03	
436	1.850000e+00	2.275539e-03	
437	1.900000e+00	2.306566e-03	
438	1.950000e+00	2.334527e-03	
439	2.000000e+00	2.359190e-03	
440	2.050000e+00	2.380695e-03	
441	2.100000e+00	2.399437e-03	
442	2.150000e+00	2.415877e-03	
443	2.200000e+00	2.430433e-03	
444	2.250000e+00	2.443450e-03	
445	2.300000e+00	2.455198e-03	
446	2.350000e+00	2.465892e-03	
447	2.400000e+00	2.475698e-03	
448	2.450000e+00	2.484747e-03	
449	2.500000e+00	2.493147e-03	
450	2.550000e+00	2.500983e-03	
451	2.600000e+00	2.508324e-03	
452	2.650000e+00	2.515230e-03	
453	2.700000e+00	2.521749e-03	
454	2.750000e+00	2.527922e-03	
455	2.800000e+00	2.533783e-03	
456	2.850000e+00	2.539363e-03	
457	2.900000e+00	2.544688e-03	
458	2.950000e+00	2.549780e-03	
459	3.000000e+00	2.554659e-03	
460	3.050000e+00	2.559342e-03	

Index   v-sweep         -i(vds)         
--------------------------------------------------------------------------------
461	3.100000e+00	2.563844e-03	
462	3.150000e+00	2.568180e-03	
463	3.200000e+00	2.572360e-03	
464	3.250000e+00	2.576396e-03	
465	3.300000e+00	2.580298e-03	
466	3.350000e+00	2.584074e-03	
467	3.400000e+00	2.587732e-03	
468	3.450000e+00	2.591280e-03	
469	3.500000e+00	2.594725e-03	
470	3.550000e+00	2.598072e-03	
471	3.600000e+00	2.601326e-03	
472	3.650000e+00	2.604494e-03	
473	3.700000e+00	2.607579e-03	
474	3.750000e+00	2.610587e-03	
475	3.800000e+00	2.613520e-03	
476	3.850000e+00	2.616383e-03	
477	3.900000e+00	2.619179e-03	
478	3.950000e+00	2.621911e-03	
479	4.000000e+00	2.624583e-03	
480	4.050000e+00	2.627197e-03	
481	4.100000e+00	2.629756e-03	
482	4.150000e+00	2.632263e-03	
483	4.200000e+00	2.634718e-03	
484	4.250000e+00	2.637126e-03	
485	4.300000e+00	2.639488e-03	
486	4.350000e+00	2.641805e-03	
487	4.400000e+00	2.644080e-03	
488	4.450000e+00	2.646314e-03	
489	4.500000e+00	2.648510e-03	
490	4.550000e+00	2.650668e-03	
491	4.600000e+00	2.652790e-03	
492	4.650000e+00	2.654877e-03	
493	4.700000e+00	2.656931e-03	
494	4.750000e+00	2.658953e-03	
495	4.800000e+00	2.660944e-03	
496	4.850000e+00	2.662906e-03	
497	4.900000e+00	2.664839e-03	
498	4.950000e+00	2.666745e-03	
499	5.000000e+00	2.668624e-03	
500	5.050000e+00	2.670477e-03	
501	5.100000e+00	2.672306e-03	
502	5.150000e+00	2.674110e-03	
503	5.200000e+00	2.675892e-03	
504	5.250000e+00	2.677652e-03	
505	5.300000e+00	2.679390e-03	
506	5.350000e+00	2.681108e-03	
507	5.400000e+00	2.682805e-03	
508	5.450000e+00	2.684483e-03	
509	5.500000e+00	2.686142e-03	
510	5.550000e+00	2.687783e-03	
511	5.600000e+00	2.689407e-03	
512	5.650000e+00	2.691014e-03	
513	5.700000e+00	2.692604e-03	
514	5.750000e+00	2.694179e-03	
515	5.800000e+00	2.695738e-03	
516	5.850000e+00	2.697282e-03	
517	5.900000e+00	2.698811e-03	
518	5.950000e+00	2.700327e-03	

Index   v-sweep         -i(vds)         
--------------------------------------------------------------------------------
519	6.000000e+00	2.701829e-03	
520	6.050000e+00	2.703318e-03	
521	6.100000e+00	2.704794e-03	
522	6.150000e+00	2.706258e-03	
523	6.200000e+00	2.707710e-03	
524	6.250000e+00	2.709150e-03	
525	6.300000e+00	2.710579e-03	
526	6.350000e+00	2.711997e-03	
527	6.400000e+00	2.713405e-03	
528	6.450000e+00	2.714802e-03	
529	6.500000e+00	2.716189e-03	
530	6.550000e+00	2.717566e-03	
531	6.600000e+00	2.718934e-03	
532	0.000000e+00	-0.000000e+00	
533	5.000000e-02	1.055974e-04	
534	1.000000e-01	2.094572e-04	
535	1.500000e-01	3.115982e-04	
536	2.000000e-01	4.120387e-04	
537	2.500000e-01	5.107971e-04	
538	3.000000e-01	6.078913e-04	
539	3.500000e-01	7.033390e-04	
540	4.000000e-01	7.971577e-04	
541	4.500000e-01	8.893645e-04	
542	5.000000e-01	9.799765e-04	
543	5.500000e-01	1.069010e-03	
544	6.000000e-01	1.156482e-03	
545	6.500000e-01	1.242409e-03	
546	7.000000e-01	1.326806e-03	
547	7.500000e-01	1.409690e-03	
548	8.000000e-01	1.491075e-03	
549	8.500000e-01	1.570977e-03	
550	9.000000e-01	1.649412e-03	
551	9.500000e-01	1.726393e-03	
552	1.000000e+00	1.801937e-03	
553	1.050000e+00	1.876056e-03	
554	1.100000e+00	1.948766e-03	
555	1.150000e+00	2.020079e-03	
556	1.200000e+00	2.090011e-03	
557	1.250000e+00	2.158574e-03	
558	1.300000e+00	2.225782e-03	
559	1.350000e+00	2.291648e-03	
560	1.400000e+00	2.356184e-03	
561	1.450000e+00	2.419402e-03	
562	1.500000e+00	2.481316e-03	
563	1.550000e+00	2.541936e-03	
564	1.600000e+00	2.601274e-03	
565	1.650000e+00	2.659341e-03	
566	1.700000e+00	2.716146e-03	
567	1.750000e+00	2.771697e-03	
568	1.800000e+00	2.826003e-03	
569	1.850000e+00	2.879067e-03	
570	1.900000e+00	2.930891e-03	
571	1.950000e+00	2.981469e-03	
572	2.000000e+00	3.030788e-03	
573	2.050000e+00	3.078817e-03	
574	2.100000e+00	3.125499e-03	
575	2.150000e+00	3.170726e-03	
576	2.200000e+00	3.214315e-03	

Index   v-sweep         -i(vds)         
--------------------------------------------------------------------------------
577	2.250000e+00	3.255954e-03	
578	2.300000e+00	3.295186e-03	
579	2.350000e+00	3.331453e-03	
580	2.400000e+00	3.364293e-03	
581	2.450000e+00	3.393546e-03	
582	2.500000e+00	3.419397e-03	
583	2.550000e+00	3.442244e-03	
584	2.600000e+00	3.462541e-03	
585	2.650000e+00	3.480707e-03	
586	2.700000e+00	3.497097e-03	
587	2.750000e+00	3.511999e-03	
588	2.800000e+00	3.525644e-03	
589	2.850000e+00	3.538220e-03	
590	2.900000e+00	3.549875e-03	
591	2.950000e+00	3.560731e-03	
592	3.000000e+00	3.570890e-03	
593	3.050000e+00	3.580433e-03	
594	3.100000e+00	3.589430e-03	
595	3.150000e+00	3.597940e-03	
596	3.200000e+00	3.606013e-03	
597	3.250000e+00	3.613690e-03	
598	3.300000e+00	3.621010e-03	
599	3.350000e+00	3.628003e-03	
600	3.400000e+00	3.634698e-03	
601	3.450000e+00	3.641119e-03	
602	3.500000e+00	3.647287e-03	
603	3.550000e+00	3.653223e-03	
604	3.600000e+00	3.658942e-03	
605	3.650000e+00	3.664461e-03	
606	3.700000e+00	3.669793e-03	
607	3.750000e+00	3.674950e-03	
608	3.800000e+00	3.679944e-03	
609	3.850000e+00	3.684784e-03	
610	3.900000e+00	3.689481e-03	
611	3.950000e+00	3.694042e-03	
612	4.000000e+00	3.698476e-03	
613	4.050000e+00	3.702788e-03	
614	4.100000e+00	3.706987e-03	
615	4.150000e+00	3.711078e-03	
616	4.200000e+00	3.715066e-03	
617	4.250000e+00	3.718958e-03	
618	4.300000e+00	3.722756e-03	
619	4.350000e+00	3.726467e-03	
620	4.400000e+00	3.730094e-03	
621	4.450000e+00	3.733642e-03	
622	4.500000e+00	3.737113e-03	
623	4.550000e+00	3.740512e-03	
624	4.600000e+00	3.743841e-03	
625	4.650000e+00	3.747104e-03	
626	4.700000e+00	3.750303e-03	
627	4.750000e+00	3.753441e-03	
628	4.800000e+00	3.756521e-03	
629	4.850000e+00	3.759545e-03	
630	4.900000e+00	3.762515e-03	
631	4.950000e+00	3.765434e-03	
632	5.000000e+00	3.768303e-03	
633	5.050000e+00	3.771125e-03	
634	5.100000e+00	3.773901e-03	

Index   v-sweep         -i(vds)         
--------------------------------------------------------------------------------
635	5.150000e+00	3.776633e-03	
636	5.200000e+00	3.779322e-03	
637	5.250000e+00	3.781971e-03	
638	5.300000e+00	3.784581e-03	
639	5.350000e+00	3.787153e-03	
640	5.400000e+00	3.789688e-03	
641	5.450000e+00	3.792189e-03	
642	5.500000e+00	3.794655e-03	
643	5.550000e+00	3.797089e-03	
644	5.600000e+00	3.799491e-03	
645	5.650000e+00	3.801863e-03	
646	5.700000e+00	3.804206e-03	
647	5.750000e+00	3.806520e-03	
648	5.800000e+00	3.808807e-03	
649	5.850000e+00	3.811067e-03	
650	5.900000e+00	3.813302e-03	
651	5.950000e+00	3.815511e-03	
652	6.000000e+00	3.817697e-03	
653	6.050000e+00	3.819860e-03	
654	6.100000e+00	3.822001e-03	
655	6.150000e+00	3.824120e-03	
656	6.200000e+00	3.826217e-03	
657	6.250000e+00	3.828295e-03	
658	6.300000e+00	3.830353e-03	
659	6.350000e+00	3.832391e-03	
660	6.400000e+00	3.834412e-03	
661	6.450000e+00	3.836414e-03	
662	6.500000e+00	3.838399e-03	
663	6.550000e+00	3.840367e-03	
664	6.600000e+00	3.842319e-03	
665	0.000000e+00	-0.000000e+00	
666	5.000000e-02	1.160803e-04	
667	1.000000e-01	2.305651e-04	
668	1.500000e-01	3.434699e-04	
669	2.000000e-01	4.548104e-04	
670	2.500000e-01	5.646020e-04	
671	3.000000e-01	6.728598e-04	
672	3.500000e-01	7.795986e-04	
673	4.000000e-01	8.848334e-04	
674	4.500000e-01	9.885787e-04	
675	5.000000e-01	1.090849e-03	
676	5.500000e-01	1.191658e-03	
677	6.000000e-01	1.291020e-03	
678	6.500000e-01	1.388949e-03	
679	7.000000e-01	1.485458e-03	
680	7.500000e-01	1.580562e-03	
681	8.000000e-01	1.674272e-03	
682	8.500000e-01	1.766603e-03	
683	9.000000e-01	1.857567e-03	
684	9.500000e-01	1.947177e-03	
685	1.000000e+00	2.035446e-03	
686	1.050000e+00	2.122385e-03	
687	1.100000e+00	2.208007e-03	
688	1.150000e+00	2.292325e-03	
689	1.200000e+00	2.375350e-03	
690	1.250000e+00	2.457094e-03	
691	1.300000e+00	2.537568e-03	
692	1.350000e+00	2.616784e-03	

Index   v-sweep         -i(vds)         
--------------------------------------------------------------------------------
693	1.400000e+00	2.694754e-03	
694	1.450000e+00	2.771487e-03	
695	1.500000e+00	2.846995e-03	
696	1.550000e+00	2.921290e-03	
697	1.600000e+00	2.994380e-03	
698	1.650000e+00	3.066278e-03	
699	1.700000e+00	3.136992e-03	
700	1.750000e+00	3.206533e-03	
701	1.800000e+00	3.274911e-03	
702	1.850000e+00	3.342134e-03	
703	1.900000e+00	3.408213e-03	
704	1.950000e+00	3.473156e-03	
705	2.000000e+00	3.536971e-03	
706	2.050000e+00	3.599666e-03	
707	2.100000e+00	3.661247e-03	
708	2.150000e+00	3.721720e-03	
709	2.200000e+00	3.781090e-03	
710	2.250000e+00	3.839357e-03	
711	2.300000e+00	3.896519e-03	
712	2.350000e+00	3.952570e-03	
713	2.400000e+00	4.007491e-03	
714	2.450000e+00	4.061254e-03	
715	2.500000e+00	4.113803e-03	
716	2.550000e+00	4.165045e-03	
717	2.600000e+00	4.214826e-03	
718	2.650000e+00	4.262890e-03	
719	2.700000e+00	4.308851e-03	
720	2.750000e+00	4.352193e-03	
721	2.800000e+00	4.392362e-03	
722	2.850000e+00	4.428951e-03	
723	2.900000e+00	4.461856e-03	
724	2.950000e+00	4.491273e-03	
725	3.000000e+00	4.517574e-03	
726	3.050000e+00	4.541186e-03	
727	3.100000e+00	4.562511e-03	
728	3.150000e+00	4.581898e-03	
729	3.200000e+00	4.599638e-03	
730	3.250000e+00	4.615969e-03	
731	3.300000e+00	4.631088e-03	
732	3.350000e+00	4.645154e-03	
733	3.400000e+00	4.658301e-03	
734	3.450000e+00	4.670637e-03	
735	3.500000e+00	4.682255e-03	
736	3.550000e+00	4.693233e-03	
737	3.600000e+00	4.703636e-03	
738	3.650000e+00	4.713522e-03	
739	3.700000e+00	4.722938e-03	
740	3.750000e+00	4.731928e-03	
741	3.800000e+00	4.740528e-03	
742	3.850000e+00	4.748770e-03	
743	3.900000e+00	4.756683e-03	
744	3.950000e+00	4.764292e-03	
745	4.000000e+00	4.771620e-03	
746	4.050000e+00	4.778687e-03	
747	4.100000e+00	4.785511e-03	
748	4.150000e+00	4.792108e-03	
749	4.200000e+00	4.798492e-03	
750	4.250000e+00	4.804679e-03	

Index   v-sweep         -i(vds)         
--------------------------------------------------------------------------------
751	4.300000e+00	4.810678e-03	
752	4.350000e+00	4.816502e-03	
753	4.400000e+00	4.822160e-03	
754	4.450000e+00	4.827663e-03	
755	4.500000e+00	4.833017e-03	
756	4.550000e+00	4.838232e-03	
757	4.600000e+00	4.843315e-03	
758	4.650000e+00	4.848272e-03	
759	4.700000e+00	4.853110e-03	
760	4.750000e+00	4.857834e-03	
761	4.800000e+00	4.862451e-03	
762	4.850000e+00	4.866964e-03	
763	4.900000e+00	4.871379e-03	
764	4.950000e+00	4.875700e-03	
765	5.000000e+00	4.879932e-03	
766	5.050000e+00	4.884078e-03	
767	5.100000e+00	4.888143e-03	
768	5.150000e+00	4.892128e-03	
769	5.200000e+00	4.896039e-03	
770	5.250000e+00	4.899878e-03	
771	5.300000e+00	4.903647e-03	
772	5.350000e+00	4.907350e-03	
773	5.400000e+00	4.910990e-03	
774	5.450000e+00	4.914568e-03	
775	5.500000e+00	4.918088e-03	
776	5.550000e+00	4.921551e-03	
777	5.600000e+00	4.924959e-03	
778	5.650000e+00	4.928316e-03	
779	5.700000e+00	4.931621e-03	
780	5.750000e+00	4.934879e-03	
781	5.800000e+00	4.938089e-03	
782	5.850000e+00	4.941255e-03	
783	5.900000e+00	4.944377e-03	
784	5.950000e+00	4.947457e-03	
785	6.000000e+00	4.950497e-03	
786	6.050000e+00	4.953498e-03	
787	6.100000e+00	4.956461e-03	
788	6.150000e+00	4.959387e-03	
789	6.200000e+00	4.962279e-03	
790	6.250000e+00	4.965137e-03	
791	6.300000e+00	4.967961e-03	
792	6.350000e+00	4.970755e-03	
793	6.400000e+00	4.973517e-03	
794	6.450000e+00	4.976250e-03	
795	6.500000e+00	4.978954e-03	
796	6.550000e+00	4.981631e-03	
797	6.600000e+00	4.984281e-03	
Note: No ".plot", ".print", or ".fourier" lines; no simulations run
