
Note: Compatibility modes selected: hs

Warning: m=xx on .subckt line will override multiplier m hierarchy!


Circuit: ***************************

Doing analysis at TEMP = 125.000000 and TNOM = 125.000000


No. of Data Rows : 402
                          ***************************
                          DC transfer characteristic  Mon Jan  9 13:57:29  2023
--------------------------------------------------------------------------------
Index   v-sweep         i(vds)          
--------------------------------------------------------------------------------
0	-0.000000e+00	0.000000e+00	
1	-5.00000e-02	1.212096e-07	
2	-1.00000e-01	1.725853e-07	
3	-1.50000e-01	1.896841e-07	
4	-2.00000e-01	1.938352e-07	
5	-2.50000e-01	1.949473e-07	
6	-3.00000e-01	1.953496e-07	
7	-3.50000e-01	1.955401e-07	
8	-4.00000e-01	1.956508e-07	
9	-4.50000e-01	1.957251e-07	
10	-5.00000e-01	1.957804e-07	
11	-5.50000e-01	1.958245e-07	
12	-6.00000e-01	1.958615e-07	
13	-6.50000e-01	1.958938e-07	
14	-7.00000e-01	1.959226e-07	
15	-7.50000e-01	1.959489e-07	
16	-8.00000e-01	1.959733e-07	
17	-8.50000e-01	1.959962e-07	
18	-9.00000e-01	1.960178e-07	
19	-9.50000e-01	1.960384e-07	
20	-1.00000e+00	1.960581e-07	
21	-1.05000e+00	1.960771e-07	
22	-1.10000e+00	1.960955e-07	
23	-1.15000e+00	1.961133e-07	
24	-1.20000e+00	1.961306e-07	
25	-1.25000e+00	1.961475e-07	
26	-1.30000e+00	1.961640e-07	
27	-1.35000e+00	1.961801e-07	
28	-1.40000e+00	1.961959e-07	
29	-1.45000e+00	1.962114e-07	
30	-1.50000e+00	1.962266e-07	
31	-1.55000e+00	1.962416e-07	
32	-1.60000e+00	1.962563e-07	
33	-1.65000e+00	1.962709e-07	
34	-1.70000e+00	1.962852e-07	
35	-1.75000e+00	1.962993e-07	
36	-1.80000e+00	1.963133e-07	
37	-1.85000e+00	1.963271e-07	
38	-1.90000e+00	1.963407e-07	
39	-1.95000e+00	1.963542e-07	
40	-2.00000e+00	1.963675e-07	
41	-2.05000e+00	1.963807e-07	
42	-2.10000e+00	1.963938e-07	
43	-2.15000e+00	1.964068e-07	
44	-2.20000e+00	1.964197e-07	
45	-2.25000e+00	1.964324e-07	
46	-2.30000e+00	1.964451e-07	
47	-2.35000e+00	1.964577e-07	
48	-2.40000e+00	1.964703e-07	
49	-2.45000e+00	1.964828e-07	
50	-2.50000e+00	1.964954e-07	
51	-2.55000e+00	1.965080e-07	
52	-2.60000e+00	1.965206e-07	
53	-2.65000e+00	1.965334e-07	
54	-2.70000e+00	1.965463e-07	

Index   v-sweep         i(vds)          
--------------------------------------------------------------------------------
55	-2.75000e+00	1.965596e-07	
56	-2.80000e+00	1.965732e-07	
57	-2.85000e+00	1.965874e-07	
58	-2.90000e+00	1.966022e-07	
59	-2.95000e+00	1.966179e-07	
60	-3.00000e+00	1.966347e-07	
61	-3.05000e+00	1.966528e-07	
62	-3.10000e+00	1.966727e-07	
63	-3.15000e+00	1.966946e-07	
64	-3.20000e+00	1.967189e-07	
65	-3.25000e+00	1.967463e-07	
66	-3.30000e+00	1.967773e-07	
67	-0.000000e+00	0.000000e+00	
68	-5.00000e-02	4.303787e-07	
69	-1.00000e-01	7.799055e-07	
70	-1.50000e-01	1.076134e-06	
71	-2.00000e-01	1.325593e-06	
72	-2.50000e-01	1.530018e-06	
73	-3.00000e-01	1.690274e-06	
74	-3.50000e-01	1.807654e-06	
75	-4.00000e-01	1.885137e-06	
76	-4.50000e-01	1.929326e-06	
77	-5.00000e-01	1.951005e-06	
78	-5.50000e-01	1.960946e-06	
79	-6.00000e-01	1.965730e-06	
80	-6.50000e-01	1.968299e-06	
81	-7.00000e-01	1.969849e-06	
82	-7.50000e-01	1.970882e-06	
83	-8.00000e-01	1.971631e-06	
84	-8.50000e-01	1.972209e-06	
85	-9.00000e-01	1.972678e-06	
86	-9.50000e-01	1.973073e-06	
87	-1.00000e+00	1.973415e-06	
88	-1.05000e+00	1.973719e-06	
89	-1.10000e+00	1.973994e-06	
90	-1.15000e+00	1.974246e-06	
91	-1.20000e+00	1.974479e-06	
92	-1.25000e+00	1.974697e-06	
93	-1.30000e+00	1.974901e-06	
94	-1.35000e+00	1.975095e-06	
95	-1.40000e+00	1.975280e-06	
96	-1.45000e+00	1.975457e-06	
97	-1.50000e+00	1.975626e-06	
98	-1.55000e+00	1.975789e-06	
99	-1.60000e+00	1.975946e-06	
100	-1.65000e+00	1.976097e-06	
101	-1.70000e+00	1.976244e-06	
102	-1.75000e+00	1.976387e-06	
103	-1.80000e+00	1.976526e-06	
104	-1.85000e+00	1.976661e-06	
105	-1.90000e+00	1.976793e-06	
106	-1.95000e+00	1.976922e-06	
107	-2.00000e+00	1.977047e-06	
108	-2.05000e+00	1.977170e-06	
109	-2.10000e+00	1.977291e-06	
110	-2.15000e+00	1.977409e-06	
111	-2.20000e+00	1.977524e-06	
112	-2.25000e+00	1.977638e-06	

Index   v-sweep         i(vds)          
--------------------------------------------------------------------------------
113	-2.30000e+00	1.977749e-06	
114	-2.35000e+00	1.977859e-06	
115	-2.40000e+00	1.977967e-06	
116	-2.45000e+00	1.978073e-06	
117	-2.50000e+00	1.978178e-06	
118	-2.55000e+00	1.978282e-06	
119	-2.60000e+00	1.978384e-06	
120	-2.65000e+00	1.978485e-06	
121	-2.70000e+00	1.978585e-06	
122	-2.75000e+00	1.978684e-06	
123	-2.80000e+00	1.978784e-06	
124	-2.85000e+00	1.978883e-06	
125	-2.90000e+00	1.978984e-06	
126	-2.95000e+00	1.979086e-06	
127	-3.00000e+00	1.979190e-06	
128	-3.05000e+00	1.979297e-06	
129	-3.10000e+00	1.979410e-06	
130	-3.15000e+00	1.979529e-06	
131	-3.20000e+00	1.979656e-06	
132	-3.25000e+00	1.979794e-06	
133	-3.30000e+00	1.979946e-06	
134	-0.000000e+00	0.000000e+00	
135	-5.00000e-02	7.220690e-07	
136	-1.00000e-01	1.364760e-06	
137	-1.50000e-01	1.955574e-06	
138	-2.00000e-01	2.500934e-06	
139	-2.50000e-01	3.002362e-06	
140	-3.00000e-01	3.460243e-06	
141	-3.50000e-01	3.874707e-06	
142	-4.00000e-01	4.245840e-06	
143	-4.50000e-01	4.573748e-06	
144	-5.00000e-01	4.858590e-06	
145	-5.50000e-01	5.100635e-06	
146	-6.00000e-01	5.300367e-06	
147	-6.50000e-01	5.458711e-06	
148	-7.00000e-01	5.577485e-06	
149	-7.50000e-01	5.660193e-06	
150	-8.00000e-01	5.712862e-06	
151	-8.50000e-01	5.743753e-06	
152	-9.00000e-01	5.761140e-06	
153	-9.50000e-01	5.771077e-06	
154	-1.00000e+00	5.777088e-06	
155	-1.05000e+00	5.780996e-06	
156	-1.10000e+00	5.783726e-06	
157	-1.15000e+00	5.785757e-06	
158	-1.20000e+00	5.787349e-06	
159	-1.25000e+00	5.788651e-06	
160	-1.30000e+00	5.789752e-06	
161	-1.35000e+00	5.790709e-06	
162	-1.40000e+00	5.791557e-06	
163	-1.45000e+00	5.792322e-06	
164	-1.50000e+00	5.793020e-06	
165	-1.55000e+00	5.793665e-06	
166	-1.60000e+00	5.794266e-06	
167	-1.65000e+00	5.794830e-06	
168	-1.70000e+00	5.795362e-06	
169	-1.75000e+00	5.795867e-06	
170	-1.80000e+00	5.796348e-06	

Index   v-sweep         i(vds)          
--------------------------------------------------------------------------------
171	-1.85000e+00	5.796808e-06	
172	-1.90000e+00	5.797249e-06	
173	-1.95000e+00	5.797673e-06	
174	-2.00000e+00	5.798082e-06	
175	-2.05000e+00	5.798477e-06	
176	-2.10000e+00	5.798859e-06	
177	-2.15000e+00	5.799230e-06	
178	-2.20000e+00	5.799590e-06	
179	-2.25000e+00	5.799940e-06	
180	-2.30000e+00	5.800280e-06	
181	-2.35000e+00	5.800612e-06	
182	-2.40000e+00	5.800936e-06	
183	-2.45000e+00	5.801253e-06	
184	-2.50000e+00	5.801562e-06	
185	-2.55000e+00	5.801865e-06	
186	-2.60000e+00	5.802161e-06	
187	-2.65000e+00	5.802452e-06	
188	-2.70000e+00	5.802737e-06	
189	-2.75000e+00	5.803016e-06	
190	-2.80000e+00	5.803291e-06	
191	-2.85000e+00	5.803561e-06	
192	-2.90000e+00	5.803827e-06	
193	-2.95000e+00	5.804090e-06	
194	-3.00000e+00	5.804349e-06	
195	-3.05000e+00	5.804606e-06	
196	-3.10000e+00	5.804861e-06	
197	-3.15000e+00	5.805116e-06	
198	-3.20000e+00	5.805371e-06	
199	-3.25000e+00	5.805629e-06	
200	-3.30000e+00	5.805891e-06	
201	-0.000000e+00	0.000000e+00	
202	-5.00000e-02	9.844119e-07	
203	-1.00000e-01	1.892046e-06	
204	-1.50000e-01	2.750396e-06	
205	-2.00000e-01	3.565876e-06	
206	-2.50000e-01	4.339994e-06	
207	-3.00000e-01	5.073114e-06	
208	-3.50000e-01	5.765338e-06	
209	-4.00000e-01	6.416705e-06	
210	-4.50000e-01	7.027244e-06	
211	-5.00000e-01	7.596981e-06	
212	-5.50000e-01	8.125949e-06	
213	-6.00000e-01	8.614185e-06	
214	-6.50000e-01	9.061738e-06	
215	-7.00000e-01	9.468671e-06	
216	-7.50000e-01	9.835074e-06	
217	-8.00000e-01	1.016108e-05	
218	-8.50000e-01	1.044688e-05	
219	-9.00000e-01	1.069281e-05	
220	-9.50000e-01	1.089941e-05	
221	-1.00000e+00	1.106763e-05	
222	-1.05000e+00	1.119910e-05	
223	-1.10000e+00	1.129669e-05	
224	-1.15000e+00	1.136488e-05	
225	-1.20000e+00	1.140982e-05	
226	-1.25000e+00	1.143828e-05	
227	-1.30000e+00	1.145616e-05	
228	-1.35000e+00	1.146768e-05	

Index   v-sweep         i(vds)          
--------------------------------------------------------------------------------
229	-1.40000e+00	1.147544e-05	
230	-1.45000e+00	1.148095e-05	
231	-1.50000e+00	1.148508e-05	
232	-1.55000e+00	1.148831e-05	
233	-1.60000e+00	1.149095e-05	
234	-1.65000e+00	1.149317e-05	
235	-1.70000e+00	1.149508e-05	
236	-1.75000e+00	1.149677e-05	
237	-1.80000e+00	1.149829e-05	
238	-1.85000e+00	1.149967e-05	
239	-1.90000e+00	1.150094e-05	
240	-1.95000e+00	1.150212e-05	
241	-2.00000e+00	1.150322e-05	
242	-2.05000e+00	1.150426e-05	
243	-2.10000e+00	1.150524e-05	
244	-2.15000e+00	1.150617e-05	
245	-2.20000e+00	1.150706e-05	
246	-2.25000e+00	1.150791e-05	
247	-2.30000e+00	1.150873e-05	
248	-2.35000e+00	1.150951e-05	
249	-2.40000e+00	1.151027e-05	
250	-2.45000e+00	1.151100e-05	
251	-2.50000e+00	1.151171e-05	
252	-2.55000e+00	1.151239e-05	
253	-2.60000e+00	1.151306e-05	
254	-2.65000e+00	1.151370e-05	
255	-2.70000e+00	1.151433e-05	
256	-2.75000e+00	1.151495e-05	
257	-2.80000e+00	1.151555e-05	
258	-2.85000e+00	1.151613e-05	
259	-2.90000e+00	1.151670e-05	
260	-2.95000e+00	1.151726e-05	
261	-3.00000e+00	1.151780e-05	
262	-3.05000e+00	1.151834e-05	
263	-3.10000e+00	1.151886e-05	
264	-3.15000e+00	1.151938e-05	
265	-3.20000e+00	1.151988e-05	
266	-3.25000e+00	1.152038e-05	
267	-3.30000e+00	1.152087e-05	
268	-0.000000e+00	0.000000e+00	
269	-5.00000e-02	1.220475e-06	
270	-1.00000e-01	2.366924e-06	
271	-1.50000e-01	3.466837e-06	
272	-2.00000e-01	4.526624e-06	
273	-2.50000e-01	5.547791e-06	
274	-3.00000e-01	6.530699e-06	
275	-3.50000e-01	7.475441e-06	
276	-4.00000e-01	8.382053e-06	
277	-4.50000e-01	9.250552e-06	
278	-5.00000e-01	1.008096e-05	
279	-5.50000e-01	1.087328e-05	
280	-6.00000e-01	1.162755e-05	
281	-6.50000e-01	1.234377e-05	
282	-7.00000e-01	1.302196e-05	
283	-7.50000e-01	1.366216e-05	
284	-8.00000e-01	1.426437e-05	
285	-8.50000e-01	1.482863e-05	
286	-9.00000e-01	1.535498e-05	

Index   v-sweep         i(vds)          
--------------------------------------------------------------------------------
287	-9.50000e-01	1.584344e-05	
288	-1.00000e+00	1.629408e-05	
289	-1.05000e+00	1.670695e-05	
290	-1.10000e+00	1.708215e-05	
291	-1.15000e+00	1.741980e-05	
292	-1.20000e+00	1.772009e-05	
293	-1.25000e+00	1.798331e-05	
294	-1.30000e+00	1.820990e-05	
295	-1.35000e+00	1.840058e-05	
296	-1.40000e+00	1.855651e-05	
297	-1.45000e+00	1.867958e-05	
298	-1.50000e+00	1.877272e-05	
299	-1.55000e+00	1.884010e-05	
300	-1.60000e+00	1.888692e-05	
301	-1.65000e+00	1.891865e-05	
302	-1.70000e+00	1.894010e-05	
303	-1.75000e+00	1.895487e-05	
304	-1.80000e+00	1.896539e-05	
305	-1.85000e+00	1.897320e-05	
306	-1.90000e+00	1.897923e-05	
307	-1.95000e+00	1.898408e-05	
308	-2.00000e+00	1.898809e-05	
309	-2.05000e+00	1.899151e-05	
310	-2.10000e+00	1.899449e-05	
311	-2.15000e+00	1.899713e-05	
312	-2.20000e+00	1.899952e-05	
313	-2.25000e+00	1.900170e-05	
314	-2.30000e+00	1.900370e-05	
315	-2.35000e+00	1.900557e-05	
316	-2.40000e+00	1.900732e-05	
317	-2.45000e+00	1.900896e-05	
318	-2.50000e+00	1.901052e-05	
319	-2.55000e+00	1.901200e-05	
320	-2.60000e+00	1.901341e-05	
321	-2.65000e+00	1.901476e-05	
322	-2.70000e+00	1.901606e-05	
323	-2.75000e+00	1.901731e-05	
324	-2.80000e+00	1.901851e-05	
325	-2.85000e+00	1.901967e-05	
326	-2.90000e+00	1.902079e-05	
327	-2.95000e+00	1.902188e-05	
328	-3.00000e+00	1.902294e-05	
329	-3.05000e+00	1.902397e-05	
330	-3.10000e+00	1.902496e-05	
331	-3.15000e+00	1.902594e-05	
332	-3.20000e+00	1.902688e-05	
333	-3.25000e+00	1.902781e-05	
334	-3.30000e+00	1.902871e-05	
335	-0.000000e+00	0.000000e+00	
336	-5.00000e-02	1.433473e-06	
337	-1.00000e-01	2.795594e-06	
338	-1.50000e-01	4.113850e-06	
339	-2.00000e-01	5.394653e-06	
340	-2.50000e-01	6.639503e-06	
341	-3.00000e-01	7.848759e-06	
342	-3.50000e-01	9.022515e-06	
343	-4.00000e-01	1.016080e-05	
344	-4.50000e-01	1.126364e-05	

Index   v-sweep         i(vds)          
--------------------------------------------------------------------------------
345	-5.00000e-01	1.233103e-05	
346	-5.50000e-01	1.336300e-05	
347	-6.00000e-01	1.435955e-05	
348	-6.50000e-01	1.532070e-05	
349	-7.00000e-01	1.624647e-05	
350	-7.50000e-01	1.713686e-05	
351	-8.00000e-01	1.799189e-05	
352	-8.50000e-01	1.881157e-05	
353	-9.00000e-01	1.959593e-05	
354	-9.50000e-01	2.034496e-05	
355	-1.00000e+00	2.105871e-05	
356	-1.05000e+00	2.173717e-05	
357	-1.10000e+00	2.238037e-05	
358	-1.15000e+00	2.298833e-05	
359	-1.20000e+00	2.356108e-05	
360	-1.25000e+00	2.409865e-05	
361	-1.30000e+00	2.460107e-05	
362	-1.35000e+00	2.506839e-05	
363	-1.40000e+00	2.550067e-05	
364	-1.45000e+00	2.589797e-05	
365	-1.50000e+00	2.626041e-05	
366	-1.55000e+00	2.658812e-05	
367	-1.60000e+00	2.688130e-05	
368	-1.65000e+00	2.714025e-05	
369	-1.70000e+00	2.736543e-05	
370	-1.75000e+00	2.755751e-05	
371	-1.80000e+00	2.771757e-05	
372	-1.85000e+00	2.784723e-05	
373	-1.90000e+00	2.794889e-05	
374	-1.95000e+00	2.802588e-05	
375	-2.00000e+00	2.808235e-05	
376	-2.05000e+00	2.812282e-05	
377	-2.10000e+00	2.815160e-05	
378	-2.15000e+00	2.817225e-05	
379	-2.20000e+00	2.818739e-05	
380	-2.25000e+00	2.819883e-05	
381	-2.30000e+00	2.820777e-05	
382	-2.35000e+00	2.821498e-05	
383	-2.40000e+00	2.822098e-05	
384	-2.45000e+00	2.822608e-05	
385	-2.50000e+00	2.823053e-05	
386	-2.55000e+00	2.823447e-05	
387	-2.60000e+00	2.823802e-05	
388	-2.65000e+00	2.824125e-05	
389	-2.70000e+00	2.824422e-05	
390	-2.75000e+00	2.824698e-05	
391	-2.80000e+00	2.824957e-05	
392	-2.85000e+00	2.825199e-05	
393	-2.90000e+00	2.825429e-05	
394	-2.95000e+00	2.825647e-05	
395	-3.00000e+00	2.825854e-05	
396	-3.05000e+00	2.826053e-05	
397	-3.10000e+00	2.826243e-05	
398	-3.15000e+00	2.826426e-05	
399	-3.20000e+00	2.826602e-05	
400	-3.25000e+00	2.826772e-05	
401	-3.30000e+00	2.826936e-05	
Note: No ".plot", ".print", or ".fourier" lines; no simulations run
