
Note: Compatibility modes selected: hs

Warning: m=xx on .subckt line will override multiplier m hierarchy!


Circuit: ***************************

Doing analysis at TEMP = -40.000000 and TNOM = -40.000000


No. of Data Rows : 402
                          ***************************
                          DC transfer characteristic  Mon Jan  9 13:57:29  2023
--------------------------------------------------------------------------------
Index   v-sweep         i(vds)          
--------------------------------------------------------------------------------
0	-0.000000e+00	0.000000e+00	
1	-5.00000e-02	8.204864e-09	
2	-1.00000e-01	8.982204e-09	
3	-1.50000e-01	9.122374e-09	
4	-2.00000e-01	9.185658e-09	
5	-2.50000e-01	9.228837e-09	
6	-3.00000e-01	9.263804e-09	
7	-3.50000e-01	9.294366e-09	
8	-4.00000e-01	9.322120e-09	
9	-4.50000e-01	9.347874e-09	
10	-5.00000e-01	9.372098e-09	
11	-5.50000e-01	9.395093e-09	
12	-6.00000e-01	9.417068e-09	
13	-6.50000e-01	9.438176e-09	
14	-7.00000e-01	9.458533e-09	
15	-7.50000e-01	9.478232e-09	
16	-8.00000e-01	9.497348e-09	
17	-8.50000e-01	9.515943e-09	
18	-9.00000e-01	9.534067e-09	
19	-9.50000e-01	9.551766e-09	
20	-1.00000e+00	9.569076e-09	
21	-1.05000e+00	9.586031e-09	
22	-1.10000e+00	9.602658e-09	
23	-1.15000e+00	9.618985e-09	
24	-1.20000e+00	9.635031e-09	
25	-1.25000e+00	9.650819e-09	
26	-1.30000e+00	9.666364e-09	
27	-1.35000e+00	9.681684e-09	
28	-1.40000e+00	9.696793e-09	
29	-1.45000e+00	9.711704e-09	
30	-1.50000e+00	9.726428e-09	
31	-1.55000e+00	9.740977e-09	
32	-1.60000e+00	9.755360e-09	
33	-1.65000e+00	9.769588e-09	
34	-1.70000e+00	9.783667e-09	
35	-1.75000e+00	9.797606e-09	
36	-1.80000e+00	9.811412e-09	
37	-1.85000e+00	9.825093e-09	
38	-1.90000e+00	9.838653e-09	
39	-1.95000e+00	9.852100e-09	
40	-2.00000e+00	9.865440e-09	
41	-2.05000e+00	9.878678e-09	
42	-2.10000e+00	9.891819e-09	
43	-2.15000e+00	9.904870e-09	
44	-2.20000e+00	9.917838e-09	
45	-2.25000e+00	9.930728e-09	
46	-2.30000e+00	9.943547e-09	
47	-2.35000e+00	9.956303e-09	
48	-2.40000e+00	9.969006e-09	
49	-2.45000e+00	9.981664e-09	
50	-2.50000e+00	9.994290e-09	
51	-2.55000e+00	1.000690e-08	
52	-2.60000e+00	1.001950e-08	
53	-2.65000e+00	1.003211e-08	
54	-2.70000e+00	1.004476e-08	

Index   v-sweep         i(vds)          
--------------------------------------------------------------------------------
55	-2.75000e+00	1.005746e-08	
56	-2.80000e+00	1.007024e-08	
57	-2.85000e+00	1.008313e-08	
58	-2.90000e+00	1.009617e-08	
59	-2.95000e+00	1.010939e-08	
60	-3.00000e+00	1.012284e-08	
61	-3.05000e+00	1.013656e-08	
62	-3.10000e+00	1.015062e-08	
63	-3.15000e+00	1.016506e-08	
64	-3.20000e+00	1.017996e-08	
65	-3.25000e+00	1.019538e-08	
66	-3.30000e+00	1.021142e-08	
67	-0.000000e+00	0.000000e+00	
68	-5.00000e-02	5.031411e-07	
69	-1.00000e-01	9.296072e-07	
70	-1.50000e-01	1.280146e-06	
71	-2.00000e-01	1.555821e-06	
72	-2.50000e-01	1.758578e-06	
73	-3.00000e-01	1.892876e-06	
74	-3.50000e-01	1.969407e-06	
75	-4.00000e-01	2.007361e-06	
76	-4.50000e-01	2.026338e-06	
77	-5.00000e-01	2.037502e-06	
78	-5.50000e-01	2.045329e-06	
79	-6.00000e-01	2.051501e-06	
80	-6.50000e-01	2.056716e-06	
81	-7.00000e-01	2.061299e-06	
82	-7.50000e-01	2.065429e-06	
83	-8.00000e-01	2.069209e-06	
84	-8.50000e-01	2.072708e-06	
85	-9.00000e-01	2.075975e-06	
86	-9.50000e-01	2.079044e-06	
87	-1.00000e+00	2.081941e-06	
88	-1.05000e+00	2.084689e-06	
89	-1.10000e+00	2.087304e-06	
90	-1.15000e+00	2.089800e-06	
91	-1.20000e+00	2.092189e-06	
92	-1.25000e+00	2.094481e-06	
93	-1.30000e+00	2.096684e-06	
94	-1.35000e+00	2.098807e-06	
95	-1.40000e+00	2.100855e-06	
96	-1.45000e+00	2.102835e-06	
97	-1.50000e+00	2.104751e-06	
98	-1.55000e+00	2.106608e-06	
99	-1.60000e+00	2.108410e-06	
100	-1.65000e+00	2.110161e-06	
101	-1.70000e+00	2.111863e-06	
102	-1.75000e+00	2.113520e-06	
103	-1.80000e+00	2.115135e-06	
104	-1.85000e+00	2.116710e-06	
105	-1.90000e+00	2.118247e-06	
106	-1.95000e+00	2.119748e-06	
107	-2.00000e+00	2.121216e-06	
108	-2.05000e+00	2.122651e-06	
109	-2.10000e+00	2.124056e-06	
110	-2.15000e+00	2.125433e-06	
111	-2.20000e+00	2.126782e-06	
112	-2.25000e+00	2.128104e-06	

Index   v-sweep         i(vds)          
--------------------------------------------------------------------------------
113	-2.30000e+00	2.129402e-06	
114	-2.35000e+00	2.130677e-06	
115	-2.40000e+00	2.131929e-06	
116	-2.45000e+00	2.133161e-06	
117	-2.50000e+00	2.134373e-06	
118	-2.55000e+00	2.135566e-06	
119	-2.60000e+00	2.136743e-06	
120	-2.65000e+00	2.137905e-06	
121	-2.70000e+00	2.139054e-06	
122	-2.75000e+00	2.140191e-06	
123	-2.80000e+00	2.141319e-06	
124	-2.85000e+00	2.142441e-06	
125	-2.90000e+00	2.143559e-06	
126	-2.95000e+00	2.144678e-06	
127	-3.00000e+00	2.145801e-06	
128	-3.05000e+00	2.146933e-06	
129	-3.10000e+00	2.148078e-06	
130	-3.15000e+00	2.149244e-06	
131	-3.20000e+00	2.150436e-06	
132	-3.25000e+00	2.151663e-06	
133	-3.30000e+00	2.152934e-06	
134	-0.000000e+00	0.000000e+00	
135	-5.00000e-02	1.032415e-06	
136	-1.00000e-01	1.989405e-06	
137	-1.50000e-01	2.871441e-06	
138	-2.00000e-01	3.678996e-06	
139	-2.50000e-01	4.412552e-06	
140	-3.00000e-01	5.072610e-06	
141	-3.50000e-01	5.659700e-06	
142	-4.00000e-01	6.174416e-06	
143	-4.50000e-01	6.617466e-06	
144	-5.00000e-01	6.989791e-06	
145	-5.50000e-01	7.292824e-06	
146	-6.00000e-01	7.529037e-06	
147	-6.50000e-01	7.703044e-06	
148	-7.00000e-01	7.823211e-06	
149	-7.50000e-01	7.902255e-06	
150	-8.00000e-01	7.954417e-06	
151	-8.50000e-01	7.990997e-06	
152	-9.00000e-01	8.018826e-06	
153	-9.50000e-01	8.041505e-06	
154	-1.00000e+00	8.060898e-06	
155	-1.05000e+00	8.078014e-06	
156	-1.10000e+00	8.093444e-06	
157	-1.15000e+00	8.107558e-06	
158	-1.20000e+00	8.120606e-06	
159	-1.25000e+00	8.132764e-06	
160	-1.30000e+00	8.144165e-06	
161	-1.35000e+00	8.154909e-06	
162	-1.40000e+00	8.165077e-06	
163	-1.45000e+00	8.174734e-06	
164	-1.50000e+00	8.183934e-06	
165	-1.55000e+00	8.192723e-06	
166	-1.60000e+00	8.201138e-06	
167	-1.65000e+00	8.209214e-06	
168	-1.70000e+00	8.216978e-06	
169	-1.75000e+00	8.224455e-06	
170	-1.80000e+00	8.231668e-06	

Index   v-sweep         i(vds)          
--------------------------------------------------------------------------------
171	-1.85000e+00	8.238636e-06	
172	-1.90000e+00	8.245376e-06	
173	-1.95000e+00	8.251905e-06	
174	-2.00000e+00	8.258235e-06	
175	-2.05000e+00	8.264380e-06	
176	-2.10000e+00	8.270351e-06	
177	-2.15000e+00	8.276159e-06	
178	-2.20000e+00	8.281812e-06	
179	-2.25000e+00	8.287320e-06	
180	-2.30000e+00	8.292690e-06	
181	-2.35000e+00	8.297930e-06	
182	-2.40000e+00	8.303047e-06	
183	-2.45000e+00	8.308047e-06	
184	-2.50000e+00	8.312935e-06	
185	-2.55000e+00	8.317718e-06	
186	-2.60000e+00	8.322400e-06	
187	-2.65000e+00	8.326987e-06	
188	-2.70000e+00	8.331483e-06	
189	-2.75000e+00	8.335894e-06	
190	-2.80000e+00	8.340223e-06	
191	-2.85000e+00	8.344477e-06	
192	-2.90000e+00	8.348660e-06	
193	-2.95000e+00	8.352778e-06	
194	-3.00000e+00	8.356837e-06	
195	-3.05000e+00	8.360844e-06	
196	-3.10000e+00	8.364806e-06	
197	-3.15000e+00	8.368732e-06	
198	-3.20000e+00	8.372632e-06	
199	-3.25000e+00	8.376517e-06	
200	-3.30000e+00	8.380401e-06	
201	-0.000000e+00	0.000000e+00	
202	-5.00000e-02	1.488166e-06	
203	-1.00000e-01	2.904993e-06	
204	-1.50000e-01	4.250886e-06	
205	-2.00000e-01	5.526246e-06	
206	-2.50000e-01	6.731474e-06	
207	-3.00000e-01	7.866970e-06	
208	-3.50000e-01	8.933131e-06	
209	-4.00000e-01	9.930359e-06	
210	-4.50000e-01	1.085905e-05	
211	-5.00000e-01	1.171962e-05	
212	-5.50000e-01	1.251249e-05	
213	-6.00000e-01	1.323807e-05	
214	-6.50000e-01	1.389683e-05	
215	-7.00000e-01	1.448927e-05	
216	-7.50000e-01	1.501595e-05	
217	-8.00000e-01	1.547760e-05	
218	-8.50000e-01	1.587514e-05	
219	-9.00000e-01	1.620998e-05	
220	-9.50000e-01	1.648433e-05	
221	-1.00000e+00	1.670186e-05	
222	-1.05000e+00	1.686854e-05	
223	-1.10000e+00	1.699304e-05	
224	-1.15000e+00	1.708577e-05	
225	-1.20000e+00	1.715661e-05	
226	-1.25000e+00	1.721308e-05	
227	-1.30000e+00	1.726009e-05	
228	-1.35000e+00	1.730065e-05	

Index   v-sweep         i(vds)          
--------------------------------------------------------------------------------
229	-1.40000e+00	1.733656e-05	
230	-1.45000e+00	1.736896e-05	
231	-1.50000e+00	1.739859e-05	
232	-1.55000e+00	1.742597e-05	
233	-1.60000e+00	1.745146e-05	
234	-1.65000e+00	1.747533e-05	
235	-1.70000e+00	1.749782e-05	
236	-1.75000e+00	1.751907e-05	
237	-1.80000e+00	1.753925e-05	
238	-1.85000e+00	1.755845e-05	
239	-1.90000e+00	1.757677e-05	
240	-1.95000e+00	1.759431e-05	
241	-2.00000e+00	1.761112e-05	
242	-2.05000e+00	1.762726e-05	
243	-2.10000e+00	1.764280e-05	
244	-2.15000e+00	1.765778e-05	
245	-2.20000e+00	1.767224e-05	
246	-2.25000e+00	1.768621e-05	
247	-2.30000e+00	1.769974e-05	
248	-2.35000e+00	1.771284e-05	
249	-2.40000e+00	1.772555e-05	
250	-2.45000e+00	1.773789e-05	
251	-2.50000e+00	1.774989e-05	
252	-2.55000e+00	1.776156e-05	
253	-2.60000e+00	1.777292e-05	
254	-2.65000e+00	1.778398e-05	
255	-2.70000e+00	1.779477e-05	
256	-2.75000e+00	1.780530e-05	
257	-2.80000e+00	1.781558e-05	
258	-2.85000e+00	1.782563e-05	
259	-2.90000e+00	1.783545e-05	
260	-2.95000e+00	1.784506e-05	
261	-3.00000e+00	1.785446e-05	
262	-3.05000e+00	1.786368e-05	
263	-3.10000e+00	1.787271e-05	
264	-3.15000e+00	1.788156e-05	
265	-3.20000e+00	1.789026e-05	
266	-3.25000e+00	1.789880e-05	
267	-3.30000e+00	1.790721e-05	
268	-0.000000e+00	0.000000e+00	
269	-5.00000e-02	1.874705e-06	
270	-1.00000e-01	3.682771e-06	
271	-1.50000e-01	5.424550e-06	
272	-2.00000e-01	7.100393e-06	
273	-2.50000e-01	8.710646e-06	
274	-3.00000e-01	1.025565e-05	
275	-3.50000e-01	1.173576e-05	
276	-4.00000e-01	1.315131e-05	
277	-4.50000e-01	1.450264e-05	
278	-5.00000e-01	1.579010e-05	
279	-5.50000e-01	1.701401e-05	
280	-6.00000e-01	1.817471e-05	
281	-6.50000e-01	1.927255e-05	
282	-7.00000e-01	2.030786e-05	
283	-7.50000e-01	2.128098e-05	
284	-8.00000e-01	2.219225e-05	
285	-8.50000e-01	2.304202e-05	
286	-9.00000e-01	2.383067e-05	

Index   v-sweep         i(vds)          
--------------------------------------------------------------------------------
287	-9.50000e-01	2.455855e-05	
288	-1.00000e+00	2.522607e-05	
289	-1.05000e+00	2.583368e-05	
290	-1.10000e+00	2.638189e-05	
291	-1.15000e+00	2.687133e-05	
292	-1.20000e+00	2.730280e-05	
293	-1.25000e+00	2.767745e-05	
294	-1.30000e+00	2.799699e-05	
295	-1.35000e+00	2.826401e-05	
296	-1.40000e+00	2.848252e-05	
297	-1.45000e+00	2.865829e-05	
298	-1.50000e+00	2.879868e-05	
299	-1.55000e+00	2.891170e-05	
300	-1.60000e+00	2.900463e-05	
301	-1.65000e+00	2.908315e-05	
302	-1.70000e+00	2.915125e-05	
303	-1.75000e+00	2.921163e-05	
304	-1.80000e+00	2.926607e-05	
305	-1.85000e+00	2.931580e-05	
306	-1.90000e+00	2.936168e-05	
307	-1.95000e+00	2.940435e-05	
308	-2.00000e+00	2.944427e-05	
309	-2.05000e+00	2.948182e-05	
310	-2.10000e+00	2.951728e-05	
311	-2.15000e+00	2.955090e-05	
312	-2.20000e+00	2.958287e-05	
313	-2.25000e+00	2.961336e-05	
314	-2.30000e+00	2.964251e-05	
315	-2.35000e+00	2.967043e-05	
316	-2.40000e+00	2.969723e-05	
317	-2.45000e+00	2.972301e-05	
318	-2.50000e+00	2.974783e-05	
319	-2.55000e+00	2.977178e-05	
320	-2.60000e+00	2.979491e-05	
321	-2.65000e+00	2.981729e-05	
322	-2.70000e+00	2.983895e-05	
323	-2.75000e+00	2.985996e-05	
324	-2.80000e+00	2.988034e-05	
325	-2.85000e+00	2.990014e-05	
326	-2.90000e+00	2.991938e-05	
327	-2.95000e+00	2.993811e-05	
328	-3.00000e+00	2.995635e-05	
329	-3.05000e+00	2.997413e-05	
330	-3.10000e+00	2.999146e-05	
331	-3.15000e+00	3.000838e-05	
332	-3.20000e+00	3.002490e-05	
333	-3.25000e+00	3.004104e-05	
334	-3.30000e+00	3.005683e-05	
335	-0.000000e+00	0.000000e+00	
336	-5.00000e-02	2.199126e-06	
337	-1.00000e-01	4.336408e-06	
338	-1.50000e-01	6.412153e-06	
339	-2.00000e-01	8.426664e-06	
340	-2.50000e-01	1.038024e-05	
341	-3.00000e-01	1.227319e-05	
342	-3.50000e-01	1.410581e-05	
343	-4.00000e-01	1.587839e-05	
344	-4.50000e-01	1.759123e-05	

Index   v-sweep         i(vds)          
--------------------------------------------------------------------------------
345	-5.00000e-01	1.924463e-05	
346	-5.50000e-01	2.083886e-05	
347	-6.00000e-01	2.237424e-05	
348	-6.50000e-01	2.385103e-05	
349	-7.00000e-01	2.526954e-05	
350	-7.50000e-01	2.663005e-05	
351	-8.00000e-01	2.793284e-05	
352	-8.50000e-01	2.917819e-05	
353	-9.00000e-01	3.036639e-05	
354	-9.50000e-01	3.149773e-05	
355	-1.00000e+00	3.257249e-05	
356	-1.05000e+00	3.359095e-05	
357	-1.10000e+00	3.455340e-05	
358	-1.15000e+00	3.546013e-05	
359	-1.20000e+00	3.631144e-05	
360	-1.25000e+00	3.710764e-05	
361	-1.30000e+00	3.784905e-05	
362	-1.35000e+00	3.853601e-05	
363	-1.40000e+00	3.916889e-05	
364	-1.45000e+00	3.974811e-05	
365	-1.50000e+00	4.027419e-05	
366	-1.55000e+00	4.074777e-05	
367	-1.60000e+00	4.116967e-05	
368	-1.65000e+00	4.154108e-05	
369	-1.70000e+00	4.186370e-05	
370	-1.75000e+00	4.214004e-05	
371	-1.80000e+00	4.237370e-05	
372	-1.85000e+00	4.256952e-05	
373	-1.90000e+00	4.273338e-05	
374	-1.95000e+00	4.287151e-05	
375	-2.00000e+00	4.298964e-05	
376	-2.05000e+00	4.309251e-05	
377	-2.10000e+00	4.318367e-05	
378	-2.15000e+00	4.326569e-05	
379	-2.20000e+00	4.334041e-05	
380	-2.25000e+00	4.340918e-05	
381	-2.30000e+00	4.347298e-05	
382	-2.35000e+00	4.353255e-05	
383	-2.40000e+00	4.358847e-05	
384	-2.45000e+00	4.364120e-05	
385	-2.50000e+00	4.369112e-05	
386	-2.55000e+00	4.373852e-05	
387	-2.60000e+00	4.378367e-05	
388	-2.65000e+00	4.382678e-05	
389	-2.70000e+00	4.386804e-05	
390	-2.75000e+00	4.390761e-05	
391	-2.80000e+00	4.394563e-05	
392	-2.85000e+00	4.398221e-05	
393	-2.90000e+00	4.401748e-05	
394	-2.95000e+00	4.405152e-05	
395	-3.00000e+00	4.408442e-05	
396	-3.05000e+00	4.411625e-05	
397	-3.10000e+00	4.414709e-05	
398	-3.15000e+00	4.417700e-05	
399	-3.20000e+00	4.420604e-05	
400	-3.25000e+00	4.423425e-05	
401	-3.30000e+00	4.426169e-05	
Note: No ".plot", ".print", or ".fourier" lines; no simulations run
