
Note: Compatibility modes selected: hs

Warning: m=xx on .subckt line will override multiplier m hierarchy!


Circuit: ***************************

Doing analysis at TEMP = 125.000000 and TNOM = 125.000000


No. of Data Rows : 402
                          ***************************
                          DC transfer characteristic  Mon Jan  9 13:57:29  2023
--------------------------------------------------------------------------------
Index   v-sweep         i(vds)          
--------------------------------------------------------------------------------
0	-0.000000e+00	0.000000e+00	
1	-5.00000e-02	9.057305e-06	
2	-1.00000e-01	1.565393e-05	
3	-1.50000e-01	1.996518e-05	
4	-2.00000e-01	2.231573e-05	
5	-2.50000e-01	2.340438e-05	
6	-3.00000e-01	2.397960e-05	
7	-3.50000e-01	2.439224e-05	
8	-4.00000e-01	2.474593e-05	
9	-4.50000e-01	2.507160e-05	
10	-5.00000e-01	2.538053e-05	
11	-5.50000e-01	2.567789e-05	
12	-6.00000e-01	2.596647e-05	
13	-6.50000e-01	2.624803e-05	
14	-7.00000e-01	2.652378e-05	
15	-7.50000e-01	2.679463e-05	
16	-8.00000e-01	2.706126e-05	
17	-8.50000e-01	2.732425e-05	
18	-9.00000e-01	2.758406e-05	
19	-9.50000e-01	2.784106e-05	
20	-1.00000e+00	2.809561e-05	
21	-1.05000e+00	2.834798e-05	
22	-1.10000e+00	2.859841e-05	
23	-1.15000e+00	2.884714e-05	
24	-1.20000e+00	2.909434e-05	
25	-1.25000e+00	2.934019e-05	
26	-1.30000e+00	2.958485e-05	
27	-1.35000e+00	2.982845e-05	
28	-1.40000e+00	3.007111e-05	
29	-1.45000e+00	3.031295e-05	
30	-1.50000e+00	3.055405e-05	
31	-1.55000e+00	3.079453e-05	
32	-1.60000e+00	3.103445e-05	
33	-1.65000e+00	3.127391e-05	
34	-1.70000e+00	3.151296e-05	
35	-1.75000e+00	3.175167e-05	
36	-1.80000e+00	3.199010e-05	
37	-1.85000e+00	3.222831e-05	
38	-1.90000e+00	3.246635e-05	
39	-1.95000e+00	3.270427e-05	
40	-2.00000e+00	3.294211e-05	
41	-2.05000e+00	3.317993e-05	
42	-2.10000e+00	3.341775e-05	
43	-2.15000e+00	3.365563e-05	
44	-2.20000e+00	3.389361e-05	
45	-2.25000e+00	3.413172e-05	
46	-2.30000e+00	3.437002e-05	
47	-2.35000e+00	3.460856e-05	
48	-2.40000e+00	3.484739e-05	
49	-2.45000e+00	3.508656e-05	
50	-2.50000e+00	3.532615e-05	
51	-2.55000e+00	3.556624e-05	
52	-2.60000e+00	3.580689e-05	
53	-2.65000e+00	3.604823e-05	
54	-2.70000e+00	3.629035e-05	

Index   v-sweep         i(vds)          
--------------------------------------------------------------------------------
55	-2.75000e+00	3.653340e-05	
56	-2.80000e+00	3.677752e-05	
57	-2.85000e+00	3.702287e-05	
58	-2.90000e+00	3.726967e-05	
59	-2.95000e+00	3.751812e-05	
60	-3.00000e+00	3.776849e-05	
61	-3.05000e+00	3.802104e-05	
62	-3.10000e+00	3.827610e-05	
63	-3.15000e+00	3.853402e-05	
64	-3.20000e+00	3.879519e-05	
65	-3.25000e+00	3.906005e-05	
66	-3.30000e+00	3.932908e-05	
67	-0.000000e+00	0.000000e+00	
68	-5.00000e-02	3.391643e-05	
69	-1.00000e-01	6.481530e-05	
70	-1.50000e-01	9.280257e-05	
71	-2.00000e-01	1.179415e-04	
72	-2.50000e-01	1.402857e-04	
73	-3.00000e-01	1.598873e-04	
74	-3.50000e-01	1.768008e-04	
75	-4.00000e-01	1.910874e-04	
76	-4.50000e-01	2.028246e-04	
77	-5.00000e-01	2.121265e-04	
78	-5.50000e-01	2.191879e-04	
79	-6.00000e-01	2.243491e-04	
80	-6.50000e-01	2.281103e-04	
81	-7.00000e-01	2.309962e-04	
82	-7.50000e-01	2.333856e-04	
83	-8.00000e-01	2.354880e-04	
84	-8.50000e-01	2.374081e-04	
85	-9.00000e-01	2.391997e-04	
86	-9.50000e-01	2.408929e-04	
87	-1.00000e+00	2.425067e-04	
88	-1.05000e+00	2.440538e-04	
89	-1.10000e+00	2.455435e-04	
90	-1.15000e+00	2.469831e-04	
91	-1.20000e+00	2.483783e-04	
92	-1.25000e+00	2.497337e-04	
93	-1.30000e+00	2.510534e-04	
94	-1.35000e+00	2.523406e-04	
95	-1.40000e+00	2.535983e-04	
96	-1.45000e+00	2.548288e-04	
97	-1.50000e+00	2.560345e-04	
98	-1.55000e+00	2.572173e-04	
99	-1.60000e+00	2.583788e-04	
100	-1.65000e+00	2.595207e-04	
101	-1.70000e+00	2.606443e-04	
102	-1.75000e+00	2.617508e-04	
103	-1.80000e+00	2.628414e-04	
104	-1.85000e+00	2.639171e-04	
105	-1.90000e+00	2.649788e-04	
106	-1.95000e+00	2.660274e-04	
107	-2.00000e+00	2.670636e-04	
108	-2.05000e+00	2.680882e-04	
109	-2.10000e+00	2.691019e-04	
110	-2.15000e+00	2.701052e-04	
111	-2.20000e+00	2.710986e-04	
112	-2.25000e+00	2.720828e-04	

Index   v-sweep         i(vds)          
--------------------------------------------------------------------------------
113	-2.30000e+00	2.730582e-04	
114	-2.35000e+00	2.740253e-04	
115	-2.40000e+00	2.749845e-04	
116	-2.45000e+00	2.759363e-04	
117	-2.50000e+00	2.768810e-04	
118	-2.55000e+00	2.778190e-04	
119	-2.60000e+00	2.787507e-04	
120	-2.65000e+00	2.796766e-04	
121	-2.70000e+00	2.805970e-04	
122	-2.75000e+00	2.815124e-04	
123	-2.80000e+00	2.824232e-04	
124	-2.85000e+00	2.833300e-04	
125	-2.90000e+00	2.842333e-04	
126	-2.95000e+00	2.851338e-04	
127	-3.00000e+00	2.860321e-04	
128	-3.05000e+00	2.869290e-04	
129	-3.10000e+00	2.878255e-04	
130	-3.15000e+00	2.887226e-04	
131	-3.20000e+00	2.896214e-04	
132	-3.25000e+00	2.905233e-04	
133	-3.30000e+00	2.914297e-04	
134	-0.000000e+00	0.000000e+00	
135	-5.00000e-02	5.381168e-05	
136	-1.00000e-01	1.046446e-04	
137	-1.50000e-01	1.525974e-04	
138	-2.00000e-01	1.977261e-04	
139	-2.50000e-01	2.400756e-04	
140	-3.00000e-01	2.796883e-04	
141	-3.50000e-01	3.166052e-04	
142	-4.00000e-01	3.508666e-04	
143	-4.50000e-01	3.825124e-04	
144	-5.00000e-01	4.115824e-04	
145	-5.50000e-01	4.381165e-04	
146	-6.00000e-01	4.621551e-04	
147	-6.50000e-01	4.837408e-04	
148	-7.00000e-01	5.029194e-04	
149	-7.50000e-01	5.197440e-04	
150	-8.00000e-01	5.342815e-04	
151	-8.50000e-01	5.466253e-04	
152	-9.00000e-01	5.569176e-04	
153	-9.50000e-01	5.653786e-04	
154	-1.00000e+00	5.723216e-04	
155	-1.05000e+00	5.781167e-04	
156	-1.10000e+00	5.831071e-04	
157	-1.15000e+00	5.875473e-04	
158	-1.20000e+00	5.916004e-04	
159	-1.25000e+00	5.953662e-04	
160	-1.30000e+00	5.989067e-04	
161	-1.35000e+00	6.022626e-04	
162	-1.40000e+00	6.054624e-04	
163	-1.45000e+00	6.085272e-04	
164	-1.50000e+00	6.114734e-04	
165	-1.55000e+00	6.143140e-04	
166	-1.60000e+00	6.170599e-04	
167	-1.65000e+00	6.197201e-04	
168	-1.70000e+00	6.223023e-04	
169	-1.75000e+00	6.248132e-04	
170	-1.80000e+00	6.272586e-04	

Index   v-sweep         i(vds)          
--------------------------------------------------------------------------------
171	-1.85000e+00	6.296436e-04	
172	-1.90000e+00	6.319727e-04	
173	-1.95000e+00	6.342500e-04	
174	-2.00000e+00	6.364790e-04	
175	-2.05000e+00	6.386631e-04	
176	-2.10000e+00	6.408050e-04	
177	-2.15000e+00	6.429076e-04	
178	-2.20000e+00	6.449731e-04	
179	-2.25000e+00	6.470038e-04	
180	-2.30000e+00	6.490016e-04	
181	-2.35000e+00	6.509685e-04	
182	-2.40000e+00	6.529062e-04	
183	-2.45000e+00	6.548161e-04	
184	-2.50000e+00	6.566998e-04	
185	-2.55000e+00	6.585585e-04	
186	-2.60000e+00	6.603936e-04	
187	-2.65000e+00	6.622062e-04	
188	-2.70000e+00	6.639974e-04	
189	-2.75000e+00	6.657683e-04	
190	-2.80000e+00	6.675197e-04	
191	-2.85000e+00	6.692528e-04	
192	-2.90000e+00	6.709684e-04	
193	-2.95000e+00	6.726674e-04	
194	-3.00000e+00	6.743508e-04	
195	-3.05000e+00	6.760195e-04	
196	-3.10000e+00	6.776745e-04	
197	-3.15000e+00	6.793170e-04	
198	-3.20000e+00	6.809480e-04	
199	-3.25000e+00	6.825688e-04	
200	-3.30000e+00	6.841808e-04	
201	-0.000000e+00	0.000000e+00	
202	-5.00000e-02	6.967864e-05	
203	-1.00000e-01	1.364987e-04	
204	-1.50000e-01	2.005527e-04	
205	-2.00000e-01	2.618904e-04	
206	-2.50000e-01	3.205511e-04	
207	-3.00000e-01	3.765712e-04	
208	-3.50000e-01	4.299859e-04	
209	-4.00000e-01	4.808298e-04	
210	-4.50000e-01	5.291369e-04	
211	-5.00000e-01	5.749405e-04	
212	-5.50000e-01	6.182736e-04	
213	-6.00000e-01	6.591687e-04	
214	-6.50000e-01	6.976578e-04	
215	-7.00000e-01	7.337729e-04	
216	-7.50000e-01	7.675453e-04	
217	-8.00000e-01	7.990066e-04	
218	-8.50000e-01	8.281886e-04	
219	-9.00000e-01	8.551234e-04	
220	-9.50000e-01	8.798446e-04	
221	-1.00000e+00	9.023879e-04	
222	-1.05000e+00	9.227931e-04	
223	-1.10000e+00	9.411073e-04	
224	-1.15000e+00	9.573904e-04	
225	-1.20000e+00	9.717247e-04	
226	-1.25000e+00	9.842284e-04	
227	-1.30000e+00	9.950722e-04	
228	-1.35000e+00	1.004485e-03	

Index   v-sweep         i(vds)          
--------------------------------------------------------------------------------
229	-1.40000e+00	1.012736e-03	
230	-1.45000e+00	1.020090e-03	
231	-1.50000e+00	1.026765e-03	
232	-1.55000e+00	1.032921e-03	
233	-1.60000e+00	1.038671e-03	
234	-1.65000e+00	1.044088e-03	
235	-1.70000e+00	1.049227e-03	
236	-1.75000e+00	1.054128e-03	
237	-1.80000e+00	1.058819e-03	
238	-1.85000e+00	1.063324e-03	
239	-1.90000e+00	1.067664e-03	
240	-1.95000e+00	1.071854e-03	
241	-2.00000e+00	1.075907e-03	
242	-2.05000e+00	1.079836e-03	
243	-2.10000e+00	1.083651e-03	
244	-2.15000e+00	1.087360e-03	
245	-2.20000e+00	1.090972e-03	
246	-2.25000e+00	1.094493e-03	
247	-2.30000e+00	1.097930e-03	
248	-2.35000e+00	1.101288e-03	
249	-2.40000e+00	1.104573e-03	
250	-2.45000e+00	1.107790e-03	
251	-2.50000e+00	1.110941e-03	
252	-2.55000e+00	1.114032e-03	
253	-2.60000e+00	1.117065e-03	
254	-2.65000e+00	1.120044e-03	
255	-2.70000e+00	1.122971e-03	
256	-2.75000e+00	1.125851e-03	
257	-2.80000e+00	1.128684e-03	
258	-2.85000e+00	1.131473e-03	
259	-2.90000e+00	1.134221e-03	
260	-2.95000e+00	1.136930e-03	
261	-3.00000e+00	1.139600e-03	
262	-3.05000e+00	1.142235e-03	
263	-3.10000e+00	1.144836e-03	
264	-3.15000e+00	1.147404e-03	
265	-3.20000e+00	1.149941e-03	
266	-3.25000e+00	1.152449e-03	
267	-3.30000e+00	1.154928e-03	
268	-0.000000e+00	0.000000e+00	
269	-5.00000e-02	8.261383e-05	
270	-1.00000e-01	1.625060e-04	
271	-1.50000e-01	2.397640e-04	
272	-2.00000e-01	3.144325e-04	
273	-2.50000e-01	3.865459e-04	
274	-3.00000e-01	4.561360e-04	
275	-3.50000e-01	5.232333e-04	
276	-4.00000e-01	5.878678e-04	
277	-4.50000e-01	6.500690e-04	
278	-5.00000e-01	7.098661e-04	
279	-5.50000e-01	7.672876e-04	
280	-6.00000e-01	8.223617e-04	
281	-6.50000e-01	8.751162e-04	
282	-7.00000e-01	9.255785e-04	
283	-7.50000e-01	9.737757e-04	
284	-8.00000e-01	1.019734e-03	
285	-8.50000e-01	1.063481e-03	
286	-9.00000e-01	1.105041e-03	

Index   v-sweep         i(vds)          
--------------------------------------------------------------------------------
287	-9.50000e-01	1.144440e-03	
288	-1.00000e+00	1.181705e-03	
289	-1.05000e+00	1.216861e-03	
290	-1.10000e+00	1.249933e-03	
291	-1.15000e+00	1.280946e-03	
292	-1.20000e+00	1.309928e-03	
293	-1.25000e+00	1.336904e-03	
294	-1.30000e+00	1.361905e-03	
295	-1.35000e+00	1.384961e-03	
296	-1.40000e+00	1.406107e-03	
297	-1.45000e+00	1.425388e-03	
298	-1.50000e+00	1.442859e-03	
299	-1.55000e+00	1.458597e-03	
300	-1.60000e+00	1.472705e-03	
301	-1.65000e+00	1.485327e-03	
302	-1.70000e+00	1.496646e-03	
303	-1.75000e+00	1.506867e-03	
304	-1.80000e+00	1.516193e-03	
305	-1.85000e+00	1.524801e-03	
306	-1.90000e+00	1.532827e-03	
307	-1.95000e+00	1.540374e-03	
308	-2.00000e+00	1.547518e-03	
309	-2.05000e+00	1.554316e-03	
310	-2.10000e+00	1.560811e-03	
311	-2.15000e+00	1.567037e-03	
312	-2.20000e+00	1.573023e-03	
313	-2.25000e+00	1.578792e-03	
314	-2.30000e+00	1.584364e-03	
315	-2.35000e+00	1.589756e-03	
316	-2.40000e+00	1.594982e-03	
317	-2.45000e+00	1.600055e-03	
318	-2.50000e+00	1.604987e-03	
319	-2.55000e+00	1.609788e-03	
320	-2.60000e+00	1.614467e-03	
321	-2.65000e+00	1.619031e-03	
322	-2.70000e+00	1.623489e-03	
323	-2.75000e+00	1.627847e-03	
324	-2.80000e+00	1.632111e-03	
325	-2.85000e+00	1.636286e-03	
326	-2.90000e+00	1.640378e-03	
327	-2.95000e+00	1.644390e-03	
328	-3.00000e+00	1.648329e-03	
329	-3.05000e+00	1.652196e-03	
330	-3.10000e+00	1.655997e-03	
331	-3.15000e+00	1.659733e-03	
332	-3.20000e+00	1.663409e-03	
333	-3.25000e+00	1.667028e-03	
334	-3.30000e+00	1.670591e-03	
335	-0.000000e+00	0.000000e+00	
336	-5.00000e-02	9.336351e-05	
337	-1.00000e-01	1.841411e-04	
338	-1.50000e-01	2.724160e-04	
339	-2.00000e-01	3.582289e-04	
340	-2.50000e-01	4.416101e-04	
341	-3.00000e-01	5.225874e-04	
342	-3.50000e-01	6.011877e-04	
343	-4.00000e-01	6.774371e-04	
344	-4.50000e-01	7.513617e-04	

Index   v-sweep         i(vds)          
--------------------------------------------------------------------------------
345	-5.00000e-01	8.229868e-04	
346	-5.50000e-01	8.923376e-04	
347	-6.00000e-01	9.594390e-04	
348	-6.50000e-01	1.024315e-03	
349	-7.00000e-01	1.086991e-03	
350	-7.50000e-01	1.147489e-03	
351	-8.00000e-01	1.205833e-03	
352	-8.50000e-01	1.262047e-03	
353	-9.00000e-01	1.316152e-03	
354	-9.50000e-01	1.368173e-03	
355	-1.00000e+00	1.418130e-03	
356	-1.05000e+00	1.466047e-03	
357	-1.10000e+00	1.511943e-03	
358	-1.15000e+00	1.555842e-03	
359	-1.20000e+00	1.597765e-03	
360	-1.25000e+00	1.637732e-03	
361	-1.30000e+00	1.675764e-03	
362	-1.35000e+00	1.711884e-03	
363	-1.40000e+00	1.746111e-03	
364	-1.45000e+00	1.778466e-03	
365	-1.50000e+00	1.808973e-03	
366	-1.55000e+00	1.837652e-03	
367	-1.60000e+00	1.864527e-03	
368	-1.65000e+00	1.889625e-03	
369	-1.70000e+00	1.912972e-03	
370	-1.75000e+00	1.934604e-03	
371	-1.80000e+00	1.954561e-03	
372	-1.85000e+00	1.972897e-03	
373	-1.90000e+00	1.989683e-03	
374	-1.95000e+00	2.005016e-03	
375	-2.00000e+00	2.019019e-03	
376	-2.05000e+00	2.031843e-03	
377	-2.10000e+00	2.043651e-03	
378	-2.15000e+00	2.054603e-03	
379	-2.20000e+00	2.064836e-03	
380	-2.25000e+00	2.074466e-03	
381	-2.30000e+00	2.083580e-03	
382	-2.35000e+00	2.092248e-03	
383	-2.40000e+00	2.100526e-03	
384	-2.45000e+00	2.108455e-03	
385	-2.50000e+00	2.116074e-03	
386	-2.55000e+00	2.123410e-03	
387	-2.60000e+00	2.130491e-03	
388	-2.65000e+00	2.137336e-03	
389	-2.70000e+00	2.143966e-03	
390	-2.75000e+00	2.150397e-03	
391	-2.80000e+00	2.156643e-03	
392	-2.85000e+00	2.162718e-03	
393	-2.90000e+00	2.168633e-03	
394	-2.95000e+00	2.174399e-03	
395	-3.00000e+00	2.180025e-03	
396	-3.05000e+00	2.185520e-03	
397	-3.10000e+00	2.190892e-03	
398	-3.15000e+00	2.196148e-03	
399	-3.20000e+00	2.201294e-03	
400	-3.25000e+00	2.206336e-03	
401	-3.30000e+00	2.211280e-03	
Note: No ".plot", ".print", or ".fourier" lines; no simulations run
