
Note: Compatibility modes selected: hs

Warning: m=xx on .subckt line will override multiplier m hierarchy!


Circuit: ***************************

Doing analysis at TEMP = -40.000000 and TNOM = -40.000000


No. of Data Rows : 402
                          ***************************
                          DC transfer characteristic  Mon Jan  9 13:57:29  2023
--------------------------------------------------------------------------------
Index   v-sweep         i(vds)          
--------------------------------------------------------------------------------
0	-0.000000e+00	0.000000e+00	
1	-5.00000e-02	1.966705e-07	
2	-1.00000e-01	2.160418e-07	
3	-1.50000e-01	2.205240e-07	
4	-2.00000e-01	2.231086e-07	
5	-2.50000e-01	2.251410e-07	
6	-3.00000e-01	2.269182e-07	
7	-3.50000e-01	2.285431e-07	
8	-4.00000e-01	2.300628e-07	
9	-4.50000e-01	2.315036e-07	
10	-5.00000e-01	2.328822e-07	
11	-5.50000e-01	2.342097e-07	
12	-6.00000e-01	2.354946e-07	
13	-6.50000e-01	2.367431e-07	
14	-7.00000e-01	2.379602e-07	
15	-7.50000e-01	2.391500e-07	
16	-8.00000e-01	2.403156e-07	
17	-8.50000e-01	2.414598e-07	
18	-9.00000e-01	2.425849e-07	
19	-9.50000e-01	2.436929e-07	
20	-1.00000e+00	2.447855e-07	
21	-1.05000e+00	2.458642e-07	
22	-1.10000e+00	2.469301e-07	
23	-1.15000e+00	2.479845e-07	
24	-1.20000e+00	2.490284e-07	
25	-1.25000e+00	2.500626e-07	
26	-1.30000e+00	2.510879e-07	
27	-1.35000e+00	2.521051e-07	
28	-1.40000e+00	2.531148e-07	
29	-1.45000e+00	2.541175e-07	
30	-1.50000e+00	2.551139e-07	
31	-1.55000e+00	2.561043e-07	
32	-1.60000e+00	2.570892e-07	
33	-1.65000e+00	2.580690e-07	
34	-1.70000e+00	2.590442e-07	
35	-1.75000e+00	2.600149e-07	
36	-1.80000e+00	2.609816e-07	
37	-1.85000e+00	2.619445e-07	
38	-1.90000e+00	2.629039e-07	
39	-1.95000e+00	2.638601e-07	
40	-2.00000e+00	2.648134e-07	
41	-2.05000e+00	2.657640e-07	
42	-2.10000e+00	2.667122e-07	
43	-2.15000e+00	2.676582e-07	
44	-2.20000e+00	2.686024e-07	
45	-2.25000e+00	2.695449e-07	
46	-2.30000e+00	2.704862e-07	
47	-2.35000e+00	2.714267e-07	
48	-2.40000e+00	2.723666e-07	
49	-2.45000e+00	2.733066e-07	
50	-2.50000e+00	2.742470e-07	
51	-2.55000e+00	2.751886e-07	
52	-2.60000e+00	2.761319e-07	
53	-2.65000e+00	2.770777e-07	
54	-2.70000e+00	2.780269e-07	

Index   v-sweep         i(vds)          
--------------------------------------------------------------------------------
55	-2.75000e+00	2.789805e-07	
56	-2.80000e+00	2.799396e-07	
57	-2.85000e+00	2.809054e-07	
58	-2.90000e+00	2.818794e-07	
59	-2.95000e+00	2.828631e-07	
60	-3.00000e+00	2.838582e-07	
61	-3.05000e+00	2.848668e-07	
62	-3.10000e+00	2.858908e-07	
63	-3.15000e+00	2.869327e-07	
64	-3.20000e+00	2.879951e-07	
65	-3.25000e+00	2.890806e-07	
66	-3.30000e+00	2.901923e-07	
67	-0.000000e+00	0.000000e+00	
68	-5.00000e-02	2.071382e-05	
69	-1.00000e-01	3.842949e-05	
70	-1.50000e-01	5.319942e-05	
71	-2.00000e-01	6.508377e-05	
72	-2.50000e-01	7.416430e-05	
73	-3.00000e-01	8.058419e-05	
74	-3.50000e-01	8.464876e-05	
75	-4.00000e-01	8.695326e-05	
76	-4.50000e-01	8.825167e-05	
77	-5.00000e-01	8.908395e-05	
78	-5.50000e-01	8.970148e-05	
79	-6.00000e-01	9.020557e-05	
80	-6.50000e-01	9.063985e-05	
81	-7.00000e-01	9.102590e-05	
82	-7.50000e-01	9.137590e-05	
83	-8.00000e-01	9.169750e-05	
84	-8.50000e-01	9.199594e-05	
85	-9.00000e-01	9.227498e-05	
86	-9.50000e-01	9.253747e-05	
87	-1.00000e+00	9.278564e-05	
88	-1.05000e+00	9.302126e-05	
89	-1.10000e+00	9.324579e-05	
90	-1.15000e+00	9.346044e-05	
91	-1.20000e+00	9.366620e-05	
92	-1.25000e+00	9.386395e-05	
93	-1.30000e+00	9.405442e-05	
94	-1.35000e+00	9.423825e-05	
95	-1.40000e+00	9.441600e-05	
96	-1.45000e+00	9.458815e-05	
97	-1.50000e+00	9.475514e-05	
98	-1.55000e+00	9.491735e-05	
99	-1.60000e+00	9.507512e-05	
100	-1.65000e+00	9.522876e-05	
101	-1.70000e+00	9.537855e-05	
102	-1.75000e+00	9.552472e-05	
103	-1.80000e+00	9.566752e-05	
104	-1.85000e+00	9.580713e-05	
105	-1.90000e+00	9.594376e-05	
106	-1.95000e+00	9.607757e-05	
107	-2.00000e+00	9.620871e-05	
108	-2.05000e+00	9.633734e-05	
109	-2.10000e+00	9.646359e-05	
110	-2.15000e+00	9.658758e-05	
111	-2.20000e+00	9.670943e-05	
112	-2.25000e+00	9.682925e-05	

Index   v-sweep         i(vds)          
--------------------------------------------------------------------------------
113	-2.30000e+00	9.694715e-05	
114	-2.35000e+00	9.706324e-05	
115	-2.40000e+00	9.717761e-05	
116	-2.45000e+00	9.729036e-05	
117	-2.50000e+00	9.740161e-05	
118	-2.55000e+00	9.751146e-05	
119	-2.60000e+00	9.762003e-05	
120	-2.65000e+00	9.772743e-05	
121	-2.70000e+00	9.783382e-05	
122	-2.75000e+00	9.793934e-05	
123	-2.80000e+00	9.804417e-05	
124	-2.85000e+00	9.814848e-05	
125	-2.90000e+00	9.825251e-05	
126	-2.95000e+00	9.835648e-05	
127	-3.00000e+00	9.846068e-05	
128	-3.05000e+00	9.856542e-05	
129	-3.10000e+00	9.867104e-05	
130	-3.15000e+00	9.877793e-05	
131	-3.20000e+00	9.888654e-05	
132	-3.25000e+00	9.899734e-05	
133	-3.30000e+00	9.911088e-05	
134	-0.000000e+00	0.000000e+00	
135	-5.00000e-02	4.160446e-05	
136	-1.00000e-01	8.024118e-05	
137	-1.50000e-01	1.159502e-04	
138	-2.00000e-01	1.487710e-04	
139	-2.50000e-01	1.787428e-04	
140	-3.00000e-01	2.059047e-04	
141	-3.50000e-01	2.302960e-04	
142	-4.00000e-01	2.519570e-04	
143	-4.50000e-01	2.709302e-04	
144	-5.00000e-01	2.872629e-04	
145	-5.50000e-01	3.010127e-04	
146	-6.00000e-01	3.122594e-04	
147	-6.50000e-01	3.211287e-04	
148	-7.00000e-01	3.278363e-04	
149	-7.50000e-01	3.327338e-04	
150	-8.00000e-01	3.362885e-04	
151	-8.50000e-01	3.389589e-04	
152	-9.00000e-01	3.410784e-04	
153	-9.50000e-01	3.428476e-04	
154	-1.00000e+00	3.443796e-04	
155	-1.05000e+00	3.457399e-04	
156	-1.10000e+00	3.469690e-04	
157	-1.15000e+00	3.480936e-04	
158	-1.20000e+00	3.491325e-04	
159	-1.25000e+00	3.500993e-04	
160	-1.30000e+00	3.510046e-04	
161	-1.35000e+00	3.518567e-04	
162	-1.40000e+00	3.526620e-04	
163	-1.45000e+00	3.534261e-04	
164	-1.50000e+00	3.541533e-04	
165	-1.55000e+00	3.548475e-04	
166	-1.60000e+00	3.555119e-04	
167	-1.65000e+00	3.561492e-04	
168	-1.70000e+00	3.567617e-04	
169	-1.75000e+00	3.573517e-04	
170	-1.80000e+00	3.579208e-04	

Index   v-sweep         i(vds)          
--------------------------------------------------------------------------------
171	-1.85000e+00	3.584707e-04	
172	-1.90000e+00	3.590029e-04	
173	-1.95000e+00	3.595185e-04	
174	-2.00000e+00	3.600188e-04	
175	-2.05000e+00	3.605048e-04	
176	-2.10000e+00	3.609773e-04	
177	-2.15000e+00	3.614373e-04	
178	-2.20000e+00	3.618854e-04	
179	-2.25000e+00	3.623225e-04	
180	-2.30000e+00	3.627490e-04	
181	-2.35000e+00	3.631657e-04	
182	-2.40000e+00	3.635730e-04	
183	-2.45000e+00	3.639715e-04	
184	-2.50000e+00	3.643615e-04	
185	-2.55000e+00	3.647436e-04	
186	-2.60000e+00	3.651182e-04	
187	-2.65000e+00	3.654855e-04	
188	-2.70000e+00	3.658462e-04	
189	-2.75000e+00	3.662003e-04	
190	-2.80000e+00	3.665485e-04	
191	-2.85000e+00	3.668910e-04	
192	-2.90000e+00	3.672282e-04	
193	-2.95000e+00	3.675606e-04	
194	-3.00000e+00	3.678886e-04	
195	-3.05000e+00	3.682126e-04	
196	-3.10000e+00	3.685333e-04	
197	-3.15000e+00	3.688511e-04	
198	-3.20000e+00	3.691669e-04	
199	-3.25000e+00	3.694812e-04	
200	-3.30000e+00	3.697951e-04	
201	-0.000000e+00	0.000000e+00	
202	-5.00000e-02	5.821814e-05	
203	-1.00000e-01	1.136285e-04	
204	-1.50000e-01	1.662648e-04	
205	-2.00000e-01	2.161603e-04	
206	-2.50000e-01	2.633477e-04	
207	-3.00000e-01	3.078594e-04	
208	-3.50000e-01	3.497272e-04	
209	-4.00000e-01	3.889825e-04	
210	-4.50000e-01	4.256565e-04	
211	-5.00000e-01	4.597800e-04	
212	-5.50000e-01	4.913838e-04	
213	-6.00000e-01	5.204985e-04	
214	-6.50000e-01	5.471551e-04	
215	-7.00000e-01	5.713853e-04	
216	-7.50000e-01	5.932221e-04	
217	-8.00000e-01	6.127016e-04	
218	-8.50000e-01	6.298649e-04	
219	-9.00000e-01	6.447634e-04	
220	-9.50000e-01	6.574670e-04	
221	-1.00000e+00	6.680801e-04	
222	-1.05000e+00	6.767644e-04	
223	-1.10000e+00	6.837605e-04	
224	-1.15000e+00	6.893819e-04	
225	-1.20000e+00	6.939622e-04	
226	-1.25000e+00	6.977896e-04	
227	-1.30000e+00	7.010757e-04	
228	-1.35000e+00	7.039634e-04	

Index   v-sweep         i(vds)          
--------------------------------------------------------------------------------
229	-1.40000e+00	7.065473e-04	
230	-1.45000e+00	7.088916e-04	
231	-1.50000e+00	7.110412e-04	
232	-1.55000e+00	7.130289e-04	
233	-1.60000e+00	7.148795e-04	
234	-1.65000e+00	7.166123e-04	
235	-1.70000e+00	7.182425e-04	
236	-1.75000e+00	7.197826e-04	
237	-1.80000e+00	7.212427e-04	
238	-1.85000e+00	7.226313e-04	
239	-1.90000e+00	7.239556e-04	
240	-1.95000e+00	7.252219e-04	
241	-2.00000e+00	7.264353e-04	
242	-2.05000e+00	7.276005e-04	
243	-2.10000e+00	7.287215e-04	
244	-2.15000e+00	7.298018e-04	
245	-2.20000e+00	7.308445e-04	
246	-2.25000e+00	7.318524e-04	
247	-2.30000e+00	7.328279e-04	
248	-2.35000e+00	7.337733e-04	
249	-2.40000e+00	7.346906e-04	
250	-2.45000e+00	7.355816e-04	
251	-2.50000e+00	7.364479e-04	
252	-2.55000e+00	7.372909e-04	
253	-2.60000e+00	7.381121e-04	
254	-2.65000e+00	7.389127e-04	
255	-2.70000e+00	7.396938e-04	
256	-2.75000e+00	7.404566e-04	
257	-2.80000e+00	7.412018e-04	
258	-2.85000e+00	7.419306e-04	
259	-2.90000e+00	7.426436e-04	
260	-2.95000e+00	7.433418e-04	
261	-3.00000e+00	7.440259e-04	
262	-3.05000e+00	7.446966e-04	
263	-3.10000e+00	7.453546e-04	
264	-3.15000e+00	7.460007e-04	
265	-3.20000e+00	7.466356e-04	
266	-3.25000e+00	7.472601e-04	
267	-3.30000e+00	7.478750e-04	
268	-0.000000e+00	0.000000e+00	
269	-5.00000e-02	7.136903e-05	
270	-1.00000e-01	1.401187e-04	
271	-1.50000e-01	2.062775e-04	
272	-2.00000e-01	2.698734e-04	
273	-2.50000e-01	3.309343e-04	
274	-3.00000e-01	3.894873e-04	
275	-3.50000e-01	4.455594e-04	
276	-4.00000e-01	4.991771e-04	
277	-4.50000e-01	5.503666e-04	
278	-5.00000e-01	5.991539e-04	
279	-5.50000e-01	6.455644e-04	
280	-6.00000e-01	6.896234e-04	
281	-6.50000e-01	7.313558e-04	
282	-7.00000e-01	7.707863e-04	
283	-7.50000e-01	8.079394e-04	
284	-8.00000e-01	8.428394e-04	
285	-8.50000e-01	8.755105e-04	
286	-9.00000e-01	9.059769e-04	

Index   v-sweep         i(vds)          
--------------------------------------------------------------------------------
287	-9.50000e-01	9.342631e-04	
288	-1.00000e+00	9.603939e-04	
289	-1.05000e+00	9.843952e-04	
290	-1.10000e+00	1.006294e-03	
291	-1.15000e+00	1.026122e-03	
292	-1.20000e+00	1.043912e-03	
293	-1.25000e+00	1.059710e-03	
294	-1.30000e+00	1.073574e-03	
295	-1.35000e+00	1.085588e-03	
296	-1.40000e+00	1.095876e-03	
297	-1.45000e+00	1.104611e-03	
298	-1.50000e+00	1.112014e-03	
299	-1.55000e+00	1.118329e-03	
300	-1.60000e+00	1.123788e-03	
301	-1.65000e+00	1.128582e-03	
302	-1.70000e+00	1.132854e-03	
303	-1.75000e+00	1.136711e-03	
304	-1.80000e+00	1.140231e-03	
305	-1.85000e+00	1.143472e-03	
306	-1.90000e+00	1.146477e-03	
307	-1.95000e+00	1.149280e-03	
308	-2.00000e+00	1.151909e-03	
309	-2.05000e+00	1.154384e-03	
310	-2.10000e+00	1.156725e-03	
311	-2.15000e+00	1.158945e-03	
312	-2.20000e+00	1.161057e-03	
313	-2.25000e+00	1.163072e-03	
314	-2.30000e+00	1.164999e-03	
315	-2.35000e+00	1.166845e-03	
316	-2.40000e+00	1.168618e-03	
317	-2.45000e+00	1.170324e-03	
318	-2.50000e+00	1.171967e-03	
319	-2.55000e+00	1.173553e-03	
320	-2.60000e+00	1.175086e-03	
321	-2.65000e+00	1.176569e-03	
322	-2.70000e+00	1.178005e-03	
323	-2.75000e+00	1.179399e-03	
324	-2.80000e+00	1.180752e-03	
325	-2.85000e+00	1.182067e-03	
326	-2.90000e+00	1.183347e-03	
327	-2.95000e+00	1.184592e-03	
328	-3.00000e+00	1.185806e-03	
329	-3.05000e+00	1.186990e-03	
330	-3.10000e+00	1.188146e-03	
331	-3.15000e+00	1.189274e-03	
332	-3.20000e+00	1.190377e-03	
333	-3.25000e+00	1.191456e-03	
334	-3.30000e+00	1.192512e-03	
335	-0.000000e+00	0.000000e+00	
336	-5.00000e-02	8.175949e-05	
337	-1.00000e-01	1.610912e-04	
338	-1.50000e-01	2.380193e-04	
339	-2.00000e-01	3.125674e-04	
340	-2.50000e-01	3.847590e-04	
341	-3.00000e-01	4.546171e-04	
342	-3.50000e-01	5.221647e-04	
343	-4.00000e-01	5.874242e-04	
344	-4.50000e-01	6.504179e-04	

Index   v-sweep         i(vds)          
--------------------------------------------------------------------------------
345	-5.00000e-01	7.111678e-04	
346	-5.50000e-01	7.696955e-04	
347	-6.00000e-01	8.260225e-04	
348	-6.50000e-01	8.801700e-04	
349	-7.00000e-01	9.321588e-04	
350	-7.50000e-01	9.820097e-04	
351	-8.00000e-01	1.029743e-03	
352	-8.50000e-01	1.075379e-03	
353	-9.00000e-01	1.118938e-03	
354	-9.50000e-01	1.160439e-03	
355	-1.00000e+00	1.199902e-03	
356	-1.05000e+00	1.237347e-03	
357	-1.10000e+00	1.272793e-03	
358	-1.15000e+00	1.306258e-03	
359	-1.20000e+00	1.337764e-03	
360	-1.25000e+00	1.367328e-03	
361	-1.30000e+00	1.394971e-03	
362	-1.35000e+00	1.420713e-03	
363	-1.40000e+00	1.444574e-03	
364	-1.45000e+00	1.466578e-03	
365	-1.50000e+00	1.486749e-03	
366	-1.55000e+00	1.505118e-03	
367	-1.60000e+00	1.521720e-03	
368	-1.65000e+00	1.536603e-03	
369	-1.70000e+00	1.549833e-03	
370	-1.75000e+00	1.561503e-03	
371	-1.80000e+00	1.571739e-03	
372	-1.85000e+00	1.580700e-03	
373	-1.90000e+00	1.588570e-03	
374	-1.95000e+00	1.595529e-03	
375	-2.00000e+00	1.601743e-03	
376	-2.05000e+00	1.607347e-03	
377	-2.10000e+00	1.612448e-03	
378	-2.15000e+00	1.617130e-03	
379	-2.20000e+00	1.621458e-03	
380	-2.25000e+00	1.625484e-03	
381	-2.30000e+00	1.629250e-03	
382	-2.35000e+00	1.632787e-03	
383	-2.40000e+00	1.636123e-03	
384	-2.45000e+00	1.639281e-03	
385	-2.50000e+00	1.642279e-03	
386	-2.55000e+00	1.645134e-03	
387	-2.60000e+00	1.647859e-03	
388	-2.65000e+00	1.650466e-03	
389	-2.70000e+00	1.652966e-03	
390	-2.75000e+00	1.655367e-03	
391	-2.80000e+00	1.657677e-03	
392	-2.85000e+00	1.659904e-03	
393	-2.90000e+00	1.662052e-03	
394	-2.95000e+00	1.664129e-03	
395	-3.00000e+00	1.666139e-03	
396	-3.05000e+00	1.668086e-03	
397	-3.10000e+00	1.669975e-03	
398	-3.15000e+00	1.671809e-03	
399	-3.20000e+00	1.673591e-03	
400	-3.25000e+00	1.675325e-03	
401	-3.30000e+00	1.677013e-03	
Note: No ".plot", ".print", or ".fourier" lines; no simulations run
