
Note: Compatibility modes selected: hs

Warning: m=xx on .subckt line will override multiplier m hierarchy!


Circuit: ***************************

Doing analysis at TEMP = 25.000000 and TNOM = 25.000000


No. of Data Rows : 402
                          ***************************
                          DC transfer characteristic  Mon Jan  9 13:57:29  2023
--------------------------------------------------------------------------------
Index   v-sweep         i(vds)          
--------------------------------------------------------------------------------
0	-0.000000e+00	0.000000e+00	
1	-5.00000e-02	5.622048e-09	
2	-1.00000e-01	6.812029e-09	
3	-1.50000e-01	6.983426e-09	
4	-2.00000e-01	7.025750e-09	
5	-2.50000e-01	7.042480e-09	
6	-3.00000e-01	7.051313e-09	
7	-3.50000e-01	7.056941e-09	
8	-4.00000e-01	7.061014e-09	
9	-4.50000e-01	7.064230e-09	
10	-5.00000e-01	7.066927e-09	
11	-5.50000e-01	7.069287e-09	
12	-6.00000e-01	7.071413e-09	
13	-6.50000e-01	7.073370e-09	
14	-7.00000e-01	7.075201e-09	
15	-7.50000e-01	7.076932e-09	
16	-8.00000e-01	7.078585e-09	
17	-8.50000e-01	7.080173e-09	
18	-9.00000e-01	7.081708e-09	
19	-9.50000e-01	7.083197e-09	
20	-1.00000e+00	7.084647e-09	
21	-1.05000e+00	7.086063e-09	
22	-1.10000e+00	7.087449e-09	
23	-1.15000e+00	7.088808e-09	
24	-1.20000e+00	7.090144e-09	
25	-1.25000e+00	7.091459e-09	
26	-1.30000e+00	7.092754e-09	
27	-1.35000e+00	7.094032e-09	
28	-1.40000e+00	7.095293e-09	
29	-1.45000e+00	7.096540e-09	
30	-1.50000e+00	7.097773e-09	
31	-1.55000e+00	7.098993e-09	
32	-1.60000e+00	7.100202e-09	
33	-1.65000e+00	7.101399e-09	
34	-1.70000e+00	7.102587e-09	
35	-1.75000e+00	7.103764e-09	
36	-1.80000e+00	7.104933e-09	
37	-1.85000e+00	7.106093e-09	
38	-1.90000e+00	7.107245e-09	
39	-1.95000e+00	7.108389e-09	
40	-2.00000e+00	7.109526e-09	
41	-2.05000e+00	7.110657e-09	
42	-2.10000e+00	7.111781e-09	
43	-2.15000e+00	7.112900e-09	
44	-2.20000e+00	7.114014e-09	
45	-2.25000e+00	7.115123e-09	
46	-2.30000e+00	7.116228e-09	
47	-2.35000e+00	7.117330e-09	
48	-2.40000e+00	7.118431e-09	
49	-2.45000e+00	7.119531e-09	
50	-2.50000e+00	7.120633e-09	
51	-2.55000e+00	7.121738e-09	
52	-2.60000e+00	7.122849e-09	
53	-2.65000e+00	7.123971e-09	
54	-2.70000e+00	7.125106e-09	

Index   v-sweep         i(vds)          
--------------------------------------------------------------------------------
55	-2.75000e+00	7.126260e-09	
56	-2.80000e+00	7.127441e-09	
57	-2.85000e+00	7.128655e-09	
58	-2.90000e+00	7.129912e-09	
59	-2.95000e+00	7.131223e-09	
60	-3.00000e+00	7.132602e-09	
61	-3.05000e+00	7.134065e-09	
62	-3.10000e+00	7.135631e-09	
63	-3.15000e+00	7.137321e-09	
64	-3.20000e+00	7.139161e-09	
65	-3.25000e+00	7.141179e-09	
66	-3.30000e+00	7.143409e-09	
67	-0.000000e+00	0.000000e+00	
68	-5.00000e-02	8.381079e-08	
69	-1.00000e-01	1.554583e-07	
70	-1.50000e-01	2.149831e-07	
71	-2.00000e-01	2.624679e-07	
72	-2.50000e-01	2.981053e-07	
73	-3.00000e-01	3.223977e-07	
74	-3.50000e-01	3.366548e-07	
75	-4.00000e-01	3.435803e-07	
76	-4.50000e-01	3.465394e-07	
77	-5.00000e-01	3.478328e-07	
78	-5.50000e-01	3.484718e-07	
79	-6.00000e-01	3.488344e-07	
80	-6.50000e-01	3.490664e-07	
81	-7.00000e-01	3.492295e-07	
82	-7.50000e-01	3.493529e-07	
83	-8.00000e-01	3.494516e-07	
84	-8.50000e-01	3.495340e-07	
85	-9.00000e-01	3.496048e-07	
86	-9.50000e-01	3.496674e-07	
87	-1.00000e+00	3.497236e-07	
88	-1.05000e+00	3.497749e-07	
89	-1.10000e+00	3.498223e-07	
90	-1.15000e+00	3.498664e-07	
91	-1.20000e+00	3.499079e-07	
92	-1.25000e+00	3.499470e-07	
93	-1.30000e+00	3.499843e-07	
94	-1.35000e+00	3.500198e-07	
95	-1.40000e+00	3.500539e-07	
96	-1.45000e+00	3.500866e-07	
97	-1.50000e+00	3.501181e-07	
98	-1.55000e+00	3.501486e-07	
99	-1.60000e+00	3.501781e-07	
100	-1.65000e+00	3.502067e-07	
101	-1.70000e+00	3.502345e-07	
102	-1.75000e+00	3.502616e-07	
103	-1.80000e+00	3.502880e-07	
104	-1.85000e+00	3.503137e-07	
105	-1.90000e+00	3.503389e-07	
106	-1.95000e+00	3.503635e-07	
107	-2.00000e+00	3.503876e-07	
108	-2.05000e+00	3.504112e-07	
109	-2.10000e+00	3.504344e-07	
110	-2.15000e+00	3.504572e-07	
111	-2.20000e+00	3.504795e-07	
112	-2.25000e+00	3.505015e-07	

Index   v-sweep         i(vds)          
--------------------------------------------------------------------------------
113	-2.30000e+00	3.505231e-07	
114	-2.35000e+00	3.505444e-07	
115	-2.40000e+00	3.505653e-07	
116	-2.45000e+00	3.505860e-07	
117	-2.50000e+00	3.506064e-07	
118	-2.55000e+00	3.506266e-07	
119	-2.60000e+00	3.506466e-07	
120	-2.65000e+00	3.506665e-07	
121	-2.70000e+00	3.506862e-07	
122	-2.75000e+00	3.507059e-07	
123	-2.80000e+00	3.507257e-07	
124	-2.85000e+00	3.507456e-07	
125	-2.90000e+00	3.507658e-07	
126	-2.95000e+00	3.507864e-07	
127	-3.00000e+00	3.508077e-07	
128	-3.05000e+00	3.508299e-07	
129	-3.10000e+00	3.508533e-07	
130	-3.15000e+00	3.508783e-07	
131	-3.20000e+00	3.509054e-07	
132	-3.25000e+00	3.509350e-07	
133	-3.30000e+00	3.509678e-07	
134	-0.000000e+00	0.000000e+00	
135	-5.00000e-02	1.628965e-07	
136	-1.00000e-01	3.139269e-07	
137	-1.50000e-01	4.530994e-07	
138	-2.00000e-01	5.804240e-07	
139	-2.50000e-01	6.959128e-07	
140	-3.00000e-01	7.995815e-07	
141	-3.50000e-01	8.914526e-07	
142	-4.00000e-01	9.715601e-07	
143	-4.50000e-01	1.039960e-06	
144	-5.00000e-01	1.096754e-06	
145	-5.50000e-01	1.142135e-06	
146	-6.00000e-01	1.176495e-06	
147	-6.50000e-01	1.200631e-06	
148	-7.00000e-01	1.216034e-06	
149	-7.50000e-01	1.224951e-06	
150	-8.00000e-01	1.229822e-06	
151	-8.50000e-01	1.232504e-06	
152	-9.00000e-01	1.234071e-06	
153	-9.50000e-01	1.235063e-06	
154	-1.00000e+00	1.235742e-06	
155	-1.05000e+00	1.236241e-06	
156	-1.10000e+00	1.236627e-06	
157	-1.15000e+00	1.236941e-06	
158	-1.20000e+00	1.237205e-06	
159	-1.25000e+00	1.237433e-06	
160	-1.30000e+00	1.237635e-06	
161	-1.35000e+00	1.237816e-06	
162	-1.40000e+00	1.237981e-06	
163	-1.45000e+00	1.238133e-06	
164	-1.50000e+00	1.238274e-06	
165	-1.55000e+00	1.238406e-06	
166	-1.60000e+00	1.238530e-06	
167	-1.65000e+00	1.238648e-06	
168	-1.70000e+00	1.238760e-06	
169	-1.75000e+00	1.238867e-06	
170	-1.80000e+00	1.238969e-06	

Index   v-sweep         i(vds)          
--------------------------------------------------------------------------------
171	-1.85000e+00	1.239067e-06	
172	-1.90000e+00	1.239162e-06	
173	-1.95000e+00	1.239253e-06	
174	-2.00000e+00	1.239342e-06	
175	-2.05000e+00	1.239427e-06	
176	-2.10000e+00	1.239510e-06	
177	-2.15000e+00	1.239590e-06	
178	-2.20000e+00	1.239669e-06	
179	-2.25000e+00	1.239745e-06	
180	-2.30000e+00	1.239819e-06	
181	-2.35000e+00	1.239892e-06	
182	-2.40000e+00	1.239963e-06	
183	-2.45000e+00	1.240032e-06	
184	-2.50000e+00	1.240100e-06	
185	-2.55000e+00	1.240166e-06	
186	-2.60000e+00	1.240231e-06	
187	-2.65000e+00	1.240295e-06	
188	-2.70000e+00	1.240358e-06	
189	-2.75000e+00	1.240420e-06	
190	-2.80000e+00	1.240480e-06	
191	-2.85000e+00	1.240540e-06	
192	-2.90000e+00	1.240599e-06	
193	-2.95000e+00	1.240657e-06	
194	-3.00000e+00	1.240715e-06	
195	-3.05000e+00	1.240773e-06	
196	-3.10000e+00	1.240830e-06	
197	-3.15000e+00	1.240888e-06	
198	-3.20000e+00	1.240946e-06	
199	-3.25000e+00	1.241005e-06	
200	-3.30000e+00	1.241067e-06	
201	-0.000000e+00	0.000000e+00	
202	-5.00000e-02	2.337623e-07	
203	-1.00000e-01	4.563673e-07	
204	-1.50000e-01	6.678204e-07	
205	-2.00000e-01	8.681275e-07	
206	-2.50000e-01	1.057294e-06	
207	-3.00000e-01	1.235328e-06	
208	-3.50000e-01	1.402234e-06	
209	-4.00000e-01	1.558021e-06	
210	-4.50000e-01	1.702698e-06	
211	-5.00000e-01	1.836274e-06	
212	-5.50000e-01	1.958762e-06	
213	-6.00000e-01	2.070179e-06	
214	-6.50000e-01	2.170546e-06	
215	-7.00000e-01	2.259895e-06	
216	-7.50000e-01	2.338275e-06	
217	-8.00000e-01	2.405764e-06	
218	-8.50000e-01	2.462492e-06	
219	-9.00000e-01	2.508692e-06	
220	-9.50000e-01	2.544778e-06	
221	-1.00000e+00	2.571483e-06	
222	-1.05000e+00	2.590015e-06	
223	-1.10000e+00	2.602074e-06	
224	-1.15000e+00	2.609580e-06	
225	-1.20000e+00	2.614212e-06	
226	-1.25000e+00	2.617151e-06	
227	-1.30000e+00	2.619110e-06	
228	-1.35000e+00	2.620493e-06	

Index   v-sweep         i(vds)          
--------------------------------------------------------------------------------
229	-1.40000e+00	2.621524e-06	
230	-1.45000e+00	2.622331e-06	
231	-1.50000e+00	2.622988e-06	
232	-1.55000e+00	2.623540e-06	
233	-1.60000e+00	2.624016e-06	
234	-1.65000e+00	2.624436e-06	
235	-1.70000e+00	2.624813e-06	
236	-1.75000e+00	2.625154e-06	
237	-1.80000e+00	2.625468e-06	
238	-1.85000e+00	2.625759e-06	
239	-1.90000e+00	2.626031e-06	
240	-1.95000e+00	2.626286e-06	
241	-2.00000e+00	2.626527e-06	
242	-2.05000e+00	2.626756e-06	
243	-2.10000e+00	2.626973e-06	
244	-2.15000e+00	2.627181e-06	
245	-2.20000e+00	2.627381e-06	
246	-2.25000e+00	2.627572e-06	
247	-2.30000e+00	2.627756e-06	
248	-2.35000e+00	2.627934e-06	
249	-2.40000e+00	2.628106e-06	
250	-2.45000e+00	2.628273e-06	
251	-2.50000e+00	2.628434e-06	
252	-2.55000e+00	2.628591e-06	
253	-2.60000e+00	2.628743e-06	
254	-2.65000e+00	2.628891e-06	
255	-2.70000e+00	2.629036e-06	
256	-2.75000e+00	2.629177e-06	
257	-2.80000e+00	2.629314e-06	
258	-2.85000e+00	2.629449e-06	
259	-2.90000e+00	2.629580e-06	
260	-2.95000e+00	2.629709e-06	
261	-3.00000e+00	2.629835e-06	
262	-3.05000e+00	2.629959e-06	
263	-3.10000e+00	2.630080e-06	
264	-3.15000e+00	2.630199e-06	
265	-3.20000e+00	2.630316e-06	
266	-3.25000e+00	2.630432e-06	
267	-3.30000e+00	2.630546e-06	
268	-0.000000e+00	0.000000e+00	
269	-5.00000e-02	2.962384e-07	
270	-1.00000e-01	5.821146e-07	
271	-1.50000e-01	8.576331e-07	
272	-2.00000e-01	1.122799e-06	
273	-2.50000e-01	1.377616e-06	
274	-3.00000e-01	1.622089e-06	
275	-3.50000e-01	1.856223e-06	
276	-4.00000e-01	2.080023e-06	
277	-4.50000e-01	2.293494e-06	
278	-5.00000e-01	2.496642e-06	
279	-5.50000e-01	2.689471e-06	
280	-6.00000e-01	2.871988e-06	
281	-6.50000e-01	3.044199e-06	
282	-7.00000e-01	3.206111e-06	
283	-7.50000e-01	3.357731e-06	
284	-8.00000e-01	3.499070e-06	
285	-8.50000e-01	3.630137e-06	
286	-9.00000e-01	3.750947e-06	

Index   v-sweep         i(vds)          
--------------------------------------------------------------------------------
287	-9.50000e-01	3.861518e-06	
288	-1.00000e+00	3.961872e-06	
289	-1.05000e+00	4.052044e-06	
290	-1.10000e+00	4.132084e-06	
291	-1.15000e+00	4.202066e-06	
292	-1.20000e+00	4.262111e-06	
293	-1.25000e+00	4.312413e-06	
294	-1.30000e+00	4.353295e-06	
295	-1.35000e+00	4.385288e-06	
296	-1.40000e+00	4.409223e-06	
297	-1.45000e+00	4.426294e-06	
298	-1.50000e+00	4.437977e-06	
299	-1.55000e+00	4.445789e-06	
300	-1.60000e+00	4.451023e-06	
301	-1.65000e+00	4.454616e-06	
302	-1.70000e+00	4.457179e-06	
303	-1.75000e+00	4.459088e-06	
304	-1.80000e+00	4.460572e-06	
305	-1.85000e+00	4.461768e-06	
306	-1.90000e+00	4.462764e-06	
307	-1.95000e+00	4.463616e-06	
308	-2.00000e+00	4.464361e-06	
309	-2.05000e+00	4.465023e-06	
310	-2.10000e+00	4.465621e-06	
311	-2.15000e+00	4.466167e-06	
312	-2.20000e+00	4.466670e-06	
313	-2.25000e+00	4.467137e-06	
314	-2.30000e+00	4.467575e-06	
315	-2.35000e+00	4.467987e-06	
316	-2.40000e+00	4.468376e-06	
317	-2.45000e+00	4.468746e-06	
318	-2.50000e+00	4.469099e-06	
319	-2.55000e+00	4.469435e-06	
320	-2.60000e+00	4.469758e-06	
321	-2.65000e+00	4.470069e-06	
322	-2.70000e+00	4.470367e-06	
323	-2.75000e+00	4.470656e-06	
324	-2.80000e+00	4.470934e-06	
325	-2.85000e+00	4.471204e-06	
326	-2.90000e+00	4.471466e-06	
327	-2.95000e+00	4.471719e-06	
328	-3.00000e+00	4.471966e-06	
329	-3.05000e+00	4.472206e-06	
330	-3.10000e+00	4.472440e-06	
331	-3.15000e+00	4.472668e-06	
332	-3.20000e+00	4.472890e-06	
333	-3.25000e+00	4.473107e-06	
334	-3.30000e+00	4.473320e-06	
335	-0.000000e+00	0.000000e+00	
336	-5.00000e-02	3.506689e-07	
337	-1.00000e-01	6.917770e-07	
338	-1.50000e-01	1.023328e-06	
339	-2.00000e-01	1.345327e-06	
340	-2.50000e-01	1.657776e-06	
341	-3.00000e-01	1.960680e-06	
342	-3.50000e-01	2.254043e-06	
343	-4.00000e-01	2.537869e-06	
344	-4.50000e-01	2.812161e-06	

Index   v-sweep         i(vds)          
--------------------------------------------------------------------------------
345	-5.00000e-01	3.076925e-06	
346	-5.50000e-01	3.332163e-06	
347	-6.00000e-01	3.577881e-06	
348	-6.50000e-01	3.814082e-06	
349	-7.00000e-01	4.040771e-06	
350	-7.50000e-01	4.257952e-06	
351	-8.00000e-01	4.465630e-06	
352	-8.50000e-01	4.663809e-06	
353	-9.00000e-01	4.852496e-06	
354	-9.50000e-01	5.031695e-06	
355	-1.00000e+00	5.201412e-06	
356	-1.05000e+00	5.361654e-06	
357	-1.10000e+00	5.512429e-06	
358	-1.15000e+00	5.653745e-06	
359	-1.20000e+00	5.785611e-06	
360	-1.25000e+00	5.908042e-06	
361	-1.30000e+00	6.021053e-06	
362	-1.35000e+00	6.124665e-06	
363	-1.40000e+00	6.218906e-06	
364	-1.45000e+00	6.303817e-06	
365	-1.50000e+00	6.379455e-06	
366	-1.55000e+00	6.445908e-06	
367	-1.60000e+00	6.503306e-06	
368	-1.65000e+00	6.551856e-06	
369	-1.70000e+00	6.591878e-06	
370	-1.75000e+00	6.623867e-06	
371	-1.80000e+00	6.648550e-06	
372	-1.85000e+00	6.666918e-06	
373	-1.90000e+00	6.680167e-06	
374	-1.95000e+00	6.689548e-06	
375	-2.00000e+00	6.696182e-06	
376	-2.05000e+00	6.700948e-06	
377	-2.10000e+00	6.704466e-06	
378	-2.15000e+00	6.707153e-06	
379	-2.20000e+00	6.709276e-06	
380	-2.25000e+00	6.711008e-06	
381	-2.30000e+00	6.712461e-06	
382	-2.35000e+00	6.713709e-06	
383	-2.40000e+00	6.714803e-06	
384	-2.45000e+00	6.715778e-06	
385	-2.50000e+00	6.716659e-06	
386	-2.55000e+00	6.717464e-06	
387	-2.60000e+00	6.718206e-06	
388	-2.65000e+00	6.718896e-06	
389	-2.70000e+00	6.719542e-06	
390	-2.75000e+00	6.720149e-06	
391	-2.80000e+00	6.720723e-06	
392	-2.85000e+00	6.721268e-06	
393	-2.90000e+00	6.721787e-06	
394	-2.95000e+00	6.722283e-06	
395	-3.00000e+00	6.722758e-06	
396	-3.05000e+00	6.723214e-06	
397	-3.10000e+00	6.723653e-06	
398	-3.15000e+00	6.724077e-06	
399	-3.20000e+00	6.724486e-06	
400	-3.25000e+00	6.724882e-06	
401	-3.30000e+00	6.725265e-06	
Note: No ".plot", ".print", or ".fourier" lines; no simulations run
