
Note: Compatibility modes selected: hs

Warning: m=xx on .subckt line will override multiplier m hierarchy!


Circuit: ***************************

Doing analysis at TEMP = -40.000000 and TNOM = -40.000000


No. of Data Rows : 402
                          ***************************
                          DC transfer characteristic  Mon Jan  9 13:57:29  2023
--------------------------------------------------------------------------------
Index   v-sweep         i(vds)          
--------------------------------------------------------------------------------
0	-0.000000e+00	0.000000e+00	
1	-5.00000e-02	9.692418e-08	
2	-1.00000e-01	1.064872e-07	
3	-1.50000e-01	1.086945e-07	
4	-2.00000e-01	1.099671e-07	
5	-2.50000e-01	1.109688e-07	
6	-3.00000e-01	1.118457e-07	
7	-3.50000e-01	1.126482e-07	
8	-4.00000e-01	1.133993e-07	
9	-4.50000e-01	1.141118e-07	
10	-5.00000e-01	1.147938e-07	
11	-5.50000e-01	1.154507e-07	
12	-6.00000e-01	1.160868e-07	
13	-6.50000e-01	1.167049e-07	
14	-7.00000e-01	1.173076e-07	
15	-7.50000e-01	1.178968e-07	
16	-8.00000e-01	1.184742e-07	
17	-8.50000e-01	1.190409e-07	
18	-9.00000e-01	1.195982e-07	
19	-9.50000e-01	1.201471e-07	
20	-1.00000e+00	1.206883e-07	
21	-1.05000e+00	1.212226e-07	
22	-1.10000e+00	1.217507e-07	
23	-1.15000e+00	1.222730e-07	
24	-1.20000e+00	1.227901e-07	
25	-1.25000e+00	1.233023e-07	
26	-1.30000e+00	1.238102e-07	
27	-1.35000e+00	1.243141e-07	
28	-1.40000e+00	1.248142e-07	
29	-1.45000e+00	1.253108e-07	
30	-1.50000e+00	1.258043e-07	
31	-1.55000e+00	1.262948e-07	
32	-1.60000e+00	1.267826e-07	
33	-1.65000e+00	1.272678e-07	
34	-1.70000e+00	1.277507e-07	
35	-1.75000e+00	1.282315e-07	
36	-1.80000e+00	1.287102e-07	
37	-1.85000e+00	1.291870e-07	
38	-1.90000e+00	1.296620e-07	
39	-1.95000e+00	1.301355e-07	
40	-2.00000e+00	1.306075e-07	
41	-2.05000e+00	1.310782e-07	
42	-2.10000e+00	1.315476e-07	
43	-2.15000e+00	1.320160e-07	
44	-2.20000e+00	1.324834e-07	
45	-2.25000e+00	1.329500e-07	
46	-2.30000e+00	1.334160e-07	
47	-2.35000e+00	1.338816e-07	
48	-2.40000e+00	1.343469e-07	
49	-2.45000e+00	1.348121e-07	
50	-2.50000e+00	1.352777e-07	
51	-2.55000e+00	1.357437e-07	
52	-2.60000e+00	1.362106e-07	
53	-2.65000e+00	1.366788e-07	
54	-2.70000e+00	1.371486e-07	

Index   v-sweep         i(vds)          
--------------------------------------------------------------------------------
55	-2.75000e+00	1.376206e-07	
56	-2.80000e+00	1.380953e-07	
57	-2.85000e+00	1.385733e-07	
58	-2.90000e+00	1.390553e-07	
59	-2.95000e+00	1.395422e-07	
60	-3.00000e+00	1.400348e-07	
61	-3.05000e+00	1.405339e-07	
62	-3.10000e+00	1.410408e-07	
63	-3.15000e+00	1.415565e-07	
64	-3.20000e+00	1.420823e-07	
65	-3.25000e+00	1.426196e-07	
66	-3.30000e+00	1.431699e-07	
67	-0.000000e+00	0.000000e+00	
68	-5.00000e-02	1.022406e-05	
69	-1.00000e-01	1.897251e-05	
70	-1.50000e-01	2.627079e-05	
71	-2.00000e-01	3.214811e-05	
72	-2.50000e-01	3.664418e-05	
73	-3.00000e-01	3.982847e-05	
74	-3.50000e-01	4.184914e-05	
75	-4.00000e-01	4.299655e-05	
76	-4.50000e-01	4.364228e-05	
77	-5.00000e-01	4.405527e-05	
78	-5.50000e-01	4.436143e-05	
79	-6.00000e-01	4.461143e-05	
80	-6.50000e-01	4.482700e-05	
81	-7.00000e-01	4.501882e-05	
82	-7.50000e-01	4.519288e-05	
83	-8.00000e-01	4.535295e-05	
84	-8.50000e-01	4.550160e-05	
85	-9.00000e-01	4.564068e-05	
86	-9.50000e-01	4.577158e-05	
87	-1.00000e+00	4.589540e-05	
88	-1.05000e+00	4.601301e-05	
89	-1.10000e+00	4.612512e-05	
90	-1.15000e+00	4.623232e-05	
91	-1.20000e+00	4.633512e-05	
92	-1.25000e+00	4.643394e-05	
93	-1.30000e+00	4.652914e-05	
94	-1.35000e+00	4.662104e-05	
95	-1.40000e+00	4.670991e-05	
96	-1.45000e+00	4.679599e-05	
97	-1.50000e+00	4.687951e-05	
98	-1.55000e+00	4.696064e-05	
99	-1.60000e+00	4.703956e-05	
100	-1.65000e+00	4.711641e-05	
101	-1.70000e+00	4.719135e-05	
102	-1.75000e+00	4.726448e-05	
103	-1.80000e+00	4.733592e-05	
104	-1.85000e+00	4.740578e-05	
105	-1.90000e+00	4.747414e-05	
106	-1.95000e+00	4.754110e-05	
107	-2.00000e+00	4.760672e-05	
108	-2.05000e+00	4.767109e-05	
109	-2.10000e+00	4.773426e-05	
110	-2.15000e+00	4.779630e-05	
111	-2.20000e+00	4.785728e-05	
112	-2.25000e+00	4.791724e-05	

Index   v-sweep         i(vds)          
--------------------------------------------------------------------------------
113	-2.30000e+00	4.797623e-05	
114	-2.35000e+00	4.803432e-05	
115	-2.40000e+00	4.809155e-05	
116	-2.45000e+00	4.814797e-05	
117	-2.50000e+00	4.820363e-05	
118	-2.55000e+00	4.825859e-05	
119	-2.60000e+00	4.831291e-05	
120	-2.65000e+00	4.836664e-05	
121	-2.70000e+00	4.841987e-05	
122	-2.75000e+00	4.847265e-05	
123	-2.80000e+00	4.852508e-05	
124	-2.85000e+00	4.857725e-05	
125	-2.90000e+00	4.862927e-05	
126	-2.95000e+00	4.868126e-05	
127	-3.00000e+00	4.873336e-05	
128	-3.05000e+00	4.878571e-05	
129	-3.10000e+00	4.883850e-05	
130	-3.15000e+00	4.889191e-05	
131	-3.20000e+00	4.894617e-05	
132	-3.25000e+00	4.900151e-05	
133	-3.30000e+00	4.905820e-05	
134	-0.000000e+00	0.000000e+00	
135	-5.00000e-02	2.055928e-05	
136	-1.00000e-01	3.965684e-05	
137	-1.50000e-01	5.731211e-05	
138	-2.00000e-01	7.354430e-05	
139	-2.50000e-01	8.837248e-05	
140	-3.00000e-01	1.018156e-04	
141	-3.50000e-01	1.138929e-04	
142	-4.00000e-01	1.246239e-04	
143	-4.50000e-01	1.340292e-04	
144	-5.00000e-01	1.421320e-04	
145	-5.50000e-01	1.489601e-04	
146	-6.00000e-01	1.545522e-04	
147	-6.50000e-01	1.589691e-04	
148	-7.00000e-01	1.623150e-04	
149	-7.50000e-01	1.647605e-04	
150	-8.00000e-01	1.665352e-04	
151	-8.50000e-01	1.678667e-04	
152	-9.00000e-01	1.689225e-04	
153	-9.50000e-01	1.698035e-04	
154	-1.00000e+00	1.705667e-04	
155	-1.05000e+00	1.712448e-04	
156	-1.10000e+00	1.718579e-04	
157	-1.15000e+00	1.724193e-04	
158	-1.20000e+00	1.729382e-04	
159	-1.25000e+00	1.734215e-04	
160	-1.30000e+00	1.738743e-04	
161	-1.35000e+00	1.743006e-04	
162	-1.40000e+00	1.747038e-04	
163	-1.45000e+00	1.750864e-04	
164	-1.50000e+00	1.754507e-04	
165	-1.55000e+00	1.757986e-04	
166	-1.60000e+00	1.761316e-04	
167	-1.65000e+00	1.764511e-04	
168	-1.70000e+00	1.767582e-04	
169	-1.75000e+00	1.770541e-04	
170	-1.80000e+00	1.773396e-04	

Index   v-sweep         i(vds)          
--------------------------------------------------------------------------------
171	-1.85000e+00	1.776155e-04	
172	-1.90000e+00	1.778826e-04	
173	-1.95000e+00	1.781414e-04	
174	-2.00000e+00	1.783925e-04	
175	-2.05000e+00	1.786364e-04	
176	-2.10000e+00	1.788736e-04	
177	-2.15000e+00	1.791046e-04	
178	-2.20000e+00	1.793296e-04	
179	-2.25000e+00	1.795490e-04	
180	-2.30000e+00	1.797633e-04	
181	-2.35000e+00	1.799725e-04	
182	-2.40000e+00	1.801771e-04	
183	-2.45000e+00	1.803772e-04	
184	-2.50000e+00	1.805731e-04	
185	-2.55000e+00	1.807650e-04	
186	-2.60000e+00	1.809531e-04	
187	-2.65000e+00	1.811376e-04	
188	-2.70000e+00	1.813188e-04	
189	-2.75000e+00	1.814967e-04	
190	-2.80000e+00	1.816716e-04	
191	-2.85000e+00	1.818436e-04	
192	-2.90000e+00	1.820130e-04	
193	-2.95000e+00	1.821799e-04	
194	-3.00000e+00	1.823446e-04	
195	-3.05000e+00	1.825073e-04	
196	-3.10000e+00	1.826684e-04	
197	-3.15000e+00	1.828279e-04	
198	-3.20000e+00	1.829864e-04	
199	-3.25000e+00	1.831442e-04	
200	-3.30000e+00	1.833018e-04	
201	-0.000000e+00	0.000000e+00	
202	-5.00000e-02	2.879656e-05	
203	-1.00000e-01	5.620910e-05	
204	-1.50000e-01	8.225405e-05	
205	-2.00000e-01	1.069476e-04	
206	-2.50000e-01	1.303057e-04	
207	-3.00000e-01	1.523440e-04	
208	-3.50000e-01	1.730781e-04	
209	-4.00000e-01	1.925233e-04	
210	-4.50000e-01	2.106948e-04	
211	-5.00000e-01	2.276076e-04	
212	-5.50000e-01	2.432767e-04	
213	-6.00000e-01	2.577170e-04	
214	-6.50000e-01	2.709436e-04	
215	-7.00000e-01	2.829721e-04	
216	-7.50000e-01	2.938184e-04	
217	-8.00000e-01	3.035002e-04	
218	-8.50000e-01	3.120375e-04	
219	-9.00000e-01	3.194552e-04	
220	-9.50000e-01	3.257871e-04	
221	-1.00000e+00	3.310836e-04	
222	-1.05000e+00	3.354228e-04	
223	-1.10000e+00	3.389213e-04	
224	-1.15000e+00	3.417326e-04	
225	-1.20000e+00	3.440221e-04	
226	-1.25000e+00	3.459343e-04	
227	-1.30000e+00	3.475757e-04	
228	-1.35000e+00	3.490184e-04	

Index   v-sweep         i(vds)          
--------------------------------------------------------------------------------
229	-1.40000e+00	3.503099e-04	
230	-1.45000e+00	3.514822e-04	
231	-1.50000e+00	3.525578e-04	
232	-1.55000e+00	3.535529e-04	
233	-1.60000e+00	3.544799e-04	
234	-1.65000e+00	3.553484e-04	
235	-1.70000e+00	3.561657e-04	
236	-1.75000e+00	3.569382e-04	
237	-1.80000e+00	3.576708e-04	
238	-1.85000e+00	3.583679e-04	
239	-1.90000e+00	3.590328e-04	
240	-1.95000e+00	3.596688e-04	
241	-2.00000e+00	3.602783e-04	
242	-2.05000e+00	3.608638e-04	
243	-2.10000e+00	3.614272e-04	
244	-2.15000e+00	3.619702e-04	
245	-2.20000e+00	3.624944e-04	
246	-2.25000e+00	3.630012e-04	
247	-2.30000e+00	3.634917e-04	
248	-2.35000e+00	3.639672e-04	
249	-2.40000e+00	3.644286e-04	
250	-2.45000e+00	3.648768e-04	
251	-2.50000e+00	3.653126e-04	
252	-2.55000e+00	3.657368e-04	
253	-2.60000e+00	3.661500e-04	
254	-2.65000e+00	3.665529e-04	
255	-2.70000e+00	3.669460e-04	
256	-2.75000e+00	3.673298e-04	
257	-2.80000e+00	3.677049e-04	
258	-2.85000e+00	3.680717e-04	
259	-2.90000e+00	3.684306e-04	
260	-2.95000e+00	3.687821e-04	
261	-3.00000e+00	3.691264e-04	
262	-3.05000e+00	3.694640e-04	
263	-3.10000e+00	3.697952e-04	
264	-3.15000e+00	3.701205e-04	
265	-3.20000e+00	3.704401e-04	
266	-3.25000e+00	3.707544e-04	
267	-3.30000e+00	3.710639e-04	
268	-0.000000e+00	0.000000e+00	
269	-5.00000e-02	3.532912e-05	
270	-1.00000e-01	6.936616e-05	
271	-1.50000e-01	1.021250e-04	
272	-2.00000e-01	1.336193e-04	
273	-2.50000e-01	1.638626e-04	
274	-3.00000e-01	1.928682e-04	
275	-3.50000e-01	2.206493e-04	
276	-4.00000e-01	2.472187e-04	
277	-4.50000e-01	2.725892e-04	
278	-5.00000e-01	2.967735e-04	
279	-5.50000e-01	3.197841e-04	
280	-6.00000e-01	3.416332e-04	
281	-6.50000e-01	3.623331e-04	
282	-7.00000e-01	3.818958e-04	
283	-7.50000e-01	4.003332e-04	
284	-8.00000e-01	4.176572e-04	
285	-8.50000e-01	4.338797e-04	
286	-9.00000e-01	4.490124e-04	

Index   v-sweep         i(vds)          
--------------------------------------------------------------------------------
287	-9.50000e-01	4.630674e-04	
288	-1.00000e+00	4.760568e-04	
289	-1.05000e+00	4.879932e-04	
290	-1.10000e+00	4.988900e-04	
291	-1.15000e+00	5.087619e-04	
292	-1.20000e+00	5.176260e-04	
293	-1.25000e+00	5.255038e-04	
294	-1.30000e+00	5.324237e-04	
295	-1.35000e+00	5.384264e-04	
296	-1.40000e+00	5.435714e-04	
297	-1.45000e+00	5.479426e-04	
298	-1.50000e+00	5.516485e-04	
299	-1.55000e+00	5.548101e-04	
300	-1.60000e+00	5.575424e-04	
301	-1.65000e+00	5.599414e-04	
302	-1.70000e+00	5.620801e-04	
303	-1.75000e+00	5.640118e-04	
304	-1.80000e+00	5.657754e-04	
305	-1.85000e+00	5.673998e-04	
306	-1.90000e+00	5.689069e-04	
307	-1.95000e+00	5.703134e-04	
308	-2.00000e+00	5.716328e-04	
309	-2.05000e+00	5.728759e-04	
310	-2.10000e+00	5.740516e-04	
311	-2.15000e+00	5.751673e-04	
312	-2.20000e+00	5.762290e-04	
313	-2.25000e+00	5.772421e-04	
314	-2.30000e+00	5.782112e-04	
315	-2.35000e+00	5.791401e-04	
316	-2.40000e+00	5.800322e-04	
317	-2.45000e+00	5.808905e-04	
318	-2.50000e+00	5.817177e-04	
319	-2.55000e+00	5.825161e-04	
320	-2.60000e+00	5.832878e-04	
321	-2.65000e+00	5.840346e-04	
322	-2.70000e+00	5.847582e-04	
323	-2.75000e+00	5.854601e-04	
324	-2.80000e+00	5.861417e-04	
325	-2.85000e+00	5.868043e-04	
326	-2.90000e+00	5.874489e-04	
327	-2.95000e+00	5.880766e-04	
328	-3.00000e+00	5.886883e-04	
329	-3.05000e+00	5.892849e-04	
330	-3.10000e+00	5.898673e-04	
331	-3.15000e+00	5.904361e-04	
332	-3.20000e+00	5.909921e-04	
333	-3.25000e+00	5.915358e-04	
334	-3.30000e+00	5.920680e-04	
335	-0.000000e+00	0.000000e+00	
336	-5.00000e-02	4.049884e-05	
337	-1.00000e-01	7.979934e-05	
338	-1.50000e-01	1.179132e-04	
339	-2.00000e-01	1.548520e-04	
340	-2.50000e-01	1.906273e-04	
341	-3.00000e-01	2.252502e-04	
342	-3.50000e-01	2.587319e-04	
343	-4.00000e-01	2.910835e-04	
344	-4.50000e-01	3.223158e-04	

Index   v-sweep         i(vds)          
--------------------------------------------------------------------------------
345	-5.00000e-01	3.524395e-04	
346	-5.50000e-01	3.814652e-04	
347	-6.00000e-01	4.094034e-04	
348	-6.50000e-01	4.362645e-04	
349	-7.00000e-01	4.620586e-04	
350	-7.50000e-01	4.867959e-04	
351	-8.00000e-01	5.104864e-04	
352	-8.50000e-01	5.331399e-04	
353	-9.00000e-01	5.547662e-04	
354	-9.50000e-01	5.753750e-04	
355	-1.00000e+00	5.949760e-04	
356	-1.05000e+00	6.135785e-04	
357	-1.10000e+00	6.311922e-04	
358	-1.15000e+00	6.478264e-04	
359	-1.20000e+00	6.634906e-04	
360	-1.25000e+00	6.781943e-04	
361	-1.30000e+00	6.919471e-04	
362	-1.35000e+00	7.047589e-04	
363	-1.40000e+00	7.166401e-04	
364	-1.45000e+00	7.276017e-04	
365	-1.50000e+00	7.376559e-04	
366	-1.55000e+00	7.468172e-04	
367	-1.60000e+00	7.551032e-04	
368	-1.65000e+00	7.625371e-04	
369	-1.70000e+00	7.691509e-04	
370	-1.75000e+00	7.749893e-04	
371	-1.80000e+00	7.801136e-04	
372	-1.85000e+00	7.846022e-04	
373	-1.90000e+00	7.885448e-04	
374	-1.95000e+00	7.920320e-04	
375	-2.00000e+00	7.951459e-04	
376	-2.05000e+00	7.979548e-04	
377	-2.10000e+00	8.005126e-04	
378	-2.15000e+00	8.028614e-04	
379	-2.20000e+00	8.050337e-04	
380	-2.25000e+00	8.070553e-04	
381	-2.30000e+00	8.089466e-04	
382	-2.35000e+00	8.107240e-04	
383	-2.40000e+00	8.124011e-04	
384	-2.45000e+00	8.139890e-04	
385	-2.50000e+00	8.154972e-04	
386	-2.55000e+00	8.169337e-04	
387	-2.60000e+00	8.183053e-04	
388	-2.65000e+00	8.196179e-04	
389	-2.70000e+00	8.208766e-04	
390	-2.75000e+00	8.220859e-04	
391	-2.80000e+00	8.232496e-04	
392	-2.85000e+00	8.243714e-04	
393	-2.90000e+00	8.254543e-04	
394	-2.95000e+00	8.265010e-04	
395	-3.00000e+00	8.275141e-04	
396	-3.05000e+00	8.284958e-04	
397	-3.10000e+00	8.294480e-04	
398	-3.15000e+00	8.303727e-04	
399	-3.20000e+00	8.312714e-04	
400	-3.25000e+00	8.321457e-04	
401	-3.30000e+00	8.329970e-04	
Note: No ".plot", ".print", or ".fourier" lines; no simulations run
