
Note: Compatibility modes selected: hs

Warning: m=xx on .subckt line will override multiplier m hierarchy!


Circuit: ***************************

Doing analysis at TEMP = -40.000000 and TNOM = -40.000000


No. of Data Rows : 402
                          ***************************
                          DC transfer characteristic  Mon Jan  9 13:57:29  2023
--------------------------------------------------------------------------------
Index   v-sweep         i(vds)          
--------------------------------------------------------------------------------
0	-0.000000e+00	0.000000e+00	
1	-5.00000e-02	1.473835e-09	
2	-1.00000e-01	1.588632e-09	
3	-1.50000e-01	1.606528e-09	
4	-2.00000e-01	1.612740e-09	
5	-2.50000e-01	1.616016e-09	
6	-3.00000e-01	1.618209e-09	
7	-3.50000e-01	1.619897e-09	
8	-4.00000e-01	1.621309e-09	
9	-4.50000e-01	1.622553e-09	
10	-5.00000e-01	1.623686e-09	
11	-5.50000e-01	1.624739e-09	
12	-6.00000e-01	1.625733e-09	
13	-6.50000e-01	1.626681e-09	
14	-7.00000e-01	1.627593e-09	
15	-7.50000e-01	1.628475e-09	
16	-8.00000e-01	1.629331e-09	
17	-8.50000e-01	1.630166e-09	
18	-9.00000e-01	1.630982e-09	
19	-9.50000e-01	1.631782e-09	
20	-1.00000e+00	1.632567e-09	
21	-1.05000e+00	1.633340e-09	
22	-1.10000e+00	1.634100e-09	
23	-1.15000e+00	1.634851e-09	
24	-1.20000e+00	1.635592e-09	
25	-1.25000e+00	1.636324e-09	
26	-1.30000e+00	1.637048e-09	
27	-1.35000e+00	1.637765e-09	
28	-1.40000e+00	1.638474e-09	
29	-1.45000e+00	1.639178e-09	
30	-1.50000e+00	1.639875e-09	
31	-1.55000e+00	1.640567e-09	
32	-1.60000e+00	1.641254e-09	
33	-1.65000e+00	1.641936e-09	
34	-1.70000e+00	1.642613e-09	
35	-1.75000e+00	1.643287e-09	
36	-1.80000e+00	1.643955e-09	
37	-1.85000e+00	1.644621e-09	
38	-1.90000e+00	1.645282e-09	
39	-1.95000e+00	1.645940e-09	
40	-2.00000e+00	1.646595e-09	
41	-2.05000e+00	1.647247e-09	
42	-2.10000e+00	1.647896e-09	
43	-2.15000e+00	1.648543e-09	
44	-2.20000e+00	1.649187e-09	
45	-2.25000e+00	1.649829e-09	
46	-2.30000e+00	1.650470e-09	
47	-2.35000e+00	1.651110e-09	
48	-2.40000e+00	1.651749e-09	
49	-2.45000e+00	1.652388e-09	
50	-2.50000e+00	1.653028e-09	
51	-2.55000e+00	1.653671e-09	
52	-2.60000e+00	1.654318e-09	
53	-2.65000e+00	1.654970e-09	
54	-2.70000e+00	1.655629e-09	

Index   v-sweep         i(vds)          
--------------------------------------------------------------------------------
55	-2.75000e+00	1.656299e-09	
56	-2.80000e+00	1.656983e-09	
57	-2.85000e+00	1.657684e-09	
58	-2.90000e+00	1.658408e-09	
59	-2.95000e+00	1.659160e-09	
60	-3.00000e+00	1.659946e-09	
61	-3.05000e+00	1.660774e-09	
62	-3.10000e+00	1.661654e-09	
63	-3.15000e+00	1.662596e-09	
64	-3.20000e+00	1.663612e-09	
65	-3.25000e+00	1.664717e-09	
66	-3.30000e+00	1.665925e-09	
67	-0.000000e+00	0.000000e+00	
68	-5.00000e-02	9.904200e-08	
69	-1.00000e-01	1.814186e-07	
70	-1.50000e-01	2.472326e-07	
71	-2.00000e-01	2.967112e-07	
72	-2.50000e-01	3.304509e-07	
73	-3.00000e-01	3.501095e-07	
74	-3.50000e-01	3.594096e-07	
75	-4.00000e-01	3.632314e-07	
76	-4.50000e-01	3.648739e-07	
77	-5.00000e-01	3.657028e-07	
78	-5.50000e-01	3.661970e-07	
79	-6.00000e-01	3.665332e-07	
80	-6.50000e-01	3.667849e-07	
81	-7.00000e-01	3.669863e-07	
82	-7.50000e-01	3.671552e-07	
83	-8.00000e-01	3.673018e-07	
84	-8.50000e-01	3.674320e-07	
85	-9.00000e-01	3.675499e-07	
86	-9.50000e-01	3.676579e-07	
87	-1.00000e+00	3.677581e-07	
88	-1.05000e+00	3.678517e-07	
89	-1.10000e+00	3.679397e-07	
90	-1.15000e+00	3.680230e-07	
91	-1.20000e+00	3.681022e-07	
92	-1.25000e+00	3.681778e-07	
93	-1.30000e+00	3.682501e-07	
94	-1.35000e+00	3.683195e-07	
95	-1.40000e+00	3.683864e-07	
96	-1.45000e+00	3.684509e-07	
97	-1.50000e+00	3.685132e-07	
98	-1.55000e+00	3.685736e-07	
99	-1.60000e+00	3.686322e-07	
100	-1.65000e+00	3.686891e-07	
101	-1.70000e+00	3.687445e-07	
102	-1.75000e+00	3.687984e-07	
103	-1.80000e+00	3.688510e-07	
104	-1.85000e+00	3.689024e-07	
105	-1.90000e+00	3.689525e-07	
106	-1.95000e+00	3.690016e-07	
107	-2.00000e+00	3.690496e-07	
108	-2.05000e+00	3.690967e-07	
109	-2.10000e+00	3.691428e-07	
110	-2.15000e+00	3.691880e-07	
111	-2.20000e+00	3.692325e-07	
112	-2.25000e+00	3.692761e-07	

Index   v-sweep         i(vds)          
--------------------------------------------------------------------------------
113	-2.30000e+00	3.693190e-07	
114	-2.35000e+00	3.693613e-07	
115	-2.40000e+00	3.694029e-07	
116	-2.45000e+00	3.694439e-07	
117	-2.50000e+00	3.694844e-07	
118	-2.55000e+00	3.695245e-07	
119	-2.60000e+00	3.695642e-07	
120	-2.65000e+00	3.696037e-07	
121	-2.70000e+00	3.696431e-07	
122	-2.75000e+00	3.696825e-07	
123	-2.80000e+00	3.697222e-07	
124	-2.85000e+00	3.697625e-07	
125	-2.90000e+00	3.698036e-07	
126	-2.95000e+00	3.698460e-07	
127	-3.00000e+00	3.698903e-07	
128	-3.05000e+00	3.699369e-07	
129	-3.10000e+00	3.699867e-07	
130	-3.15000e+00	3.700405e-07	
131	-3.20000e+00	3.700995e-07	
132	-3.25000e+00	3.701649e-07	
133	-3.30000e+00	3.702382e-07	
134	-0.000000e+00	0.000000e+00	
135	-5.00000e-02	2.074917e-07	
136	-1.00000e-01	3.986414e-07	
137	-1.50000e-01	5.734731e-07	
138	-2.00000e-01	7.320139e-07	
139	-2.50000e-01	8.742951e-07	
140	-3.00000e-01	1.000356e-06	
141	-3.50000e-01	1.110251e-06	
142	-4.00000e-01	1.204061e-06	
143	-4.50000e-01	1.281925e-06	
144	-5.00000e-01	1.344100e-06	
145	-5.50000e-01	1.391109e-06	
146	-6.00000e-01	1.424030e-06	
147	-6.50000e-01	1.444930e-06	
148	-7.00000e-01	1.456978e-06	
149	-7.50000e-01	1.463601e-06	
150	-8.00000e-01	1.467345e-06	
151	-8.50000e-01	1.469640e-06	
152	-9.00000e-01	1.471184e-06	
153	-9.50000e-01	1.472313e-06	
154	-1.00000e+00	1.473195e-06	
155	-1.05000e+00	1.473918e-06	
156	-1.10000e+00	1.474533e-06	
157	-1.15000e+00	1.475071e-06	
158	-1.20000e+00	1.475550e-06	
159	-1.25000e+00	1.475985e-06	
160	-1.30000e+00	1.476383e-06	
161	-1.35000e+00	1.476752e-06	
162	-1.40000e+00	1.477096e-06	
163	-1.45000e+00	1.477419e-06	
164	-1.50000e+00	1.477724e-06	
165	-1.55000e+00	1.478012e-06	
166	-1.60000e+00	1.478287e-06	
167	-1.65000e+00	1.478550e-06	
168	-1.70000e+00	1.478801e-06	
169	-1.75000e+00	1.479042e-06	
170	-1.80000e+00	1.479274e-06	

Index   v-sweep         i(vds)          
--------------------------------------------------------------------------------
171	-1.85000e+00	1.479497e-06	
172	-1.90000e+00	1.479713e-06	
173	-1.95000e+00	1.479922e-06	
174	-2.00000e+00	1.480124e-06	
175	-2.05000e+00	1.480320e-06	
176	-2.10000e+00	1.480511e-06	
177	-2.15000e+00	1.480696e-06	
178	-2.20000e+00	1.480876e-06	
179	-2.25000e+00	1.481052e-06	
180	-2.30000e+00	1.481223e-06	
181	-2.35000e+00	1.481390e-06	
182	-2.40000e+00	1.481553e-06	
183	-2.45000e+00	1.481713e-06	
184	-2.50000e+00	1.481869e-06	
185	-2.55000e+00	1.482022e-06	
186	-2.60000e+00	1.482172e-06	
187	-2.65000e+00	1.482319e-06	
188	-2.70000e+00	1.482463e-06	
189	-2.75000e+00	1.482605e-06	
190	-2.80000e+00	1.482745e-06	
191	-2.85000e+00	1.482882e-06	
192	-2.90000e+00	1.483018e-06	
193	-2.95000e+00	1.483153e-06	
194	-3.00000e+00	1.483287e-06	
195	-3.05000e+00	1.483420e-06	
196	-3.10000e+00	1.483554e-06	
197	-3.15000e+00	1.483689e-06	
198	-3.20000e+00	1.483827e-06	
199	-3.25000e+00	1.483968e-06	
200	-3.30000e+00	1.484116e-06	
201	-0.000000e+00	0.000000e+00	
202	-5.00000e-02	3.046775e-07	
203	-1.00000e-01	5.939704e-07	
204	-1.50000e-01	8.678966e-07	
205	-2.00000e-01	1.126475e-06	
206	-2.50000e-01	1.369723e-06	
207	-3.00000e-01	1.597662e-06	
208	-3.50000e-01	1.810312e-06	
209	-4.00000e-01	2.007693e-06	
210	-4.50000e-01	2.189830e-06	
211	-5.00000e-01	2.356750e-06	
212	-5.50000e-01	2.508484e-06	
213	-6.00000e-01	2.645071e-06	
214	-6.50000e-01	2.766564e-06	
215	-7.00000e-01	2.873036e-06	
216	-7.50000e-01	2.964601e-06	
217	-8.00000e-01	3.041449e-06	
218	-8.50000e-01	3.103905e-06	
219	-9.00000e-01	3.152559e-06	
220	-9.50000e-01	3.188457e-06	
221	-1.00000e+00	3.213326e-06	
222	-1.05000e+00	3.229578e-06	
223	-1.10000e+00	3.239869e-06	
224	-1.15000e+00	3.246450e-06	
225	-1.20000e+00	3.250853e-06	
226	-1.25000e+00	3.253982e-06	
227	-1.30000e+00	3.256343e-06	
228	-1.35000e+00	3.258220e-06	

Index   v-sweep         i(vds)          
--------------------------------------------------------------------------------
229	-1.40000e+00	3.259773e-06	
230	-1.45000e+00	3.261102e-06	
231	-1.50000e+00	3.262265e-06	
232	-1.55000e+00	3.263303e-06	
233	-1.60000e+00	3.264243e-06	
234	-1.65000e+00	3.265105e-06	
235	-1.70000e+00	3.265901e-06	
236	-1.75000e+00	3.266643e-06	
237	-1.80000e+00	3.267339e-06	
238	-1.85000e+00	3.267994e-06	
239	-1.90000e+00	3.268615e-06	
240	-1.95000e+00	3.269204e-06	
241	-2.00000e+00	3.269766e-06	
242	-2.05000e+00	3.270303e-06	
243	-2.10000e+00	3.270818e-06	
244	-2.15000e+00	3.271313e-06	
245	-2.20000e+00	3.271789e-06	
246	-2.25000e+00	3.272247e-06	
247	-2.30000e+00	3.272691e-06	
248	-2.35000e+00	3.273119e-06	
249	-2.40000e+00	3.273534e-06	
250	-2.45000e+00	3.273937e-06	
251	-2.50000e+00	3.274328e-06	
252	-2.55000e+00	3.274708e-06	
253	-2.60000e+00	3.275078e-06	
254	-2.65000e+00	3.275438e-06	
255	-2.70000e+00	3.275789e-06	
256	-2.75000e+00	3.276132e-06	
257	-2.80000e+00	3.276466e-06	
258	-2.85000e+00	3.276793e-06	
259	-2.90000e+00	3.277113e-06	
260	-2.95000e+00	3.277426e-06	
261	-3.00000e+00	3.277732e-06	
262	-3.05000e+00	3.278033e-06	
263	-3.10000e+00	3.278328e-06	
264	-3.15000e+00	3.278618e-06	
265	-3.20000e+00	3.278904e-06	
266	-3.25000e+00	3.279185e-06	
267	-3.30000e+00	3.279464e-06	
268	-0.000000e+00	0.000000e+00	
269	-5.00000e-02	3.897046e-07	
270	-1.00000e-01	7.651281e-07	
271	-1.50000e-01	1.126286e-06	
272	-2.00000e-01	1.473193e-06	
273	-2.50000e-01	1.805865e-06	
274	-3.00000e-01	2.124318e-06	
275	-3.50000e-01	2.428568e-06	
276	-4.00000e-01	2.718630e-06	
277	-4.50000e-01	2.994520e-06	
278	-5.00000e-01	3.256256e-06	
279	-5.50000e-01	3.503853e-06	
280	-6.00000e-01	3.737330e-06	
281	-6.50000e-01	3.956705e-06	
282	-7.00000e-01	4.161998e-06	
283	-7.50000e-01	4.353229e-06	
284	-8.00000e-01	4.530423e-06	
285	-8.50000e-01	4.693606e-06	
286	-9.00000e-01	4.842812e-06	

Index   v-sweep         i(vds)          
--------------------------------------------------------------------------------
287	-9.50000e-01	4.978082e-06	
288	-1.00000e+00	5.099471e-06	
289	-1.05000e+00	5.207056e-06	
290	-1.10000e+00	5.300952e-06	
291	-1.15000e+00	5.381339e-06	
292	-1.20000e+00	5.448504e-06	
293	-1.25000e+00	5.502927e-06	
294	-1.30000e+00	5.545394e-06	
295	-1.35000e+00	5.577130e-06	
296	-1.40000e+00	5.599863e-06	
297	-1.45000e+00	5.615659e-06	
298	-1.50000e+00	5.626556e-06	
299	-1.55000e+00	5.634216e-06	
300	-1.60000e+00	5.639804e-06	
301	-1.65000e+00	5.644065e-06	
302	-1.70000e+00	5.647457e-06	
303	-1.75000e+00	5.650257e-06	
304	-1.80000e+00	5.652640e-06	
305	-1.85000e+00	5.654718e-06	
306	-1.90000e+00	5.656564e-06	
307	-1.95000e+00	5.658229e-06	
308	-2.00000e+00	5.659749e-06	
309	-2.05000e+00	5.661149e-06	
310	-2.10000e+00	5.662450e-06	
311	-2.15000e+00	5.663666e-06	
312	-2.20000e+00	5.664810e-06	
313	-2.25000e+00	5.665889e-06	
314	-2.30000e+00	5.666913e-06	
315	-2.35000e+00	5.667887e-06	
316	-2.40000e+00	5.668816e-06	
317	-2.45000e+00	5.669705e-06	
318	-2.50000e+00	5.670558e-06	
319	-2.55000e+00	5.671378e-06	
320	-2.60000e+00	5.672167e-06	
321	-2.65000e+00	5.672928e-06	
322	-2.70000e+00	5.673663e-06	
323	-2.75000e+00	5.674374e-06	
324	-2.80000e+00	5.675063e-06	
325	-2.85000e+00	5.675731e-06	
326	-2.90000e+00	5.676380e-06	
327	-2.95000e+00	5.677011e-06	
328	-3.00000e+00	5.677625e-06	
329	-3.05000e+00	5.678222e-06	
330	-3.10000e+00	5.678804e-06	
331	-3.15000e+00	5.679373e-06	
332	-3.20000e+00	5.679927e-06	
333	-3.25000e+00	5.680469e-06	
334	-3.30000e+00	5.680999e-06	
335	-0.000000e+00	0.000000e+00	
336	-5.00000e-02	4.627217e-07	
337	-1.00000e-01	9.122935e-07	
338	-1.50000e-01	1.348729e-06	
339	-2.00000e-01	1.772041e-06	
340	-2.50000e-01	2.182243e-06	
341	-3.00000e-01	2.579348e-06	
342	-3.50000e-01	2.963370e-06	
343	-4.00000e-01	3.334322e-06	
344	-4.50000e-01	3.692218e-06	

Index   v-sweep         i(vds)          
--------------------------------------------------------------------------------
345	-5.00000e-01	4.037072e-06	
346	-5.50000e-01	4.368896e-06	
347	-6.00000e-01	4.687704e-06	
348	-6.50000e-01	4.993511e-06	
349	-7.00000e-01	5.286329e-06	
350	-7.50000e-01	5.566174e-06	
351	-8.00000e-01	5.833060e-06	
352	-8.50000e-01	6.087001e-06	
353	-9.00000e-01	6.328013e-06	
354	-9.50000e-01	6.556112e-06	
355	-1.00000e+00	6.771314e-06	
356	-1.05000e+00	6.973637e-06	
357	-1.10000e+00	7.163101e-06	
358	-1.15000e+00	7.339728e-06	
359	-1.20000e+00	7.503542e-06	
360	-1.25000e+00	7.654574e-06	
361	-1.30000e+00	7.792861e-06	
362	-1.35000e+00	7.918451e-06	
363	-1.40000e+00	8.031408e-06	
364	-1.45000e+00	8.131824e-06	
365	-1.50000e+00	8.219834e-06	
366	-1.55000e+00	8.295642e-06	
367	-1.60000e+00	8.359563e-06	
368	-1.65000e+00	8.412093e-06	
369	-1.70000e+00	8.453985e-06	
370	-1.75000e+00	8.486336e-06	
371	-1.80000e+00	8.510591e-06	
372	-1.85000e+00	8.528421e-06	
373	-1.90000e+00	8.541482e-06	
374	-1.95000e+00	8.551185e-06	
375	-2.00000e+00	8.558591e-06	
376	-2.05000e+00	8.564431e-06	
377	-2.10000e+00	8.569193e-06	
378	-2.15000e+00	8.573190e-06	
379	-2.20000e+00	8.576632e-06	
380	-2.25000e+00	8.579656e-06	
381	-2.30000e+00	8.582357e-06	
382	-2.35000e+00	8.584803e-06	
383	-2.40000e+00	8.587042e-06	
384	-2.45000e+00	8.589109e-06	
385	-2.50000e+00	8.591032e-06	
386	-2.55000e+00	8.592832e-06	
387	-2.60000e+00	8.594525e-06	
388	-2.65000e+00	8.596125e-06	
389	-2.70000e+00	8.597643e-06	
390	-2.75000e+00	8.599087e-06	
391	-2.80000e+00	8.600465e-06	
392	-2.85000e+00	8.601784e-06	
393	-2.90000e+00	8.603049e-06	
394	-2.95000e+00	8.604265e-06	
395	-3.00000e+00	8.605435e-06	
396	-3.05000e+00	8.606564e-06	
397	-3.10000e+00	8.607654e-06	
398	-3.15000e+00	8.608709e-06	
399	-3.20000e+00	8.609730e-06	
400	-3.25000e+00	8.610721e-06	
401	-3.30000e+00	8.611682e-06	
Note: No ".plot", ".print", or ".fourier" lines; no simulations run
