
Note: Compatibility modes selected: hs

Warning: m=xx on .subckt line will override multiplier m hierarchy!


Circuit: ***************************

Doing analysis at TEMP = 25.000000 and TNOM = 25.000000


No. of Data Rows : 402
                          ***************************
                          DC transfer characteristic  Mon Jan  9 13:57:28  2023
--------------------------------------------------------------------------------
Index   v-sweep         i(vds)          
--------------------------------------------------------------------------------
0	-0.000000e+00	0.000000e+00	
1	-5.00000e-02	1.166721e-07	
2	-1.00000e-01	1.414419e-07	
3	-1.50000e-01	1.450511e-07	
4	-2.00000e-01	1.459726e-07	
5	-2.50000e-01	1.463579e-07	
6	-3.00000e-01	1.465756e-07	
7	-3.50000e-01	1.467240e-07	
8	-4.00000e-01	1.468377e-07	
9	-4.50000e-01	1.469317e-07	
10	-5.00000e-01	1.470132e-07	
11	-5.50000e-01	1.470864e-07	
12	-6.00000e-01	1.471534e-07	
13	-6.50000e-01	1.472159e-07	
14	-7.00000e-01	1.472748e-07	
15	-7.50000e-01	1.473308e-07	
16	-8.00000e-01	1.473844e-07	
17	-8.50000e-01	1.474359e-07	
18	-9.00000e-01	1.474858e-07	
19	-9.50000e-01	1.475341e-07	
20	-1.00000e+00	1.475811e-07	
21	-1.05000e+00	1.476270e-07	
22	-1.10000e+00	1.476718e-07	
23	-1.15000e+00	1.477156e-07	
24	-1.20000e+00	1.477586e-07	
25	-1.25000e+00	1.478008e-07	
26	-1.30000e+00	1.478422e-07	
27	-1.35000e+00	1.478831e-07	
28	-1.40000e+00	1.479232e-07	
29	-1.45000e+00	1.479629e-07	
30	-1.50000e+00	1.480020e-07	
31	-1.55000e+00	1.480406e-07	
32	-1.60000e+00	1.480787e-07	
33	-1.65000e+00	1.481164e-07	
34	-1.70000e+00	1.481537e-07	
35	-1.75000e+00	1.481907e-07	
36	-1.80000e+00	1.482272e-07	
37	-1.85000e+00	1.482634e-07	
38	-1.90000e+00	1.482993e-07	
39	-1.95000e+00	1.483349e-07	
40	-2.00000e+00	1.483702e-07	
41	-2.05000e+00	1.484052e-07	
42	-2.10000e+00	1.484400e-07	
43	-2.15000e+00	1.484746e-07	
44	-2.20000e+00	1.485089e-07	
45	-2.25000e+00	1.485431e-07	
46	-2.30000e+00	1.485772e-07	
47	-2.35000e+00	1.486111e-07	
48	-2.40000e+00	1.486450e-07	
49	-2.45000e+00	1.486790e-07	
50	-2.50000e+00	1.487131e-07	
51	-2.55000e+00	1.487474e-07	
52	-2.60000e+00	1.487820e-07	
53	-2.65000e+00	1.488172e-07	
54	-2.70000e+00	1.488532e-07	

Index   v-sweep         i(vds)          
--------------------------------------------------------------------------------
55	-2.75000e+00	1.488902e-07	
56	-2.80000e+00	1.489285e-07	
57	-2.85000e+00	1.489686e-07	
58	-2.90000e+00	1.490109e-07	
59	-2.95000e+00	1.490559e-07	
60	-3.00000e+00	1.491044e-07	
61	-3.05000e+00	1.491570e-07	
62	-3.10000e+00	1.492148e-07	
63	-3.15000e+00	1.492787e-07	
64	-3.20000e+00	1.493500e-07	
65	-3.25000e+00	1.494300e-07	
66	-3.30000e+00	1.495204e-07	
67	-0.000000e+00	0.000000e+00	
68	-5.00000e-02	1.770548e-06	
69	-1.00000e-01	3.287888e-06	
70	-1.50000e-01	4.552971e-06	
71	-2.00000e-01	5.567548e-06	
72	-2.50000e-01	6.335457e-06	
73	-3.00000e-01	6.866333e-06	
74	-3.50000e-01	7.185111e-06	
75	-4.00000e-01	7.344703e-06	
76	-4.50000e-01	7.414886e-06	
77	-5.00000e-01	7.446437e-06	
78	-5.50000e-01	7.462626e-06	
79	-6.00000e-01	7.472283e-06	
80	-6.50000e-01	7.478817e-06	
81	-7.00000e-01	7.483677e-06	
82	-7.50000e-01	7.487547e-06	
83	-8.00000e-01	7.490780e-06	
84	-8.50000e-01	7.493577e-06	
85	-9.00000e-01	7.496058e-06	
86	-9.50000e-01	7.498301e-06	
87	-1.00000e+00	7.500355e-06	
88	-1.05000e+00	7.502259e-06	
89	-1.10000e+00	7.504038e-06	
90	-1.15000e+00	7.505712e-06	
91	-1.20000e+00	7.507296e-06	
92	-1.25000e+00	7.508801e-06	
93	-1.30000e+00	7.510238e-06	
94	-1.35000e+00	7.511613e-06	
95	-1.40000e+00	7.512935e-06	
96	-1.45000e+00	7.514207e-06	
97	-1.50000e+00	7.515434e-06	
98	-1.55000e+00	7.516621e-06	
99	-1.60000e+00	7.517771e-06	
100	-1.65000e+00	7.518886e-06	
101	-1.70000e+00	7.519970e-06	
102	-1.75000e+00	7.521024e-06	
103	-1.80000e+00	7.522051e-06	
104	-1.85000e+00	7.523052e-06	
105	-1.90000e+00	7.524030e-06	
106	-1.95000e+00	7.524985e-06	
107	-2.00000e+00	7.525919e-06	
108	-2.05000e+00	7.526833e-06	
109	-2.10000e+00	7.527729e-06	
110	-2.15000e+00	7.528607e-06	
111	-2.20000e+00	7.529468e-06	
112	-2.25000e+00	7.530314e-06	

Index   v-sweep         i(vds)          
--------------------------------------------------------------------------------
113	-2.30000e+00	7.531145e-06	
114	-2.35000e+00	7.531962e-06	
115	-2.40000e+00	7.532766e-06	
116	-2.45000e+00	7.533558e-06	
117	-2.50000e+00	7.534339e-06	
118	-2.55000e+00	7.535112e-06	
119	-2.60000e+00	7.535877e-06	
120	-2.65000e+00	7.536636e-06	
121	-2.70000e+00	7.537392e-06	
122	-2.75000e+00	7.538149e-06	
123	-2.80000e+00	7.538911e-06	
124	-2.85000e+00	7.539683e-06	
125	-2.90000e+00	7.540471e-06	
126	-2.95000e+00	7.541284e-06	
127	-3.00000e+00	7.542133e-06	
128	-3.05000e+00	7.543029e-06	
129	-3.10000e+00	7.543989e-06	
130	-3.15000e+00	7.545030e-06	
131	-3.20000e+00	7.546177e-06	
132	-3.25000e+00	7.547454e-06	
133	-3.30000e+00	7.548895e-06	
134	-0.000000e+00	0.000000e+00	
135	-5.00000e-02	3.403446e-06	
136	-1.00000e-01	6.562706e-06	
137	-1.50000e-01	9.478076e-06	
138	-2.00000e-01	1.214988e-05	
139	-2.50000e-01	1.457849e-05	
140	-3.00000e-01	1.676434e-05	
141	-3.50000e-01	1.870799e-05	
142	-4.00000e-01	2.041019e-05	
143	-4.50000e-01	2.187213e-05	
144	-5.00000e-01	2.309574e-05	
145	-5.50000e-01	2.408461e-05	
146	-6.00000e-01	2.484574e-05	
147	-6.50000e-01	2.539321e-05	
148	-7.00000e-01	2.575388e-05	
149	-7.50000e-01	2.597043e-05	
150	-8.00000e-01	2.609295e-05	
151	-8.50000e-01	2.616269e-05	
152	-9.00000e-01	2.620496e-05	
153	-9.50000e-01	2.623289e-05	
154	-1.00000e+00	2.625292e-05	
155	-1.05000e+00	2.626832e-05	
156	-1.10000e+00	2.628080e-05	
157	-1.15000e+00	2.629133e-05	
158	-1.20000e+00	2.630048e-05	
159	-1.25000e+00	2.630860e-05	
160	-1.30000e+00	2.631594e-05	
161	-1.35000e+00	2.632266e-05	
162	-1.40000e+00	2.632887e-05	
163	-1.45000e+00	2.633467e-05	
164	-1.50000e+00	2.634011e-05	
165	-1.55000e+00	2.634524e-05	
166	-1.60000e+00	2.635010e-05	
167	-1.65000e+00	2.635474e-05	
168	-1.70000e+00	2.635916e-05	
169	-1.75000e+00	2.636339e-05	
170	-1.80000e+00	2.636746e-05	

Index   v-sweep         i(vds)          
--------------------------------------------------------------------------------
171	-1.85000e+00	2.637138e-05	
172	-1.90000e+00	2.637515e-05	
173	-1.95000e+00	2.637880e-05	
174	-2.00000e+00	2.638232e-05	
175	-2.05000e+00	2.638574e-05	
176	-2.10000e+00	2.638906e-05	
177	-2.15000e+00	2.639228e-05	
178	-2.20000e+00	2.639542e-05	
179	-2.25000e+00	2.639847e-05	
180	-2.30000e+00	2.640145e-05	
181	-2.35000e+00	2.640435e-05	
182	-2.40000e+00	2.640718e-05	
183	-2.45000e+00	2.640995e-05	
184	-2.50000e+00	2.641266e-05	
185	-2.55000e+00	2.641531e-05	
186	-2.60000e+00	2.641790e-05	
187	-2.65000e+00	2.642045e-05	
188	-2.70000e+00	2.642295e-05	
189	-2.75000e+00	2.642540e-05	
190	-2.80000e+00	2.642781e-05	
191	-2.85000e+00	2.643018e-05	
192	-2.90000e+00	2.643252e-05	
193	-2.95000e+00	2.643484e-05	
194	-3.00000e+00	2.643714e-05	
195	-3.05000e+00	2.643943e-05	
196	-3.10000e+00	2.644172e-05	
197	-3.15000e+00	2.644403e-05	
198	-3.20000e+00	2.644637e-05	
199	-3.25000e+00	2.644878e-05	
200	-3.30000e+00	2.645127e-05	
201	-0.000000e+00	0.000000e+00	
202	-5.00000e-02	4.829933e-06	
203	-1.00000e-01	9.432651e-06	
204	-1.50000e-01	1.380838e-05	
205	-2.00000e-01	1.795734e-05	
206	-2.50000e-01	2.187978e-05	
207	-3.00000e-01	2.557592e-05	
208	-3.50000e-01	2.904601e-05	
209	-4.00000e-01	3.229032e-05	
210	-4.50000e-01	3.530912e-05	
211	-5.00000e-01	3.810273e-05	
212	-5.50000e-01	4.067148e-05	
213	-6.00000e-01	4.301579e-05	
214	-6.50000e-01	4.513618e-05	
215	-7.00000e-01	4.703333e-05	
216	-7.50000e-01	4.870819e-05	
217	-8.00000e-01	5.016223e-05	
218	-8.50000e-01	5.139777e-05	
219	-9.00000e-01	5.241877e-05	
220	-9.50000e-01	5.323221e-05	
221	-1.00000e+00	5.385037e-05	
222	-1.05000e+00	5.429398e-05	
223	-1.10000e+00	5.459392e-05	
224	-1.15000e+00	5.478793e-05	
225	-1.20000e+00	5.491209e-05	
226	-1.25000e+00	5.499372e-05	
227	-1.30000e+00	5.505025e-05	
228	-1.35000e+00	5.509179e-05	

Index   v-sweep         i(vds)          
--------------------------------------------------------------------------------
229	-1.40000e+00	5.512402e-05	
230	-1.45000e+00	5.515022e-05	
231	-1.50000e+00	5.517230e-05	
232	-1.55000e+00	5.519145e-05	
233	-1.60000e+00	5.520841e-05	
234	-1.65000e+00	5.522369e-05	
235	-1.70000e+00	5.523764e-05	
236	-1.75000e+00	5.525050e-05	
237	-1.80000e+00	5.526247e-05	
238	-1.85000e+00	5.527367e-05	
239	-1.90000e+00	5.528423e-05	
240	-1.95000e+00	5.529421e-05	
241	-2.00000e+00	5.530370e-05	
242	-2.05000e+00	5.531274e-05	
243	-2.10000e+00	5.532138e-05	
244	-2.15000e+00	5.532967e-05	
245	-2.20000e+00	5.533763e-05	
246	-2.25000e+00	5.534530e-05	
247	-2.30000e+00	5.535269e-05	
248	-2.35000e+00	5.535984e-05	
249	-2.40000e+00	5.536675e-05	
250	-2.45000e+00	5.537345e-05	
251	-2.50000e+00	5.537995e-05	
252	-2.55000e+00	5.538626e-05	
253	-2.60000e+00	5.539240e-05	
254	-2.65000e+00	5.539837e-05	
255	-2.70000e+00	5.540419e-05	
256	-2.75000e+00	5.540987e-05	
257	-2.80000e+00	5.541541e-05	
258	-2.85000e+00	5.542082e-05	
259	-2.90000e+00	5.542611e-05	
260	-2.95000e+00	5.543129e-05	
261	-3.00000e+00	5.543636e-05	
262	-3.05000e+00	5.544132e-05	
263	-3.10000e+00	5.544619e-05	
264	-3.15000e+00	5.545098e-05	
265	-3.20000e+00	5.545568e-05	
266	-3.25000e+00	5.546031e-05	
267	-3.30000e+00	5.546489e-05	
268	-0.000000e+00	0.000000e+00	
269	-5.00000e-02	6.059454e-06	
270	-1.00000e-01	1.190982e-05	
271	-1.50000e-01	1.755129e-05	
272	-2.00000e-01	2.298405e-05	
273	-2.50000e-01	2.820828e-05	
274	-3.00000e-01	3.322419e-05	
275	-3.50000e-01	3.803195e-05	
276	-4.00000e-01	4.263176e-05	
277	-4.50000e-01	4.702383e-05	
278	-5.00000e-01	5.120834e-05	
279	-5.50000e-01	5.518550e-05	
280	-6.00000e-01	5.895553e-05	
281	-6.50000e-01	6.251863e-05	
282	-7.00000e-01	6.587504e-05	
283	-7.50000e-01	6.902501e-05	
284	-8.00000e-01	7.196879e-05	
285	-8.50000e-01	7.470669e-05	
286	-9.00000e-01	7.723905e-05	

Index   v-sweep         i(vds)          
--------------------------------------------------------------------------------
287	-9.50000e-01	7.956627e-05	
288	-1.00000e+00	8.168886e-05	
289	-1.05000e+00	8.360750e-05	
290	-1.10000e+00	8.532311e-05	
291	-1.15000e+00	8.683701e-05	
292	-1.20000e+00	8.815123e-05	
293	-1.25000e+00	8.926895e-05	
294	-1.30000e+00	9.019534e-05	
295	-1.35000e+00	9.093886e-05	
296	-1.40000e+00	9.151301e-05	
297	-1.45000e+00	9.193801e-05	
298	-1.50000e+00	9.224067e-05	
299	-1.55000e+00	9.245113e-05	
300	-1.60000e+00	9.259742e-05	
301	-1.65000e+00	9.270149e-05	
302	-1.70000e+00	9.277843e-05	
303	-1.75000e+00	9.283783e-05	
304	-1.80000e+00	9.288561e-05	
305	-1.85000e+00	9.292542e-05	
306	-1.90000e+00	9.295958e-05	
307	-1.95000e+00	9.298956e-05	
308	-2.00000e+00	9.301635e-05	
309	-2.05000e+00	9.304064e-05	
310	-2.10000e+00	9.306292e-05	
311	-2.15000e+00	9.308354e-05	
312	-2.20000e+00	9.310277e-05	
313	-2.25000e+00	9.312082e-05	
314	-2.30000e+00	9.313783e-05	
315	-2.35000e+00	9.315396e-05	
316	-2.40000e+00	9.316928e-05	
317	-2.45000e+00	9.318391e-05	
318	-2.50000e+00	9.319789e-05	
319	-2.55000e+00	9.321131e-05	
320	-2.60000e+00	9.322420e-05	
321	-2.65000e+00	9.323661e-05	
322	-2.70000e+00	9.324859e-05	
323	-2.75000e+00	9.326016e-05	
324	-2.80000e+00	9.327136e-05	
325	-2.85000e+00	9.328221e-05	
326	-2.90000e+00	9.329273e-05	
327	-2.95000e+00	9.330296e-05	
328	-3.00000e+00	9.331289e-05	
329	-3.05000e+00	9.332257e-05	
330	-3.10000e+00	9.333199e-05	
331	-3.15000e+00	9.334118e-05	
332	-3.20000e+00	9.335014e-05	
333	-3.25000e+00	9.335889e-05	
334	-3.30000e+00	9.336744e-05	
335	-0.000000e+00	0.000000e+00	
336	-5.00000e-02	7.109479e-06	
337	-1.00000e-01	1.402759e-05	
338	-1.50000e-01	2.075448e-05	
339	-2.00000e-01	2.729033e-05	
340	-2.50000e-01	3.363528e-05	
341	-3.00000e-01	3.978951e-05	
342	-3.50000e-01	4.575316e-05	
343	-4.00000e-01	5.152641e-05	
344	-4.50000e-01	5.710941e-05	

Index   v-sweep         i(vds)          
--------------------------------------------------------------------------------
345	-5.00000e-01	6.250233e-05	
346	-5.50000e-01	6.770533e-05	
347	-6.00000e-01	7.271857e-05	
348	-6.50000e-01	7.754223e-05	
349	-7.00000e-01	8.217646e-05	
350	-7.50000e-01	8.662143e-05	
351	-8.00000e-01	9.087733e-05	
352	-8.50000e-01	9.494431e-05	
353	-9.00000e-01	9.882257e-05	
354	-9.50000e-01	1.025123e-04	
355	-1.00000e+00	1.060137e-04	
356	-1.05000e+00	1.093269e-04	
357	-1.10000e+00	1.124522e-04	
358	-1.15000e+00	1.153898e-04	
359	-1.20000e+00	1.181400e-04	
360	-1.25000e+00	1.207031e-04	
361	-1.30000e+00	1.230794e-04	
362	-1.35000e+00	1.252694e-04	
363	-1.40000e+00	1.272736e-04	
364	-1.45000e+00	1.290927e-04	
365	-1.50000e+00	1.307278e-04	
366	-1.55000e+00	1.321803e-04	
367	-1.60000e+00	1.334522e-04	
368	-1.65000e+00	1.345467e-04	
369	-1.70000e+00	1.354688e-04	
370	-1.75000e+00	1.362259e-04	
371	-1.80000e+00	1.368296e-04	
372	-1.85000e+00	1.372959e-04	
373	-1.90000e+00	1.376460e-04	
374	-1.95000e+00	1.379040e-04	
375	-2.00000e+00	1.380933e-04	
376	-2.05000e+00	1.382341e-04	
377	-2.10000e+00	1.383416e-04	
378	-2.15000e+00	1.384265e-04	
379	-2.20000e+00	1.384956e-04	
380	-2.25000e+00	1.385537e-04	
381	-2.30000e+00	1.386037e-04	
382	-2.35000e+00	1.386478e-04	
383	-2.40000e+00	1.386872e-04	
384	-2.45000e+00	1.387229e-04	
385	-2.50000e+00	1.387557e-04	
386	-2.55000e+00	1.387860e-04	
387	-2.60000e+00	1.388143e-04	
388	-2.65000e+00	1.388409e-04	
389	-2.70000e+00	1.388659e-04	
390	-2.75000e+00	1.388896e-04	
391	-2.80000e+00	1.389121e-04	
392	-2.85000e+00	1.389336e-04	
393	-2.90000e+00	1.389541e-04	
394	-2.95000e+00	1.389738e-04	
395	-3.00000e+00	1.389927e-04	
396	-3.05000e+00	1.390109e-04	
397	-3.10000e+00	1.390284e-04	
398	-3.15000e+00	1.390454e-04	
399	-3.20000e+00	1.390618e-04	
400	-3.25000e+00	1.390777e-04	
401	-3.30000e+00	1.390931e-04	
Note: No ".plot", ".print", or ".fourier" lines; no simulations run
