
Note: Compatibility modes selected: hs

Warning: m=xx on .subckt line will override multiplier m hierarchy!


Circuit: ***************************

Doing analysis at TEMP = 25.000000 and TNOM = 25.000000


No. of Data Rows : 402
                          ***************************
                          DC transfer characteristic  Mon Jan  9 13:57:29  2023
--------------------------------------------------------------------------------
Index   v-sweep         i(vds)          
--------------------------------------------------------------------------------
0	-0.000000e+00	0.000000e+00	
1	-5.00000e-02	3.080329e-07	
2	-1.00000e-01	4.909386e-07	
3	-1.50000e-01	5.725405e-07	
4	-2.00000e-01	6.029893e-07	
5	-2.50000e-01	6.192000e-07	
6	-3.00000e-01	6.318425e-07	
7	-3.50000e-01	6.432667e-07	
8	-4.00000e-01	6.541148e-07	
9	-4.50000e-01	6.646197e-07	
10	-5.00000e-01	6.748882e-07	
11	-5.50000e-01	6.849794e-07	
12	-6.00000e-01	6.949309e-07	
13	-6.50000e-01	7.047690e-07	
14	-7.00000e-01	7.145136e-07	
15	-7.50000e-01	7.241803e-07	
16	-8.00000e-01	7.337821e-07	
17	-8.50000e-01	7.433295e-07	
18	-9.00000e-01	7.528317e-07	
19	-9.50000e-01	7.622967e-07	
20	-1.00000e+00	7.717311e-07	
21	-1.05000e+00	7.811412e-07	
22	-1.10000e+00	7.905323e-07	
23	-1.15000e+00	7.999090e-07	
24	-1.20000e+00	8.092759e-07	
25	-1.25000e+00	8.186366e-07	
26	-1.30000e+00	8.279946e-07	
27	-1.35000e+00	8.373533e-07	
28	-1.40000e+00	8.467153e-07	
29	-1.45000e+00	8.560834e-07	
30	-1.50000e+00	8.654600e-07	
31	-1.55000e+00	8.748473e-07	
32	-1.60000e+00	8.842473e-07	
33	-1.65000e+00	8.936620e-07	
34	-1.70000e+00	9.030931e-07	
35	-1.75000e+00	9.125422e-07	
36	-1.80000e+00	9.220109e-07	
37	-1.85000e+00	9.315005e-07	
38	-1.90000e+00	9.410125e-07	
39	-1.95000e+00	9.505482e-07	
40	-2.00000e+00	9.601087e-07	
41	-2.05000e+00	9.696955e-07	
42	-2.10000e+00	9.793096e-07	
43	-2.15000e+00	9.889523e-07	
44	-2.20000e+00	9.986250e-07	
45	-2.25000e+00	1.008329e-06	
46	-2.30000e+00	1.018066e-06	
47	-2.35000e+00	1.027837e-06	
48	-2.40000e+00	1.037645e-06	
49	-2.45000e+00	1.047491e-06	
50	-2.50000e+00	1.057378e-06	
51	-2.55000e+00	1.067309e-06	
52	-2.60000e+00	1.077286e-06	
53	-2.65000e+00	1.087314e-06	
54	-2.70000e+00	1.097396e-06	

Index   v-sweep         i(vds)          
--------------------------------------------------------------------------------
55	-2.75000e+00	1.107538e-06	
56	-2.80000e+00	1.117744e-06	
57	-2.85000e+00	1.128021e-06	
58	-2.90000e+00	1.138376e-06	
59	-2.95000e+00	1.148816e-06	
60	-3.00000e+00	1.159352e-06	
61	-3.05000e+00	1.169993e-06	
62	-3.10000e+00	1.180751e-06	
63	-3.15000e+00	1.191637e-06	
64	-3.20000e+00	1.202667e-06	
65	-3.25000e+00	1.213855e-06	
66	-3.30000e+00	1.225218e-06	
67	-0.000000e+00	0.000000e+00	
68	-5.00000e-02	1.806563e-06	
69	-1.00000e-01	3.438544e-06	
70	-1.50000e-01	4.899249e-06	
71	-2.00000e-01	6.191967e-06	
72	-2.50000e-01	7.320031e-06	
73	-3.00000e-01	8.286935e-06	
74	-3.50000e-01	9.096594e-06	
75	-4.00000e-01	9.753954e-06	
76	-4.50000e-01	1.026644e-05	
77	-5.00000e-01	1.064708e-05	
78	-5.50000e-01	1.091893e-05	
79	-6.00000e-01	1.111480e-05	
80	-6.50000e-01	1.126638e-05	
81	-7.00000e-01	1.139425e-05	
82	-7.50000e-01	1.150880e-05	
83	-8.00000e-01	1.161491e-05	
84	-8.50000e-01	1.171500e-05	
85	-9.00000e-01	1.181040e-05	
86	-9.50000e-01	1.190195e-05	
87	-1.00000e+00	1.199022e-05	
88	-1.05000e+00	1.207562e-05	
89	-1.10000e+00	1.215848e-05	
90	-1.15000e+00	1.223906e-05	
91	-1.20000e+00	1.231758e-05	
92	-1.25000e+00	1.239422e-05	
93	-1.30000e+00	1.246915e-05	
94	-1.35000e+00	1.254249e-05	
95	-1.40000e+00	1.261438e-05	
96	-1.45000e+00	1.268492e-05	
97	-1.50000e+00	1.275421e-05	
98	-1.55000e+00	1.282234e-05	
99	-1.60000e+00	1.288938e-05	
100	-1.65000e+00	1.295540e-05	
101	-1.70000e+00	1.302048e-05	
102	-1.75000e+00	1.308466e-05	
103	-1.80000e+00	1.314800e-05	
104	-1.85000e+00	1.321056e-05	
105	-1.90000e+00	1.327237e-05	
106	-1.95000e+00	1.333347e-05	
107	-2.00000e+00	1.339391e-05	
108	-2.05000e+00	1.345372e-05	
109	-2.10000e+00	1.351294e-05	
110	-2.15000e+00	1.357159e-05	
111	-2.20000e+00	1.362971e-05	
112	-2.25000e+00	1.368731e-05	

Index   v-sweep         i(vds)          
--------------------------------------------------------------------------------
113	-2.30000e+00	1.374444e-05	
114	-2.35000e+00	1.380110e-05	
115	-2.40000e+00	1.385733e-05	
116	-2.45000e+00	1.391314e-05	
117	-2.50000e+00	1.396856e-05	
118	-2.55000e+00	1.402362e-05	
119	-2.60000e+00	1.407832e-05	
120	-2.65000e+00	1.413270e-05	
121	-2.70000e+00	1.418679e-05	
122	-2.75000e+00	1.424060e-05	
123	-2.80000e+00	1.429416e-05	
124	-2.85000e+00	1.434751e-05	
125	-2.90000e+00	1.440067e-05	
126	-2.95000e+00	1.445369e-05	
127	-3.00000e+00	1.450661e-05	
128	-3.05000e+00	1.455947e-05	
129	-3.10000e+00	1.461234e-05	
130	-3.15000e+00	1.466526e-05	
131	-3.20000e+00	1.471831e-05	
132	-3.25000e+00	1.477157e-05	
133	-3.30000e+00	1.482511e-05	
134	-0.000000e+00	0.000000e+00	
135	-5.00000e-02	3.031235e-06	
136	-1.00000e-01	5.888321e-06	
137	-1.50000e-01	8.574118e-06	
138	-2.00000e-01	1.109143e-05	
139	-2.50000e-01	1.344301e-05	
140	-3.00000e-01	1.563156e-05	
141	-3.50000e-01	1.765974e-05	
142	-4.00000e-01	1.953017e-05	
143	-4.50000e-01	2.124546e-05	
144	-5.00000e-01	2.280820e-05	
145	-5.50000e-01	2.422105e-05	
146	-6.00000e-01	2.548674e-05	
147	-6.50000e-01	2.660823e-05	
148	-7.00000e-01	2.758891e-05	
149	-7.50000e-01	2.843308e-05	
150	-8.00000e-01	2.914676e-05	
151	-8.50000e-01	2.973918e-05	
152	-9.00000e-01	3.022475e-05	
153	-9.50000e-01	3.062371e-05	
154	-1.00000e+00	3.095918e-05	
155	-1.05000e+00	3.125155e-05	
156	-1.10000e+00	3.151508e-05	
157	-1.15000e+00	3.175848e-05	
158	-1.20000e+00	3.198687e-05	
159	-1.25000e+00	3.220337e-05	
160	-1.30000e+00	3.240997e-05	
161	-1.35000e+00	3.260810e-05	
162	-1.40000e+00	3.279880e-05	
163	-1.45000e+00	3.298287e-05	
164	-1.50000e+00	3.316098e-05	
165	-1.55000e+00	3.333368e-05	
166	-1.60000e+00	3.350143e-05	
167	-1.65000e+00	3.366464e-05	
168	-1.70000e+00	3.382367e-05	
169	-1.75000e+00	3.397881e-05	
170	-1.80000e+00	3.413035e-05	

Index   v-sweep         i(vds)          
--------------------------------------------------------------------------------
171	-1.85000e+00	3.427854e-05	
172	-1.90000e+00	3.442359e-05	
173	-1.95000e+00	3.456571e-05	
174	-2.00000e+00	3.470507e-05	
175	-2.05000e+00	3.484185e-05	
176	-2.10000e+00	3.497619e-05	
177	-2.15000e+00	3.510823e-05	
178	-2.20000e+00	3.523810e-05	
179	-2.25000e+00	3.536592e-05	
180	-2.30000e+00	3.549178e-05	
181	-2.35000e+00	3.561580e-05	
182	-2.40000e+00	3.573807e-05	
183	-2.45000e+00	3.585867e-05	
184	-2.50000e+00	3.597767e-05	
185	-2.55000e+00	3.609517e-05	
186	-2.60000e+00	3.621122e-05	
187	-2.65000e+00	3.632589e-05	
188	-2.70000e+00	3.643925e-05	
189	-2.75000e+00	3.655136e-05	
190	-2.80000e+00	3.666227e-05	
191	-2.85000e+00	3.677204e-05	
192	-2.90000e+00	3.688074e-05	
193	-2.95000e+00	3.698840e-05	
194	-3.00000e+00	3.709511e-05	
195	-3.05000e+00	3.720090e-05	
196	-3.10000e+00	3.730585e-05	
197	-3.15000e+00	3.741003e-05	
198	-3.20000e+00	3.751352e-05	
199	-3.25000e+00	3.761638e-05	
200	-3.30000e+00	3.771873e-05	
201	-0.000000e+00	0.000000e+00	
202	-5.00000e-02	4.014362e-06	
203	-1.00000e-01	7.860491e-06	
204	-1.50000e-01	1.154087e-05	
205	-2.00000e-01	1.505794e-05	
206	-2.50000e-01	1.841408e-05	
207	-3.00000e-01	2.161164e-05	
208	-3.50000e-01	2.465293e-05	
209	-4.00000e-01	2.754020e-05	
210	-4.50000e-01	3.027568e-05	
211	-5.00000e-01	3.286156e-05	
212	-5.50000e-01	3.529997e-05	
213	-6.00000e-01	3.759305e-05	
214	-6.50000e-01	3.974289e-05	
215	-7.00000e-01	4.175156e-05	
216	-7.50000e-01	4.362114e-05	
217	-8.00000e-01	4.535369e-05	
218	-8.50000e-01	4.695133e-05	
219	-9.00000e-01	4.841622e-05	
220	-9.50000e-01	4.975070e-05	
221	-1.00000e+00	5.095733e-05	
222	-1.05000e+00	5.203919e-05	
223	-1.10000e+00	5.300017e-05	
224	-1.15000e+00	5.384567e-05	
225	-1.20000e+00	5.458349e-05	
226	-1.25000e+00	5.522485e-05	
227	-1.30000e+00	5.578460e-05	
228	-1.35000e+00	5.627956e-05	

Index   v-sweep         i(vds)          
--------------------------------------------------------------------------------
229	-1.40000e+00	5.672553e-05	
230	-1.45000e+00	5.713498e-05	
231	-1.50000e+00	5.751664e-05	
232	-1.55000e+00	5.787634e-05	
233	-1.60000e+00	5.821795e-05	
234	-1.65000e+00	5.854420e-05	
235	-1.70000e+00	5.885707e-05	
236	-1.75000e+00	5.915808e-05	
237	-1.80000e+00	5.944844e-05	
238	-1.85000e+00	5.972914e-05	
239	-1.90000e+00	6.000105e-05	
240	-1.95000e+00	6.026486e-05	
241	-2.00000e+00	6.052122e-05	
242	-2.05000e+00	6.077067e-05	
243	-2.10000e+00	6.101371e-05	
244	-2.15000e+00	6.125076e-05	
245	-2.20000e+00	6.148223e-05	
246	-2.25000e+00	6.170847e-05	
247	-2.30000e+00	6.192979e-05	
248	-2.35000e+00	6.214649e-05	
249	-2.40000e+00	6.235884e-05	
250	-2.45000e+00	6.256708e-05	
251	-2.50000e+00	6.277143e-05	
252	-2.55000e+00	6.297210e-05	
253	-2.60000e+00	6.316928e-05	
254	-2.65000e+00	6.336315e-05	
255	-2.70000e+00	6.355386e-05	
256	-2.75000e+00	6.374158e-05	
257	-2.80000e+00	6.392644e-05	
258	-2.85000e+00	6.410857e-05	
259	-2.90000e+00	6.428810e-05	
260	-2.95000e+00	6.446515e-05	
261	-3.00000e+00	6.463982e-05	
262	-3.05000e+00	6.481223e-05	
263	-3.10000e+00	6.498246e-05	
264	-3.15000e+00	6.515062e-05	
265	-3.20000e+00	6.531680e-05	
266	-3.25000e+00	6.548110e-05	
267	-3.30000e+00	6.564362e-05	
268	-0.000000e+00	0.000000e+00	
269	-5.00000e-02	4.817387e-06	
270	-1.00000e-01	9.473917e-06	
271	-1.50000e-01	1.397175e-05	
272	-2.00000e-01	1.831301e-05	
273	-2.50000e-01	2.249979e-05	
274	-3.00000e-01	2.653413e-05	
275	-3.50000e-01	3.041804e-05	
276	-4.00000e-01	3.415352e-05	
277	-4.50000e-01	3.774249e-05	
278	-5.00000e-01	4.118688e-05	
279	-5.50000e-01	4.448857e-05	
280	-6.00000e-01	4.764941e-05	
281	-6.50000e-01	5.067123e-05	
282	-7.00000e-01	5.355580e-05	
283	-7.50000e-01	5.630491e-05	
284	-8.00000e-01	5.892030e-05	
285	-8.50000e-01	6.140369e-05	
286	-9.00000e-01	6.375677e-05	

Index   v-sweep         i(vds)          
--------------------------------------------------------------------------------
287	-9.50000e-01	6.598124e-05	
288	-1.00000e+00	6.807876e-05	
289	-1.05000e+00	7.005103e-05	
290	-1.10000e+00	7.189971e-05	
291	-1.15000e+00	7.362653e-05	
292	-1.20000e+00	7.523325e-05	
293	-1.25000e+00	7.672176e-05	
294	-1.30000e+00	7.809410e-05	
295	-1.35000e+00	7.935266e-05	
296	-1.40000e+00	8.050030e-05	
297	-1.45000e+00	8.154079e-05	
298	-1.50000e+00	8.247923e-05	
299	-1.55000e+00	8.332272e-05	
300	-1.60000e+00	8.408084e-05	
301	-1.65000e+00	8.476543e-05	
302	-1.70000e+00	8.538933e-05	
303	-1.75000e+00	8.596457e-05	
304	-1.80000e+00	8.650102e-05	
305	-1.85000e+00	8.700608e-05	
306	-1.90000e+00	8.748508e-05	
307	-1.95000e+00	8.794189e-05	
308	-2.00000e+00	8.837937e-05	
309	-2.05000e+00	8.879973e-05	
310	-2.10000e+00	8.920472e-05	
311	-2.15000e+00	8.959577e-05	
312	-2.20000e+00	8.997411e-05	
313	-2.25000e+00	9.034076e-05	
314	-2.30000e+00	9.069662e-05	
315	-2.35000e+00	9.104249e-05	
316	-2.40000e+00	9.137906e-05	
317	-2.45000e+00	9.170696e-05	
318	-2.50000e+00	9.202675e-05	
319	-2.55000e+00	9.233894e-05	
320	-2.60000e+00	9.264398e-05	
321	-2.65000e+00	9.294230e-05	
322	-2.70000e+00	9.323428e-05	
323	-2.75000e+00	9.352027e-05	
324	-2.80000e+00	9.380058e-05	
325	-2.85000e+00	9.407553e-05	
326	-2.90000e+00	9.434537e-05	
327	-2.95000e+00	9.461037e-05	
328	-3.00000e+00	9.487076e-05	
329	-3.05000e+00	9.512675e-05	
330	-3.10000e+00	9.537856e-05	
331	-3.15000e+00	9.562638e-05	
332	-3.20000e+00	9.587037e-05	
333	-3.25000e+00	9.611071e-05	
334	-3.30000e+00	9.634756e-05	
335	-0.000000e+00	0.000000e+00	
336	-5.00000e-02	5.483715e-06	
337	-1.00000e-01	1.081422e-05	
338	-1.50000e-01	1.599342e-05	
339	-2.00000e-01	2.102315e-05	
340	-2.50000e-01	2.590526e-05	
341	-3.00000e-01	3.064154e-05	
342	-3.50000e-01	3.523377e-05	
343	-4.00000e-01	3.968369e-05	
344	-4.50000e-01	4.399301e-05	

Index   v-sweep         i(vds)          
--------------------------------------------------------------------------------
345	-5.00000e-01	4.816343e-05	
346	-5.50000e-01	5.219660e-05	
347	-6.00000e-01	5.609416e-05	
348	-6.50000e-01	5.985772e-05	
349	-7.00000e-01	6.348888e-05	
350	-7.50000e-01	6.698918e-05	
351	-8.00000e-01	7.036018e-05	
352	-8.50000e-01	7.360339e-05	
353	-9.00000e-01	7.672030e-05	
354	-9.50000e-01	7.971239e-05	
355	-1.00000e+00	8.258112e-05	
356	-1.05000e+00	8.532792e-05	
357	-1.10000e+00	8.795421e-05	
358	-1.15000e+00	9.046140e-05	
359	-1.20000e+00	9.285088e-05	
360	-1.25000e+00	9.512404e-05	
361	-1.30000e+00	9.728225e-05	
362	-1.35000e+00	9.932690e-05	
363	-1.40000e+00	1.012594e-04	
364	-1.45000e+00	1.030811e-04	
365	-1.50000e+00	1.047936e-04	
366	-1.55000e+00	1.063983e-04	
367	-1.60000e+00	1.078970e-04	
368	-1.65000e+00	1.092916e-04	
369	-1.70000e+00	1.105843e-04	
370	-1.75000e+00	1.117781e-04	
371	-1.80000e+00	1.128765e-04	
372	-1.85000e+00	1.138847e-04	
373	-1.90000e+00	1.148092e-04	
374	-1.95000e+00	1.156584e-04	
375	-2.00000e+00	1.164421e-04	
376	-2.05000e+00	1.171704e-04	
377	-2.10000e+00	1.178524e-04	
378	-2.15000e+00	1.184957e-04	
379	-2.20000e+00	1.191064e-04	
380	-2.25000e+00	1.196890e-04	
381	-2.30000e+00	1.202470e-04	
382	-2.35000e+00	1.207831e-04	
383	-2.40000e+00	1.212995e-04	
384	-2.45000e+00	1.217980e-04	
385	-2.50000e+00	1.222802e-04	
386	-2.55000e+00	1.227473e-04	
387	-2.60000e+00	1.232006e-04	
388	-2.65000e+00	1.236409e-04	
389	-2.70000e+00	1.240692e-04	
390	-2.75000e+00	1.244862e-04	
391	-2.80000e+00	1.248928e-04	
392	-2.85000e+00	1.252895e-04	
393	-2.90000e+00	1.256768e-04	
394	-2.95000e+00	1.260555e-04	
395	-3.00000e+00	1.264259e-04	
396	-3.05000e+00	1.267884e-04	
397	-3.10000e+00	1.271436e-04	
398	-3.15000e+00	1.274917e-04	
399	-3.20000e+00	1.278332e-04	
400	-3.25000e+00	1.281684e-04	
401	-3.30000e+00	1.284974e-04	
Note: No ".plot", ".print", or ".fourier" lines; no simulations run
