
Note: Compatibility modes selected: hs

Warning: m=xx on .subckt line will override multiplier m hierarchy!


Circuit: ***************************

Doing analysis at TEMP = 125.000000 and TNOM = 125.000000


No. of Data Rows : 402
                          ***************************
                          DC transfer characteristic  Mon Jan  9 13:57:29  2023
--------------------------------------------------------------------------------
Index   v-sweep         i(vds)          
--------------------------------------------------------------------------------
0	-0.000000e+00	0.000000e+00	
1	-5.00000e-02	1.887309e-08	
2	-1.00000e-01	2.767959e-08	
3	-1.50000e-01	3.071067e-08	
4	-2.00000e-01	3.145253e-08	
5	-2.50000e-01	3.165673e-08	
6	-3.00000e-01	3.173510e-08	
7	-3.50000e-01	3.177507e-08	
8	-4.00000e-01	3.180010e-08	
9	-4.50000e-01	3.181810e-08	
10	-5.00000e-01	3.183229e-08	
11	-5.50000e-01	3.184418e-08	
12	-6.00000e-01	3.185456e-08	
13	-6.50000e-01	3.186388e-08	
14	-7.00000e-01	3.187243e-08	
15	-7.50000e-01	3.188038e-08	
16	-8.00000e-01	3.188785e-08	
17	-8.50000e-01	3.189493e-08	
18	-9.00000e-01	3.190168e-08	
19	-9.50000e-01	3.190816e-08	
20	-1.00000e+00	3.191440e-08	
21	-1.05000e+00	3.192042e-08	
22	-1.10000e+00	3.192626e-08	
23	-1.15000e+00	3.193193e-08	
24	-1.20000e+00	3.193745e-08	
25	-1.25000e+00	3.194284e-08	
26	-1.30000e+00	3.194810e-08	
27	-1.35000e+00	3.195324e-08	
28	-1.40000e+00	3.195828e-08	
29	-1.45000e+00	3.196322e-08	
30	-1.50000e+00	3.196807e-08	
31	-1.55000e+00	3.197283e-08	
32	-1.60000e+00	3.197752e-08	
33	-1.65000e+00	3.198213e-08	
34	-1.70000e+00	3.198667e-08	
35	-1.75000e+00	3.199114e-08	
36	-1.80000e+00	3.199555e-08	
37	-1.85000e+00	3.199990e-08	
38	-1.90000e+00	3.200420e-08	
39	-1.95000e+00	3.200844e-08	
40	-2.00000e+00	3.201263e-08	
41	-2.05000e+00	3.201678e-08	
42	-2.10000e+00	3.202088e-08	
43	-2.15000e+00	3.202494e-08	
44	-2.20000e+00	3.202896e-08	
45	-2.25000e+00	3.203295e-08	
46	-2.30000e+00	3.203690e-08	
47	-2.35000e+00	3.204083e-08	
48	-2.40000e+00	3.204474e-08	
49	-2.45000e+00	3.204864e-08	
50	-2.50000e+00	3.205253e-08	
51	-2.55000e+00	3.205642e-08	
52	-2.60000e+00	3.206034e-08	
53	-2.65000e+00	3.206430e-08	
54	-2.70000e+00	3.206832e-08	

Index   v-sweep         i(vds)          
--------------------------------------------------------------------------------
55	-2.75000e+00	3.207243e-08	
56	-2.80000e+00	3.207666e-08	
57	-2.85000e+00	3.208106e-08	
58	-2.90000e+00	3.208568e-08	
59	-2.95000e+00	3.209058e-08	
60	-3.00000e+00	3.209583e-08	
61	-3.05000e+00	3.210152e-08	
62	-3.10000e+00	3.210776e-08	
63	-3.15000e+00	3.211467e-08	
64	-3.20000e+00	3.212239e-08	
65	-3.25000e+00	3.213109e-08	
66	-3.30000e+00	3.214096e-08	
67	-0.000000e+00	0.000000e+00	
68	-5.00000e-02	7.869038e-08	
69	-1.00000e-01	1.450804e-07	
70	-1.50000e-01	2.019358e-07	
71	-2.00000e-01	2.499247e-07	
72	-2.50000e-01	2.892471e-07	
73	-3.00000e-01	3.200428e-07	
74	-3.50000e-01	3.425617e-07	
75	-4.00000e-01	3.573929e-07	
76	-4.50000e-01	3.658377e-07	
77	-5.00000e-01	3.699961e-07	
78	-5.50000e-01	3.719342e-07	
79	-6.00000e-01	3.728983e-07	
80	-6.50000e-01	3.734417e-07	
81	-7.00000e-01	3.737892e-07	
82	-7.50000e-01	3.740359e-07	
83	-8.00000e-01	3.742257e-07	
84	-8.50000e-01	3.743805e-07	
85	-9.00000e-01	3.745123e-07	
86	-9.50000e-01	3.746278e-07	
87	-1.00000e+00	3.747315e-07	
88	-1.05000e+00	3.748261e-07	
89	-1.10000e+00	3.749135e-07	
90	-1.15000e+00	3.749951e-07	
91	-1.20000e+00	3.750718e-07	
92	-1.25000e+00	3.751444e-07	
93	-1.30000e+00	3.752134e-07	
94	-1.35000e+00	3.752793e-07	
95	-1.40000e+00	3.753424e-07	
96	-1.45000e+00	3.754031e-07	
97	-1.50000e+00	3.754616e-07	
98	-1.55000e+00	3.755180e-07	
99	-1.60000e+00	3.755726e-07	
100	-1.65000e+00	3.756256e-07	
101	-1.70000e+00	3.756770e-07	
102	-1.75000e+00	3.757270e-07	
103	-1.80000e+00	3.757756e-07	
104	-1.85000e+00	3.758231e-07	
105	-1.90000e+00	3.758693e-07	
106	-1.95000e+00	3.759145e-07	
107	-2.00000e+00	3.759586e-07	
108	-2.05000e+00	3.760018e-07	
109	-2.10000e+00	3.760441e-07	
110	-2.15000e+00	3.760855e-07	
111	-2.20000e+00	3.761262e-07	
112	-2.25000e+00	3.761660e-07	

Index   v-sweep         i(vds)          
--------------------------------------------------------------------------------
113	-2.30000e+00	3.762052e-07	
114	-2.35000e+00	3.762436e-07	
115	-2.40000e+00	3.762814e-07	
116	-2.45000e+00	3.763186e-07	
117	-2.50000e+00	3.763552e-07	
118	-2.55000e+00	3.763913e-07	
119	-2.60000e+00	3.764270e-07	
120	-2.65000e+00	3.764622e-07	
121	-2.70000e+00	3.764971e-07	
122	-2.75000e+00	3.765318e-07	
123	-2.80000e+00	3.765663e-07	
124	-2.85000e+00	3.766009e-07	
125	-2.90000e+00	3.766357e-07	
126	-2.95000e+00	3.766709e-07	
127	-3.00000e+00	3.767069e-07	
128	-3.05000e+00	3.767439e-07	
129	-3.10000e+00	3.767825e-07	
130	-3.15000e+00	3.768233e-07	
131	-3.20000e+00	3.768667e-07	
132	-3.25000e+00	3.769138e-07	
133	-3.30000e+00	3.769655e-07	
134	-0.000000e+00	0.000000e+00	
135	-5.00000e-02	1.370608e-07	
136	-1.00000e-01	2.619629e-07	
137	-1.50000e-01	3.774612e-07	
138	-2.00000e-01	4.842037e-07	
139	-2.50000e-01	5.823481e-07	
140	-3.00000e-01	6.719396e-07	
141	-3.50000e-01	7.529987e-07	
142	-4.00000e-01	8.255436e-07	
143	-4.50000e-01	8.895977e-07	
144	-5.00000e-01	9.451955e-07	
145	-5.50000e-01	9.923939e-07	
146	-6.00000e-01	1.031294e-06	
147	-6.50000e-01	1.062085e-06	
148	-7.00000e-01	1.085139e-06	
149	-7.50000e-01	1.101169e-06	
150	-8.00000e-01	1.111388e-06	
151	-8.50000e-01	1.117431e-06	
152	-9.00000e-01	1.120904e-06	
153	-9.50000e-01	1.122961e-06	
154	-1.00000e+00	1.124268e-06	
155	-1.05000e+00	1.125169e-06	
156	-1.10000e+00	1.125838e-06	
157	-1.15000e+00	1.126365e-06	
158	-1.20000e+00	1.126802e-06	
159	-1.25000e+00	1.127176e-06	
160	-1.30000e+00	1.127506e-06	
161	-1.35000e+00	1.127802e-06	
162	-1.40000e+00	1.128073e-06	
163	-1.45000e+00	1.128322e-06	
164	-1.50000e+00	1.128555e-06	
165	-1.55000e+00	1.128774e-06	
166	-1.60000e+00	1.128980e-06	
167	-1.65000e+00	1.129176e-06	
168	-1.70000e+00	1.129363e-06	
169	-1.75000e+00	1.129541e-06	
170	-1.80000e+00	1.129712e-06	

Index   v-sweep         i(vds)          
--------------------------------------------------------------------------------
171	-1.85000e+00	1.129877e-06	
172	-1.90000e+00	1.130036e-06	
173	-1.95000e+00	1.130189e-06	
174	-2.00000e+00	1.130338e-06	
175	-2.05000e+00	1.130481e-06	
176	-2.10000e+00	1.130621e-06	
177	-2.15000e+00	1.130756e-06	
178	-2.20000e+00	1.130888e-06	
179	-2.25000e+00	1.131016e-06	
180	-2.30000e+00	1.131141e-06	
181	-2.35000e+00	1.131263e-06	
182	-2.40000e+00	1.131382e-06	
183	-2.45000e+00	1.131499e-06	
184	-2.50000e+00	1.131613e-06	
185	-2.55000e+00	1.131724e-06	
186	-2.60000e+00	1.131833e-06	
187	-2.65000e+00	1.131940e-06	
188	-2.70000e+00	1.132045e-06	
189	-2.75000e+00	1.132148e-06	
190	-2.80000e+00	1.132249e-06	
191	-2.85000e+00	1.132349e-06	
192	-2.90000e+00	1.132447e-06	
193	-2.95000e+00	1.132543e-06	
194	-3.00000e+00	1.132639e-06	
195	-3.05000e+00	1.132733e-06	
196	-3.10000e+00	1.132827e-06	
197	-3.15000e+00	1.132920e-06	
198	-3.20000e+00	1.133013e-06	
199	-3.25000e+00	1.133107e-06	
200	-3.30000e+00	1.133203e-06	
201	-0.000000e+00	0.000000e+00	
202	-5.00000e-02	1.914869e-07	
203	-1.00000e-01	3.711854e-07	
204	-1.50000e-01	5.418490e-07	
205	-2.00000e-01	7.041235e-07	
206	-2.50000e-01	8.581641e-07	
207	-3.00000e-01	1.004012e-06	
208	-3.50000e-01	1.141681e-06	
209	-4.00000e-01	1.271181e-06	
210	-4.50000e-01	1.392519e-06	
211	-5.00000e-01	1.505703e-06	
212	-5.50000e-01	1.610742e-06	
213	-6.00000e-01	1.707647e-06	
214	-6.50000e-01	1.796430e-06	
215	-7.00000e-01	1.877106e-06	
216	-7.50000e-01	1.949697e-06	
217	-8.00000e-01	2.014231e-06	
218	-8.50000e-01	2.070753e-06	
219	-9.00000e-01	2.119333e-06	
220	-9.50000e-01	2.160087e-06	
221	-1.00000e+00	2.193215e-06	
222	-1.05000e+00	2.219066e-06	
223	-1.10000e+00	2.238235e-06	
224	-1.15000e+00	2.251654e-06	
225	-1.20000e+00	2.260568e-06	
226	-1.25000e+00	2.266321e-06	
227	-1.30000e+00	2.270056e-06	
228	-1.35000e+00	2.272574e-06	

Index   v-sweep         i(vds)          
--------------------------------------------------------------------------------
229	-1.40000e+00	2.274367e-06	
230	-1.45000e+00	2.275719e-06	
231	-1.50000e+00	2.276792e-06	
232	-1.55000e+00	2.277680e-06	
233	-1.60000e+00	2.278440e-06	
234	-1.65000e+00	2.279108e-06	
235	-1.70000e+00	2.279706e-06	
236	-1.75000e+00	2.280251e-06	
237	-1.80000e+00	2.280752e-06	
238	-1.85000e+00	2.281218e-06	
239	-1.90000e+00	2.281655e-06	
240	-1.95000e+00	2.282067e-06	
241	-2.00000e+00	2.282457e-06	
242	-2.05000e+00	2.282828e-06	
243	-2.10000e+00	2.283182e-06	
244	-2.15000e+00	2.283521e-06	
245	-2.20000e+00	2.283847e-06	
246	-2.25000e+00	2.284160e-06	
247	-2.30000e+00	2.284463e-06	
248	-2.35000e+00	2.284755e-06	
249	-2.40000e+00	2.285037e-06	
250	-2.45000e+00	2.285311e-06	
251	-2.50000e+00	2.285577e-06	
252	-2.55000e+00	2.285835e-06	
253	-2.60000e+00	2.286086e-06	
254	-2.65000e+00	2.286331e-06	
255	-2.70000e+00	2.286569e-06	
256	-2.75000e+00	2.286801e-06	
257	-2.80000e+00	2.287028e-06	
258	-2.85000e+00	2.287250e-06	
259	-2.90000e+00	2.287467e-06	
260	-2.95000e+00	2.287679e-06	
261	-3.00000e+00	2.287886e-06	
262	-3.05000e+00	2.288090e-06	
263	-3.10000e+00	2.288289e-06	
264	-3.15000e+00	2.288485e-06	
265	-3.20000e+00	2.288677e-06	
266	-3.25000e+00	2.288866e-06	
267	-3.30000e+00	2.289052e-06	
268	-0.000000e+00	0.000000e+00	
269	-5.00000e-02	2.424149e-07	
270	-1.00000e-01	4.734543e-07	
271	-1.50000e-01	6.958710e-07	
272	-2.00000e-01	9.103103e-07	
273	-2.50000e-01	1.116926e-06	
274	-3.00000e-01	1.315759e-06	
275	-3.50000e-01	1.506822e-06	
276	-4.00000e-01	1.690123e-06	
277	-4.50000e-01	1.865667e-06	
278	-5.00000e-01	2.033460e-06	
279	-5.50000e-01	2.193508e-06	
280	-6.00000e-01	2.345818e-06	
281	-6.50000e-01	2.490394e-06	
282	-7.00000e-01	2.627244e-06	
283	-7.50000e-01	2.756374e-06	
284	-8.00000e-01	2.877792e-06	
285	-8.50000e-01	2.991506e-06	
286	-9.00000e-01	3.097524e-06	

Index   v-sweep         i(vds)          
--------------------------------------------------------------------------------
287	-9.50000e-01	3.195858e-06	
288	-1.00000e+00	3.286521e-06	
289	-1.05000e+00	3.369528e-06	
290	-1.10000e+00	3.444902e-06	
291	-1.15000e+00	3.512671e-06	
292	-1.20000e+00	3.572878e-06	
293	-1.25000e+00	3.625586e-06	
294	-1.30000e+00	3.670894e-06	
295	-1.35000e+00	3.708959e-06	
296	-1.40000e+00	3.740037e-06	
297	-1.45000e+00	3.764538e-06	
298	-1.50000e+00	3.783092e-06	
299	-1.55000e+00	3.796579e-06	
300	-1.60000e+00	3.806071e-06	
301	-1.65000e+00	3.812660e-06	
302	-1.70000e+00	3.817281e-06	
303	-1.75000e+00	3.820622e-06	
304	-1.80000e+00	3.823138e-06	
305	-1.85000e+00	3.825117e-06	
306	-1.90000e+00	3.826736e-06	
307	-1.95000e+00	3.828106e-06	
308	-2.00000e+00	3.829296e-06	
309	-2.05000e+00	3.830352e-06	
310	-2.10000e+00	3.831306e-06	
311	-2.15000e+00	3.832178e-06	
312	-2.20000e+00	3.832985e-06	
313	-2.25000e+00	3.833737e-06	
314	-2.30000e+00	3.834443e-06	
315	-2.35000e+00	3.835110e-06	
316	-2.40000e+00	3.835742e-06	
317	-2.45000e+00	3.836344e-06	
318	-2.50000e+00	3.836919e-06	
319	-2.55000e+00	3.837470e-06	
320	-2.60000e+00	3.837999e-06	
321	-2.65000e+00	3.838509e-06	
322	-2.70000e+00	3.839000e-06	
323	-2.75000e+00	3.839475e-06	
324	-2.80000e+00	3.839935e-06	
325	-2.85000e+00	3.840380e-06	
326	-2.90000e+00	3.840812e-06	
327	-2.95000e+00	3.841232e-06	
328	-3.00000e+00	3.841640e-06	
329	-3.05000e+00	3.842037e-06	
330	-3.10000e+00	3.842424e-06	
331	-3.15000e+00	3.842802e-06	
332	-3.20000e+00	3.843170e-06	
333	-3.25000e+00	3.843530e-06	
334	-3.30000e+00	3.843882e-06	
335	-0.000000e+00	0.000000e+00	
336	-5.00000e-02	2.903376e-07	
337	-1.00000e-01	5.697107e-07	
338	-1.50000e-01	8.408717e-07	
339	-2.00000e-01	1.104465e-06	
340	-2.50000e-01	1.360645e-06	
341	-3.00000e-01	1.609451e-06	
342	-3.50000e-01	1.850895e-06	
343	-4.00000e-01	2.084985e-06	
344	-4.50000e-01	2.311726e-06	

Index   v-sweep         i(vds)          
--------------------------------------------------------------------------------
345	-5.00000e-01	2.531123e-06	
346	-5.50000e-01	2.743180e-06	
347	-6.00000e-01	2.947903e-06	
348	-6.50000e-01	3.145297e-06	
349	-7.00000e-01	3.335366e-06	
350	-7.50000e-01	3.518116e-06	
351	-8.00000e-01	3.693552e-06	
352	-8.50000e-01	3.861680e-06	
353	-9.00000e-01	4.022504e-06	
354	-9.50000e-01	4.176030e-06	
355	-1.00000e+00	4.322265e-06	
356	-1.05000e+00	4.461214e-06	
357	-1.10000e+00	4.592883e-06	
358	-1.15000e+00	4.717280e-06	
359	-1.20000e+00	4.834412e-06	
360	-1.25000e+00	4.944289e-06	
361	-1.30000e+00	5.046919e-06	
362	-1.35000e+00	5.142315e-06	
363	-1.40000e+00	5.230492e-06	
364	-1.45000e+00	5.311467e-06	
365	-1.50000e+00	5.385265e-06	
366	-1.55000e+00	5.451920e-06	
367	-1.60000e+00	5.511477e-06	
368	-1.65000e+00	5.564007e-06	
369	-1.70000e+00	5.609612e-06	
370	-1.75000e+00	5.648448e-06	
371	-1.80000e+00	5.680759e-06	
372	-1.85000e+00	5.706911e-06	
373	-1.90000e+00	5.727439e-06	
374	-1.95000e+00	5.743066e-06	
375	-2.00000e+00	5.754670e-06	
376	-2.05000e+00	5.763182e-06	
377	-2.10000e+00	5.769449e-06	
378	-2.15000e+00	5.774156e-06	
379	-2.20000e+00	5.777797e-06	
380	-2.25000e+00	5.780710e-06	
381	-2.30000e+00	5.783117e-06	
382	-2.35000e+00	5.785166e-06	
383	-2.40000e+00	5.786952e-06	
384	-2.45000e+00	5.788539e-06	
385	-2.50000e+00	5.789973e-06	
386	-2.55000e+00	5.791285e-06	
387	-2.60000e+00	5.792497e-06	
388	-2.65000e+00	5.793627e-06	
389	-2.70000e+00	5.794688e-06	
390	-2.75000e+00	5.795688e-06	
391	-2.80000e+00	5.796636e-06	
392	-2.85000e+00	5.797538e-06	
393	-2.90000e+00	5.798400e-06	
394	-2.95000e+00	5.799225e-06	
395	-3.00000e+00	5.800017e-06	
396	-3.05000e+00	5.800779e-06	
397	-3.10000e+00	5.801514e-06	
398	-3.15000e+00	5.802223e-06	
399	-3.20000e+00	5.802910e-06	
400	-3.25000e+00	5.803574e-06	
401	-3.30000e+00	5.804219e-06	
Note: No ".plot", ".print", or ".fourier" lines; no simulations run
