
Note: Compatibility modes selected: hs

Warning: m=xx on .subckt line will override multiplier m hierarchy!


Circuit: ***************************

Doing analysis at TEMP = 25.000000 and TNOM = 25.000000


No. of Data Rows : 402
                          ***************************
                          DC transfer characteristic  Mon Jan  9 13:57:29  2023
--------------------------------------------------------------------------------
Index   v-sweep         i(vds)          
--------------------------------------------------------------------------------
0	-0.000000e+00	0.000000e+00	
1	-5.00000e-02	2.137811e-07	
2	-1.00000e-01	3.616807e-07	
3	-1.50000e-01	4.488963e-07	
4	-2.00000e-01	4.898435e-07	
5	-2.50000e-01	5.082745e-07	
6	-3.00000e-01	5.197457e-07	
7	-3.50000e-01	5.291340e-07	
8	-4.00000e-01	5.377079e-07	
9	-4.50000e-01	5.458591e-07	
10	-5.00000e-01	5.537406e-07	
11	-5.50000e-01	5.614260e-07	
12	-6.00000e-01	5.689573e-07	
13	-6.50000e-01	5.763618e-07	
14	-7.00000e-01	5.836591e-07	
15	-7.50000e-01	5.908639e-07	
16	-8.00000e-01	5.979882e-07	
17	-8.50000e-01	6.050419e-07	
18	-9.00000e-01	6.120332e-07	
19	-9.50000e-01	6.189694e-07	
20	-1.00000e+00	6.258566e-07	
21	-1.05000e+00	6.327003e-07	
22	-1.10000e+00	6.395054e-07	
23	-1.15000e+00	6.462762e-07	
24	-1.20000e+00	6.530166e-07	
25	-1.25000e+00	6.597300e-07	
26	-1.30000e+00	6.664197e-07	
27	-1.35000e+00	6.730885e-07	
28	-1.40000e+00	6.797391e-07	
29	-1.45000e+00	6.863738e-07	
30	-1.50000e+00	6.929949e-07	
31	-1.55000e+00	6.996044e-07	
32	-1.60000e+00	7.062041e-07	
33	-1.65000e+00	7.127957e-07	
34	-1.70000e+00	7.193809e-07	
35	-1.75000e+00	7.259612e-07	
36	-1.80000e+00	7.325378e-07	
37	-1.85000e+00	7.391122e-07	
38	-1.90000e+00	7.456854e-07	
39	-1.95000e+00	7.522588e-07	
40	-2.00000e+00	7.588333e-07	
41	-2.05000e+00	7.654100e-07	
42	-2.10000e+00	7.719899e-07	
43	-2.15000e+00	7.785742e-07	
44	-2.20000e+00	7.851637e-07	
45	-2.25000e+00	7.917595e-07	
46	-2.30000e+00	7.983628e-07	
47	-2.35000e+00	8.049748e-07	
48	-2.40000e+00	8.115968e-07	
49	-2.45000e+00	8.182301e-07	
50	-2.50000e+00	8.248765e-07	
51	-2.55000e+00	8.315377e-07	
52	-2.60000e+00	8.382160e-07	
53	-2.65000e+00	8.449135e-07	
54	-2.70000e+00	8.516332e-07	

Index   v-sweep         i(vds)          
--------------------------------------------------------------------------------
55	-2.75000e+00	8.583782e-07	
56	-2.80000e+00	8.651520e-07	
57	-2.85000e+00	8.719589e-07	
58	-2.90000e+00	8.788035e-07	
59	-2.95000e+00	8.856911e-07	
60	-3.00000e+00	8.926278e-07	
61	-3.05000e+00	8.996204e-07	
62	-3.10000e+00	9.066766e-07	
63	-3.15000e+00	9.138047e-07	
64	-3.20000e+00	9.210142e-07	
65	-3.25000e+00	9.283158e-07	
66	-3.30000e+00	9.357208e-07	
67	-0.000000e+00	0.000000e+00	
68	-5.00000e-02	9.507790e-07	
69	-1.00000e-01	1.815595e-06	
70	-1.50000e-01	2.596128e-06	
71	-2.00000e-01	3.294040e-06	
72	-2.50000e-01	3.910990e-06	
73	-3.00000e-01	4.448673e-06	
74	-3.50000e-01	4.908890e-06	
75	-4.00000e-01	5.293710e-06	
76	-4.50000e-01	5.605846e-06	
77	-5.00000e-01	5.849496e-06	
78	-5.50000e-01	6.031993e-06	
79	-6.00000e-01	6.165565e-06	
80	-6.50000e-01	6.266005e-06	
81	-7.00000e-01	6.347216e-06	
82	-7.50000e-01	6.417792e-06	
83	-8.00000e-01	6.482060e-06	
84	-8.50000e-01	6.542119e-06	
85	-9.00000e-01	6.599052e-06	
86	-9.50000e-01	6.653484e-06	
87	-1.00000e+00	6.705815e-06	
88	-1.05000e+00	6.756328e-06	
89	-1.10000e+00	6.805234e-06	
90	-1.15000e+00	6.852701e-06	
91	-1.20000e+00	6.898866e-06	
92	-1.25000e+00	6.943847e-06	
93	-1.30000e+00	6.987741e-06	
94	-1.35000e+00	7.030636e-06	
95	-1.40000e+00	7.072608e-06	
96	-1.45000e+00	7.113724e-06	
97	-1.50000e+00	7.154044e-06	
98	-1.55000e+00	7.193621e-06	
99	-1.60000e+00	7.232506e-06	
100	-1.65000e+00	7.270741e-06	
101	-1.70000e+00	7.308366e-06	
102	-1.75000e+00	7.345419e-06	
103	-1.80000e+00	7.381933e-06	
104	-1.85000e+00	7.417938e-06	
105	-1.90000e+00	7.453462e-06	
106	-1.95000e+00	7.488532e-06	
107	-2.00000e+00	7.523171e-06	
108	-2.05000e+00	7.557403e-06	
109	-2.10000e+00	7.591247e-06	
110	-2.15000e+00	7.624723e-06	
111	-2.20000e+00	7.657849e-06	
112	-2.25000e+00	7.690642e-06	

Index   v-sweep         i(vds)          
--------------------------------------------------------------------------------
113	-2.30000e+00	7.723118e-06	
114	-2.35000e+00	7.755291e-06	
115	-2.40000e+00	7.787176e-06	
116	-2.45000e+00	7.818787e-06	
117	-2.50000e+00	7.850136e-06	
118	-2.55000e+00	7.881238e-06	
119	-2.60000e+00	7.912104e-06	
120	-2.65000e+00	7.942748e-06	
121	-2.70000e+00	7.973183e-06	
122	-2.75000e+00	8.003423e-06	
123	-2.80000e+00	8.033482e-06	
124	-2.85000e+00	8.063378e-06	
125	-2.90000e+00	8.093126e-06	
126	-2.95000e+00	8.122747e-06	
127	-3.00000e+00	8.152262e-06	
128	-3.05000e+00	8.181694e-06	
129	-3.10000e+00	8.211071e-06	
130	-3.15000e+00	8.240423e-06	
131	-3.20000e+00	8.269785e-06	
132	-3.25000e+00	8.299194e-06	
133	-3.30000e+00	8.328695e-06	
134	-0.000000e+00	0.000000e+00	
135	-5.00000e-02	1.593009e-06	
136	-1.00000e-01	3.096357e-06	
137	-1.50000e-01	4.511634e-06	
138	-2.00000e-01	5.840395e-06	
139	-2.50000e-01	7.084161e-06	
140	-3.00000e-01	8.244423e-06	
141	-3.50000e-01	9.322644e-06	
142	-4.00000e-01	1.032026e-05	
143	-4.50000e-01	1.123870e-05	
144	-5.00000e-01	1.207937e-05	
145	-5.50000e-01	1.284369e-05	
146	-6.00000e-01	1.353310e-05	
147	-6.50000e-01	1.414912e-05	
148	-7.00000e-01	1.469344e-05	
149	-7.50000e-01	1.516806e-05	
150	-8.00000e-01	1.557562e-05	
151	-8.50000e-01	1.591996e-05	
152	-9.00000e-01	1.620699e-05	
153	-9.50000e-01	1.644547e-05	
154	-1.00000e+00	1.664641e-05	
155	-1.05000e+00	1.682074e-05	
156	-1.10000e+00	1.697697e-05	
157	-1.15000e+00	1.712060e-05	
158	-1.20000e+00	1.725496e-05	
159	-1.25000e+00	1.738203e-05	
160	-1.30000e+00	1.750308e-05	
161	-1.35000e+00	1.761899e-05	
162	-1.40000e+00	1.773039e-05	
163	-1.45000e+00	1.783779e-05	
164	-1.50000e+00	1.794157e-05	
165	-1.55000e+00	1.804207e-05	
166	-1.60000e+00	1.813957e-05	
167	-1.65000e+00	1.823431e-05	
168	-1.70000e+00	1.832651e-05	
169	-1.75000e+00	1.841634e-05	
170	-1.80000e+00	1.850397e-05	

Index   v-sweep         i(vds)          
--------------------------------------------------------------------------------
171	-1.85000e+00	1.858956e-05	
172	-1.90000e+00	1.867324e-05	
173	-1.95000e+00	1.875512e-05	
174	-2.00000e+00	1.883531e-05	
175	-2.05000e+00	1.891393e-05	
176	-2.10000e+00	1.899105e-05	
177	-2.15000e+00	1.906676e-05	
178	-2.20000e+00	1.914114e-05	
179	-2.25000e+00	1.921426e-05	
180	-2.30000e+00	1.928618e-05	
181	-2.35000e+00	1.935697e-05	
182	-2.40000e+00	1.942668e-05	
183	-2.45000e+00	1.949536e-05	
184	-2.50000e+00	1.956306e-05	
185	-2.55000e+00	1.962982e-05	
186	-2.60000e+00	1.969570e-05	
187	-2.65000e+00	1.976072e-05	
188	-2.70000e+00	1.982493e-05	
189	-2.75000e+00	1.988836e-05	
190	-2.80000e+00	1.995105e-05	
191	-2.85000e+00	2.001303e-05	
192	-2.90000e+00	2.007433e-05	
193	-2.95000e+00	2.013499e-05	
194	-3.00000e+00	2.019504e-05	
195	-3.05000e+00	2.025451e-05	
196	-3.10000e+00	2.031343e-05	
197	-3.15000e+00	2.037185e-05	
198	-3.20000e+00	2.042979e-05	
199	-3.25000e+00	2.048732e-05	
200	-3.30000e+00	2.054446e-05	
201	-0.000000e+00	0.000000e+00	
202	-5.00000e-02	2.144954e-06	
203	-1.00000e-01	4.199523e-06	
204	-1.50000e-01	6.165194e-06	
205	-2.00000e-01	8.043419e-06	
206	-2.50000e-01	9.835622e-06	
207	-3.00000e-01	1.154319e-05	
208	-3.50000e-01	1.316750e-05	
209	-4.00000e-01	1.470988e-05	
210	-4.50000e-01	1.617164e-05	
211	-5.00000e-01	1.755407e-05	
212	-5.50000e-01	1.885843e-05	
213	-6.00000e-01	2.008595e-05	
214	-6.50000e-01	2.123787e-05	
215	-7.00000e-01	2.231540e-05	
216	-7.50000e-01	2.331972e-05	
217	-8.00000e-01	2.425203e-05	
218	-8.50000e-01	2.511355e-05	
219	-9.00000e-01	2.590551e-05	
220	-9.50000e-01	2.662922e-05	
221	-1.00000e+00	2.728610e-05	
222	-1.05000e+00	2.787783e-05	
223	-1.10000e+00	2.840650e-05	
224	-1.15000e+00	2.887491e-05	
225	-1.20000e+00	2.928711e-05	
226	-1.25000e+00	2.964880e-05	
227	-1.30000e+00	2.996752e-05	
228	-1.35000e+00	3.025180e-05	

Index   v-sweep         i(vds)          
--------------------------------------------------------------------------------
229	-1.40000e+00	3.050966e-05	
230	-1.45000e+00	3.074746e-05	
231	-1.50000e+00	3.096973e-05	
232	-1.55000e+00	3.117949e-05	
233	-1.60000e+00	3.137883e-05	
234	-1.65000e+00	3.156920e-05	
235	-1.70000e+00	3.175172e-05	
236	-1.75000e+00	3.192722e-05	
237	-1.80000e+00	3.209640e-05	
238	-1.85000e+00	3.225983e-05	
239	-1.90000e+00	3.241801e-05	
240	-1.95000e+00	3.257134e-05	
241	-2.00000e+00	3.272021e-05	
242	-2.05000e+00	3.286493e-05	
243	-2.10000e+00	3.300579e-05	
244	-2.15000e+00	3.314306e-05	
245	-2.20000e+00	3.327696e-05	
246	-2.25000e+00	3.340771e-05	
247	-2.30000e+00	3.353549e-05	
248	-2.35000e+00	3.366049e-05	
249	-2.40000e+00	3.378285e-05	
250	-2.45000e+00	3.390273e-05	
251	-2.50000e+00	3.402026e-05	
252	-2.55000e+00	3.413556e-05	
253	-2.60000e+00	3.424875e-05	
254	-2.65000e+00	3.435993e-05	
255	-2.70000e+00	3.446920e-05	
256	-2.75000e+00	3.457665e-05	
257	-2.80000e+00	3.468237e-05	
258	-2.85000e+00	3.478643e-05	
259	-2.90000e+00	3.488891e-05	
260	-2.95000e+00	3.498989e-05	
261	-3.00000e+00	3.508941e-05	
262	-3.05000e+00	3.518756e-05	
263	-3.10000e+00	3.528438e-05	
264	-3.15000e+00	3.537994e-05	
265	-3.20000e+00	3.547429e-05	
266	-3.25000e+00	3.556748e-05	
267	-3.30000e+00	3.565958e-05	
268	-0.000000e+00	0.000000e+00	
269	-5.00000e-02	2.621829e-06	
270	-1.00000e-01	5.153895e-06	
271	-1.50000e-01	7.597574e-06	
272	-2.00000e-01	9.954216e-06	
273	-2.50000e-01	1.222514e-05	
274	-3.00000e-01	1.441165e-05	
275	-3.50000e-01	1.651501e-05	
276	-4.00000e-01	1.853647e-05	
277	-4.50000e-01	2.047724e-05	
278	-5.00000e-01	2.233853e-05	
279	-5.50000e-01	2.412151e-05	
280	-6.00000e-01	2.582733e-05	
281	-6.50000e-01	2.745713e-05	
282	-7.00000e-01	2.901202e-05	
283	-7.50000e-01	3.049309e-05	
284	-8.00000e-01	3.190142e-05	
285	-8.50000e-01	3.323806e-05	
286	-9.00000e-01	3.450406e-05	

Index   v-sweep         i(vds)          
--------------------------------------------------------------------------------
287	-9.50000e-01	3.570046e-05	
288	-1.00000e+00	3.682827e-05	
289	-1.05000e+00	3.788853e-05	
290	-1.10000e+00	3.888225e-05	
291	-1.15000e+00	3.981048e-05	
292	-1.20000e+00	4.067430e-05	
293	-1.25000e+00	4.147485e-05	
294	-1.30000e+00	4.221341e-05	
295	-1.35000e+00	4.289144e-05	
296	-1.40000e+00	4.351075e-05	
297	-1.45000e+00	4.407373e-05	
298	-1.50000e+00	4.458361e-05	
299	-1.55000e+00	4.504480e-05	
300	-1.60000e+00	4.546300e-05	
301	-1.65000e+00	4.584474e-05	
302	-1.70000e+00	4.619654e-05	
303	-1.75000e+00	4.652408e-05	
304	-1.80000e+00	4.683179e-05	
305	-1.85000e+00	4.712296e-05	
306	-1.90000e+00	4.740000e-05	
307	-1.95000e+00	4.766471e-05	
308	-2.00000e+00	4.791849e-05	
309	-2.05000e+00	4.816246e-05	
310	-2.10000e+00	4.839755e-05	
311	-2.15000e+00	4.862452e-05	
312	-2.20000e+00	4.884404e-05	
313	-2.25000e+00	4.905670e-05	
314	-2.30000e+00	4.926301e-05	
315	-2.35000e+00	4.946340e-05	
316	-2.40000e+00	4.965829e-05	
317	-2.45000e+00	4.984804e-05	
318	-2.50000e+00	5.003298e-05	
319	-2.55000e+00	5.021339e-05	
320	-2.60000e+00	5.038955e-05	
321	-2.65000e+00	5.056171e-05	
322	-2.70000e+00	5.073008e-05	
323	-2.75000e+00	5.089488e-05	
324	-2.80000e+00	5.105629e-05	
325	-2.85000e+00	5.121450e-05	
326	-2.90000e+00	5.136965e-05	
327	-2.95000e+00	5.152190e-05	
328	-3.00000e+00	5.167139e-05	
329	-3.05000e+00	5.181826e-05	
330	-3.10000e+00	5.196261e-05	
331	-3.15000e+00	5.210456e-05	
332	-3.20000e+00	5.224423e-05	
333	-3.25000e+00	5.238170e-05	
334	-3.30000e+00	5.251708e-05	
335	-0.000000e+00	0.000000e+00	
336	-5.00000e-02	3.036405e-06	
337	-1.00000e-01	5.984409e-06	
338	-1.50000e-01	8.845285e-06	
339	-2.00000e-01	1.162028e-05	
340	-2.50000e-01	1.431062e-05	
341	-3.00000e-01	1.691751e-05	
342	-3.50000e-01	1.944212e-05	
343	-4.00000e-01	2.188561e-05	
344	-4.50000e-01	2.424913e-05	

Index   v-sweep         i(vds)          
--------------------------------------------------------------------------------
345	-5.00000e-01	2.653377e-05	
346	-5.50000e-01	2.874064e-05	
347	-6.00000e-01	3.087082e-05	
348	-6.50000e-01	3.292535e-05	
349	-7.00000e-01	3.490528e-05	
350	-7.50000e-01	3.681163e-05	
351	-8.00000e-01	3.864539e-05	
352	-8.50000e-01	4.040755e-05	
353	-9.00000e-01	4.209908e-05	
354	-9.50000e-01	4.372092e-05	
355	-1.00000e+00	4.527403e-05	
356	-1.05000e+00	4.675931e-05	
357	-1.10000e+00	4.817769e-05	
358	-1.15000e+00	4.953006e-05	
359	-1.20000e+00	5.081731e-05	
360	-1.25000e+00	5.204033e-05	
361	-1.30000e+00	5.320000e-05	
362	-1.35000e+00	5.429720e-05	
363	-1.40000e+00	5.533283e-05	
364	-1.45000e+00	5.630780e-05	
365	-1.50000e+00	5.722308e-05	
366	-1.55000e+00	5.807969e-05	
367	-1.60000e+00	5.887879e-05	
368	-1.65000e+00	5.962172e-05	
369	-1.70000e+00	6.031015e-05	
370	-1.75000e+00	6.094623e-05	
371	-1.80000e+00	6.153278e-05	
372	-1.85000e+00	6.207354e-05	
373	-1.90000e+00	6.257312e-05	
374	-1.95000e+00	6.303671e-05	
375	-2.00000e+00	6.346953e-05	
376	-2.05000e+00	6.387628e-05	
377	-2.10000e+00	6.426081e-05	
378	-2.15000e+00	6.462620e-05	
379	-2.20000e+00	6.497482e-05	
380	-2.25000e+00	6.530856e-05	
381	-2.30000e+00	6.562896e-05	
382	-2.35000e+00	6.593726e-05	
383	-2.40000e+00	6.623452e-05	
384	-2.45000e+00	6.652167e-05	
385	-2.50000e+00	6.679949e-05	
386	-2.55000e+00	6.706867e-05	
387	-2.60000e+00	6.732983e-05	
388	-2.65000e+00	6.758353e-05	
389	-2.70000e+00	6.783024e-05	
390	-2.75000e+00	6.807042e-05	
391	-2.80000e+00	6.830448e-05	
392	-2.85000e+00	6.853276e-05	
393	-2.90000e+00	6.875562e-05	
394	-2.95000e+00	6.897335e-05	
395	-3.00000e+00	6.918624e-05	
396	-3.05000e+00	6.939454e-05	
397	-3.10000e+00	6.959850e-05	
398	-3.15000e+00	6.979832e-05	
399	-3.20000e+00	6.999421e-05	
400	-3.25000e+00	7.018637e-05	
401	-3.30000e+00	7.037497e-05	
Note: No ".plot", ".print", or ".fourier" lines; no simulations run
