
Note: Compatibility modes selected: hs

Warning: m=xx on .subckt line will override multiplier m hierarchy!


Circuit: ***************************

Doing analysis at TEMP = -40.000000 and TNOM = -40.000000


No. of Data Rows : 402
                          ***************************
                          DC transfer characteristic  Mon Jan  9 13:57:29  2023
--------------------------------------------------------------------------------
Index   v-sweep         i(vds)          
--------------------------------------------------------------------------------
0	-0.000000e+00	0.000000e+00	
1	-5.00000e-02	1.098547e-09	
2	-1.00000e-01	1.198037e-09	
3	-1.50000e-01	1.213005e-09	
4	-2.00000e-01	1.218035e-09	
5	-2.50000e-01	1.220642e-09	
6	-3.00000e-01	1.222368e-09	
7	-3.50000e-01	1.223688e-09	
8	-4.00000e-01	1.224787e-09	
9	-4.50000e-01	1.225751e-09	
10	-5.00000e-01	1.226625e-09	
11	-5.50000e-01	1.227435e-09	
12	-6.00000e-01	1.228198e-09	
13	-6.50000e-01	1.228924e-09	
14	-7.00000e-01	1.229620e-09	
15	-7.50000e-01	1.230291e-09	
16	-8.00000e-01	1.230942e-09	
17	-8.50000e-01	1.231575e-09	
18	-9.00000e-01	1.232193e-09	
19	-9.50000e-01	1.232797e-09	
20	-1.00000e+00	1.233389e-09	
21	-1.05000e+00	1.233971e-09	
22	-1.10000e+00	1.234543e-09	
23	-1.15000e+00	1.235106e-09	
24	-1.20000e+00	1.235661e-09	
25	-1.25000e+00	1.236209e-09	
26	-1.30000e+00	1.236750e-09	
27	-1.35000e+00	1.237285e-09	
28	-1.40000e+00	1.237815e-09	
29	-1.45000e+00	1.238339e-09	
30	-1.50000e+00	1.238858e-09	
31	-1.55000e+00	1.239372e-09	
32	-1.60000e+00	1.239882e-09	
33	-1.65000e+00	1.240388e-09	
34	-1.70000e+00	1.240891e-09	
35	-1.75000e+00	1.241389e-09	
36	-1.80000e+00	1.241884e-09	
37	-1.85000e+00	1.242376e-09	
38	-1.90000e+00	1.242865e-09	
39	-1.95000e+00	1.243351e-09	
40	-2.00000e+00	1.243834e-09	
41	-2.05000e+00	1.244315e-09	
42	-2.10000e+00	1.244793e-09	
43	-2.15000e+00	1.245269e-09	
44	-2.20000e+00	1.245743e-09	
45	-2.25000e+00	1.246215e-09	
46	-2.30000e+00	1.246686e-09	
47	-2.35000e+00	1.247155e-09	
48	-2.40000e+00	1.247624e-09	
49	-2.45000e+00	1.248092e-09	
50	-2.50000e+00	1.248560e-09	
51	-2.55000e+00	1.249029e-09	
52	-2.60000e+00	1.249500e-09	
53	-2.65000e+00	1.249973e-09	
54	-2.70000e+00	1.250451e-09	

Index   v-sweep         i(vds)          
--------------------------------------------------------------------------------
55	-2.75000e+00	1.250934e-09	
56	-2.80000e+00	1.251426e-09	
57	-2.85000e+00	1.251927e-09	
58	-2.90000e+00	1.252441e-09	
59	-2.95000e+00	1.252972e-09	
60	-3.00000e+00	1.253524e-09	
61	-3.05000e+00	1.254101e-09	
62	-3.10000e+00	1.254709e-09	
63	-3.15000e+00	1.255355e-09	
64	-3.20000e+00	1.256046e-09	
65	-3.25000e+00	1.256790e-09	
66	-3.30000e+00	1.257599e-09	
67	-0.000000e+00	0.000000e+00	
68	-5.00000e-02	5.205105e-08	
69	-1.00000e-01	9.564233e-08	
70	-1.50000e-01	1.308216e-07	
71	-2.00000e-01	1.576891e-07	
72	-2.50000e-01	1.764968e-07	
73	-3.00000e-01	1.879368e-07	
74	-3.50000e-01	1.936516e-07	
75	-4.00000e-01	1.960799e-07	
76	-4.50000e-01	1.971195e-07	
77	-5.00000e-01	1.976345e-07	
78	-5.50000e-01	1.979364e-07	
79	-6.00000e-01	1.981395e-07	
80	-6.50000e-01	1.982907e-07	
81	-7.00000e-01	1.984112e-07	
82	-7.50000e-01	1.985122e-07	
83	-8.00000e-01	1.985996e-07	
84	-8.50000e-01	1.986773e-07	
85	-9.00000e-01	1.987475e-07	
86	-9.50000e-01	1.988119e-07	
87	-1.00000e+00	1.988715e-07	
88	-1.05000e+00	1.989272e-07	
89	-1.10000e+00	1.989795e-07	
90	-1.15000e+00	1.990290e-07	
91	-1.20000e+00	1.990760e-07	
92	-1.25000e+00	1.991208e-07	
93	-1.30000e+00	1.991637e-07	
94	-1.35000e+00	1.992049e-07	
95	-1.40000e+00	1.992444e-07	
96	-1.45000e+00	1.992826e-07	
97	-1.50000e+00	1.993194e-07	
98	-1.55000e+00	1.993551e-07	
99	-1.60000e+00	1.993896e-07	
100	-1.65000e+00	1.994232e-07	
101	-1.70000e+00	1.994558e-07	
102	-1.75000e+00	1.994876e-07	
103	-1.80000e+00	1.995185e-07	
104	-1.85000e+00	1.995487e-07	
105	-1.90000e+00	1.995781e-07	
106	-1.95000e+00	1.996069e-07	
107	-2.00000e+00	1.996351e-07	
108	-2.05000e+00	1.996626e-07	
109	-2.10000e+00	1.996896e-07	
110	-2.15000e+00	1.997161e-07	
111	-2.20000e+00	1.997421e-07	
112	-2.25000e+00	1.997676e-07	

Index   v-sweep         i(vds)          
--------------------------------------------------------------------------------
113	-2.30000e+00	1.997926e-07	
114	-2.35000e+00	1.998173e-07	
115	-2.40000e+00	1.998415e-07	
116	-2.45000e+00	1.998654e-07	
117	-2.50000e+00	1.998889e-07	
118	-2.55000e+00	1.999121e-07	
119	-2.60000e+00	1.999351e-07	
120	-2.65000e+00	1.999579e-07	
121	-2.70000e+00	1.999805e-07	
122	-2.75000e+00	2.000031e-07	
123	-2.80000e+00	2.000257e-07	
124	-2.85000e+00	2.000484e-07	
125	-2.90000e+00	2.000713e-07	
126	-2.95000e+00	2.000947e-07	
127	-3.00000e+00	2.001188e-07	
128	-3.05000e+00	2.001438e-07	
129	-3.10000e+00	2.001701e-07	
130	-3.15000e+00	2.001980e-07	
131	-3.20000e+00	2.002279e-07	
132	-3.25000e+00	2.002606e-07	
133	-3.30000e+00	2.002965e-07	
134	-0.000000e+00	0.000000e+00	
135	-5.00000e-02	1.088184e-07	
136	-1.00000e-01	2.091914e-07	
137	-1.50000e-01	3.011323e-07	
138	-2.00000e-01	3.846556e-07	
139	-2.50000e-01	4.597782e-07	
140	-3.00000e-01	5.265204e-07	
141	-3.50000e-01	5.849094e-07	
142	-4.00000e-01	6.349855e-07	
143	-4.50000e-01	6.768144e-07	
144	-5.00000e-01	7.105163e-07	
145	-5.50000e-01	7.363292e-07	
146	-6.00000e-01	7.547430e-07	
147	-6.50000e-01	7.667129e-07	
148	-7.00000e-01	7.737752e-07	
149	-7.50000e-01	7.777122e-07	
150	-8.00000e-01	7.799444e-07	
151	-8.50000e-01	7.813085e-07	
152	-9.00000e-01	7.822233e-07	
153	-9.50000e-01	7.828909e-07	
154	-1.00000e+00	7.834117e-07	
155	-1.05000e+00	7.838389e-07	
156	-1.10000e+00	7.842025e-07	
157	-1.15000e+00	7.845204e-07	
158	-1.20000e+00	7.848041e-07	
159	-1.25000e+00	7.850611e-07	
160	-1.30000e+00	7.852969e-07	
161	-1.35000e+00	7.855151e-07	
162	-1.40000e+00	7.857187e-07	
163	-1.45000e+00	7.859097e-07	
164	-1.50000e+00	7.860900e-07	
165	-1.55000e+00	7.862608e-07	
166	-1.60000e+00	7.864233e-07	
167	-1.65000e+00	7.865783e-07	
168	-1.70000e+00	7.867267e-07	
169	-1.75000e+00	7.868690e-07	
170	-1.80000e+00	7.870059e-07	

Index   v-sweep         i(vds)          
--------------------------------------------------------------------------------
171	-1.85000e+00	7.871377e-07	
172	-1.90000e+00	7.872650e-07	
173	-1.95000e+00	7.873880e-07	
174	-2.00000e+00	7.875071e-07	
175	-2.05000e+00	7.876225e-07	
176	-2.10000e+00	7.877346e-07	
177	-2.15000e+00	7.878435e-07	
178	-2.20000e+00	7.879494e-07	
179	-2.25000e+00	7.880526e-07	
180	-2.30000e+00	7.881532e-07	
181	-2.35000e+00	7.882513e-07	
182	-2.40000e+00	7.883471e-07	
183	-2.45000e+00	7.884407e-07	
184	-2.50000e+00	7.885323e-07	
185	-2.55000e+00	7.886219e-07	
186	-2.60000e+00	7.887096e-07	
187	-2.65000e+00	7.887956e-07	
188	-2.70000e+00	7.888800e-07	
189	-2.75000e+00	7.889628e-07	
190	-2.80000e+00	7.890443e-07	
191	-2.85000e+00	7.891244e-07	
192	-2.90000e+00	7.892034e-07	
193	-2.95000e+00	7.892815e-07	
194	-3.00000e+00	7.893587e-07	
195	-3.05000e+00	7.894355e-07	
196	-3.10000e+00	7.895120e-07	
197	-3.15000e+00	7.895887e-07	
198	-3.20000e+00	7.896661e-07	
199	-3.25000e+00	7.897447e-07	
200	-3.30000e+00	7.898252e-07	
201	-0.000000e+00	0.000000e+00	
202	-5.00000e-02	1.618092e-07	
203	-1.00000e-01	3.155057e-07	
204	-1.50000e-01	4.610999e-07	
205	-2.00000e-01	5.986026e-07	
206	-2.50000e-01	7.280247e-07	
207	-3.00000e-01	8.493773e-07	
208	-3.50000e-01	9.626721e-07	
209	-4.00000e-01	1.067921e-06	
210	-4.50000e-01	1.165139e-06	
211	-5.00000e-01	1.254339e-06	
212	-5.50000e-01	1.335539e-06	
213	-6.00000e-01	1.408759e-06	
214	-6.50000e-01	1.474028e-06	
215	-7.00000e-01	1.531383e-06	
216	-7.50000e-01	1.580882e-06	
217	-8.00000e-01	1.622618e-06	
218	-8.50000e-01	1.656750e-06	
219	-9.00000e-01	1.683565e-06	
220	-9.50000e-01	1.703571e-06	
221	-1.00000e+00	1.717617e-06	
222	-1.05000e+00	1.726923e-06	
223	-1.10000e+00	1.732883e-06	
224	-1.15000e+00	1.736724e-06	
225	-1.20000e+00	1.739306e-06	
226	-1.25000e+00	1.741148e-06	
227	-1.30000e+00	1.742542e-06	
228	-1.35000e+00	1.743654e-06	

Index   v-sweep         i(vds)          
--------------------------------------------------------------------------------
229	-1.40000e+00	1.744577e-06	
230	-1.45000e+00	1.745367e-06	
231	-1.50000e+00	1.746060e-06	
232	-1.55000e+00	1.746680e-06	
233	-1.60000e+00	1.747242e-06	
234	-1.65000e+00	1.747757e-06	
235	-1.70000e+00	1.748233e-06	
236	-1.75000e+00	1.748677e-06	
237	-1.80000e+00	1.749093e-06	
238	-1.85000e+00	1.749485e-06	
239	-1.90000e+00	1.749856e-06	
240	-1.95000e+00	1.750209e-06	
241	-2.00000e+00	1.750545e-06	
242	-2.05000e+00	1.750866e-06	
243	-2.10000e+00	1.751173e-06	
244	-2.15000e+00	1.751468e-06	
245	-2.20000e+00	1.751753e-06	
246	-2.25000e+00	1.752026e-06	
247	-2.30000e+00	1.752291e-06	
248	-2.35000e+00	1.752547e-06	
249	-2.40000e+00	1.752794e-06	
250	-2.45000e+00	1.753034e-06	
251	-2.50000e+00	1.753267e-06	
252	-2.55000e+00	1.753493e-06	
253	-2.60000e+00	1.753713e-06	
254	-2.65000e+00	1.753928e-06	
255	-2.70000e+00	1.754137e-06	
256	-2.75000e+00	1.754340e-06	
257	-2.80000e+00	1.754539e-06	
258	-2.85000e+00	1.754733e-06	
259	-2.90000e+00	1.754923e-06	
260	-2.95000e+00	1.755109e-06	
261	-3.00000e+00	1.755290e-06	
262	-3.05000e+00	1.755469e-06	
263	-3.10000e+00	1.755643e-06	
264	-3.15000e+00	1.755815e-06	
265	-3.20000e+00	1.755984e-06	
266	-3.25000e+00	1.756150e-06	
267	-3.30000e+00	1.756314e-06	
268	-0.000000e+00	0.000000e+00	
269	-5.00000e-02	2.101977e-07	
270	-1.00000e-01	4.127103e-07	
271	-1.50000e-01	6.075469e-07	
272	-2.00000e-01	7.947171e-07	
273	-2.50000e-01	9.742302e-07	
274	-3.00000e-01	1.146096e-06	
275	-3.50000e-01	1.310323e-06	
276	-4.00000e-01	1.466922e-06	
277	-4.50000e-01	1.615903e-06	
278	-5.00000e-01	1.757274e-06	
279	-5.50000e-01	1.891047e-06	
280	-6.00000e-01	2.017232e-06	
281	-6.50000e-01	2.135840e-06	
282	-7.00000e-01	2.246881e-06	
283	-7.50000e-01	2.350370e-06	
284	-8.00000e-01	2.446319e-06	
285	-8.50000e-01	2.534743e-06	
286	-9.00000e-01	2.615662e-06	

Index   v-sweep         i(vds)          
--------------------------------------------------------------------------------
287	-9.50000e-01	2.689097e-06	
288	-1.00000e+00	2.755080e-06	
289	-1.05000e+00	2.813650e-06	
290	-1.10000e+00	2.864870e-06	
291	-1.15000e+00	2.908831e-06	
292	-1.20000e+00	2.945685e-06	
293	-1.25000e+00	2.975677e-06	
294	-1.30000e+00	2.999215e-06	
295	-1.35000e+00	3.016933e-06	
296	-1.40000e+00	3.029735e-06	
297	-1.45000e+00	3.038715e-06	
298	-1.50000e+00	3.044971e-06	
299	-1.55000e+00	3.049410e-06	
300	-1.60000e+00	3.052678e-06	
301	-1.65000e+00	3.055190e-06	
302	-1.70000e+00	3.057202e-06	
303	-1.75000e+00	3.058873e-06	
304	-1.80000e+00	3.060301e-06	
305	-1.85000e+00	3.061551e-06	
306	-1.90000e+00	3.062664e-06	
307	-1.95000e+00	3.063670e-06	
308	-2.00000e+00	3.064589e-06	
309	-2.05000e+00	3.065437e-06	
310	-2.10000e+00	3.066225e-06	
311	-2.15000e+00	3.066963e-06	
312	-2.20000e+00	3.067656e-06	
313	-2.25000e+00	3.068310e-06	
314	-2.30000e+00	3.068931e-06	
315	-2.35000e+00	3.069522e-06	
316	-2.40000e+00	3.070085e-06	
317	-2.45000e+00	3.070624e-06	
318	-2.50000e+00	3.071141e-06	
319	-2.55000e+00	3.071637e-06	
320	-2.60000e+00	3.072115e-06	
321	-2.65000e+00	3.072576e-06	
322	-2.70000e+00	3.073021e-06	
323	-2.75000e+00	3.073451e-06	
324	-2.80000e+00	3.073868e-06	
325	-2.85000e+00	3.074272e-06	
326	-2.90000e+00	3.074664e-06	
327	-2.95000e+00	3.075045e-06	
328	-3.00000e+00	3.075416e-06	
329	-3.05000e+00	3.075777e-06	
330	-3.10000e+00	3.076128e-06	
331	-3.15000e+00	3.076471e-06	
332	-3.20000e+00	3.076805e-06	
333	-3.25000e+00	3.077132e-06	
334	-3.30000e+00	3.077451e-06	
335	-0.000000e+00	0.000000e+00	
336	-5.00000e-02	2.536234e-07	
337	-1.00000e-01	5.000283e-07	
338	-1.50000e-01	7.392233e-07	
339	-2.00000e-01	9.712168e-07	
340	-2.50000e-01	1.196017e-06	
341	-3.00000e-01	1.413633e-06	
342	-3.50000e-01	1.624072e-06	
343	-4.00000e-01	1.827344e-06	
344	-4.50000e-01	2.023457e-06	

Index   v-sweep         i(vds)          
--------------------------------------------------------------------------------
345	-5.00000e-01	2.212419e-06	
346	-5.50000e-01	2.394238e-06	
347	-6.00000e-01	2.568925e-06	
348	-6.50000e-01	2.736486e-06	
349	-7.00000e-01	2.896931e-06	
350	-7.50000e-01	3.050268e-06	
351	-8.00000e-01	3.196508e-06	
352	-8.50000e-01	3.335658e-06	
353	-9.00000e-01	3.467728e-06	
354	-9.50000e-01	3.592728e-06	
355	-1.00000e+00	3.710669e-06	
356	-1.05000e+00	3.821561e-06	
357	-1.10000e+00	3.925415e-06	
358	-1.15000e+00	4.022246e-06	
359	-1.20000e+00	4.112067e-06	
360	-1.25000e+00	4.194896e-06	
361	-1.30000e+00	4.270754e-06	
362	-1.35000e+00	4.339669e-06	
363	-1.40000e+00	4.401677e-06	
364	-1.45000e+00	4.456830e-06	
365	-1.50000e+00	4.505201e-06	
366	-1.55000e+00	4.546903e-06	
367	-1.60000e+00	4.582112e-06	
368	-1.65000e+00	4.611097e-06	
369	-1.70000e+00	4.634274e-06	
370	-1.75000e+00	4.652244e-06	
371	-1.80000e+00	4.665795e-06	
372	-1.85000e+00	4.675838e-06	
373	-1.90000e+00	4.683270e-06	
374	-1.95000e+00	4.688857e-06	
375	-2.00000e+00	4.693172e-06	
376	-2.05000e+00	4.696613e-06	
377	-2.10000e+00	4.699446e-06	
378	-2.15000e+00	4.701843e-06	
379	-2.20000e+00	4.703920e-06	
380	-2.25000e+00	4.705754e-06	
381	-2.30000e+00	4.707399e-06	
382	-2.35000e+00	4.708892e-06	
383	-2.40000e+00	4.710261e-06	
384	-2.45000e+00	4.711528e-06	
385	-2.50000e+00	4.712708e-06	
386	-2.55000e+00	4.713813e-06	
387	-2.60000e+00	4.714853e-06	
388	-2.65000e+00	4.715836e-06	
389	-2.70000e+00	4.716768e-06	
390	-2.75000e+00	4.717656e-06	
391	-2.80000e+00	4.718503e-06	
392	-2.85000e+00	4.719314e-06	
393	-2.90000e+00	4.720091e-06	
394	-2.95000e+00	4.720838e-06	
395	-3.00000e+00	4.721557e-06	
396	-3.05000e+00	4.722250e-06	
397	-3.10000e+00	4.722919e-06	
398	-3.15000e+00	4.723567e-06	
399	-3.20000e+00	4.724193e-06	
400	-3.25000e+00	4.724801e-06	
401	-3.30000e+00	4.725390e-06	
Note: No ".plot", ".print", or ".fourier" lines; no simulations run
