
Note: Compatibility modes selected: hs

Warning: m=xx on .subckt line will override multiplier m hierarchy!


Circuit: ***************************

Doing analysis at TEMP = -40.000000 and TNOM = -40.000000


No. of Data Rows : 402
                          ***************************
                          DC transfer characteristic  Mon Jan  9 13:57:29  2023
--------------------------------------------------------------------------------
Index   v-sweep         i(vds)          
--------------------------------------------------------------------------------
0	-0.000000e+00	0.000000e+00	
1	-5.00000e-02	1.970054e-08	
2	-1.00000e-01	2.211434e-08	
3	-1.50000e-01	2.261390e-08	
4	-2.00000e-01	2.288325e-08	
5	-2.50000e-01	2.309206e-08	
6	-3.00000e-01	2.327480e-08	
7	-3.50000e-01	2.344249e-08	
8	-4.00000e-01	2.359991e-08	
9	-4.50000e-01	2.374958e-08	
10	-5.00000e-01	2.389305e-08	
11	-5.50000e-01	2.403136e-08	
12	-6.00000e-01	2.416530e-08	
13	-6.50000e-01	2.429544e-08	
14	-7.00000e-01	2.442225e-08	
15	-7.50000e-01	2.454612e-08	
16	-8.00000e-01	2.466735e-08	
17	-8.50000e-01	2.478622e-08	
18	-9.00000e-01	2.490295e-08	
19	-9.50000e-01	2.501773e-08	
20	-1.00000e+00	2.513075e-08	
21	-1.05000e+00	2.524215e-08	
22	-1.10000e+00	2.535206e-08	
23	-1.15000e+00	2.546060e-08	
24	-1.20000e+00	2.556788e-08	
25	-1.25000e+00	2.567399e-08	
26	-1.30000e+00	2.577901e-08	
27	-1.35000e+00	2.588303e-08	
28	-1.40000e+00	2.598611e-08	
29	-1.45000e+00	2.608832e-08	
30	-1.50000e+00	2.618971e-08	
31	-1.55000e+00	2.629034e-08	
32	-1.60000e+00	2.639026e-08	
33	-1.65000e+00	2.648951e-08	
34	-1.70000e+00	2.658813e-08	
35	-1.75000e+00	2.668616e-08	
36	-1.80000e+00	2.678364e-08	
37	-1.85000e+00	2.688061e-08	
38	-1.90000e+00	2.697709e-08	
39	-1.95000e+00	2.707311e-08	
40	-2.00000e+00	2.716871e-08	
41	-2.05000e+00	2.726391e-08	
42	-2.10000e+00	2.735874e-08	
43	-2.15000e+00	2.745324e-08	
44	-2.20000e+00	2.754743e-08	
45	-2.25000e+00	2.764134e-08	
46	-2.30000e+00	2.773502e-08	
47	-2.35000e+00	2.782850e-08	
48	-2.40000e+00	2.792181e-08	
49	-2.45000e+00	2.801502e-08	
50	-2.50000e+00	2.810817e-08	
51	-2.55000e+00	2.820132e-08	
52	-2.60000e+00	2.829455e-08	
53	-2.65000e+00	2.838792e-08	
54	-2.70000e+00	2.848153e-08	

Index   v-sweep         i(vds)          
--------------------------------------------------------------------------------
55	-2.75000e+00	2.857547e-08	
56	-2.80000e+00	2.866987e-08	
57	-2.85000e+00	2.876483e-08	
58	-2.90000e+00	2.886051e-08	
59	-2.95000e+00	2.895707e-08	
60	-3.00000e+00	2.905467e-08	
61	-3.05000e+00	2.915351e-08	
62	-3.10000e+00	2.925380e-08	
63	-3.15000e+00	2.935578e-08	
64	-3.20000e+00	2.945971e-08	
65	-3.25000e+00	2.956587e-08	
66	-3.30000e+00	2.967455e-08	
67	-0.000000e+00	0.000000e+00	
68	-5.00000e-02	1.007628e-06	
69	-1.00000e-01	1.878546e-06	
70	-1.50000e-01	2.614793e-06	
71	-2.00000e-01	3.218664e-06	
72	-2.50000e-01	3.693137e-06	
73	-3.00000e-01	4.043050e-06	
74	-3.50000e-01	4.278249e-06	
75	-4.00000e-01	4.419471e-06	
76	-4.50000e-01	4.499354e-06	
77	-5.00000e-01	4.548301e-06	
78	-5.50000e-01	4.583302e-06	
79	-6.00000e-01	4.611509e-06	
80	-6.50000e-01	4.635839e-06	
81	-7.00000e-01	4.657613e-06	
82	-7.50000e-01	4.677517e-06	
83	-8.00000e-01	4.695956e-06	
84	-8.50000e-01	4.713196e-06	
85	-9.00000e-01	4.729422e-06	
86	-9.50000e-01	4.744776e-06	
87	-1.00000e+00	4.759365e-06	
88	-1.05000e+00	4.773278e-06	
89	-1.10000e+00	4.786585e-06	
90	-1.15000e+00	4.799349e-06	
91	-1.20000e+00	4.811619e-06	
92	-1.25000e+00	4.823439e-06	
93	-1.30000e+00	4.834847e-06	
94	-1.35000e+00	4.845878e-06	
95	-1.40000e+00	4.856559e-06	
96	-1.45000e+00	4.866917e-06	
97	-1.50000e+00	4.876974e-06	
98	-1.55000e+00	4.886753e-06	
99	-1.60000e+00	4.896270e-06	
100	-1.65000e+00	4.905543e-06	
101	-1.70000e+00	4.914588e-06	
102	-1.75000e+00	4.923417e-06	
103	-1.80000e+00	4.932043e-06	
104	-1.85000e+00	4.940479e-06	
105	-1.90000e+00	4.948734e-06	
106	-1.95000e+00	4.956818e-06	
107	-2.00000e+00	4.964740e-06	
108	-2.05000e+00	4.972509e-06	
109	-2.10000e+00	4.980132e-06	
110	-2.15000e+00	4.987616e-06	
111	-2.20000e+00	4.994968e-06	
112	-2.25000e+00	5.002195e-06	

Index   v-sweep         i(vds)          
--------------------------------------------------------------------------------
113	-2.30000e+00	5.009302e-06	
114	-2.35000e+00	5.016296e-06	
115	-2.40000e+00	5.023183e-06	
116	-2.45000e+00	5.029967e-06	
117	-2.50000e+00	5.036655e-06	
118	-2.55000e+00	5.043253e-06	
119	-2.60000e+00	5.049766e-06	
120	-2.65000e+00	5.056202e-06	
121	-2.70000e+00	5.062568e-06	
122	-2.75000e+00	5.068871e-06	
123	-2.80000e+00	5.075120e-06	
124	-2.85000e+00	5.081324e-06	
125	-2.90000e+00	5.087495e-06	
126	-2.95000e+00	5.093644e-06	
127	-3.00000e+00	5.099786e-06	
128	-3.05000e+00	5.105935e-06	
129	-3.10000e+00	5.112109e-06	
130	-3.15000e+00	5.118326e-06	
131	-3.20000e+00	5.124610e-06	
132	-3.25000e+00	5.130983e-06	
133	-3.30000e+00	5.137472e-06	
134	-0.000000e+00	0.000000e+00	
135	-5.00000e-02	1.981554e-06	
136	-1.00000e-01	3.826846e-06	
137	-1.50000e-01	5.537487e-06	
138	-2.00000e-01	7.115074e-06	
139	-2.50000e-01	8.561191e-06	
140	-3.00000e-01	9.877424e-06	
141	-3.50000e-01	1.106537e-05	
142	-4.00000e-01	1.212666e-05	
143	-4.50000e-01	1.306303e-05	
144	-5.00000e-01	1.387637e-05	
145	-5.50000e-01	1.456896e-05	
146	-6.00000e-01	1.514384e-05	
147	-6.50000e-01	1.560567e-05	
148	-7.00000e-01	1.596234e-05	
149	-7.50000e-01	1.622730e-05	
150	-8.00000e-01	1.642043e-05	
151	-8.50000e-01	1.656425e-05	
152	-9.00000e-01	1.667733e-05	
153	-9.50000e-01	1.677153e-05	
154	-1.00000e+00	1.685350e-05	
155	-1.05000e+00	1.692692e-05	
156	-1.10000e+00	1.699390e-05	
157	-1.15000e+00	1.705579e-05	
158	-1.20000e+00	1.711348e-05	
159	-1.25000e+00	1.716762e-05	
160	-1.30000e+00	1.721868e-05	
161	-1.35000e+00	1.726706e-05	
162	-1.40000e+00	1.731306e-05	
163	-1.45000e+00	1.735693e-05	
164	-1.50000e+00	1.739888e-05	
165	-1.55000e+00	1.743909e-05	
166	-1.60000e+00	1.747772e-05	
167	-1.65000e+00	1.751490e-05	
168	-1.70000e+00	1.755074e-05	
169	-1.75000e+00	1.758535e-05	
170	-1.80000e+00	1.761882e-05	

Index   v-sweep         i(vds)          
--------------------------------------------------------------------------------
171	-1.85000e+00	1.765123e-05	
172	-1.90000e+00	1.768266e-05	
173	-1.95000e+00	1.771316e-05	
174	-2.00000e+00	1.774280e-05	
175	-2.05000e+00	1.777164e-05	
176	-2.10000e+00	1.779971e-05	
177	-2.15000e+00	1.782707e-05	
178	-2.20000e+00	1.785375e-05	
179	-2.25000e+00	1.787979e-05	
180	-2.30000e+00	1.790523e-05	
181	-2.35000e+00	1.793010e-05	
182	-2.40000e+00	1.795442e-05	
183	-2.45000e+00	1.797823e-05	
184	-2.50000e+00	1.800155e-05	
185	-2.55000e+00	1.802440e-05	
186	-2.60000e+00	1.804681e-05	
187	-2.65000e+00	1.806879e-05	
188	-2.70000e+00	1.809037e-05	
189	-2.75000e+00	1.811156e-05	
190	-2.80000e+00	1.813240e-05	
191	-2.85000e+00	1.815289e-05	
192	-2.90000e+00	1.817305e-05	
193	-2.95000e+00	1.819292e-05	
194	-3.00000e+00	1.821251e-05	
195	-3.05000e+00	1.823184e-05	
196	-3.10000e+00	1.825094e-05	
197	-3.15000e+00	1.826984e-05	
198	-3.20000e+00	1.828857e-05	
199	-3.25000e+00	1.830717e-05	
200	-3.30000e+00	1.832568e-05	
201	-0.000000e+00	0.000000e+00	
202	-5.00000e-02	2.786313e-06	
203	-1.00000e-01	5.442071e-06	
204	-1.50000e-01	7.968674e-06	
205	-2.00000e-01	1.036750e-05	
206	-2.50000e-01	1.263991e-05	
207	-3.00000e-01	1.478726e-05	
208	-3.50000e-01	1.681087e-05	
209	-4.00000e-01	1.871205e-05	
210	-4.50000e-01	2.049212e-05	
211	-5.00000e-01	2.215237e-05	
212	-5.50000e-01	2.369409e-05	
213	-6.00000e-01	2.511858e-05	
214	-6.50000e-01	2.642714e-05	
215	-7.00000e-01	2.762111e-05	
216	-7.50000e-01	2.870190e-05	
217	-8.00000e-01	2.967102e-05	
218	-8.50000e-01	3.053020e-05	
219	-9.00000e-01	3.128154e-05	
220	-9.50000e-01	3.192789e-05	
221	-1.00000e+00	3.247338e-05	
222	-1.05000e+00	3.292445e-05	
223	-1.10000e+00	3.329096e-05	
224	-1.15000e+00	3.358672e-05	
225	-1.20000e+00	3.382781e-05	
226	-1.25000e+00	3.402939e-05	
227	-1.30000e+00	3.420313e-05	
228	-1.35000e+00	3.435691e-05	

Index   v-sweep         i(vds)          
--------------------------------------------------------------------------------
229	-1.40000e+00	3.449580e-05	
230	-1.45000e+00	3.462308e-05	
231	-1.50000e+00	3.474095e-05	
232	-1.55000e+00	3.485096e-05	
233	-1.60000e+00	3.495427e-05	
234	-1.65000e+00	3.505175e-05	
235	-1.70000e+00	3.514411e-05	
236	-1.75000e+00	3.523192e-05	
237	-1.80000e+00	3.531564e-05	
238	-1.85000e+00	3.539567e-05	
239	-1.90000e+00	3.547236e-05	
240	-1.95000e+00	3.554598e-05	
241	-2.00000e+00	3.561681e-05	
242	-2.05000e+00	3.568505e-05	
243	-2.10000e+00	3.575091e-05	
244	-2.15000e+00	3.581456e-05	
245	-2.20000e+00	3.587616e-05	
246	-2.25000e+00	3.593584e-05	
247	-2.30000e+00	3.599373e-05	
248	-2.35000e+00	3.604995e-05	
249	-2.40000e+00	3.610459e-05	
250	-2.45000e+00	3.615775e-05	
251	-2.50000e+00	3.620951e-05	
252	-2.55000e+00	3.625996e-05	
253	-2.60000e+00	3.630917e-05	
254	-2.65000e+00	3.635720e-05	
255	-2.70000e+00	3.640411e-05	
256	-2.75000e+00	3.644995e-05	
257	-2.80000e+00	3.649479e-05	
258	-2.85000e+00	3.653867e-05	
259	-2.90000e+00	3.658164e-05	
260	-2.95000e+00	3.662374e-05	
261	-3.00000e+00	3.666500e-05	
262	-3.05000e+00	3.670548e-05	
263	-3.10000e+00	3.674521e-05	
264	-3.15000e+00	3.678422e-05	
265	-3.20000e+00	3.682256e-05	
266	-3.25000e+00	3.686027e-05	
267	-3.30000e+00	3.689738e-05	
268	-0.000000e+00	0.000000e+00	
269	-5.00000e-02	3.448195e-06	
270	-1.00000e-01	6.772911e-06	
271	-1.50000e-01	9.975362e-06	
272	-2.00000e-01	1.305675e-05	
273	-2.50000e-01	1.601825e-05	
274	-3.00000e-01	1.886104e-05	
275	-3.50000e-01	2.158628e-05	
276	-4.00000e-01	2.419510e-05	
277	-4.50000e-01	2.668862e-05	
278	-5.00000e-01	2.906797e-05	
279	-5.50000e-01	3.133425e-05	
280	-6.00000e-01	3.348855e-05	
281	-6.50000e-01	3.553194e-05	
282	-7.00000e-01	3.746549e-05	
283	-7.50000e-01	3.929028e-05	
284	-8.00000e-01	4.100735e-05	
285	-8.50000e-01	4.261777e-05	
286	-9.00000e-01	4.412259e-05	

Index   v-sweep         i(vds)          
--------------------------------------------------------------------------------
287	-9.50000e-01	4.552289e-05	
288	-1.00000e+00	4.681975e-05	
289	-1.05000e+00	4.801431e-05	
290	-1.10000e+00	4.910777e-05	
291	-1.15000e+00	5.010148e-05	
292	-1.20000e+00	5.099697e-05	
293	-1.25000e+00	5.179616e-05	
294	-1.30000e+00	5.250158e-05	
295	-1.35000e+00	5.311682e-05	
296	-1.40000e+00	5.364715e-05	
297	-1.45000e+00	5.410015e-05	
298	-1.50000e+00	5.448598e-05	
299	-1.55000e+00	5.481653e-05	
300	-1.60000e+00	5.510365e-05	
301	-1.65000e+00	5.535746e-05	
302	-1.70000e+00	5.558563e-05	
303	-1.75000e+00	5.579366e-05	
304	-1.80000e+00	5.598543e-05	
305	-1.85000e+00	5.616372e-05	
306	-1.90000e+00	5.633058e-05	
307	-1.95000e+00	5.648757e-05	
308	-2.00000e+00	5.663594e-05	
309	-2.05000e+00	5.677667e-05	
310	-2.10000e+00	5.691058e-05	
311	-2.15000e+00	5.703836e-05	
312	-2.20000e+00	5.716058e-05	
313	-2.25000e+00	5.727773e-05	
314	-2.30000e+00	5.739026e-05	
315	-2.35000e+00	5.749853e-05	
316	-2.40000e+00	5.760287e-05	
317	-2.45000e+00	5.770359e-05	
318	-2.50000e+00	5.780093e-05	
319	-2.55000e+00	5.789513e-05	
320	-2.60000e+00	5.798641e-05	
321	-2.65000e+00	5.807494e-05	
322	-2.70000e+00	5.816091e-05	
323	-2.75000e+00	5.824446e-05	
324	-2.80000e+00	5.832573e-05	
325	-2.85000e+00	5.840486e-05	
326	-2.90000e+00	5.848197e-05	
327	-2.95000e+00	5.855716e-05	
328	-3.00000e+00	5.863054e-05	
329	-3.05000e+00	5.870219e-05	
330	-3.10000e+00	5.877221e-05	
331	-3.15000e+00	5.884067e-05	
332	-3.20000e+00	5.890764e-05	
333	-3.25000e+00	5.897321e-05	
334	-3.30000e+00	5.903742e-05	
335	-0.000000e+00	0.000000e+00	
336	-5.00000e-02	3.991659e-06	
337	-1.00000e-01	7.867273e-06	
338	-1.50000e-01	1.162790e-05	
339	-2.00000e-01	1.527458e-05	
340	-2.50000e-01	1.880833e-05	
341	-3.00000e-01	2.223019e-05	
342	-3.50000e-01	2.554115e-05	
343	-4.00000e-01	2.874220e-05	
344	-4.50000e-01	3.183434e-05	

Index   v-sweep         i(vds)          
--------------------------------------------------------------------------------
345	-5.00000e-01	3.481852e-05	
346	-5.50000e-01	3.769571e-05	
347	-6.00000e-01	4.046686e-05	
348	-6.50000e-01	4.313291e-05	
349	-7.00000e-01	4.569477e-05	
350	-7.50000e-01	4.815339e-05	
351	-8.00000e-01	5.050965e-05	
352	-8.50000e-01	5.276446e-05	
353	-9.00000e-01	5.491872e-05	
354	-9.50000e-01	5.697331e-05	
355	-1.00000e+00	5.892911e-05	
356	-1.05000e+00	6.078698e-05	
357	-1.10000e+00	6.254780e-05	
358	-1.15000e+00	6.421244e-05	
359	-1.20000e+00	6.578177e-05	
360	-1.25000e+00	6.725667e-05	
361	-1.30000e+00	6.863802e-05	
362	-1.35000e+00	6.992676e-05	
363	-1.40000e+00	7.112385e-05	
364	-1.45000e+00	7.223033e-05	
365	-1.50000e+00	7.324737e-05	
366	-1.55000e+00	7.417632e-05	
367	-1.60000e+00	7.501887e-05	
368	-1.65000e+00	7.577722e-05	
369	-1.70000e+00	7.645441e-05	
370	-1.75000e+00	7.705469e-05	
371	-1.80000e+00	7.758397e-05	
372	-1.85000e+00	7.804989e-05	
373	-1.90000e+00	7.846146e-05	
374	-1.95000e+00	7.882797e-05	
375	-2.00000e+00	7.915788e-05	
376	-2.05000e+00	7.945817e-05	
377	-2.10000e+00	7.973426e-05	
378	-2.15000e+00	7.999022e-05	
379	-2.20000e+00	8.022918e-05	
380	-2.25000e+00	8.045350e-05	
381	-2.30000e+00	8.066506e-05	
382	-2.35000e+00	8.086537e-05	
383	-2.40000e+00	8.105567e-05	
384	-2.45000e+00	8.123698e-05	
385	-2.50000e+00	8.141016e-05	
386	-2.55000e+00	8.157597e-05	
387	-2.60000e+00	8.173503e-05	
388	-2.65000e+00	8.188791e-05	
389	-2.70000e+00	8.203510e-05	
390	-2.75000e+00	8.217702e-05	
391	-2.80000e+00	8.231407e-05	
392	-2.85000e+00	8.244657e-05	
393	-2.90000e+00	8.257485e-05	
394	-2.95000e+00	8.269917e-05	
395	-3.00000e+00	8.281979e-05	
396	-3.05000e+00	8.293693e-05	
397	-3.10000e+00	8.305080e-05	
398	-3.15000e+00	8.316159e-05	
399	-3.20000e+00	8.326947e-05	
400	-3.25000e+00	8.337459e-05	
401	-3.30000e+00	8.347711e-05	
Note: No ".plot", ".print", or ".fourier" lines; no simulations run
