
Note: Compatibility modes selected: hs

Warning: m=xx on .subckt line will override multiplier m hierarchy!


Circuit: ***************************

Doing analysis at TEMP = 125.000000 and TNOM = 125.000000


No. of Data Rows : 402
                          ***************************
                          DC transfer characteristic  Mon Jan  9 13:57:29  2023
--------------------------------------------------------------------------------
Index   v-sweep         i(vds)          
--------------------------------------------------------------------------------
0	-0.000000e+00	0.000000e+00	
1	-5.00000e-02	3.906666e-07	
2	-1.00000e-01	5.743715e-07	
3	-1.50000e-01	6.379948e-07	
4	-2.00000e-01	6.536253e-07	
5	-2.50000e-01	6.579352e-07	
6	-3.00000e-01	6.595942e-07	
7	-3.50000e-01	6.604430e-07	
8	-4.00000e-01	6.609756e-07	
9	-4.50000e-01	6.613590e-07	
10	-5.00000e-01	6.616613e-07	
11	-5.50000e-01	6.619143e-07	
12	-6.00000e-01	6.621350e-07	
13	-6.50000e-01	6.623329e-07	
14	-7.00000e-01	6.625140e-07	
15	-7.50000e-01	6.626822e-07	
16	-8.00000e-01	6.628400e-07	
17	-8.50000e-01	6.629894e-07	
18	-9.00000e-01	6.631317e-07	
19	-9.50000e-01	6.632680e-07	
20	-1.00000e+00	6.633991e-07	
21	-1.05000e+00	6.635257e-07	
22	-1.10000e+00	6.636482e-07	
23	-1.15000e+00	6.637670e-07	
24	-1.20000e+00	6.638827e-07	
25	-1.25000e+00	6.639954e-07	
26	-1.30000e+00	6.641054e-07	
27	-1.35000e+00	6.642129e-07	
28	-1.40000e+00	6.643181e-07	
29	-1.45000e+00	6.644213e-07	
30	-1.50000e+00	6.645224e-07	
31	-1.55000e+00	6.646218e-07	
32	-1.60000e+00	6.647195e-07	
33	-1.65000e+00	6.648155e-07	
34	-1.70000e+00	6.649101e-07	
35	-1.75000e+00	6.650033e-07	
36	-1.80000e+00	6.650951e-07	
37	-1.85000e+00	6.651857e-07	
38	-1.90000e+00	6.652750e-07	
39	-1.95000e+00	6.653633e-07	
40	-2.00000e+00	6.654505e-07	
41	-2.05000e+00	6.655367e-07	
42	-2.10000e+00	6.656220e-07	
43	-2.15000e+00	6.657064e-07	
44	-2.20000e+00	6.657900e-07	
45	-2.25000e+00	6.658729e-07	
46	-2.30000e+00	6.659552e-07	
47	-2.35000e+00	6.660369e-07	
48	-2.40000e+00	6.661183e-07	
49	-2.45000e+00	6.661996e-07	
50	-2.50000e+00	6.662808e-07	
51	-2.55000e+00	6.663625e-07	
52	-2.60000e+00	6.664449e-07	
53	-2.65000e+00	6.665284e-07	
54	-2.70000e+00	6.666138e-07	

Index   v-sweep         i(vds)          
--------------------------------------------------------------------------------
55	-2.75000e+00	6.667017e-07	
56	-2.80000e+00	6.667929e-07	
57	-2.85000e+00	6.668888e-07	
58	-2.90000e+00	6.669904e-07	
59	-2.95000e+00	6.670995e-07	
60	-3.00000e+00	6.672180e-07	
61	-3.05000e+00	6.673482e-07	
62	-3.10000e+00	6.674927e-07	
63	-3.15000e+00	6.676546e-07	
64	-3.20000e+00	6.678377e-07	
65	-3.25000e+00	6.680461e-07	
66	-3.30000e+00	6.682848e-07	
67	-0.000000e+00	0.000000e+00	
68	-5.00000e-02	1.642346e-06	
69	-1.00000e-01	3.033158e-06	
70	-1.50000e-01	4.227763e-06	
71	-2.00000e-01	5.239530e-06	
72	-2.50000e-01	6.072441e-06	
73	-3.00000e-01	6.729206e-06	
74	-3.50000e-01	7.214542e-06	
75	-4.00000e-01	7.539454e-06	
76	-4.50000e-01	7.728608e-06	
77	-5.00000e-01	7.823649e-06	
78	-5.50000e-01	7.868258e-06	
79	-6.00000e-01	7.890325e-06	
80	-6.50000e-01	7.902635e-06	
81	-7.00000e-01	7.910429e-06	
82	-7.50000e-01	7.915916e-06	
83	-8.00000e-01	7.920107e-06	
84	-8.50000e-01	7.923506e-06	
85	-9.00000e-01	7.926383e-06	
86	-9.50000e-01	7.928898e-06	
87	-1.00000e+00	7.931147e-06	
88	-1.05000e+00	7.933193e-06	
89	-1.10000e+00	7.935078e-06	
90	-1.15000e+00	7.936834e-06	
91	-1.20000e+00	7.938481e-06	
92	-1.25000e+00	7.940036e-06	
93	-1.30000e+00	7.941513e-06	
94	-1.35000e+00	7.942920e-06	
95	-1.40000e+00	7.944267e-06	
96	-1.45000e+00	7.945560e-06	
97	-1.50000e+00	7.946805e-06	
98	-1.55000e+00	7.948005e-06	
99	-1.60000e+00	7.949165e-06	
100	-1.65000e+00	7.950289e-06	
101	-1.70000e+00	7.951379e-06	
102	-1.75000e+00	7.952437e-06	
103	-1.80000e+00	7.953467e-06	
104	-1.85000e+00	7.954470e-06	
105	-1.90000e+00	7.955448e-06	
106	-1.95000e+00	7.956402e-06	
107	-2.00000e+00	7.957335e-06	
108	-2.05000e+00	7.958246e-06	
109	-2.10000e+00	7.959138e-06	
110	-2.15000e+00	7.960012e-06	
111	-2.20000e+00	7.960868e-06	
112	-2.25000e+00	7.961708e-06	

Index   v-sweep         i(vds)          
--------------------------------------------------------------------------------
113	-2.30000e+00	7.962532e-06	
114	-2.35000e+00	7.963341e-06	
115	-2.40000e+00	7.964137e-06	
116	-2.45000e+00	7.964920e-06	
117	-2.50000e+00	7.965690e-06	
118	-2.55000e+00	7.966450e-06	
119	-2.60000e+00	7.967200e-06	
120	-2.65000e+00	7.967942e-06	
121	-2.70000e+00	7.968678e-06	
122	-2.75000e+00	7.969410e-06	
123	-2.80000e+00	7.970141e-06	
124	-2.85000e+00	7.970874e-06	
125	-2.90000e+00	7.971615e-06	
126	-2.95000e+00	7.972369e-06	
127	-3.00000e+00	7.973145e-06	
128	-3.05000e+00	7.973950e-06	
129	-3.10000e+00	7.974798e-06	
130	-3.15000e+00	7.975702e-06	
131	-3.20000e+00	7.976678e-06	
132	-3.25000e+00	7.977750e-06	
133	-3.30000e+00	7.978940e-06	
134	-0.000000e+00	0.000000e+00	
135	-5.00000e-02	2.817956e-06	
136	-1.00000e-01	5.390441e-06	
137	-1.50000e-01	7.772568e-06	
138	-2.00000e-01	9.977303e-06	
139	-2.50000e-01	1.200781e-05	
140	-3.00000e-01	1.386501e-05	
141	-3.50000e-01	1.554930e-05	
142	-4.00000e-01	1.706106e-05	
143	-4.50000e-01	1.840072e-05	
144	-5.00000e-01	1.956895e-05	
145	-5.50000e-01	2.056679e-05	
146	-6.00000e-01	2.139603e-05	
147	-6.50000e-01	2.206002e-05	
148	-7.00000e-01	2.256522e-05	
149	-7.50000e-01	2.292409e-05	
150	-8.00000e-01	2.315855e-05	
151	-8.50000e-01	2.330004e-05	
152	-9.00000e-01	2.338197e-05	
153	-9.50000e-01	2.343024e-05	
154	-1.00000e+00	2.346050e-05	
155	-1.05000e+00	2.348103e-05	
156	-1.10000e+00	2.349606e-05	
157	-1.15000e+00	2.350777e-05	
158	-1.20000e+00	2.351736e-05	
159	-1.25000e+00	2.352553e-05	
160	-1.30000e+00	2.353267e-05	
161	-1.35000e+00	2.353905e-05	
162	-1.40000e+00	2.354485e-05	
163	-1.45000e+00	2.355019e-05	
164	-1.50000e+00	2.355515e-05	
165	-1.55000e+00	2.355979e-05	
166	-1.60000e+00	2.356417e-05	
167	-1.65000e+00	2.356831e-05	
168	-1.70000e+00	2.357225e-05	
169	-1.75000e+00	2.357602e-05	
170	-1.80000e+00	2.357962e-05	

Index   v-sweep         i(vds)          
--------------------------------------------------------------------------------
171	-1.85000e+00	2.358308e-05	
172	-1.90000e+00	2.358642e-05	
173	-1.95000e+00	2.358963e-05	
174	-2.00000e+00	2.359273e-05	
175	-2.05000e+00	2.359574e-05	
176	-2.10000e+00	2.359866e-05	
177	-2.15000e+00	2.360148e-05	
178	-2.20000e+00	2.360423e-05	
179	-2.25000e+00	2.360691e-05	
180	-2.30000e+00	2.360951e-05	
181	-2.35000e+00	2.361206e-05	
182	-2.40000e+00	2.361453e-05	
183	-2.45000e+00	2.361696e-05	
184	-2.50000e+00	2.361932e-05	
185	-2.55000e+00	2.362164e-05	
186	-2.60000e+00	2.362391e-05	
187	-2.65000e+00	2.362613e-05	
188	-2.70000e+00	2.362830e-05	
189	-2.75000e+00	2.363044e-05	
190	-2.80000e+00	2.363254e-05	
191	-2.85000e+00	2.363460e-05	
192	-2.90000e+00	2.363663e-05	
193	-2.95000e+00	2.363863e-05	
194	-3.00000e+00	2.364061e-05	
195	-3.05000e+00	2.364256e-05	
196	-3.10000e+00	2.364451e-05	
197	-3.15000e+00	2.364645e-05	
198	-3.20000e+00	2.364840e-05	
199	-3.25000e+00	2.365037e-05	
200	-3.30000e+00	2.365239e-05	
201	-0.000000e+00	0.000000e+00	
202	-5.00000e-02	3.869708e-06	
203	-1.00000e-01	7.504490e-06	
204	-1.50000e-01	1.095942e-05	
205	-2.00000e-01	1.424743e-05	
206	-2.50000e-01	1.737162e-05	
207	-3.00000e-01	2.033282e-05	
208	-3.50000e-01	2.313133e-05	
209	-4.00000e-01	2.576732e-05	
210	-4.50000e-01	2.824095e-05	
211	-5.00000e-01	3.055240e-05	
212	-5.50000e-01	3.270184e-05	
213	-6.00000e-01	3.468946e-05	
214	-6.50000e-01	3.651552e-05	
215	-7.00000e-01	3.818030e-05	
216	-7.50000e-01	3.968419e-05	
217	-8.00000e-01	4.102772e-05	
218	-8.50000e-01	4.221167e-05	
219	-9.00000e-01	4.323721e-05	
220	-9.50000e-01	4.410629e-05	
221	-1.00000e+00	4.482219e-05	
222	-1.05000e+00	4.539061e-05	
223	-1.10000e+00	4.582135e-05	
224	-1.15000e+00	4.613028e-05	
225	-1.20000e+00	4.634002e-05	
226	-1.25000e+00	4.647702e-05	
227	-1.30000e+00	4.656589e-05	
228	-1.35000e+00	4.662510e-05	

Index   v-sweep         i(vds)          
--------------------------------------------------------------------------------
229	-1.40000e+00	4.666654e-05	
230	-1.45000e+00	4.669722e-05	
231	-1.50000e+00	4.672116e-05	
232	-1.55000e+00	4.674070e-05	
233	-1.60000e+00	4.675724e-05	
234	-1.65000e+00	4.677163e-05	
235	-1.70000e+00	4.678443e-05	
236	-1.75000e+00	4.679601e-05	
237	-1.80000e+00	4.680662e-05	
238	-1.85000e+00	4.681644e-05	
239	-1.90000e+00	4.682560e-05	
240	-1.95000e+00	4.683421e-05	
241	-2.00000e+00	4.684235e-05	
242	-2.05000e+00	4.685007e-05	
243	-2.10000e+00	4.685743e-05	
244	-2.15000e+00	4.686446e-05	
245	-2.20000e+00	4.687121e-05	
246	-2.25000e+00	4.687768e-05	
247	-2.30000e+00	4.688392e-05	
248	-2.35000e+00	4.688994e-05	
249	-2.40000e+00	4.689576e-05	
250	-2.45000e+00	4.690140e-05	
251	-2.50000e+00	4.690686e-05	
252	-2.55000e+00	4.691216e-05	
253	-2.60000e+00	4.691731e-05	
254	-2.65000e+00	4.692232e-05	
255	-2.70000e+00	4.692720e-05	
256	-2.75000e+00	4.693196e-05	
257	-2.80000e+00	4.693660e-05	
258	-2.85000e+00	4.694113e-05	
259	-2.90000e+00	4.694556e-05	
260	-2.95000e+00	4.694989e-05	
261	-3.00000e+00	4.695413e-05	
262	-3.05000e+00	4.695828e-05	
263	-3.10000e+00	4.696235e-05	
264	-3.15000e+00	4.696634e-05	
265	-3.20000e+00	4.697025e-05	
266	-3.25000e+00	4.697410e-05	
267	-3.30000e+00	4.697789e-05	
268	-0.000000e+00	0.000000e+00	
269	-5.00000e-02	4.811597e-06	
270	-1.00000e-01	9.399369e-06	
271	-1.50000e-01	1.381838e-05	
272	-2.00000e-01	1.808152e-05	
273	-2.50000e-01	2.219190e-05	
274	-3.00000e-01	2.615030e-05	
275	-3.50000e-01	2.995701e-05	
276	-4.00000e-01	3.361216e-05	
277	-4.50000e-01	3.711589e-05	
278	-5.00000e-01	4.046830e-05	
279	-5.50000e-01	4.366952e-05	
280	-6.00000e-01	4.671966e-05	
281	-6.50000e-01	4.961884e-05	
282	-7.00000e-01	5.236720e-05	
283	-7.50000e-01	5.496486e-05	
284	-8.00000e-01	5.741197e-05	
285	-8.50000e-01	5.970869e-05	
286	-9.00000e-01	6.185519e-05	

Index   v-sweep         i(vds)          
--------------------------------------------------------------------------------
287	-9.50000e-01	6.385167e-05	
288	-1.00000e+00	6.569837e-05	
289	-1.05000e+00	6.739557e-05	
290	-1.10000e+00	6.894365e-05	
291	-1.15000e+00	7.034310e-05	
292	-1.20000e+00	7.159463e-05	
293	-1.25000e+00	7.269925e-05	
294	-1.30000e+00	7.365852e-05	
295	-1.35000e+00	7.447489e-05	
296	-1.40000e+00	7.515228e-05	
297	-1.45000e+00	7.569704e-05	
298	-1.50000e+00	7.611911e-05	
299	-1.55000e+00	7.643313e-05	
300	-1.60000e+00	7.665824e-05	
301	-1.65000e+00	7.681584e-05	
302	-1.70000e+00	7.692595e-05	
303	-1.75000e+00	7.700447e-05	
304	-1.80000e+00	7.706251e-05	
305	-1.85000e+00	7.710725e-05	
306	-1.90000e+00	7.714318e-05	
307	-1.95000e+00	7.717309e-05	
308	-2.00000e+00	7.719873e-05	
309	-2.05000e+00	7.722125e-05	
310	-2.10000e+00	7.724141e-05	
311	-2.15000e+00	7.725971e-05	
312	-2.20000e+00	7.727653e-05	
313	-2.25000e+00	7.729214e-05	
314	-2.30000e+00	7.730674e-05	
315	-2.35000e+00	7.732046e-05	
316	-2.40000e+00	7.733344e-05	
317	-2.45000e+00	7.734577e-05	
318	-2.50000e+00	7.735752e-05	
319	-2.55000e+00	7.736876e-05	
320	-2.60000e+00	7.737953e-05	
321	-2.65000e+00	7.738988e-05	
322	-2.70000e+00	7.739985e-05	
323	-2.75000e+00	7.740947e-05	
324	-2.80000e+00	7.741877e-05	
325	-2.85000e+00	7.742777e-05	
326	-2.90000e+00	7.743650e-05	
327	-2.95000e+00	7.744497e-05	
328	-3.00000e+00	7.745319e-05	
329	-3.05000e+00	7.746120e-05	
330	-3.10000e+00	7.746899e-05	
331	-3.15000e+00	7.747658e-05	
332	-3.20000e+00	7.748398e-05	
333	-3.25000e+00	7.749121e-05	
334	-3.30000e+00	7.749827e-05	
335	-0.000000e+00	0.000000e+00	
336	-5.00000e-02	5.657782e-06	
337	-1.00000e-01	1.110249e-05	
338	-1.50000e-01	1.638918e-05	
339	-2.00000e-01	2.153073e-05	
340	-2.50000e-01	2.653022e-05	
341	-3.00000e-01	3.138844e-05	
342	-3.50000e-01	3.610564e-05	
343	-4.00000e-01	4.068197e-05	
344	-4.50000e-01	4.511751e-05	

Index   v-sweep         i(vds)          
--------------------------------------------------------------------------------
345	-5.00000e-01	4.941238e-05	
346	-5.50000e-01	5.356667e-05	
347	-6.00000e-01	5.758047e-05	
348	-6.50000e-01	6.145388e-05	
349	-7.00000e-01	6.518701e-05	
350	-7.50000e-01	6.877994e-05	
351	-8.00000e-01	7.223279e-05	
352	-8.50000e-01	7.554566e-05	
353	-9.00000e-01	7.871864e-05	
354	-9.50000e-01	8.175186e-05	
355	-1.00000e+00	8.464541e-05	
356	-1.05000e+00	8.739942e-05	
357	-1.10000e+00	9.001401e-05	
358	-1.15000e+00	9.248930e-05	
359	-1.20000e+00	9.482545e-05	
360	-1.25000e+00	9.702261e-05	
361	-1.30000e+00	9.908095e-05	
362	-1.35000e+00	1.010007e-04	
363	-1.40000e+00	1.027820e-04	
364	-1.45000e+00	1.044254e-04	
365	-1.50000e+00	1.059310e-04	
366	-1.55000e+00	1.072996e-04	
367	-1.60000e+00	1.085317e-04	
368	-1.65000e+00	1.096284e-04	
369	-1.70000e+00	1.105913e-04	
370	-1.75000e+00	1.114227e-04	
371	-1.80000e+00	1.121260e-04	
372	-1.85000e+00	1.127067e-04	
373	-1.90000e+00	1.131727e-04	
374	-1.95000e+00	1.135354e-04	
375	-2.00000e+00	1.138098e-04	
376	-2.05000e+00	1.140130e-04	
377	-2.10000e+00	1.141625e-04	
378	-2.15000e+00	1.142734e-04	
379	-2.20000e+00	1.143577e-04	
380	-2.25000e+00	1.144237e-04	
381	-2.30000e+00	1.144772e-04	
382	-2.35000e+00	1.145218e-04	
383	-2.40000e+00	1.145601e-04	
384	-2.45000e+00	1.145938e-04	
385	-2.50000e+00	1.146238e-04	
386	-2.55000e+00	1.146510e-04	
387	-2.60000e+00	1.146760e-04	
388	-2.65000e+00	1.146992e-04	
389	-2.70000e+00	1.147208e-04	
390	-2.75000e+00	1.147411e-04	
391	-2.80000e+00	1.147602e-04	
392	-2.85000e+00	1.147784e-04	
393	-2.90000e+00	1.147958e-04	
394	-2.95000e+00	1.148123e-04	
395	-3.00000e+00	1.148282e-04	
396	-3.05000e+00	1.148434e-04	
397	-3.10000e+00	1.148580e-04	
398	-3.15000e+00	1.148722e-04	
399	-3.20000e+00	1.148858e-04	
400	-3.25000e+00	1.148990e-04	
401	-3.30000e+00	1.149118e-04	
Note: No ".plot", ".print", or ".fourier" lines; no simulations run
