
Note: Compatibility modes selected: hs

Warning: m=xx on .subckt line will override multiplier m hierarchy!


Circuit: ***************************

Doing analysis at TEMP = -40.000000 and TNOM = -40.000000


No. of Data Rows : 402
                          ***************************
                          DC transfer characteristic  Mon Jan  9 13:57:29  2023
--------------------------------------------------------------------------------
Index   v-sweep         i(vds)          
--------------------------------------------------------------------------------
0	-0.000000e+00	0.000000e+00	
1	-5.00000e-02	2.437931e-09	
2	-1.00000e-01	2.619941e-09	
3	-1.50000e-01	2.648657e-09	
4	-2.00000e-01	2.658726e-09	
5	-2.50000e-01	2.664072e-09	
6	-3.00000e-01	2.667664e-09	
7	-3.50000e-01	2.670436e-09	
8	-4.00000e-01	2.672759e-09	
9	-4.50000e-01	2.674808e-09	
10	-5.00000e-01	2.676674e-09	
11	-5.50000e-01	2.678411e-09	
12	-6.00000e-01	2.680050e-09	
13	-6.50000e-01	2.681615e-09	
14	-7.00000e-01	2.683120e-09	
15	-7.50000e-01	2.684575e-09	
16	-8.00000e-01	2.685989e-09	
17	-8.50000e-01	2.687367e-09	
18	-9.00000e-01	2.688715e-09	
19	-9.50000e-01	2.690036e-09	
20	-1.00000e+00	2.691333e-09	
21	-1.05000e+00	2.692608e-09	
22	-1.10000e+00	2.693865e-09	
23	-1.15000e+00	2.695105e-09	
24	-1.20000e+00	2.696328e-09	
25	-1.25000e+00	2.697538e-09	
26	-1.30000e+00	2.698734e-09	
27	-1.35000e+00	2.699918e-09	
28	-1.40000e+00	2.701091e-09	
29	-1.45000e+00	2.702253e-09	
30	-1.50000e+00	2.703405e-09	
31	-1.55000e+00	2.704549e-09	
32	-1.60000e+00	2.705683e-09	
33	-1.65000e+00	2.706810e-09	
34	-1.70000e+00	2.707929e-09	
35	-1.75000e+00	2.709041e-09	
36	-1.80000e+00	2.710147e-09	
37	-1.85000e+00	2.711246e-09	
38	-1.90000e+00	2.712339e-09	
39	-1.95000e+00	2.713426e-09	
40	-2.00000e+00	2.714508e-09	
41	-2.05000e+00	2.715586e-09	
42	-2.10000e+00	2.716658e-09	
43	-2.15000e+00	2.717727e-09	
44	-2.20000e+00	2.718792e-09	
45	-2.25000e+00	2.719854e-09	
46	-2.30000e+00	2.720913e-09	
47	-2.35000e+00	2.721971e-09	
48	-2.40000e+00	2.723028e-09	
49	-2.45000e+00	2.724086e-09	
50	-2.50000e+00	2.725147e-09	
51	-2.55000e+00	2.726212e-09	
52	-2.60000e+00	2.727284e-09	
53	-2.65000e+00	2.728368e-09	
54	-2.70000e+00	2.729465e-09	

Index   v-sweep         i(vds)          
--------------------------------------------------------------------------------
55	-2.75000e+00	2.730582e-09	
56	-2.80000e+00	2.731725e-09	
57	-2.85000e+00	2.732900e-09	
58	-2.90000e+00	2.734116e-09	
59	-2.95000e+00	2.735384e-09	
60	-3.00000e+00	2.736716e-09	
61	-3.05000e+00	2.738126e-09	
62	-3.10000e+00	2.739629e-09	
63	-3.15000e+00	2.741247e-09	
64	-3.20000e+00	2.743000e-09	
65	-3.25000e+00	2.744913e-09	
66	-3.30000e+00	2.747016e-09	
67	-0.000000e+00	0.000000e+00	
68	-5.00000e-02	1.908491e-07	
69	-1.00000e-01	3.494776e-07	
70	-1.50000e-01	4.760869e-07	
71	-2.00000e-01	5.711227e-07	
72	-2.50000e-01	6.357594e-07	
73	-3.00000e-01	6.732610e-07	
74	-3.50000e-01	6.909123e-07	
75	-4.00000e-01	6.981469e-07	
76	-4.50000e-01	7.012592e-07	
77	-5.00000e-01	7.028339e-07	
78	-5.50000e-01	7.037750e-07	
79	-6.00000e-01	7.044165e-07	
80	-6.50000e-01	7.048974e-07	
81	-7.00000e-01	7.052828e-07	
82	-7.50000e-01	7.056065e-07	
83	-8.00000e-01	7.058875e-07	
84	-8.50000e-01	7.061373e-07	
85	-9.00000e-01	7.063635e-07	
86	-9.50000e-01	7.065710e-07	
87	-1.00000e+00	7.067634e-07	
88	-1.05000e+00	7.069433e-07	
89	-1.10000e+00	7.071126e-07	
90	-1.15000e+00	7.072728e-07	
91	-1.20000e+00	7.074251e-07	
92	-1.25000e+00	7.075705e-07	
93	-1.30000e+00	7.077097e-07	
94	-1.35000e+00	7.078434e-07	
95	-1.40000e+00	7.079721e-07	
96	-1.45000e+00	7.080964e-07	
97	-1.50000e+00	7.082165e-07	
98	-1.55000e+00	7.083328e-07	
99	-1.60000e+00	7.084457e-07	
100	-1.65000e+00	7.085554e-07	
101	-1.70000e+00	7.086621e-07	
102	-1.75000e+00	7.087661e-07	
103	-1.80000e+00	7.088675e-07	
104	-1.85000e+00	7.089665e-07	
105	-1.90000e+00	7.090632e-07	
106	-1.95000e+00	7.091578e-07	
107	-2.00000e+00	7.092505e-07	
108	-2.05000e+00	7.093412e-07	
109	-2.10000e+00	7.094302e-07	
110	-2.15000e+00	7.095175e-07	
111	-2.20000e+00	7.096033e-07	
112	-2.25000e+00	7.096875e-07	

Index   v-sweep         i(vds)          
--------------------------------------------------------------------------------
113	-2.30000e+00	7.097703e-07	
114	-2.35000e+00	7.098519e-07	
115	-2.40000e+00	7.099322e-07	
116	-2.45000e+00	7.100115e-07	
117	-2.50000e+00	7.100898e-07	
118	-2.55000e+00	7.101672e-07	
119	-2.60000e+00	7.102441e-07	
120	-2.65000e+00	7.103205e-07	
121	-2.70000e+00	7.103969e-07	
122	-2.75000e+00	7.104735e-07	
123	-2.80000e+00	7.105508e-07	
124	-2.85000e+00	7.106293e-07	
125	-2.90000e+00	7.107099e-07	
126	-2.95000e+00	7.107933e-07	
127	-3.00000e+00	7.108806e-07	
128	-3.05000e+00	7.109732e-07	
129	-3.10000e+00	7.110727e-07	
130	-3.15000e+00	7.111809e-07	
131	-3.20000e+00	7.113002e-07	
132	-3.25000e+00	7.114333e-07	
133	-3.30000e+00	7.115833e-07	
134	-0.000000e+00	0.000000e+00	
135	-5.00000e-02	3.993838e-07	
136	-1.00000e-01	7.674358e-07	
137	-1.50000e-01	1.104202e-06	
138	-2.00000e-01	1.409735e-06	
139	-2.50000e-01	1.684093e-06	
140	-3.00000e-01	1.927352e-06	
141	-3.50000e-01	2.139614e-06	
142	-4.00000e-01	2.321031e-06	
143	-4.50000e-01	2.471863e-06	
144	-5.00000e-01	2.592589e-06	
145	-5.50000e-01	2.684177e-06	
146	-6.00000e-01	2.748623e-06	
147	-6.50000e-01	2.789776e-06	
148	-7.00000e-01	2.813617e-06	
149	-7.50000e-01	2.826740e-06	
150	-8.00000e-01	2.834141e-06	
151	-8.50000e-01	2.838656e-06	
152	-9.00000e-01	2.841680e-06	
153	-9.50000e-01	2.843883e-06	
154	-1.00000e+00	2.845598e-06	
155	-1.05000e+00	2.847002e-06	
156	-1.10000e+00	2.848194e-06	
157	-1.15000e+00	2.849235e-06	
158	-1.20000e+00	2.850164e-06	
159	-1.25000e+00	2.851004e-06	
160	-1.30000e+00	2.851775e-06	
161	-1.35000e+00	2.852488e-06	
162	-1.40000e+00	2.853154e-06	
163	-1.45000e+00	2.853778e-06	
164	-1.50000e+00	2.854367e-06	
165	-1.55000e+00	2.854926e-06	
166	-1.60000e+00	2.855458e-06	
167	-1.65000e+00	2.855965e-06	
168	-1.70000e+00	2.856451e-06	
169	-1.75000e+00	2.856917e-06	
170	-1.80000e+00	2.857366e-06	

Index   v-sweep         i(vds)          
--------------------------------------------------------------------------------
171	-1.85000e+00	2.857798e-06	
172	-1.90000e+00	2.858216e-06	
173	-1.95000e+00	2.858620e-06	
174	-2.00000e+00	2.859011e-06	
175	-2.05000e+00	2.859391e-06	
176	-2.10000e+00	2.859759e-06	
177	-2.15000e+00	2.860117e-06	
178	-2.20000e+00	2.860466e-06	
179	-2.25000e+00	2.860806e-06	
180	-2.30000e+00	2.861138e-06	
181	-2.35000e+00	2.861461e-06	
182	-2.40000e+00	2.861777e-06	
183	-2.45000e+00	2.862086e-06	
184	-2.50000e+00	2.862389e-06	
185	-2.55000e+00	2.862685e-06	
186	-2.60000e+00	2.862975e-06	
187	-2.65000e+00	2.863260e-06	
188	-2.70000e+00	2.863539e-06	
189	-2.75000e+00	2.863814e-06	
190	-2.80000e+00	2.864084e-06	
191	-2.85000e+00	2.864351e-06	
192	-2.90000e+00	2.864614e-06	
193	-2.95000e+00	2.864876e-06	
194	-3.00000e+00	2.865135e-06	
195	-3.05000e+00	2.865395e-06	
196	-3.10000e+00	2.865656e-06	
197	-3.15000e+00	2.865920e-06	
198	-3.20000e+00	2.866189e-06	
199	-3.25000e+00	2.866467e-06	
200	-3.30000e+00	2.866757e-06	
201	-0.000000e+00	0.000000e+00	
202	-5.00000e-02	5.820916e-07	
203	-1.00000e-01	1.134970e-06	
204	-1.50000e-01	1.658670e-06	
205	-2.00000e-01	2.153226e-06	
206	-2.50000e-01	2.618673e-06	
207	-3.00000e-01	3.055047e-06	
208	-3.50000e-01	3.462388e-06	
209	-4.00000e-01	3.840734e-06	
210	-4.50000e-01	4.190132e-06	
211	-5.00000e-01	4.510630e-06	
212	-5.50000e-01	4.802287e-06	
213	-6.00000e-01	5.065175e-06	
214	-6.50000e-01	5.299389e-06	
215	-7.00000e-01	5.505066e-06	
216	-7.50000e-01	5.682410e-06	
217	-8.00000e-01	5.831758e-06	
218	-8.50000e-01	5.953691e-06	
219	-9.00000e-01	6.049253e-06	
220	-9.50000e-01	6.120302e-06	
221	-1.00000e+00	6.169942e-06	
222	-1.05000e+00	6.202609e-06	
223	-1.10000e+00	6.223349e-06	
224	-1.15000e+00	6.236575e-06	
225	-1.20000e+00	6.245365e-06	
226	-1.25000e+00	6.251564e-06	
227	-1.30000e+00	6.256210e-06	
228	-1.35000e+00	6.259880e-06	

Index   v-sweep         i(vds)          
--------------------------------------------------------------------------------
229	-1.40000e+00	6.262906e-06	
230	-1.45000e+00	6.265485e-06	
231	-1.50000e+00	6.267737e-06	
232	-1.55000e+00	6.269745e-06	
233	-1.60000e+00	6.271560e-06	
234	-1.65000e+00	6.273222e-06	
235	-1.70000e+00	6.274758e-06	
236	-1.75000e+00	6.276188e-06	
237	-1.80000e+00	6.277529e-06	
238	-1.85000e+00	6.278791e-06	
239	-1.90000e+00	6.279986e-06	
240	-1.95000e+00	6.281121e-06	
241	-2.00000e+00	6.282203e-06	
242	-2.05000e+00	6.283237e-06	
243	-2.10000e+00	6.284228e-06	
244	-2.15000e+00	6.285180e-06	
245	-2.20000e+00	6.286096e-06	
246	-2.25000e+00	6.286979e-06	
247	-2.30000e+00	6.287832e-06	
248	-2.35000e+00	6.288657e-06	
249	-2.40000e+00	6.289457e-06	
250	-2.45000e+00	6.290232e-06	
251	-2.50000e+00	6.290985e-06	
252	-2.55000e+00	6.291716e-06	
253	-2.60000e+00	6.292428e-06	
254	-2.65000e+00	6.293122e-06	
255	-2.70000e+00	6.293798e-06	
256	-2.75000e+00	6.294458e-06	
257	-2.80000e+00	6.295102e-06	
258	-2.85000e+00	6.295731e-06	
259	-2.90000e+00	6.296347e-06	
260	-2.95000e+00	6.296949e-06	
261	-3.00000e+00	6.297539e-06	
262	-3.05000e+00	6.298118e-06	
263	-3.10000e+00	6.298686e-06	
264	-3.15000e+00	6.299245e-06	
265	-3.20000e+00	6.299795e-06	
266	-3.25000e+00	6.300338e-06	
267	-3.30000e+00	6.300876e-06	
268	-0.000000e+00	0.000000e+00	
269	-5.00000e-02	7.380024e-07	
270	-1.00000e-01	1.449154e-06	
271	-1.50000e-01	2.133483e-06	
272	-2.00000e-01	2.791018e-06	
273	-2.50000e-01	3.421787e-06	
274	-3.00000e-01	4.025819e-06	
275	-3.50000e-01	4.603144e-06	
276	-4.00000e-01	5.153791e-06	
277	-4.50000e-01	5.677788e-06	
278	-5.00000e-01	6.175168e-06	
279	-5.50000e-01	6.645960e-06	
280	-6.00000e-01	7.090197e-06	
281	-6.50000e-01	7.507914e-06	
282	-7.00000e-01	7.899145e-06	
283	-7.50000e-01	8.263929e-06	
284	-8.00000e-01	8.602310e-06	
285	-8.50000e-01	8.914338e-06	
286	-9.00000e-01	9.200070e-06	

Index   v-sweep         i(vds)          
--------------------------------------------------------------------------------
287	-9.50000e-01	9.459582e-06	
288	-1.00000e+00	9.692972e-06	
289	-1.05000e+00	9.900374e-06	
290	-1.10000e+00	1.008199e-05	
291	-1.15000e+00	1.023813e-05	
292	-1.20000e+00	1.036928e-05	
293	-1.25000e+00	1.047627e-05	
294	-1.30000e+00	1.056044e-05	
295	-1.35000e+00	1.062392e-05	
296	-1.40000e+00	1.066977e-05	
297	-1.45000e+00	1.070179e-05	
298	-1.50000e+00	1.072387e-05	
299	-1.55000e+00	1.073931e-05	
300	-1.60000e+00	1.075048e-05	
301	-1.65000e+00	1.075892e-05	
302	-1.70000e+00	1.076558e-05	
303	-1.75000e+00	1.077105e-05	
304	-1.80000e+00	1.077567e-05	
305	-1.85000e+00	1.077969e-05	
306	-1.90000e+00	1.078325e-05	
307	-1.95000e+00	1.078645e-05	
308	-2.00000e+00	1.078937e-05	
309	-2.05000e+00	1.079206e-05	
310	-2.10000e+00	1.079455e-05	
311	-2.15000e+00	1.079688e-05	
312	-2.20000e+00	1.079907e-05	
313	-2.25000e+00	1.080113e-05	
314	-2.30000e+00	1.080309e-05	
315	-2.35000e+00	1.080495e-05	
316	-2.40000e+00	1.080673e-05	
317	-2.45000e+00	1.080843e-05	
318	-2.50000e+00	1.081006e-05	
319	-2.55000e+00	1.081162e-05	
320	-2.60000e+00	1.081313e-05	
321	-2.65000e+00	1.081459e-05	
322	-2.70000e+00	1.081599e-05	
323	-2.75000e+00	1.081735e-05	
324	-2.80000e+00	1.081867e-05	
325	-2.85000e+00	1.081994e-05	
326	-2.90000e+00	1.082118e-05	
327	-2.95000e+00	1.082239e-05	
328	-3.00000e+00	1.082356e-05	
329	-3.05000e+00	1.082470e-05	
330	-3.10000e+00	1.082581e-05	
331	-3.15000e+00	1.082690e-05	
332	-3.20000e+00	1.082796e-05	
333	-3.25000e+00	1.082899e-05	
334	-3.30000e+00	1.083001e-05	
335	-0.000000e+00	0.000000e+00	
336	-5.00000e-02	8.683252e-07	
337	-1.00000e-01	1.712167e-06	
338	-1.50000e-01	2.531550e-06	
339	-2.00000e-01	3.326498e-06	
340	-2.50000e-01	4.097034e-06	
341	-3.00000e-01	4.843184e-06	
342	-3.50000e-01	5.564971e-06	
343	-4.00000e-01	6.262420e-06	
344	-4.50000e-01	6.935554e-06	

Index   v-sweep         i(vds)          
--------------------------------------------------------------------------------
345	-5.00000e-01	7.584399e-06	
346	-5.50000e-01	8.208978e-06	
347	-6.00000e-01	8.809317e-06	
348	-6.50000e-01	9.385440e-06	
349	-7.00000e-01	9.937373e-06	
350	-7.50000e-01	1.046514e-05	
351	-8.00000e-01	1.096877e-05	
352	-8.50000e-01	1.144829e-05	
353	-9.00000e-01	1.190372e-05	
354	-9.50000e-01	1.233509e-05	
355	-1.00000e+00	1.274244e-05	
356	-1.05000e+00	1.312580e-05	
357	-1.10000e+00	1.348520e-05	
358	-1.15000e+00	1.382067e-05	
359	-1.20000e+00	1.413227e-05	
360	-1.25000e+00	1.442005e-05	
361	-1.30000e+00	1.468407e-05	
362	-1.35000e+00	1.492441e-05	
363	-1.40000e+00	1.514119e-05	
364	-1.45000e+00	1.533456e-05	
365	-1.50000e+00	1.550475e-05	
366	-1.55000e+00	1.565209e-05	
367	-1.60000e+00	1.577711e-05	
368	-1.65000e+00	1.588064e-05	
369	-1.70000e+00	1.596392e-05	
370	-1.75000e+00	1.602881e-05	
371	-1.80000e+00	1.607783e-05	
372	-1.85000e+00	1.611402e-05	
373	-1.90000e+00	1.614051e-05	
374	-1.95000e+00	1.616008e-05	
375	-2.00000e+00	1.617488e-05	
376	-2.05000e+00	1.618645e-05	
377	-2.10000e+00	1.619579e-05	
378	-2.15000e+00	1.620357e-05	
379	-2.20000e+00	1.621023e-05	
380	-2.25000e+00	1.621605e-05	
381	-2.30000e+00	1.622123e-05	
382	-2.35000e+00	1.622591e-05	
383	-2.40000e+00	1.623018e-05	
384	-2.45000e+00	1.623412e-05	
385	-2.50000e+00	1.623778e-05	
386	-2.55000e+00	1.624120e-05	
387	-2.60000e+00	1.624442e-05	
388	-2.65000e+00	1.624746e-05	
389	-2.70000e+00	1.625034e-05	
390	-2.75000e+00	1.625308e-05	
391	-2.80000e+00	1.625569e-05	
392	-2.85000e+00	1.625819e-05	
393	-2.90000e+00	1.626059e-05	
394	-2.95000e+00	1.626289e-05	
395	-3.00000e+00	1.626511e-05	
396	-3.05000e+00	1.626725e-05	
397	-3.10000e+00	1.626932e-05	
398	-3.15000e+00	1.627131e-05	
399	-3.20000e+00	1.627325e-05	
400	-3.25000e+00	1.627513e-05	
401	-3.30000e+00	1.627695e-05	
Note: No ".plot", ".print", or ".fourier" lines; no simulations run
