
Note: Compatibility modes selected: hs

Warning: m=xx on .subckt line will override multiplier m hierarchy!


Circuit: ***************************

Doing analysis at TEMP = 125.000000 and TNOM = 125.000000


No. of Data Rows : 402
                          ***************************
                          DC transfer characteristic  Mon Jan  9 13:57:29  2023
--------------------------------------------------------------------------------
Index   v-sweep         i(vds)          
--------------------------------------------------------------------------------
0	-0.000000e+00	0.000000e+00	
1	-5.00000e-02	3.577572e-07	
2	-1.00000e-01	5.932630e-07	
3	-1.50000e-01	7.215216e-07	
4	-2.00000e-01	7.726720e-07	
5	-2.50000e-01	7.901235e-07	
6	-3.00000e-01	7.980329e-07	
7	-3.50000e-01	8.031710e-07	
8	-4.00000e-01	8.072543e-07	
9	-4.50000e-01	8.108137e-07	
10	-5.00000e-01	8.140547e-07	
11	-5.50000e-01	8.170734e-07	
12	-6.00000e-01	8.199221e-07	
13	-6.50000e-01	8.226330e-07	
14	-7.00000e-01	8.252277e-07	
15	-7.50000e-01	8.277222e-07	
16	-8.00000e-01	8.301284e-07	
17	-8.50000e-01	8.324559e-07	
18	-9.00000e-01	8.347126e-07	
19	-9.50000e-01	8.369050e-07	
20	-1.00000e+00	8.390386e-07	
21	-1.05000e+00	8.411183e-07	
22	-1.10000e+00	8.431484e-07	
23	-1.15000e+00	8.451324e-07	
24	-1.20000e+00	8.470738e-07	
25	-1.25000e+00	8.489753e-07	
26	-1.30000e+00	8.508397e-07	
27	-1.35000e+00	8.526694e-07	
28	-1.40000e+00	8.544664e-07	
29	-1.45000e+00	8.562327e-07	
30	-1.50000e+00	8.579701e-07	
31	-1.55000e+00	8.596803e-07	
32	-1.60000e+00	8.613646e-07	
33	-1.65000e+00	8.630246e-07	
34	-1.70000e+00	8.646615e-07	
35	-1.75000e+00	8.662764e-07	
36	-1.80000e+00	8.678704e-07	
37	-1.85000e+00	8.694446e-07	
38	-1.90000e+00	8.710000e-07	
39	-1.95000e+00	8.725373e-07	
40	-2.00000e+00	8.740576e-07	
41	-2.05000e+00	8.755615e-07	
42	-2.10000e+00	8.770500e-07	
43	-2.15000e+00	8.785237e-07	
44	-2.20000e+00	8.799836e-07	
45	-2.25000e+00	8.814303e-07	
46	-2.30000e+00	8.828647e-07	
47	-2.35000e+00	8.842878e-07	
48	-2.40000e+00	8.857005e-07	
49	-2.45000e+00	8.871039e-07	
50	-2.50000e+00	8.884991e-07	
51	-2.55000e+00	8.898875e-07	
52	-2.60000e+00	8.912706e-07	
53	-2.65000e+00	8.926501e-07	
54	-2.70000e+00	8.940278e-07	

Index   v-sweep         i(vds)          
--------------------------------------------------------------------------------
55	-2.75000e+00	8.954062e-07	
56	-2.80000e+00	8.967875e-07	
57	-2.85000e+00	8.981747e-07	
58	-2.90000e+00	8.995710e-07	
59	-2.95000e+00	9.009800e-07	
60	-3.00000e+00	9.024057e-07	
61	-3.05000e+00	9.038527e-07	
62	-3.10000e+00	9.053259e-07	
63	-3.15000e+00	9.068310e-07	
64	-3.20000e+00	9.083740e-07	
65	-3.25000e+00	9.099618e-07	
66	-3.30000e+00	9.116016e-07	
67	-0.000000e+00	0.000000e+00	
68	-5.00000e-02	1.593673e-06	
69	-1.00000e-01	3.032508e-06	
70	-1.50000e-01	4.323300e-06	
71	-2.00000e-01	5.468661e-06	
72	-2.50000e-01	6.470299e-06	
73	-3.00000e-01	7.329853e-06	
74	-3.50000e-01	8.049249e-06	
75	-4.00000e-01	8.631165e-06	
76	-4.50000e-01	9.080040e-06	
77	-5.00000e-01	9.404369e-06	
78	-5.50000e-01	9.620749e-06	
79	-6.00000e-01	9.756402e-06	
80	-6.50000e-01	9.842536e-06	
81	-7.00000e-01	9.902662e-06	
82	-7.50000e-01	9.949566e-06	
83	-8.00000e-01	9.989230e-06	
84	-8.50000e-01	1.002444e-05	
85	-9.00000e-01	1.005659e-05	
86	-9.50000e-01	1.008645e-05	
87	-1.00000e+00	1.011449e-05	
88	-1.05000e+00	1.014101e-05	
89	-1.10000e+00	1.016623e-05	
90	-1.15000e+00	1.019031e-05	
91	-1.20000e+00	1.021338e-05	
92	-1.25000e+00	1.023555e-05	
93	-1.30000e+00	1.025690e-05	
94	-1.35000e+00	1.027750e-05	
95	-1.40000e+00	1.029742e-05	
96	-1.45000e+00	1.031670e-05	
97	-1.50000e+00	1.033540e-05	
98	-1.55000e+00	1.035355e-05	
99	-1.60000e+00	1.037120e-05	
100	-1.65000e+00	1.038837e-05	
101	-1.70000e+00	1.040510e-05	
102	-1.75000e+00	1.042142e-05	
103	-1.80000e+00	1.043734e-05	
104	-1.85000e+00	1.045290e-05	
105	-1.90000e+00	1.046811e-05	
106	-1.95000e+00	1.048299e-05	
107	-2.00000e+00	1.049755e-05	
108	-2.05000e+00	1.051182e-05	
109	-2.10000e+00	1.052581e-05	
110	-2.15000e+00	1.053954e-05	
111	-2.20000e+00	1.055300e-05	
112	-2.25000e+00	1.056623e-05	

Index   v-sweep         i(vds)          
--------------------------------------------------------------------------------
113	-2.30000e+00	1.057922e-05	
114	-2.35000e+00	1.059199e-05	
115	-2.40000e+00	1.060455e-05	
116	-2.45000e+00	1.061691e-05	
117	-2.50000e+00	1.062908e-05	
118	-2.55000e+00	1.064106e-05	
119	-2.60000e+00	1.065288e-05	
120	-2.65000e+00	1.066453e-05	
121	-2.70000e+00	1.067602e-05	
122	-2.75000e+00	1.068738e-05	
123	-2.80000e+00	1.069861e-05	
124	-2.85000e+00	1.070971e-05	
125	-2.90000e+00	1.072072e-05	
126	-2.95000e+00	1.073164e-05	
127	-3.00000e+00	1.074249e-05	
128	-3.05000e+00	1.075329e-05	
129	-3.10000e+00	1.076407e-05	
130	-3.15000e+00	1.077486e-05	
131	-3.20000e+00	1.078567e-05	
132	-3.25000e+00	1.079656e-05	
133	-3.30000e+00	1.080755e-05	
134	-0.000000e+00	0.000000e+00	
135	-5.00000e-02	2.684408e-06	
136	-1.00000e-01	5.215700e-06	
137	-1.50000e-01	7.600486e-06	
138	-2.00000e-01	9.841153e-06	
139	-2.50000e-01	1.193910e-05	
140	-3.00000e-01	1.389550e-05	
141	-3.50000e-01	1.571146e-05	
142	-4.00000e-01	1.738808e-05	
143	-4.50000e-01	1.892650e-05	
144	-5.00000e-01	2.032786e-05	
145	-5.50000e-01	2.159334e-05	
146	-6.00000e-01	2.272425e-05	
147	-6.50000e-01	2.372205e-05	
148	-7.00000e-01	2.458850e-05	
149	-7.50000e-01	2.532597e-05	
150	-8.00000e-01	2.593800e-05	
151	-8.50000e-01	2.643027e-05	
152	-9.00000e-01	2.681238e-05	
153	-9.50000e-01	2.709968e-05	
154	-1.00000e+00	2.731317e-05	
155	-1.05000e+00	2.747535e-05	
156	-1.10000e+00	2.760479e-05	
157	-1.15000e+00	2.771376e-05	
158	-1.20000e+00	2.780950e-05	
159	-1.25000e+00	2.789607e-05	
160	-1.30000e+00	2.797587e-05	
161	-1.35000e+00	2.805035e-05	
162	-1.40000e+00	2.812046e-05	
163	-1.45000e+00	2.818687e-05	
164	-1.50000e+00	2.825007e-05	
165	-1.55000e+00	2.831043e-05	
166	-1.60000e+00	2.836827e-05	
167	-1.65000e+00	2.842381e-05	
168	-1.70000e+00	2.847728e-05	
169	-1.75000e+00	2.852884e-05	
170	-1.80000e+00	2.857865e-05	

Index   v-sweep         i(vds)          
--------------------------------------------------------------------------------
171	-1.85000e+00	2.862684e-05	
172	-1.90000e+00	2.867353e-05	
173	-1.95000e+00	2.871881e-05	
174	-2.00000e+00	2.876279e-05	
175	-2.05000e+00	2.880555e-05	
176	-2.10000e+00	2.884716e-05	
177	-2.15000e+00	2.888769e-05	
178	-2.20000e+00	2.892720e-05	
179	-2.25000e+00	2.896576e-05	
180	-2.30000e+00	2.900340e-05	
181	-2.35000e+00	2.904018e-05	
182	-2.40000e+00	2.907615e-05	
183	-2.45000e+00	2.911135e-05	
184	-2.50000e+00	2.914580e-05	
185	-2.55000e+00	2.917955e-05	
186	-2.60000e+00	2.921264e-05	
187	-2.65000e+00	2.924508e-05	
188	-2.70000e+00	2.927692e-05	
189	-2.75000e+00	2.930817e-05	
190	-2.80000e+00	2.933887e-05	
191	-2.85000e+00	2.936904e-05	
192	-2.90000e+00	2.939870e-05	
193	-2.95000e+00	2.942788e-05	
194	-3.00000e+00	2.945661e-05	
195	-3.05000e+00	2.948490e-05	
196	-3.10000e+00	2.951280e-05	
197	-3.15000e+00	2.954032e-05	
198	-3.20000e+00	2.956750e-05	
199	-3.25000e+00	2.959437e-05	
200	-3.30000e+00	2.962097e-05	
201	-0.000000e+00	0.000000e+00	
202	-5.00000e-02	3.621557e-06	
203	-1.00000e-01	7.095424e-06	
204	-1.50000e-01	1.042809e-05	
205	-2.00000e-01	1.362181e-05	
206	-2.50000e-01	1.667785e-05	
207	-3.00000e-01	1.959725e-05	
208	-3.50000e-01	2.238099e-05	
209	-4.00000e-01	2.503002e-05	
210	-4.50000e-01	2.754528e-05	
211	-5.00000e-01	2.992771e-05	
212	-5.50000e-01	3.217825e-05	
213	-6.00000e-01	3.429783e-05	
214	-6.50000e-01	3.628739e-05	
215	-7.00000e-01	3.814787e-05	
216	-7.50000e-01	3.988020e-05	
217	-8.00000e-01	4.148537e-05	
218	-8.50000e-01	4.296436e-05	
219	-9.00000e-01	4.431823e-05	
220	-9.50000e-01	4.554811e-05	
221	-1.00000e+00	4.665530e-05	
222	-1.05000e+00	4.764134e-05	
223	-1.10000e+00	4.850819e-05	
224	-1.15000e+00	4.925859e-05	
225	-1.20000e+00	4.989661e-05	
226	-1.25000e+00	5.042847e-05	
227	-1.30000e+00	5.086369e-05	
228	-1.35000e+00	5.121580e-05	

Index   v-sweep         i(vds)          
--------------------------------------------------------------------------------
229	-1.40000e+00	5.150145e-05	
230	-1.45000e+00	5.173773e-05	
231	-1.50000e+00	5.193910e-05	
232	-1.55000e+00	5.211607e-05	
233	-1.60000e+00	5.227554e-05	
234	-1.65000e+00	5.242194e-05	
235	-1.70000e+00	5.255809e-05	
236	-1.75000e+00	5.268589e-05	
237	-1.80000e+00	5.280667e-05	
238	-1.85000e+00	5.292139e-05	
239	-1.90000e+00	5.303079e-05	
240	-1.95000e+00	5.313544e-05	
241	-2.00000e+00	5.323583e-05	
242	-2.05000e+00	5.333233e-05	
243	-2.10000e+00	5.342530e-05	
244	-2.15000e+00	5.351500e-05	
245	-2.20000e+00	5.360170e-05	
246	-2.25000e+00	5.368560e-05	
247	-2.30000e+00	5.376691e-05	
248	-2.35000e+00	5.384580e-05	
249	-2.40000e+00	5.392242e-05	
250	-2.45000e+00	5.399691e-05	
251	-2.50000e+00	5.406941e-05	
252	-2.55000e+00	5.414002e-05	
253	-2.60000e+00	5.420885e-05	
254	-2.65000e+00	5.427600e-05	
255	-2.70000e+00	5.434156e-05	
256	-2.75000e+00	5.440561e-05	
257	-2.80000e+00	5.446823e-05	
258	-2.85000e+00	5.452948e-05	
259	-2.90000e+00	5.458943e-05	
260	-2.95000e+00	5.464814e-05	
261	-3.00000e+00	5.470567e-05	
262	-3.05000e+00	5.476207e-05	
263	-3.10000e+00	5.481739e-05	
264	-3.15000e+00	5.487168e-05	
265	-3.20000e+00	5.492499e-05	
266	-3.25000e+00	5.497736e-05	
267	-3.30000e+00	5.502883e-05	
268	-0.000000e+00	0.000000e+00	
269	-5.00000e-02	4.436746e-06	
270	-1.00000e-01	8.731892e-06	
271	-1.50000e-01	1.289182e-05	
272	-2.00000e-01	1.691868e-05	
273	-2.50000e-01	2.081364e-05	
274	-3.00000e-01	2.457764e-05	
275	-3.50000e-01	2.821154e-05	
276	-4.00000e-01	3.171620e-05	
277	-4.50000e-01	3.509246e-05	
278	-5.00000e-01	3.834115e-05	
279	-5.50000e-01	4.146311e-05	
280	-6.00000e-01	4.445916e-05	
281	-6.50000e-01	4.733011e-05	
282	-7.00000e-01	5.007677e-05	
283	-7.50000e-01	5.269996e-05	
284	-8.00000e-01	5.520047e-05	
285	-8.50000e-01	5.757911e-05	
286	-9.00000e-01	5.983668e-05	

Index   v-sweep         i(vds)          
--------------------------------------------------------------------------------
287	-9.50000e-01	6.197397e-05	
288	-1.00000e+00	6.399179e-05	
289	-1.05000e+00	6.589094e-05	
290	-1.10000e+00	6.767225e-05	
291	-1.15000e+00	6.933655e-05	
292	-1.20000e+00	7.088471e-05	
293	-1.25000e+00	7.231764e-05	
294	-1.30000e+00	7.363634e-05	
295	-1.35000e+00	7.484193e-05	
296	-1.40000e+00	7.593570e-05	
297	-1.45000e+00	7.691929e-05	
298	-1.50000e+00	7.779483e-05	
299	-1.55000e+00	7.856530e-05	
300	-1.60000e+00	7.923502e-05	
301	-1.65000e+00	7.981028e-05	
302	-1.70000e+00	8.030002e-05	
303	-1.75000e+00	8.071587e-05	
304	-1.80000e+00	8.107130e-05	
305	-1.85000e+00	8.137969e-05	
306	-1.90000e+00	8.165254e-05	
307	-1.95000e+00	8.189864e-05	
308	-2.00000e+00	8.212425e-05	
309	-2.05000e+00	8.233366e-05	
310	-2.10000e+00	8.252988e-05	
311	-2.15000e+00	8.271501e-05	
312	-2.20000e+00	8.289063e-05	
313	-2.25000e+00	8.305791e-05	
314	-2.30000e+00	8.321779e-05	
315	-2.35000e+00	8.337102e-05	
316	-2.40000e+00	8.351821e-05	
317	-2.45000e+00	8.365990e-05	
318	-2.50000e+00	8.379654e-05	
319	-2.55000e+00	8.392850e-05	
320	-2.60000e+00	8.405615e-05	
321	-2.65000e+00	8.417978e-05	
322	-2.70000e+00	8.429965e-05	
323	-2.75000e+00	8.441602e-05	
324	-2.80000e+00	8.452910e-05	
325	-2.85000e+00	8.463908e-05	
326	-2.90000e+00	8.474615e-05	
327	-2.95000e+00	8.485047e-05	
328	-3.00000e+00	8.495219e-05	
329	-3.05000e+00	8.505144e-05	
330	-3.10000e+00	8.514836e-05	
331	-3.15000e+00	8.524306e-05	
332	-3.20000e+00	8.533565e-05	
333	-3.25000e+00	8.542624e-05	
334	-3.30000e+00	8.551490e-05	
335	-0.000000e+00	0.000000e+00	
336	-5.00000e-02	5.154687e-06	
337	-1.00000e-01	1.017377e-05	
338	-1.50000e-01	1.506356e-05	
339	-2.00000e-01	1.982610e-05	
340	-2.50000e-01	2.446248e-05	
341	-3.00000e-01	2.897356e-05	
342	-3.50000e-01	3.336011e-05	
343	-4.00000e-01	3.762290e-05	
344	-4.50000e-01	4.176269e-05	

Index   v-sweep         i(vds)          
--------------------------------------------------------------------------------
345	-5.00000e-01	4.578024e-05	
346	-5.50000e-01	4.967629e-05	
347	-6.00000e-01	5.345158e-05	
348	-6.50000e-01	5.710685e-05	
349	-7.00000e-01	6.064283e-05	
350	-7.50000e-01	6.406024e-05	
351	-8.00000e-01	6.735980e-05	
352	-8.50000e-01	7.054222e-05	
353	-9.00000e-01	7.360822e-05	
354	-9.50000e-01	7.655849e-05	
355	-1.00000e+00	7.939375e-05	
356	-1.05000e+00	8.211468e-05	
357	-1.10000e+00	8.472199e-05	
358	-1.15000e+00	8.721635e-05	
359	-1.20000e+00	8.959848e-05	
360	-1.25000e+00	9.186904e-05	
361	-1.30000e+00	9.402874e-05	
362	-1.35000e+00	9.607826e-05	
363	-1.40000e+00	9.801832e-05	
364	-1.45000e+00	9.984962e-05	
365	-1.50000e+00	1.015729e-04	
366	-1.55000e+00	1.031889e-04	
367	-1.60000e+00	1.046984e-04	
368	-1.65000e+00	1.061023e-04	
369	-1.70000e+00	1.074016e-04	
370	-1.75000e+00	1.085972e-04	
371	-1.80000e+00	1.096907e-04	
372	-1.85000e+00	1.106836e-04	
373	-1.90000e+00	1.115782e-04	
374	-1.95000e+00	1.123776e-04	
375	-2.00000e+00	1.130860e-04	
376	-2.05000e+00	1.137097e-04	
377	-2.10000e+00	1.142565e-04	
378	-2.15000e+00	1.147365e-04	
379	-2.20000e+00	1.151606e-04	
380	-2.25000e+00	1.155395e-04	
381	-2.30000e+00	1.158827e-04	
382	-2.35000e+00	1.161976e-04	
383	-2.40000e+00	1.164897e-04	
384	-2.45000e+00	1.167630e-04	
385	-2.50000e+00	1.170207e-04	
386	-2.55000e+00	1.172648e-04	
387	-2.60000e+00	1.174972e-04	
388	-2.65000e+00	1.177191e-04	
389	-2.70000e+00	1.179316e-04	
390	-2.75000e+00	1.181357e-04	
391	-2.80000e+00	1.183320e-04	
392	-2.85000e+00	1.185213e-04	
393	-2.90000e+00	1.187039e-04	
394	-2.95000e+00	1.188806e-04	
395	-3.00000e+00	1.190516e-04	
396	-3.05000e+00	1.192173e-04	
397	-3.10000e+00	1.193782e-04	
398	-3.15000e+00	1.195344e-04	
399	-3.20000e+00	1.196863e-04	
400	-3.25000e+00	1.198341e-04	
401	-3.30000e+00	1.199781e-04	
Note: No ".plot", ".print", or ".fourier" lines; no simulations run
