
Note: Compatibility modes selected: hs

Warning: m=xx on .subckt line will override multiplier m hierarchy!


Circuit: ***************************

Doing analysis at TEMP = -40.000000 and TNOM = -40.000000


No. of Data Rows : 402
                          ***************************
                          DC transfer characteristic  Mon Jan  9 13:57:29  2023
--------------------------------------------------------------------------------
Index   v-sweep         i(vds)          
--------------------------------------------------------------------------------
0	-0.000000e+00	0.000000e+00	
1	-5.00000e-02	2.480319e-08	
2	-1.00000e-01	2.664410e-08	
3	-1.50000e-01	2.693524e-08	
4	-2.00000e-01	2.703742e-08	
5	-2.50000e-01	2.709161e-08	
6	-3.00000e-01	2.712791e-08	
7	-3.50000e-01	2.715582e-08	
8	-4.00000e-01	2.717913e-08	
9	-4.50000e-01	2.719963e-08	
10	-5.00000e-01	2.721824e-08	
11	-5.50000e-01	2.723552e-08	
12	-6.00000e-01	2.725181e-08	
13	-6.50000e-01	2.726732e-08	
14	-7.00000e-01	2.728222e-08	
15	-7.50000e-01	2.729660e-08	
16	-8.00000e-01	2.731056e-08	
17	-8.50000e-01	2.732416e-08	
18	-9.00000e-01	2.733744e-08	
19	-9.50000e-01	2.735044e-08	
20	-1.00000e+00	2.736321e-08	
21	-1.05000e+00	2.737575e-08	
22	-1.10000e+00	2.738811e-08	
23	-1.15000e+00	2.740028e-08	
24	-1.20000e+00	2.741230e-08	
25	-1.25000e+00	2.742417e-08	
26	-1.30000e+00	2.743591e-08	
27	-1.35000e+00	2.744752e-08	
28	-1.40000e+00	2.745902e-08	
29	-1.45000e+00	2.747041e-08	
30	-1.50000e+00	2.748170e-08	
31	-1.55000e+00	2.749290e-08	
32	-1.60000e+00	2.750401e-08	
33	-1.65000e+00	2.751505e-08	
34	-1.70000e+00	2.752600e-08	
35	-1.75000e+00	2.753689e-08	
36	-1.80000e+00	2.754770e-08	
37	-1.85000e+00	2.755846e-08	
38	-1.90000e+00	2.756915e-08	
39	-1.95000e+00	2.757979e-08	
40	-2.00000e+00	2.759037e-08	
41	-2.05000e+00	2.760090e-08	
42	-2.10000e+00	2.761139e-08	
43	-2.15000e+00	2.762184e-08	
44	-2.20000e+00	2.763226e-08	
45	-2.25000e+00	2.764264e-08	
46	-2.30000e+00	2.765300e-08	
47	-2.35000e+00	2.766335e-08	
48	-2.40000e+00	2.767370e-08	
49	-2.45000e+00	2.768407e-08	
50	-2.50000e+00	2.769447e-08	
51	-2.55000e+00	2.770492e-08	
52	-2.60000e+00	2.771547e-08	
53	-2.65000e+00	2.772615e-08	
54	-2.70000e+00	2.773699e-08	

Index   v-sweep         i(vds)          
--------------------------------------------------------------------------------
55	-2.75000e+00	2.774807e-08	
56	-2.80000e+00	2.775944e-08	
57	-2.85000e+00	2.777119e-08	
58	-2.90000e+00	2.778342e-08	
59	-2.95000e+00	2.779624e-08	
60	-3.00000e+00	2.780980e-08	
61	-3.05000e+00	2.782425e-08	
62	-3.10000e+00	2.783977e-08	
63	-3.15000e+00	2.785660e-08	
64	-3.20000e+00	2.787496e-08	
65	-3.25000e+00	2.789516e-08	
66	-3.30000e+00	2.791751e-08	
67	-0.000000e+00	0.000000e+00	
68	-5.00000e-02	1.999279e-06	
69	-1.00000e-01	3.662656e-06	
70	-1.50000e-01	4.992229e-06	
71	-2.00000e-01	5.992577e-06	
72	-2.50000e-01	6.675643e-06	
73	-3.00000e-01	7.074545e-06	
74	-3.50000e-01	7.263826e-06	
75	-4.00000e-01	7.341785e-06	
76	-4.50000e-01	7.375316e-06	
77	-5.00000e-01	7.392238e-06	
78	-5.50000e-01	7.402321e-06	
79	-6.00000e-01	7.409172e-06	
80	-6.50000e-01	7.414292e-06	
81	-7.00000e-01	7.418384e-06	
82	-7.50000e-01	7.421811e-06	
83	-8.00000e-01	7.424779e-06	
84	-8.50000e-01	7.427412e-06	
85	-9.00000e-01	7.429792e-06	
86	-9.50000e-01	7.431971e-06	
87	-1.00000e+00	7.433989e-06	
88	-1.05000e+00	7.435873e-06	
89	-1.10000e+00	7.437644e-06	
90	-1.15000e+00	7.439318e-06	
91	-1.20000e+00	7.440908e-06	
92	-1.25000e+00	7.442424e-06	
93	-1.30000e+00	7.443875e-06	
94	-1.35000e+00	7.445268e-06	
95	-1.40000e+00	7.446608e-06	
96	-1.45000e+00	7.447900e-06	
97	-1.50000e+00	7.449149e-06	
98	-1.55000e+00	7.450359e-06	
99	-1.60000e+00	7.451532e-06	
100	-1.65000e+00	7.452671e-06	
101	-1.70000e+00	7.453779e-06	
102	-1.75000e+00	7.454858e-06	
103	-1.80000e+00	7.455910e-06	
104	-1.85000e+00	7.456937e-06	
105	-1.90000e+00	7.457941e-06	
106	-1.95000e+00	7.458922e-06	
107	-2.00000e+00	7.459882e-06	
108	-2.05000e+00	7.460823e-06	
109	-2.10000e+00	7.461746e-06	
110	-2.15000e+00	7.462651e-06	
111	-2.20000e+00	7.463539e-06	
112	-2.25000e+00	7.464412e-06	

Index   v-sweep         i(vds)          
--------------------------------------------------------------------------------
113	-2.30000e+00	7.465270e-06	
114	-2.35000e+00	7.466115e-06	
115	-2.40000e+00	7.466948e-06	
116	-2.45000e+00	7.467770e-06	
117	-2.50000e+00	7.468581e-06	
118	-2.55000e+00	7.469385e-06	
119	-2.60000e+00	7.470183e-06	
120	-2.65000e+00	7.470978e-06	
121	-2.70000e+00	7.471773e-06	
122	-2.75000e+00	7.472572e-06	
123	-2.80000e+00	7.473382e-06	
124	-2.85000e+00	7.474207e-06	
125	-2.90000e+00	7.475058e-06	
126	-2.95000e+00	7.475943e-06	
127	-3.00000e+00	7.476876e-06	
128	-3.05000e+00	7.477873e-06	
129	-3.10000e+00	7.478951e-06	
130	-3.15000e+00	7.480134e-06	
131	-3.20000e+00	7.481448e-06	
132	-3.25000e+00	7.482926e-06	
133	-3.30000e+00	7.484604e-06	
134	-0.000000e+00	0.000000e+00	
135	-5.00000e-02	4.138880e-06	
136	-1.00000e-01	7.954793e-06	
137	-1.50000e-01	1.144824e-05	
138	-2.00000e-01	1.461976e-05	
139	-2.50000e-01	1.747000e-05	
140	-3.00000e-01	1.999975e-05	
141	-3.50000e-01	2.221004e-05	
142	-4.00000e-01	2.410245e-05	
143	-4.50000e-01	2.567956e-05	
144	-5.00000e-01	2.694614e-05	
145	-5.50000e-01	2.791170e-05	
146	-6.00000e-01	2.859584e-05	
147	-6.50000e-01	2.903656e-05	
148	-7.00000e-01	2.929403e-05	
149	-7.50000e-01	2.943637e-05	
150	-8.00000e-01	2.951657e-05	
151	-8.50000e-01	2.956528e-05	
152	-9.00000e-01	2.959774e-05	
153	-9.50000e-01	2.962125e-05	
154	-1.00000e+00	2.963946e-05	
155	-1.05000e+00	2.965431e-05	
156	-1.10000e+00	2.966687e-05	
157	-1.15000e+00	2.967781e-05	
158	-1.20000e+00	2.968753e-05	
159	-1.25000e+00	2.969631e-05	
160	-1.30000e+00	2.970434e-05	
161	-1.35000e+00	2.971177e-05	
162	-1.40000e+00	2.971868e-05	
163	-1.45000e+00	2.972516e-05	
164	-1.50000e+00	2.973126e-05	
165	-1.55000e+00	2.973704e-05	
166	-1.60000e+00	2.974254e-05	
167	-1.65000e+00	2.974778e-05	
168	-1.70000e+00	2.975279e-05	
169	-1.75000e+00	2.975760e-05	
170	-1.80000e+00	2.976222e-05	

Index   v-sweep         i(vds)          
--------------------------------------------------------------------------------
171	-1.85000e+00	2.976667e-05	
172	-1.90000e+00	2.977097e-05	
173	-1.95000e+00	2.977512e-05	
174	-2.00000e+00	2.977915e-05	
175	-2.05000e+00	2.978305e-05	
176	-2.10000e+00	2.978683e-05	
177	-2.15000e+00	2.979051e-05	
178	-2.20000e+00	2.979409e-05	
179	-2.25000e+00	2.979758e-05	
180	-2.30000e+00	2.980098e-05	
181	-2.35000e+00	2.980430e-05	
182	-2.40000e+00	2.980754e-05	
183	-2.45000e+00	2.981070e-05	
184	-2.50000e+00	2.981380e-05	
185	-2.55000e+00	2.981684e-05	
186	-2.60000e+00	2.981981e-05	
187	-2.65000e+00	2.982273e-05	
188	-2.70000e+00	2.982559e-05	
189	-2.75000e+00	2.982840e-05	
190	-2.80000e+00	2.983117e-05	
191	-2.85000e+00	2.983391e-05	
192	-2.90000e+00	2.983661e-05	
193	-2.95000e+00	2.983929e-05	
194	-3.00000e+00	2.984196e-05	
195	-3.05000e+00	2.984463e-05	
196	-3.10000e+00	2.984732e-05	
197	-3.15000e+00	2.985005e-05	
198	-3.20000e+00	2.985286e-05	
199	-3.25000e+00	2.985576e-05	
200	-3.30000e+00	2.985882e-05	
201	-0.000000e+00	0.000000e+00	
202	-5.00000e-02	5.975532e-06	
203	-1.00000e-01	1.165286e-05	
204	-1.50000e-01	1.703236e-05	
205	-2.00000e-01	2.211439e-05	
206	-2.50000e-01	2.689933e-05	
207	-3.00000e-01	3.138757e-05	
208	-3.50000e-01	3.557952e-05	
209	-4.00000e-01	3.947561e-05	
210	-4.50000e-01	4.307630e-05	
211	-5.00000e-01	4.638210e-05	
212	-5.50000e-01	4.939363e-05	
213	-6.00000e-01	5.211162e-05	
214	-6.50000e-01	5.453702e-05	
215	-7.00000e-01	5.667118e-05	
216	-7.50000e-01	5.851612e-05	
217	-8.00000e-01	6.007509e-05	
218	-8.50000e-01	6.135365e-05	
219	-9.00000e-01	6.236176e-05	
220	-9.50000e-01	6.311716e-05	
221	-1.00000e+00	6.364975e-05	
222	-1.05000e+00	6.400322e-05	
223	-1.10000e+00	6.422875e-05	
224	-1.15000e+00	6.437256e-05	
225	-1.20000e+00	6.446772e-05	
226	-1.25000e+00	6.453441e-05	
227	-1.30000e+00	6.458405e-05	
228	-1.35000e+00	6.462302e-05	

Index   v-sweep         i(vds)          
--------------------------------------------------------------------------------
229	-1.40000e+00	6.465496e-05	
230	-1.45000e+00	6.468205e-05	
231	-1.50000e+00	6.470563e-05	
232	-1.55000e+00	6.472656e-05	
233	-1.60000e+00	6.474543e-05	
234	-1.65000e+00	6.476266e-05	
235	-1.70000e+00	6.477855e-05	
236	-1.75000e+00	6.479332e-05	
237	-1.80000e+00	6.480713e-05	
238	-1.85000e+00	6.482012e-05	
239	-1.90000e+00	6.483240e-05	
240	-1.95000e+00	6.484405e-05	
241	-2.00000e+00	6.485514e-05	
242	-2.05000e+00	6.486574e-05	
243	-2.10000e+00	6.487588e-05	
244	-2.15000e+00	6.488561e-05	
245	-2.20000e+00	6.489497e-05	
246	-2.25000e+00	6.490398e-05	
247	-2.30000e+00	6.491269e-05	
248	-2.35000e+00	6.492110e-05	
249	-2.40000e+00	6.492925e-05	
250	-2.45000e+00	6.493715e-05	
251	-2.50000e+00	6.494481e-05	
252	-2.55000e+00	6.495226e-05	
253	-2.60000e+00	6.495950e-05	
254	-2.65000e+00	6.496655e-05	
255	-2.70000e+00	6.497342e-05	
256	-2.75000e+00	6.498013e-05	
257	-2.80000e+00	6.498667e-05	
258	-2.85000e+00	6.499306e-05	
259	-2.90000e+00	6.499931e-05	
260	-2.95000e+00	6.500543e-05	
261	-3.00000e+00	6.501142e-05	
262	-3.05000e+00	6.501730e-05	
263	-3.10000e+00	6.502306e-05	
264	-3.15000e+00	6.502873e-05	
265	-3.20000e+00	6.503432e-05	
266	-3.25000e+00	6.503983e-05	
267	-3.30000e+00	6.504530e-05	
268	-0.000000e+00	0.000000e+00	
269	-5.00000e-02	7.516186e-06	
270	-1.00000e-01	1.476054e-05	
271	-1.50000e-01	2.173336e-05	
272	-2.00000e-01	2.843496e-05	
273	-2.50000e-01	3.486562e-05	
274	-3.00000e-01	4.102566e-05	
275	-3.50000e-01	4.691538e-05	
276	-4.00000e-01	5.253508e-05	
277	-4.50000e-01	5.788510e-05	
278	-5.00000e-01	6.296573e-05	
279	-5.50000e-01	6.777732e-05	
280	-6.00000e-01	7.232019e-05	
281	-6.50000e-01	7.659470e-05	
282	-7.00000e-01	8.060122e-05	
283	-7.50000e-01	8.434014e-05	
284	-8.00000e-01	8.781192e-05	
285	-8.50000e-01	9.101705e-05	
286	-9.00000e-01	9.395613e-05	

Index   v-sweep         i(vds)          
--------------------------------------------------------------------------------
287	-9.50000e-01	9.662988e-05	
288	-1.00000e+00	9.903927e-05	
289	-1.05000e+00	1.011856e-04	
290	-1.10000e+00	1.030708e-04	
291	-1.15000e+00	1.046977e-04	
292	-1.20000e+00	1.060710e-04	
293	-1.25000e+00	1.071982e-04	
294	-1.30000e+00	1.080919e-04	
295	-1.35000e+00	1.087719e-04	
296	-1.40000e+00	1.092675e-04	
297	-1.45000e+00	1.096159e-04	
298	-1.50000e+00	1.098569e-04	
299	-1.55000e+00	1.100249e-04	
300	-1.60000e+00	1.101458e-04	
301	-1.65000e+00	1.102365e-04	
302	-1.70000e+00	1.103076e-04	
303	-1.75000e+00	1.103655e-04	
304	-1.80000e+00	1.104142e-04	
305	-1.85000e+00	1.104562e-04	
306	-1.90000e+00	1.104933e-04	
307	-1.95000e+00	1.105266e-04	
308	-2.00000e+00	1.105568e-04	
309	-2.05000e+00	1.105845e-04	
310	-2.10000e+00	1.106101e-04	
311	-2.15000e+00	1.106341e-04	
312	-2.20000e+00	1.106565e-04	
313	-2.25000e+00	1.106776e-04	
314	-2.30000e+00	1.106976e-04	
315	-2.35000e+00	1.107166e-04	
316	-2.40000e+00	1.107347e-04	
317	-2.45000e+00	1.107520e-04	
318	-2.50000e+00	1.107686e-04	
319	-2.55000e+00	1.107845e-04	
320	-2.60000e+00	1.107998e-04	
321	-2.65000e+00	1.108146e-04	
322	-2.70000e+00	1.108288e-04	
323	-2.75000e+00	1.108426e-04	
324	-2.80000e+00	1.108559e-04	
325	-2.85000e+00	1.108688e-04	
326	-2.90000e+00	1.108814e-04	
327	-2.95000e+00	1.108936e-04	
328	-3.00000e+00	1.109054e-04	
329	-3.05000e+00	1.109169e-04	
330	-3.10000e+00	1.109282e-04	
331	-3.15000e+00	1.109391e-04	
332	-3.20000e+00	1.109498e-04	
333	-3.25000e+00	1.109603e-04	
334	-3.30000e+00	1.109705e-04	
335	-0.000000e+00	0.000000e+00	
336	-5.00000e-02	8.786083e-06	
337	-1.00000e-01	1.732601e-05	
338	-1.50000e-01	2.562003e-05	
339	-2.00000e-01	3.366840e-05	
340	-2.50000e-01	4.147136e-05	
341	-3.00000e-01	4.902917e-05	
342	-3.50000e-01	5.634208e-05	
343	-4.00000e-01	6.341035e-05	
344	-4.50000e-01	7.023422e-05	

Index   v-sweep         i(vds)          
--------------------------------------------------------------------------------
345	-5.00000e-01	7.681396e-05	
346	-5.50000e-01	8.314981e-05	
347	-6.00000e-01	8.924204e-05	
348	-6.50000e-01	9.509090e-05	
349	-7.00000e-01	1.006967e-04	
350	-7.50000e-01	1.060596e-04	
351	-8.00000e-01	1.111799e-04	
352	-8.50000e-01	1.160580e-04	
353	-9.00000e-01	1.206940e-04	
354	-9.50000e-01	1.250883e-04	
355	-1.00000e+00	1.292412e-04	
356	-1.05000e+00	1.331531e-04	
357	-1.10000e+00	1.368241e-04	
358	-1.15000e+00	1.402549e-04	
359	-1.20000e+00	1.434457e-04	
360	-1.25000e+00	1.463972e-04	
361	-1.30000e+00	1.491099e-04	
362	-1.35000e+00	1.515847e-04	
363	-1.40000e+00	1.538225e-04	
364	-1.45000e+00	1.558248e-04	
365	-1.50000e+00	1.575938e-04	
366	-1.55000e+00	1.591324e-04	
367	-1.60000e+00	1.604455e-04	
368	-1.65000e+00	1.615405e-04	
369	-1.70000e+00	1.624286e-04	
370	-1.75000e+00	1.631269e-04	
371	-1.80000e+00	1.636591e-04	
372	-1.85000e+00	1.640545e-04	
373	-1.90000e+00	1.643446e-04	
374	-1.95000e+00	1.645584e-04	
375	-2.00000e+00	1.647192e-04	
376	-2.05000e+00	1.648439e-04	
377	-2.10000e+00	1.649438e-04	
378	-2.15000e+00	1.650264e-04	
379	-2.20000e+00	1.650966e-04	
380	-2.25000e+00	1.651576e-04	
381	-2.30000e+00	1.652116e-04	
382	-2.35000e+00	1.652601e-04	
383	-2.40000e+00	1.653043e-04	
384	-2.45000e+00	1.653449e-04	
385	-2.50000e+00	1.653824e-04	
386	-2.55000e+00	1.654175e-04	
387	-2.60000e+00	1.654504e-04	
388	-2.65000e+00	1.654814e-04	
389	-2.70000e+00	1.655107e-04	
390	-2.75000e+00	1.655386e-04	
391	-2.80000e+00	1.655651e-04	
392	-2.85000e+00	1.655905e-04	
393	-2.90000e+00	1.656148e-04	
394	-2.95000e+00	1.656381e-04	
395	-3.00000e+00	1.656605e-04	
396	-3.05000e+00	1.656822e-04	
397	-3.10000e+00	1.657030e-04	
398	-3.15000e+00	1.657232e-04	
399	-3.20000e+00	1.657427e-04	
400	-3.25000e+00	1.657616e-04	
401	-3.30000e+00	1.657799e-04	
Note: No ".plot", ".print", or ".fourier" lines; no simulations run
