
Note: Compatibility modes selected: hs

Warning: m=xx on .subckt line will override multiplier m hierarchy!


Circuit: ***************************

Doing analysis at TEMP = 125.000000 and TNOM = 125.000000


No. of Data Rows : 402
                          ***************************
                          DC transfer characteristic  Mon Jan  9 13:57:29  2023
--------------------------------------------------------------------------------
Index   v-sweep         i(vds)          
--------------------------------------------------------------------------------
0	-0.000000e+00	0.000000e+00	
1	-5.00000e-02	4.817002e-06	
2	-1.00000e-01	8.392749e-06	
3	-1.50000e-01	1.080756e-05	
4	-2.00000e-01	1.219632e-05	
5	-2.50000e-01	1.286668e-05	
6	-3.00000e-01	1.320972e-05	
7	-3.50000e-01	1.344411e-05	
8	-4.00000e-01	1.364020e-05	
9	-4.50000e-01	1.381889e-05	
10	-5.00000e-01	1.398757e-05	
11	-5.50000e-01	1.414947e-05	
12	-6.00000e-01	1.430629e-05	
13	-6.50000e-01	1.445908e-05	
14	-7.00000e-01	1.460853e-05	
15	-7.50000e-01	1.475516e-05	
16	-8.00000e-01	1.489937e-05	
17	-8.50000e-01	1.504149e-05	
18	-9.00000e-01	1.518176e-05	
19	-9.50000e-01	1.532042e-05	
20	-1.00000e+00	1.545765e-05	
21	-1.05000e+00	1.559360e-05	
22	-1.10000e+00	1.572842e-05	
23	-1.15000e+00	1.586223e-05	
24	-1.20000e+00	1.599514e-05	
25	-1.25000e+00	1.612725e-05	
26	-1.30000e+00	1.625864e-05	
27	-1.35000e+00	1.638938e-05	
28	-1.40000e+00	1.651955e-05	
29	-1.45000e+00	1.664920e-05	
30	-1.50000e+00	1.677840e-05	
31	-1.55000e+00	1.690720e-05	
32	-1.60000e+00	1.703564e-05	
33	-1.65000e+00	1.716377e-05	
34	-1.70000e+00	1.729162e-05	
35	-1.75000e+00	1.741923e-05	
36	-1.80000e+00	1.754664e-05	
37	-1.85000e+00	1.767388e-05	
38	-1.90000e+00	1.780097e-05	
39	-1.95000e+00	1.792795e-05	
40	-2.00000e+00	1.805483e-05	
41	-2.05000e+00	1.818165e-05	
42	-2.10000e+00	1.830843e-05	
43	-2.15000e+00	1.843519e-05	
44	-2.20000e+00	1.856195e-05	
45	-2.25000e+00	1.868874e-05	
46	-2.30000e+00	1.881559e-05	
47	-2.35000e+00	1.894251e-05	
48	-2.40000e+00	1.906955e-05	
49	-2.45000e+00	1.919673e-05	
50	-2.50000e+00	1.932408e-05	
51	-2.55000e+00	1.945165e-05	
52	-2.60000e+00	1.957949e-05	
53	-2.65000e+00	1.970764e-05	
54	-2.70000e+00	1.983617e-05	

Index   v-sweep         i(vds)          
--------------------------------------------------------------------------------
55	-2.75000e+00	1.996514e-05	
56	-2.80000e+00	2.009464e-05	
57	-2.85000e+00	2.022476e-05	
58	-2.90000e+00	2.035560e-05	
59	-2.95000e+00	2.048727e-05	
60	-3.00000e+00	2.061992e-05	
61	-3.05000e+00	2.075369e-05	
62	-3.10000e+00	2.088874e-05	
63	-3.15000e+00	2.102528e-05	
64	-3.20000e+00	2.116349e-05	
65	-3.25000e+00	2.130363e-05	
66	-3.30000e+00	2.144593e-05	
67	-0.000000e+00	0.000000e+00	
68	-5.00000e-02	1.712992e-05	
69	-1.00000e-01	3.276486e-05	
70	-1.50000e-01	4.695722e-05	
71	-2.00000e-01	5.973808e-05	
72	-2.50000e-01	7.113356e-05	
73	-3.00000e-01	8.116902e-05	
74	-3.50000e-01	8.987071e-05	
75	-4.00000e-01	9.726773e-05	
76	-4.50000e-01	1.033958e-04	
77	-5.00000e-01	1.083059e-04	
78	-5.50000e-01	1.120826e-04	
79	-6.00000e-01	1.148744e-04	
80	-6.50000e-01	1.169114e-04	
81	-7.00000e-01	1.184570e-04	
82	-7.50000e-01	1.197187e-04	
83	-8.00000e-01	1.208176e-04	
84	-8.50000e-01	1.218154e-04	
85	-9.00000e-01	1.227434e-04	
86	-9.50000e-01	1.236189e-04	
87	-1.00000e+00	1.244523e-04	
88	-1.05000e+00	1.252506e-04	
89	-1.10000e+00	1.260189e-04	
90	-1.15000e+00	1.267609e-04	
91	-1.20000e+00	1.274797e-04	
92	-1.25000e+00	1.281778e-04	
93	-1.30000e+00	1.288572e-04	
94	-1.35000e+00	1.295197e-04	
95	-1.40000e+00	1.301668e-04	
96	-1.45000e+00	1.307998e-04	
97	-1.50000e+00	1.314197e-04	
98	-1.55000e+00	1.320277e-04	
99	-1.60000e+00	1.326247e-04	
100	-1.65000e+00	1.332114e-04	
101	-1.70000e+00	1.337885e-04	
102	-1.75000e+00	1.343567e-04	
103	-1.80000e+00	1.349166e-04	
104	-1.85000e+00	1.354687e-04	
105	-1.90000e+00	1.360136e-04	
106	-1.95000e+00	1.365515e-04	
107	-2.00000e+00	1.370830e-04	
108	-2.05000e+00	1.376085e-04	
109	-2.10000e+00	1.381282e-04	
110	-2.15000e+00	1.386424e-04	
111	-2.20000e+00	1.391516e-04	
112	-2.25000e+00	1.396559e-04	

Index   v-sweep         i(vds)          
--------------------------------------------------------------------------------
113	-2.30000e+00	1.401556e-04	
114	-2.35000e+00	1.406509e-04	
115	-2.40000e+00	1.411421e-04	
116	-2.45000e+00	1.416294e-04	
117	-2.50000e+00	1.421130e-04	
118	-2.55000e+00	1.425931e-04	
119	-2.60000e+00	1.430698e-04	
120	-2.65000e+00	1.435435e-04	
121	-2.70000e+00	1.440143e-04	
122	-2.75000e+00	1.444825e-04	
123	-2.80000e+00	1.449482e-04	
124	-2.85000e+00	1.454117e-04	
125	-2.90000e+00	1.458734e-04	
126	-2.95000e+00	1.463335e-04	
127	-3.00000e+00	1.467923e-04	
128	-3.05000e+00	1.472504e-04	
129	-3.10000e+00	1.477080e-04	
130	-3.15000e+00	1.481658e-04	
131	-3.20000e+00	1.486244e-04	
132	-3.25000e+00	1.490843e-04	
133	-3.30000e+00	1.495463e-04	
134	-0.000000e+00	0.000000e+00	
135	-5.00000e-02	2.697546e-05	
136	-1.00000e-01	5.247622e-05	
137	-1.50000e-01	7.655120e-05	
138	-2.00000e-01	9.922785e-05	
139	-2.50000e-01	1.205283e-04	
140	-3.00000e-01	1.404733e-04	
141	-3.50000e-01	1.590829e-04	
142	-4.00000e-01	1.763769e-04	
143	-4.50000e-01	1.923748e-04	
144	-5.00000e-01	2.070960e-04	
145	-5.50000e-01	2.205600e-04	
146	-6.00000e-01	2.327866e-04	
147	-6.50000e-01	2.437962e-04	
148	-7.00000e-01	2.536109e-04	
149	-7.50000e-01	2.622558e-04	
150	-8.00000e-01	2.697616e-04	
151	-8.50000e-01	2.761708e-04	
152	-9.00000e-01	2.815463e-04	
153	-9.50000e-01	2.859861e-04	
154	-1.00000e+00	2.896336e-04	
155	-1.05000e+00	2.926673e-04	
156	-1.10000e+00	2.952632e-04	
157	-1.15000e+00	2.975591e-04	
158	-1.20000e+00	2.996459e-04	
159	-1.25000e+00	3.015796e-04	
160	-1.30000e+00	3.033945e-04	
161	-1.35000e+00	3.051130e-04	
162	-1.40000e+00	3.067505e-04	
163	-1.45000e+00	3.083182e-04	
164	-1.50000e+00	3.098246e-04	
165	-1.55000e+00	3.112767e-04	
166	-1.60000e+00	3.126800e-04	
167	-1.65000e+00	3.140392e-04	
168	-1.70000e+00	3.153583e-04	
169	-1.75000e+00	3.166407e-04	
170	-1.80000e+00	3.178895e-04	

Index   v-sweep         i(vds)          
--------------------------------------------------------------------------------
171	-1.85000e+00	3.191072e-04	
172	-1.90000e+00	3.202962e-04	
173	-1.95000e+00	3.214585e-04	
174	-2.00000e+00	3.225960e-04	
175	-2.05000e+00	3.237104e-04	
176	-2.10000e+00	3.248032e-04	
177	-2.15000e+00	3.258756e-04	
178	-2.20000e+00	3.269290e-04	
179	-2.25000e+00	3.279645e-04	
180	-2.30000e+00	3.289832e-04	
181	-2.35000e+00	3.299858e-04	
182	-2.40000e+00	3.309735e-04	
183	-2.45000e+00	3.319468e-04	
184	-2.50000e+00	3.329067e-04	
185	-2.55000e+00	3.338537e-04	
186	-2.60000e+00	3.347885e-04	
187	-2.65000e+00	3.357118e-04	
188	-2.70000e+00	3.366240e-04	
189	-2.75000e+00	3.375257e-04	
190	-2.80000e+00	3.384175e-04	
191	-2.85000e+00	3.392997e-04	
192	-2.90000e+00	3.401730e-04	
193	-2.95000e+00	3.410377e-04	
194	-3.00000e+00	3.418942e-04	
195	-3.05000e+00	3.427432e-04	
196	-3.10000e+00	3.435851e-04	
197	-3.15000e+00	3.444204e-04	
198	-3.20000e+00	3.452498e-04	
199	-3.25000e+00	3.460737e-04	
200	-3.30000e+00	3.468930e-04	
201	-0.000000e+00	0.000000e+00	
202	-5.00000e-02	3.485549e-05	
203	-1.00000e-01	6.829492e-05	
204	-1.50000e-01	1.003642e-04	
205	-2.00000e-01	1.310879e-04	
206	-2.50000e-01	1.604854e-04	
207	-3.00000e-01	1.885744e-04	
208	-3.50000e-01	2.153723e-04	
209	-4.00000e-01	2.408960e-04	
210	-4.50000e-01	2.651624e-04	
211	-5.00000e-01	2.881876e-04	
212	-5.50000e-01	3.099880e-04	
213	-6.00000e-01	3.305795e-04	
214	-6.50000e-01	3.499778e-04	
215	-7.00000e-01	3.681986e-04	
216	-7.50000e-01	3.852573e-04	
217	-8.00000e-01	4.011693e-04	
218	-8.50000e-01	4.159503e-04	
219	-9.00000e-01	4.296158e-04	
220	-9.50000e-01	4.421823e-04	
221	-1.00000e+00	4.536668e-04	
222	-1.05000e+00	4.640884e-04	
223	-1.10000e+00	4.734693e-04	
224	-1.15000e+00	4.818370e-04	
225	-1.20000e+00	4.892287e-04	
226	-1.25000e+00	4.956977e-04	
227	-1.30000e+00	5.013207e-04	
228	-1.35000e+00	5.062037e-04	

Index   v-sweep         i(vds)          
--------------------------------------------------------------------------------
229	-1.40000e+00	5.104757e-04	
230	-1.45000e+00	5.142701e-04	
231	-1.50000e+00	5.177023e-04	
232	-1.55000e+00	5.208592e-04	
233	-1.60000e+00	5.238014e-04	
234	-1.65000e+00	5.265703e-04	
235	-1.70000e+00	5.291949e-04	
236	-1.75000e+00	5.316959e-04	
237	-1.80000e+00	5.340892e-04	
238	-1.85000e+00	5.363874e-04	
239	-1.90000e+00	5.386003e-04	
240	-1.95000e+00	5.407364e-04	
241	-2.00000e+00	5.428026e-04	
242	-2.05000e+00	5.448051e-04	
243	-2.10000e+00	5.467491e-04	
244	-2.15000e+00	5.486391e-04	
245	-2.20000e+00	5.504792e-04	
246	-2.25000e+00	5.522729e-04	
247	-2.30000e+00	5.540236e-04	
248	-2.35000e+00	5.557340e-04	
249	-2.40000e+00	5.574069e-04	
250	-2.45000e+00	5.590444e-04	
251	-2.50000e+00	5.606489e-04	
252	-2.55000e+00	5.622221e-04	
253	-2.60000e+00	5.637660e-04	
254	-2.65000e+00	5.652822e-04	
255	-2.70000e+00	5.667720e-04	
256	-2.75000e+00	5.682371e-04	
257	-2.80000e+00	5.696785e-04	
258	-2.85000e+00	5.710976e-04	
259	-2.90000e+00	5.724953e-04	
260	-2.95000e+00	5.738728e-04	
261	-3.00000e+00	5.752310e-04	
262	-3.05000e+00	5.765709e-04	
263	-3.10000e+00	5.778932e-04	
264	-3.15000e+00	5.791987e-04	
265	-3.20000e+00	5.804884e-04	
266	-3.25000e+00	5.817628e-04	
267	-3.30000e+00	5.830229e-04	
268	-0.000000e+00	0.000000e+00	
269	-5.00000e-02	4.130573e-05	
270	-1.00000e-01	8.126182e-05	
271	-1.50000e-01	1.199117e-04	
272	-2.00000e-01	1.572776e-04	
273	-2.50000e-01	1.933763e-04	
274	-3.00000e-01	2.282235e-04	
275	-3.50000e-01	2.618343e-04	
276	-4.00000e-01	2.942234e-04	
277	-4.50000e-01	3.254053e-04	
278	-5.00000e-01	3.553945e-04	
279	-5.50000e-01	3.842049e-04	
280	-6.00000e-01	4.118504e-04	
281	-6.50000e-01	4.383448e-04	
282	-7.00000e-01	4.637015e-04	
283	-7.50000e-01	4.879338e-04	
284	-8.00000e-01	5.110548e-04	
285	-8.50000e-01	5.330776e-04	
286	-9.00000e-01	5.540149e-04	

Index   v-sweep         i(vds)          
--------------------------------------------------------------------------------
287	-9.50000e-01	5.738794e-04	
288	-1.00000e+00	5.926838e-04	
289	-1.05000e+00	6.104405e-04	
290	-1.10000e+00	6.271620e-04	
291	-1.15000e+00	6.428611e-04	
292	-1.20000e+00	6.575504e-04	
293	-1.25000e+00	6.712432e-04	
294	-1.30000e+00	6.839534e-04	
295	-1.35000e+00	6.956960e-04	
296	-1.40000e+00	7.064879e-04	
297	-1.45000e+00	7.163496e-04	
298	-1.50000e+00	7.253066e-04	
299	-1.55000e+00	7.333932e-04	
300	-1.60000e+00	7.406571e-04	
301	-1.65000e+00	7.471635e-04	
302	-1.70000e+00	7.529974e-04	
303	-1.75000e+00	7.582586e-04	
304	-1.80000e+00	7.630494e-04	
305	-1.85000e+00	7.674615e-04	
306	-1.90000e+00	7.715682e-04	
307	-1.95000e+00	7.754248e-04	
308	-2.00000e+00	7.790720e-04	
309	-2.05000e+00	7.825402e-04	
310	-2.10000e+00	7.858523e-04	
311	-2.15000e+00	7.890266e-04	
312	-2.20000e+00	7.920776e-04	
313	-2.25000e+00	7.950175e-04	
314	-2.30000e+00	7.978563e-04	
315	-2.35000e+00	8.006030e-04	
316	-2.40000e+00	8.032649e-04	
317	-2.45000e+00	8.058488e-04	
318	-2.50000e+00	8.083604e-04	
319	-2.55000e+00	8.108050e-04	
320	-2.60000e+00	8.131871e-04	
321	-2.65000e+00	8.155109e-04	
322	-2.70000e+00	8.177801e-04	
323	-2.75000e+00	8.199982e-04	
324	-2.80000e+00	8.221682e-04	
325	-2.85000e+00	8.242930e-04	
326	-2.90000e+00	8.263750e-04	
327	-2.95000e+00	8.284168e-04	
328	-3.00000e+00	8.304203e-04	
329	-3.05000e+00	8.323877e-04	
330	-3.10000e+00	8.343207e-04	
331	-3.15000e+00	8.362212e-04	
332	-3.20000e+00	8.380906e-04	
333	-3.25000e+00	8.399305e-04	
334	-3.30000e+00	8.417423e-04	
335	-0.000000e+00	0.000000e+00	
336	-5.00000e-02	4.669029e-05	
337	-1.00000e-01	9.209660e-05	
338	-1.50000e-01	1.362604e-04	
339	-2.00000e-01	1.792017e-04	
340	-2.50000e-01	2.209357e-04	
341	-3.00000e-01	2.614759e-04	
342	-3.50000e-01	3.008358e-04	
343	-4.00000e-01	3.390281e-04	
344	-4.50000e-01	3.760657e-04	

Index   v-sweep         i(vds)          
--------------------------------------------------------------------------------
345	-5.00000e-01	4.119612e-04	
346	-5.50000e-01	4.467270e-04	
347	-6.00000e-01	4.803753e-04	
348	-6.50000e-01	5.129182e-04	
349	-7.00000e-01	5.443677e-04	
350	-7.50000e-01	5.747353e-04	
351	-8.00000e-01	6.040327e-04	
352	-8.50000e-01	6.322714e-04	
353	-9.00000e-01	6.594625e-04	
354	-9.50000e-01	6.856172e-04	
355	-1.00000e+00	7.107465e-04	
356	-1.05000e+00	7.348613e-04	
357	-1.10000e+00	7.579723e-04	
358	-1.15000e+00	7.800901e-04	
359	-1.20000e+00	8.012251e-04	
360	-1.25000e+00	8.213880e-04	
361	-1.30000e+00	8.405890e-04	
362	-1.35000e+00	8.588384e-04	
363	-1.40000e+00	8.761468e-04	
364	-1.45000e+00	8.925244e-04	
365	-1.50000e+00	9.079819e-04	
366	-1.55000e+00	9.225302e-04	
367	-1.60000e+00	9.361808e-04	
368	-1.65000e+00	9.489458e-04	
369	-1.70000e+00	9.608391e-04	
370	-1.75000e+00	9.718762e-04	
371	-1.80000e+00	9.820765e-04	
372	-1.85000e+00	9.914645e-04	
373	-1.90000e+00	1.000073e-03	
374	-1.95000e+00	1.007945e-03	
375	-2.00000e+00	1.015139e-03	
376	-2.05000e+00	1.021725e-03	
377	-2.10000e+00	1.027784e-03	
378	-2.15000e+00	1.033396e-03	
379	-2.20000e+00	1.038632e-03	
380	-2.25000e+00	1.043554e-03	
381	-2.30000e+00	1.048208e-03	
382	-2.35000e+00	1.052632e-03	
383	-2.40000e+00	1.056854e-03	
384	-2.45000e+00	1.060898e-03	
385	-2.50000e+00	1.064782e-03	
386	-2.55000e+00	1.068521e-03	
387	-2.60000e+00	1.072129e-03	
388	-2.65000e+00	1.075618e-03	
389	-2.70000e+00	1.078995e-03	
390	-2.75000e+00	1.082271e-03	
391	-2.80000e+00	1.085453e-03	
392	-2.85000e+00	1.088547e-03	
393	-2.90000e+00	1.091559e-03	
394	-2.95000e+00	1.094495e-03	
395	-3.00000e+00	1.097360e-03	
396	-3.05000e+00	1.100157e-03	
397	-3.10000e+00	1.102892e-03	
398	-3.15000e+00	1.105567e-03	
399	-3.20000e+00	1.108186e-03	
400	-3.25000e+00	1.110753e-03	
401	-3.30000e+00	1.113269e-03	
Note: No ".plot", ".print", or ".fourier" lines; no simulations run
