
Note: Compatibility modes selected: hs

Warning: m=xx on .subckt line will override multiplier m hierarchy!


Circuit: ***************************

Doing analysis at TEMP = 125.000000 and TNOM = 125.000000


No. of Data Rows : 402
                          ***************************
                          DC transfer characteristic  Mon Jan  9 13:57:29  2023
--------------------------------------------------------------------------------
Index   v-sweep         i(vds)          
--------------------------------------------------------------------------------
0	-0.000000e+00	0.000000e+00	
1	-5.00000e-02	8.874881e-07	
2	-1.00000e-01	1.552254e-06	
3	-1.50000e-01	2.008193e-06	
4	-2.00000e-01	2.276922e-06	
5	-2.50000e-01	2.409108e-06	
6	-3.00000e-01	2.475305e-06	
7	-3.50000e-01	2.519096e-06	
8	-4.00000e-01	2.555277e-06	
9	-4.50000e-01	2.588213e-06	
10	-5.00000e-01	2.619388e-06	
11	-5.50000e-01	2.649416e-06	
12	-6.00000e-01	2.678604e-06	
13	-6.50000e-01	2.707131e-06	
14	-7.00000e-01	2.735112e-06	
15	-7.50000e-01	2.762633e-06	
16	-8.00000e-01	2.789756e-06	
17	-8.50000e-01	2.816531e-06	
18	-9.00000e-01	2.843001e-06	
19	-9.50000e-01	2.869199e-06	
20	-1.00000e+00	2.895157e-06	
21	-1.05000e+00	2.920899e-06	
22	-1.10000e+00	2.946448e-06	
23	-1.15000e+00	2.971824e-06	
24	-1.20000e+00	2.997046e-06	
25	-1.25000e+00	3.022127e-06	
26	-1.30000e+00	3.047084e-06	
27	-1.35000e+00	3.071929e-06	
28	-1.40000e+00	3.096672e-06	
29	-1.45000e+00	3.121326e-06	
30	-1.50000e+00	3.145899e-06	
31	-1.55000e+00	3.170401e-06	
32	-1.60000e+00	3.194839e-06	
33	-1.65000e+00	3.219221e-06	
34	-1.70000e+00	3.243554e-06	
35	-1.75000e+00	3.267844e-06	
36	-1.80000e+00	3.292097e-06	
37	-1.85000e+00	3.316319e-06	
38	-1.90000e+00	3.340515e-06	
39	-1.95000e+00	3.364689e-06	
40	-2.00000e+00	3.388847e-06	
41	-2.05000e+00	3.412993e-06	
42	-2.10000e+00	3.437130e-06	
43	-2.15000e+00	3.461264e-06	
44	-2.20000e+00	3.485399e-06	
45	-2.25000e+00	3.509538e-06	
46	-2.30000e+00	3.533687e-06	
47	-2.35000e+00	3.557851e-06	
48	-2.40000e+00	3.582035e-06	
49	-2.45000e+00	3.606244e-06	
50	-2.50000e+00	3.630485e-06	
51	-2.55000e+00	3.654767e-06	
52	-2.60000e+00	3.679096e-06	
53	-2.65000e+00	3.703483e-06	
54	-2.70000e+00	3.727940e-06	

Index   v-sweep         i(vds)          
--------------------------------------------------------------------------------
55	-2.75000e+00	3.752478e-06	
56	-2.80000e+00	3.777112e-06	
57	-2.85000e+00	3.801859e-06	
58	-2.90000e+00	3.826739e-06	
59	-2.95000e+00	3.851771e-06	
60	-3.00000e+00	3.876981e-06	
61	-3.05000e+00	3.902397e-06	
62	-3.10000e+00	3.928048e-06	
63	-3.15000e+00	3.953968e-06	
64	-3.20000e+00	3.980197e-06	
65	-3.25000e+00	4.006776e-06	
66	-3.30000e+00	4.033751e-06	
67	-0.000000e+00	0.000000e+00	
68	-5.00000e-02	3.153860e-06	
69	-1.00000e-01	6.039590e-06	
70	-1.50000e-01	8.666703e-06	
71	-2.00000e-01	1.104046e-05	
72	-2.50000e-01	1.316516e-05	
73	-3.00000e-01	1.504491e-05	
74	-3.50000e-01	1.668397e-05	
75	-4.00000e-01	1.808702e-05	
76	-4.50000e-01	1.925972e-05	
77	-5.00000e-01	2.020994e-05	
78	-5.50000e-01	2.095046e-05	
79	-6.00000e-01	2.150385e-05	
80	-6.50000e-01	2.190730e-05	
81	-7.00000e-01	2.220826e-05	
82	-7.50000e-01	2.244879e-05	
83	-8.00000e-01	2.265560e-05	
84	-8.50000e-01	2.284257e-05	
85	-9.00000e-01	2.301659e-05	
86	-9.50000e-01	2.318123e-05	
87	-1.00000e+00	2.333852e-05	
88	-1.05000e+00	2.348976e-05	
89	-1.10000e+00	2.363582e-05	
90	-1.15000e+00	2.377735e-05	
91	-1.20000e+00	2.391487e-05	
92	-1.25000e+00	2.404878e-05	
93	-1.30000e+00	2.417941e-05	
94	-1.35000e+00	2.430706e-05	
95	-1.40000e+00	2.443197e-05	
96	-1.45000e+00	2.455436e-05	
97	-1.50000e+00	2.467442e-05	
98	-1.55000e+00	2.479233e-05	
99	-1.60000e+00	2.490822e-05	
100	-1.65000e+00	2.502224e-05	
101	-1.70000e+00	2.513451e-05	
102	-1.75000e+00	2.524513e-05	
103	-1.80000e+00	2.535422e-05	
104	-1.85000e+00	2.546187e-05	
105	-1.90000e+00	2.556815e-05	
106	-1.95000e+00	2.567315e-05	
107	-2.00000e+00	2.577694e-05	
108	-2.05000e+00	2.587957e-05	
109	-2.10000e+00	2.598113e-05	
110	-2.15000e+00	2.608165e-05	
111	-2.20000e+00	2.618120e-05	
112	-2.25000e+00	2.627983e-05	

Index   v-sweep         i(vds)          
--------------------------------------------------------------------------------
113	-2.30000e+00	2.637757e-05	
114	-2.35000e+00	2.647448e-05	
115	-2.40000e+00	2.657059e-05	
116	-2.45000e+00	2.666595e-05	
117	-2.50000e+00	2.676058e-05	
118	-2.55000e+00	2.685454e-05	
119	-2.60000e+00	2.694786e-05	
120	-2.65000e+00	2.704057e-05	
121	-2.70000e+00	2.713271e-05	
122	-2.75000e+00	2.722433e-05	
123	-2.80000e+00	2.731546e-05	
124	-2.85000e+00	2.740616e-05	
125	-2.90000e+00	2.749647e-05	
126	-2.95000e+00	2.758645e-05	
127	-3.00000e+00	2.767617e-05	
128	-3.05000e+00	2.776569e-05	
129	-3.10000e+00	2.785510e-05	
130	-3.15000e+00	2.794449e-05	
131	-3.20000e+00	2.803397e-05	
132	-3.25000e+00	2.812365e-05	
133	-3.30000e+00	2.821366e-05	
134	-0.000000e+00	0.000000e+00	
135	-5.00000e-02	5.012989e-06	
136	-1.00000e-01	9.759484e-06	
137	-1.50000e-01	1.424851e-05	
138	-2.00000e-01	1.848480e-05	
139	-2.50000e-01	2.247208e-05	
140	-3.00000e-01	2.621378e-05	
141	-3.50000e-01	2.971321e-05	
142	-4.00000e-01	3.297367e-05	
143	-4.50000e-01	3.599840e-05	
144	-5.00000e-01	3.879061e-05	
145	-5.50000e-01	4.135356e-05	
146	-6.00000e-01	4.369050e-05	
147	-6.50000e-01	4.580483e-05	
148	-7.00000e-01	4.770016e-05	
149	-7.50000e-01	4.938049e-05	
150	-8.00000e-01	5.085067e-05	
151	-8.50000e-01	5.211707e-05	
152	-9.00000e-01	5.318894e-05	
153	-9.50000e-01	5.408062e-05	
154	-1.00000e+00	5.481407e-05	
155	-1.05000e+00	5.541938e-05	
156	-1.10000e+00	5.593022e-05	
157	-1.15000e+00	5.637623e-05	
158	-1.20000e+00	5.677852e-05	
159	-1.25000e+00	5.715028e-05	
160	-1.30000e+00	5.749938e-05	
161	-1.35000e+00	5.783067e-05	
162	-1.40000e+00	5.814726e-05	
163	-1.45000e+00	5.845129e-05	
164	-1.50000e+00	5.874436e-05	
165	-1.55000e+00	5.902767e-05	
166	-1.60000e+00	5.930221e-05	
167	-1.65000e+00	5.956879e-05	
168	-1.70000e+00	5.982810e-05	
169	-1.75000e+00	6.008071e-05	
170	-1.80000e+00	6.032715e-05	

Index   v-sweep         i(vds)          
--------------------------------------------------------------------------------
171	-1.85000e+00	6.056787e-05	
172	-1.90000e+00	6.080326e-05	
173	-1.95000e+00	6.103370e-05	
174	-2.00000e+00	6.125950e-05	
175	-2.05000e+00	6.148095e-05	
176	-2.10000e+00	6.169831e-05	
177	-2.15000e+00	6.191184e-05	
178	-2.20000e+00	6.212175e-05	
179	-2.25000e+00	6.232823e-05	
180	-2.30000e+00	6.253149e-05	
181	-2.35000e+00	6.273168e-05	
182	-2.40000e+00	6.292897e-05	
183	-2.45000e+00	6.312350e-05	
184	-2.50000e+00	6.331541e-05	
185	-2.55000e+00	6.350483e-05	
186	-2.60000e+00	6.369187e-05	
187	-2.65000e+00	6.387665e-05	
188	-2.70000e+00	6.405926e-05	
189	-2.75000e+00	6.423981e-05	
190	-2.80000e+00	6.441840e-05	
191	-2.85000e+00	6.459511e-05	
192	-2.90000e+00	6.477002e-05	
193	-2.95000e+00	6.494324e-05	
194	-3.00000e+00	6.511484e-05	
195	-3.05000e+00	6.528491e-05	
196	-3.10000e+00	6.545354e-05	
197	-3.15000e+00	6.562084e-05	
198	-3.20000e+00	6.578690e-05	
199	-3.25000e+00	6.595184e-05	
200	-3.30000e+00	6.611578e-05	
201	-0.000000e+00	0.000000e+00	
202	-5.00000e-02	6.545297e-06	
203	-1.00000e-01	1.283214e-05	
204	-1.50000e-01	1.886913e-05	
205	-2.00000e-01	2.466059e-05	
206	-2.50000e-01	3.020983e-05	
207	-3.00000e-01	3.551988e-05	
208	-3.50000e-01	4.059366e-05	
209	-4.00000e-01	4.543405e-05	
210	-4.50000e-01	5.004387e-05	
211	-5.00000e-01	5.442592e-05	
212	-5.50000e-01	5.858293e-05	
213	-6.00000e-01	6.251763e-05	
214	-6.50000e-01	6.623269e-05	
215	-7.00000e-01	6.973077e-05	
216	-7.50000e-01	7.301451e-05	
217	-8.00000e-01	7.608654e-05	
218	-8.50000e-01	7.894950e-05	
219	-9.00000e-01	8.160605e-05	
220	-9.50000e-01	8.405894e-05	
221	-1.00000e+00	8.631104e-05	
222	-1.05000e+00	8.836545e-05	
223	-1.10000e+00	9.022570e-05	
224	-1.15000e+00	9.189603e-05	
225	-1.20000e+00	9.338195e-05	
226	-1.25000e+00	9.469110e-05	
227	-1.30000e+00	9.583456e-05	
228	-1.35000e+00	9.682828e-05	

Index   v-sweep         i(vds)          
--------------------------------------------------------------------------------
229	-1.40000e+00	9.769360e-05	
230	-1.45000e+00	9.845542e-05	
231	-1.50000e+00	9.913816e-05	
232	-1.55000e+00	9.976195e-05	
233	-1.60000e+00	1.003414e-04	
234	-1.65000e+00	1.008864e-04	
235	-1.70000e+00	1.014036e-04	
236	-1.75000e+00	1.018974e-04	
237	-1.80000e+00	1.023712e-04	
238	-1.85000e+00	1.028272e-04	
239	-1.90000e+00	1.032675e-04	
240	-1.95000e+00	1.036935e-04	
241	-2.00000e+00	1.041065e-04	
242	-2.05000e+00	1.045076e-04	
243	-2.10000e+00	1.048977e-04	
244	-2.15000e+00	1.052777e-04	
245	-2.20000e+00	1.056483e-04	
246	-2.25000e+00	1.060100e-04	
247	-2.30000e+00	1.063635e-04	
248	-2.35000e+00	1.067093e-04	
249	-2.40000e+00	1.070479e-04	
250	-2.45000e+00	1.073797e-04	
251	-2.50000e+00	1.077051e-04	
252	-2.55000e+00	1.080244e-04	
253	-2.60000e+00	1.083380e-04	
254	-2.65000e+00	1.086461e-04	
255	-2.70000e+00	1.089491e-04	
256	-2.75000e+00	1.092472e-04	
257	-2.80000e+00	1.095407e-04	
258	-2.85000e+00	1.098297e-04	
259	-2.90000e+00	1.101145e-04	
260	-2.95000e+00	1.103953e-04	
261	-3.00000e+00	1.106722e-04	
262	-3.05000e+00	1.109455e-04	
263	-3.10000e+00	1.112152e-04	
264	-3.15000e+00	1.114816e-04	
265	-3.20000e+00	1.117448e-04	
266	-3.25000e+00	1.120048e-04	
267	-3.30000e+00	1.122620e-04	
268	-0.000000e+00	0.000000e+00	
269	-5.00000e-02	7.840383e-06	
270	-1.00000e-01	1.543162e-05	
271	-1.50000e-01	2.278196e-05	
272	-2.00000e-01	2.989538e-05	
273	-2.50000e-01	3.677486e-05	
274	-3.00000e-01	4.342310e-05	
275	-3.50000e-01	4.984270e-05	
276	-4.00000e-01	5.603622e-05	
277	-4.50000e-01	6.200618e-05	
278	-5.00000e-01	6.775506e-05	
279	-5.50000e-01	7.328531e-05	
280	-6.00000e-01	7.859934e-05	
281	-6.50000e-01	8.369952e-05	
282	-7.00000e-01	8.858821e-05	
283	-7.50000e-01	9.326772e-05	
284	-8.00000e-01	9.774034e-05	
285	-8.50000e-01	1.020083e-04	
286	-9.00000e-01	1.060739e-04	

Index   v-sweep         i(vds)          
--------------------------------------------------------------------------------
287	-9.50000e-01	1.099394e-04	
288	-1.00000e+00	1.136068e-04	
289	-1.05000e+00	1.170785e-04	
290	-1.10000e+00	1.203566e-04	
291	-1.15000e+00	1.234432e-04	
292	-1.20000e+00	1.263407e-04	
293	-1.25000e+00	1.290513e-04	
294	-1.30000e+00	1.315773e-04	
295	-1.35000e+00	1.339212e-04	
296	-1.40000e+00	1.360859e-04	
297	-1.45000e+00	1.380744e-04	
298	-1.50000e+00	1.398907e-04	
299	-1.55000e+00	1.415399e-04	
300	-1.60000e+00	1.430286e-04	
301	-1.65000e+00	1.443663e-04	
302	-1.70000e+00	1.455659e-04	
303	-1.75000e+00	1.466442e-04	
304	-1.80000e+00	1.476204e-04	
305	-1.85000e+00	1.485139e-04	
306	-1.90000e+00	1.493416e-04	
307	-1.95000e+00	1.501170e-04	
308	-2.00000e+00	1.508499e-04	
309	-2.05000e+00	1.515473e-04	
310	-2.10000e+00	1.522143e-04	
311	-2.15000e+00	1.528548e-04	
312	-2.20000e+00	1.534717e-04	
313	-2.25000e+00	1.540674e-04	
314	-2.30000e+00	1.546439e-04	
315	-2.35000e+00	1.552027e-04	
316	-2.40000e+00	1.557453e-04	
317	-2.45000e+00	1.562728e-04	
318	-2.50000e+00	1.567864e-04	
319	-2.55000e+00	1.572870e-04	
320	-2.60000e+00	1.577755e-04	
321	-2.65000e+00	1.582526e-04	
322	-2.70000e+00	1.587190e-04	
323	-2.75000e+00	1.591754e-04	
324	-2.80000e+00	1.596223e-04	
325	-2.85000e+00	1.600602e-04	
326	-2.90000e+00	1.604896e-04	
327	-2.95000e+00	1.609111e-04	
328	-3.00000e+00	1.613249e-04	
329	-3.05000e+00	1.617315e-04	
330	-3.10000e+00	1.621311e-04	
331	-3.15000e+00	1.625243e-04	
332	-3.20000e+00	1.629111e-04	
333	-3.25000e+00	1.632920e-04	
334	-3.30000e+00	1.636672e-04	
335	-0.000000e+00	0.000000e+00	
336	-5.00000e-02	8.959483e-06	
337	-1.00000e-01	1.767901e-05	
338	-1.50000e-01	2.616652e-05	
339	-2.00000e-01	3.442574e-05	
340	-2.50000e-01	4.245935e-05	
341	-3.00000e-01	5.026978e-05	
342	-3.50000e-01	5.785937e-05	
343	-4.00000e-01	6.523042e-05	
344	-4.50000e-01	7.238520e-05	

Index   v-sweep         i(vds)          
--------------------------------------------------------------------------------
345	-5.00000e-01	7.932594e-05	
346	-5.50000e-01	8.605485e-05	
347	-6.00000e-01	9.257409e-05	
348	-6.50000e-01	9.888581e-05	
349	-7.00000e-01	1.049921e-04	
350	-7.50000e-01	1.108951e-04	
351	-8.00000e-01	1.165969e-04	
352	-8.50000e-01	1.220994e-04	
353	-9.00000e-01	1.274048e-04	
354	-9.50000e-01	1.325149e-04	
355	-1.00000e+00	1.374318e-04	
356	-1.05000e+00	1.421573e-04	
357	-1.10000e+00	1.466935e-04	
358	-1.15000e+00	1.510421e-04	
359	-1.20000e+00	1.552052e-04	
360	-1.25000e+00	1.591845e-04	
361	-1.30000e+00	1.629819e-04	
362	-1.35000e+00	1.665993e-04	
363	-1.40000e+00	1.700385e-04	
364	-1.45000e+00	1.733013e-04	
365	-1.50000e+00	1.763897e-04	
366	-1.55000e+00	1.793055e-04	
367	-1.60000e+00	1.820508e-04	
368	-1.65000e+00	1.846276e-04	
369	-1.70000e+00	1.870382e-04	
370	-1.75000e+00	1.892851e-04	
371	-1.80000e+00	1.913714e-04	
372	-1.85000e+00	1.933007e-04	
373	-1.90000e+00	1.950777e-04	
374	-1.95000e+00	1.967087e-04	
375	-2.00000e+00	1.982022e-04	
376	-2.05000e+00	1.995694e-04	
377	-2.10000e+00	2.008241e-04	
378	-2.15000e+00	2.019818e-04	
379	-2.20000e+00	2.030580e-04	
380	-2.25000e+00	2.040665e-04	
381	-2.30000e+00	2.050189e-04	
382	-2.35000e+00	2.059240e-04	
383	-2.40000e+00	2.067885e-04	
384	-2.45000e+00	2.076175e-04	
385	-2.50000e+00	2.084150e-04	
386	-2.55000e+00	2.091842e-04	
387	-2.60000e+00	2.099278e-04	
388	-2.65000e+00	2.106478e-04	
389	-2.70000e+00	2.113463e-04	
390	-2.75000e+00	2.120247e-04	
391	-2.80000e+00	2.126846e-04	
392	-2.85000e+00	2.133272e-04	
393	-2.90000e+00	2.139536e-04	
394	-2.95000e+00	2.145648e-04	
395	-3.00000e+00	2.151618e-04	
396	-3.05000e+00	2.157454e-04	
397	-3.10000e+00	2.163164e-04	
398	-3.15000e+00	2.168754e-04	
399	-3.20000e+00	2.174231e-04	
400	-3.25000e+00	2.179601e-04	
401	-3.30000e+00	2.184869e-04	
Note: No ".plot", ".print", or ".fourier" lines; no simulations run
