
Note: Compatibility modes selected: hs

Warning: m=xx on .subckt line will override multiplier m hierarchy!


Circuit: ***************************

Doing analysis at TEMP = -40.000000 and TNOM = -40.000000


No. of Data Rows : 402
                          ***************************
                          DC transfer characteristic  Mon Jan  9 13:57:29  2023
--------------------------------------------------------------------------------
Index   v-sweep         i(vds)          
--------------------------------------------------------------------------------
0	-0.000000e+00	0.000000e+00	
1	-5.00000e-02	1.259094e-07	
2	-1.00000e-01	1.626434e-07	
3	-1.50000e-01	1.723849e-07	
4	-2.00000e-01	1.781198e-07	
5	-2.50000e-01	1.830353e-07	
6	-3.00000e-01	1.876739e-07	
7	-3.50000e-01	1.921837e-07	
8	-4.00000e-01	1.966220e-07	
9	-4.50000e-01	2.010175e-07	
10	-5.00000e-01	2.053872e-07	
11	-5.50000e-01	2.097426e-07	
12	-6.00000e-01	2.140923e-07	
13	-6.50000e-01	2.184426e-07	
14	-7.00000e-01	2.227990e-07	
15	-7.50000e-01	2.271656e-07	
16	-8.00000e-01	2.315463e-07	
17	-8.50000e-01	2.359440e-07	
18	-9.00000e-01	2.403616e-07	
19	-9.50000e-01	2.448015e-07	
20	-1.00000e+00	2.492657e-07	
21	-1.05000e+00	2.537562e-07	
22	-1.10000e+00	2.582746e-07	
23	-1.15000e+00	2.628225e-07	
24	-1.20000e+00	2.674013e-07	
25	-1.25000e+00	2.720123e-07	
26	-1.30000e+00	2.766565e-07	
27	-1.35000e+00	2.813351e-07	
28	-1.40000e+00	2.860491e-07	
29	-1.45000e+00	2.907994e-07	
30	-1.50000e+00	2.955869e-07	
31	-1.55000e+00	3.004123e-07	
32	-1.60000e+00	3.052765e-07	
33	-1.65000e+00	3.101801e-07	
34	-1.70000e+00	3.151238e-07	
35	-1.75000e+00	3.201082e-07	
36	-1.80000e+00	3.251340e-07	
37	-1.85000e+00	3.302018e-07	
38	-1.90000e+00	3.353121e-07	
39	-1.95000e+00	3.404655e-07	
40	-2.00000e+00	3.456626e-07	
41	-2.05000e+00	3.509040e-07	
42	-2.10000e+00	3.561901e-07	
43	-2.15000e+00	3.615218e-07	
44	-2.20000e+00	3.668995e-07	
45	-2.25000e+00	3.723240e-07	
46	-2.30000e+00	3.777961e-07	
47	-2.35000e+00	3.833167e-07	
48	-2.40000e+00	3.888867e-07	
49	-2.45000e+00	3.945073e-07	
50	-2.50000e+00	4.001797e-07	
51	-2.55000e+00	4.059053e-07	
52	-2.60000e+00	4.116859e-07	
53	-2.65000e+00	4.175233e-07	
54	-2.70000e+00	4.234196e-07	

Index   v-sweep         i(vds)          
--------------------------------------------------------------------------------
55	-2.75000e+00	4.293775e-07	
56	-2.80000e+00	4.353996e-07	
57	-2.85000e+00	4.414893e-07	
58	-2.90000e+00	4.476503e-07	
59	-2.95000e+00	4.538865e-07	
60	-3.00000e+00	4.602028e-07	
61	-3.05000e+00	4.666042e-07	
62	-3.10000e+00	4.730967e-07	
63	-3.15000e+00	4.796866e-07	
64	-3.20000e+00	4.863812e-07	
65	-3.25000e+00	4.931884e-07	
66	-3.30000e+00	5.001169e-07	
67	-0.000000e+00	0.000000e+00	
68	-5.00000e-02	1.987470e-06	
69	-1.00000e-01	3.749450e-06	
70	-1.50000e-01	5.291264e-06	
71	-2.00000e-01	6.618261e-06	
72	-2.50000e-01	7.736013e-06	
73	-3.00000e-01	8.650791e-06	
74	-3.50000e-01	9.370750e-06	
75	-4.00000e-01	9.908898e-06	
76	-4.50000e-01	1.028913e-05	
77	-5.00000e-01	1.055133e-05	
78	-5.50000e-01	1.074199e-05	
79	-6.00000e-01	1.089521e-05	
80	-6.50000e-01	1.102854e-05	
81	-7.00000e-01	1.114990e-05	
82	-7.50000e-01	1.126300e-05	
83	-8.00000e-01	1.136985e-05	
84	-8.50000e-01	1.147164e-05	
85	-9.00000e-01	1.156919e-05	
86	-9.50000e-01	1.166308e-05	
87	-1.00000e+00	1.175377e-05	
88	-1.05000e+00	1.184164e-05	
89	-1.10000e+00	1.192697e-05	
90	-1.15000e+00	1.201002e-05	
91	-1.20000e+00	1.209100e-05	
92	-1.25000e+00	1.217010e-05	
93	-1.30000e+00	1.224749e-05	
94	-1.35000e+00	1.232329e-05	
95	-1.40000e+00	1.239764e-05	
96	-1.45000e+00	1.247064e-05	
97	-1.50000e+00	1.254241e-05	
98	-1.55000e+00	1.261301e-05	
99	-1.60000e+00	1.268254e-05	
100	-1.65000e+00	1.275107e-05	
101	-1.70000e+00	1.281866e-05	
102	-1.75000e+00	1.288537e-05	
103	-1.80000e+00	1.295126e-05	
104	-1.85000e+00	1.301637e-05	
105	-1.90000e+00	1.308076e-05	
106	-1.95000e+00	1.314446e-05	
107	-2.00000e+00	1.320752e-05	
108	-2.05000e+00	1.326996e-05	
109	-2.10000e+00	1.333183e-05	
110	-2.15000e+00	1.339315e-05	
111	-2.20000e+00	1.345395e-05	
112	-2.25000e+00	1.351427e-05	

Index   v-sweep         i(vds)          
--------------------------------------------------------------------------------
113	-2.30000e+00	1.357412e-05	
114	-2.35000e+00	1.363354e-05	
115	-2.40000e+00	1.369254e-05	
116	-2.45000e+00	1.375115e-05	
117	-2.50000e+00	1.380940e-05	
118	-2.55000e+00	1.386731e-05	
119	-2.60000e+00	1.392490e-05	
120	-2.65000e+00	1.398220e-05	
121	-2.70000e+00	1.403924e-05	
122	-2.75000e+00	1.409604e-05	
123	-2.80000e+00	1.415265e-05	
124	-2.85000e+00	1.420910e-05	
125	-2.90000e+00	1.426542e-05	
126	-2.95000e+00	1.432167e-05	
127	-3.00000e+00	1.437789e-05	
128	-3.05000e+00	1.443415e-05	
129	-3.10000e+00	1.449050e-05	
130	-3.15000e+00	1.454703e-05	
131	-3.20000e+00	1.460380e-05	
132	-3.25000e+00	1.466093e-05	
133	-3.30000e+00	1.471849e-05	
134	-0.000000e+00	0.000000e+00	
135	-5.00000e-02	3.536839e-06	
136	-1.00000e-01	6.847977e-06	
137	-1.50000e-01	9.937923e-06	
138	-2.00000e-01	1.281108e-05	
139	-2.50000e-01	1.547174e-05	
140	-3.00000e-01	1.792413e-05	
141	-3.50000e-01	2.017237e-05	
142	-4.00000e-01	2.222054e-05	
143	-4.50000e-01	2.407270e-05	
144	-5.00000e-01	2.573297e-05	
145	-5.50000e-01	2.720561e-05	
146	-6.00000e-01	2.849525e-05	
147	-6.50000e-01	2.960737e-05	
148	-7.00000e-01	3.054912e-05	
149	-7.50000e-01	3.133108e-05	
150	-8.00000e-01	3.196980e-05	
151	-8.50000e-01	3.248976e-05	
152	-9.00000e-01	3.292089e-05	
153	-9.50000e-01	3.329103e-05	
154	-1.00000e+00	3.362029e-05	
155	-1.05000e+00	3.392105e-05	
156	-1.10000e+00	3.420058e-05	
157	-1.15000e+00	3.446333e-05	
158	-1.20000e+00	3.471223e-05	
159	-1.25000e+00	3.494933e-05	
160	-1.30000e+00	3.517617e-05	
161	-1.35000e+00	3.539396e-05	
162	-1.40000e+00	3.560368e-05	
163	-1.45000e+00	3.580614e-05	
164	-1.50000e+00	3.600203e-05	
165	-1.55000e+00	3.619192e-05	
166	-1.60000e+00	3.637634e-05	
167	-1.65000e+00	3.655573e-05	
168	-1.70000e+00	3.673048e-05	
169	-1.75000e+00	3.690093e-05	
170	-1.80000e+00	3.706740e-05	

Index   v-sweep         i(vds)          
--------------------------------------------------------------------------------
171	-1.85000e+00	3.723016e-05	
172	-1.90000e+00	3.738946e-05	
173	-1.95000e+00	3.754552e-05	
174	-2.00000e+00	3.769856e-05	
175	-2.05000e+00	3.784876e-05	
176	-2.10000e+00	3.799628e-05	
177	-2.15000e+00	3.814128e-05	
178	-2.20000e+00	3.828391e-05	
179	-2.25000e+00	3.842429e-05	
180	-2.30000e+00	3.856254e-05	
181	-2.35000e+00	3.869878e-05	
182	-2.40000e+00	3.883310e-05	
183	-2.45000e+00	3.896561e-05	
184	-2.50000e+00	3.909640e-05	
185	-2.55000e+00	3.922554e-05	
186	-2.60000e+00	3.935312e-05	
187	-2.65000e+00	3.947922e-05	
188	-2.70000e+00	3.960390e-05	
189	-2.75000e+00	3.972723e-05	
190	-2.80000e+00	3.984929e-05	
191	-2.85000e+00	3.997014e-05	
192	-2.90000e+00	4.008985e-05	
193	-2.95000e+00	4.020849e-05	
194	-3.00000e+00	4.032614e-05	
195	-3.05000e+00	4.044286e-05	
196	-3.10000e+00	4.055875e-05	
197	-3.15000e+00	4.067390e-05	
198	-3.20000e+00	4.078841e-05	
199	-3.25000e+00	4.090239e-05	
200	-3.30000e+00	4.101596e-05	
201	-0.000000e+00	0.000000e+00	
202	-5.00000e-02	4.740775e-06	
203	-1.00000e-01	9.264638e-06	
204	-1.50000e-01	1.357543e-05	
205	-2.00000e-01	1.767690e-05	
206	-2.50000e-01	2.157272e-05	
207	-3.00000e-01	2.526648e-05	
208	-3.50000e-01	2.876168e-05	
209	-4.00000e-01	3.206176e-05	
210	-4.50000e-01	3.517008e-05	
211	-5.00000e-01	3.808993e-05	
212	-5.50000e-01	4.082457e-05	
213	-6.00000e-01	4.337716e-05	
214	-6.50000e-01	4.575087e-05	
215	-7.00000e-01	4.794881e-05	
216	-7.50000e-01	4.997413e-05	
217	-8.00000e-01	5.183000e-05	
218	-8.50000e-01	5.351974e-05	
219	-9.00000e-01	5.504692e-05	
220	-9.50000e-01	5.641564e-05	
221	-1.00000e+00	5.763093e-05	
222	-1.05000e+00	5.869955e-05	
223	-1.10000e+00	5.963119e-05	
224	-1.15000e+00	6.043977e-05	
225	-1.20000e+00	6.114384e-05	
226	-1.25000e+00	6.176454e-05	
227	-1.30000e+00	6.232162e-05	
228	-1.35000e+00	6.283062e-05	

Index   v-sweep         i(vds)          
--------------------------------------------------------------------------------
229	-1.40000e+00	6.330244e-05	
230	-1.45000e+00	6.374445e-05	
231	-1.50000e+00	6.416175e-05	
232	-1.55000e+00	6.455797e-05	
233	-1.60000e+00	6.493585e-05	
234	-1.65000e+00	6.529755e-05	
235	-1.70000e+00	6.564481e-05	
236	-1.75000e+00	6.597906e-05	
237	-1.80000e+00	6.630152e-05	
238	-1.85000e+00	6.661323e-05	
239	-1.90000e+00	6.691510e-05	
240	-1.95000e+00	6.720792e-05	
241	-2.00000e+00	6.749238e-05	
242	-2.05000e+00	6.776909e-05	
243	-2.10000e+00	6.803862e-05	
244	-2.15000e+00	6.830144e-05	
245	-2.20000e+00	6.855801e-05	
246	-2.25000e+00	6.880873e-05	
247	-2.30000e+00	6.905396e-05	
248	-2.35000e+00	6.929403e-05	
249	-2.40000e+00	6.952924e-05	
250	-2.45000e+00	6.975988e-05	
251	-2.50000e+00	6.998618e-05	
252	-2.55000e+00	7.020840e-05	
253	-2.60000e+00	7.042673e-05	
254	-2.65000e+00	7.064139e-05	
255	-2.70000e+00	7.085255e-05	
256	-2.75000e+00	7.106039e-05	
257	-2.80000e+00	7.126507e-05	
258	-2.85000e+00	7.146673e-05	
259	-2.90000e+00	7.166553e-05	
260	-2.95000e+00	7.186158e-05	
261	-3.00000e+00	7.205503e-05	
262	-3.05000e+00	7.224598e-05	
263	-3.10000e+00	7.243457e-05	
264	-3.15000e+00	7.262091e-05	
265	-3.20000e+00	7.280512e-05	
266	-3.25000e+00	7.298731e-05	
267	-3.30000e+00	7.316760e-05	
268	-0.000000e+00	0.000000e+00	
269	-5.00000e-02	5.687764e-06	
270	-1.00000e-01	1.117000e-05	
271	-1.50000e-01	1.644998e-05	
272	-2.00000e-01	2.153089e-05	
273	-2.50000e-01	2.641589e-05	
274	-3.00000e-01	3.110803e-05	
275	-3.50000e-01	3.561033e-05	
276	-4.00000e-01	3.992573e-05	
277	-4.50000e-01	4.405712e-05	
278	-5.00000e-01	4.800733e-05	
279	-5.50000e-01	5.177914e-05	
280	-6.00000e-01	5.537526e-05	
281	-6.50000e-01	5.879839e-05	
282	-7.00000e-01	6.205113e-05	
283	-7.50000e-01	6.513607e-05	
284	-8.00000e-01	6.805576e-05	
285	-8.50000e-01	7.081269e-05	
286	-9.00000e-01	7.340935e-05	

Index   v-sweep         i(vds)          
--------------------------------------------------------------------------------
287	-9.50000e-01	7.584819e-05	
288	-1.00000e+00	7.813167e-05	
289	-1.05000e+00	8.026226e-05	
290	-1.10000e+00	8.224249e-05	
291	-1.15000e+00	8.407501e-05	
292	-1.20000e+00	8.576266e-05	
293	-1.25000e+00	8.730865e-05	
294	-1.30000e+00	8.871685e-05	
295	-1.35000e+00	8.999220e-05	
296	-1.40000e+00	9.114140e-05	
297	-1.45000e+00	9.217371e-05	
298	-1.50000e+00	9.310141e-05	
299	-1.55000e+00	9.393934e-05	
300	-1.60000e+00	9.470307e-05	
301	-1.65000e+00	9.540668e-05	
302	-1.70000e+00	9.606148e-05	
303	-1.75000e+00	9.667599e-05	
304	-1.80000e+00	9.725652e-05	
305	-1.85000e+00	9.780777e-05	
306	-1.90000e+00	9.833339e-05	
307	-1.95000e+00	9.883627e-05	
308	-2.00000e+00	9.931878e-05	
309	-2.05000e+00	9.978288e-05	
310	-2.10000e+00	1.002303e-04	
311	-2.15000e+00	1.006623e-04	
312	-2.20000e+00	1.010804e-04	
313	-2.25000e+00	1.014855e-04	
314	-2.30000e+00	1.018787e-04	
315	-2.35000e+00	1.022607e-04	
316	-2.40000e+00	1.026325e-04	
317	-2.45000e+00	1.029945e-04	
318	-2.50000e+00	1.033476e-04	
319	-2.55000e+00	1.036922e-04	
320	-2.60000e+00	1.040289e-04	
321	-2.65000e+00	1.043582e-04	
322	-2.70000e+00	1.046804e-04	
323	-2.75000e+00	1.049960e-04	
324	-2.80000e+00	1.053052e-04	
325	-2.85000e+00	1.056086e-04	
326	-2.90000e+00	1.059063e-04	
327	-2.95000e+00	1.061986e-04	
328	-3.00000e+00	1.064858e-04	
329	-3.05000e+00	1.067682e-04	
330	-3.10000e+00	1.070460e-04	
331	-3.15000e+00	1.073194e-04	
332	-3.20000e+00	1.075886e-04	
333	-3.25000e+00	1.078537e-04	
334	-3.30000e+00	1.081150e-04	
335	-0.000000e+00	0.000000e+00	
336	-5.00000e-02	6.441048e-06	
337	-1.00000e-01	1.268857e-05	
338	-1.50000e-01	1.874536e-05	
339	-2.00000e-01	2.461414e-05	
340	-2.50000e-01	3.029762e-05	
341	-3.00000e-01	3.579843e-05	
342	-3.50000e-01	4.111914e-05	
343	-4.00000e-01	4.626231e-05	
344	-4.50000e-01	5.123041e-05	

Index   v-sweep         i(vds)          
--------------------------------------------------------------------------------
345	-5.00000e-01	5.602591e-05	
346	-5.50000e-01	6.065119e-05	
347	-6.00000e-01	6.510862e-05	
348	-6.50000e-01	6.940052e-05	
349	-7.00000e-01	7.352915e-05	
350	-7.50000e-01	7.749675e-05	
351	-8.00000e-01	8.130553e-05	
352	-8.50000e-01	8.495764e-05	
353	-9.00000e-01	8.845521e-05	
354	-9.50000e-01	9.180032e-05	
355	-1.00000e+00	9.499505e-05	
356	-1.05000e+00	9.804142e-05	
357	-1.10000e+00	1.009414e-04	
358	-1.15000e+00	1.036971e-04	
359	-1.20000e+00	1.063103e-04	
360	-1.25000e+00	1.087832e-04	
361	-1.30000e+00	1.111176e-04	
362	-1.35000e+00	1.133155e-04	
363	-1.40000e+00	1.153790e-04	
364	-1.45000e+00	1.173102e-04	
365	-1.50000e+00	1.191115e-04	
366	-1.55000e+00	1.207855e-04	
367	-1.60000e+00	1.223352e-04	
368	-1.65000e+00	1.237646e-04	
369	-1.70000e+00	1.250785e-04	
370	-1.75000e+00	1.262837e-04	
371	-1.80000e+00	1.273890e-04	
372	-1.85000e+00	1.284051e-04	
373	-1.90000e+00	1.293438e-04	
374	-1.95000e+00	1.302167e-04	
375	-2.00000e+00	1.310339e-04	
376	-2.05000e+00	1.318037e-04	
377	-2.10000e+00	1.325328e-04	
378	-2.15000e+00	1.332263e-04	
379	-2.20000e+00	1.338884e-04	
380	-2.25000e+00	1.345223e-04	
381	-2.30000e+00	1.351309e-04	
382	-2.35000e+00	1.357166e-04	
383	-2.40000e+00	1.362812e-04	
384	-2.45000e+00	1.368266e-04	
385	-2.50000e+00	1.373544e-04	
386	-2.55000e+00	1.378657e-04	
387	-2.60000e+00	1.383619e-04	
388	-2.65000e+00	1.388440e-04	
389	-2.70000e+00	1.393129e-04	
390	-2.75000e+00	1.397695e-04	
391	-2.80000e+00	1.402146e-04	
392	-2.85000e+00	1.406489e-04	
393	-2.90000e+00	1.410730e-04	
394	-2.95000e+00	1.414875e-04	
395	-3.00000e+00	1.418929e-04	
396	-3.05000e+00	1.422899e-04	
397	-3.10000e+00	1.426787e-04	
398	-3.15000e+00	1.430598e-04	
399	-3.20000e+00	1.434336e-04	
400	-3.25000e+00	1.438005e-04	
401	-3.30000e+00	1.441608e-04	
Note: No ".plot", ".print", or ".fourier" lines; no simulations run
