
Note: Compatibility modes selected: hs

Warning: m=xx on .subckt line will override multiplier m hierarchy!


Circuit: ***************************

Doing analysis at TEMP = 25.000000 and TNOM = 25.000000


No. of Data Rows : 402
                          ***************************
                          DC transfer characteristic  Mon Jan  9 13:57:29  2023
--------------------------------------------------------------------------------
Index   v-sweep         i(vds)          
--------------------------------------------------------------------------------
0	-0.000000e+00	0.000000e+00	
1	-5.00000e-02	6.080184e-09	
2	-1.00000e-01	7.427531e-09	
3	-1.50000e-01	7.626233e-09	
4	-2.00000e-01	7.676163e-09	
5	-2.50000e-01	7.696757e-09	
6	-3.00000e-01	7.708287e-09	
7	-3.50000e-01	7.716098e-09	
8	-4.00000e-01	7.722068e-09	
9	-4.50000e-01	7.726996e-09	
10	-5.00000e-01	7.731270e-09	
11	-5.50000e-01	7.735103e-09	
12	-6.00000e-01	7.738619e-09	
13	-6.50000e-01	7.741897e-09	
14	-7.00000e-01	7.744989e-09	
15	-7.50000e-01	7.747930e-09	
16	-8.00000e-01	7.750747e-09	
17	-8.50000e-01	7.753459e-09	
18	-9.00000e-01	7.756082e-09	
19	-9.50000e-01	7.758626e-09	
20	-1.00000e+00	7.761102e-09	
21	-1.05000e+00	7.763517e-09	
22	-1.10000e+00	7.765877e-09	
23	-1.15000e+00	7.768187e-09	
24	-1.20000e+00	7.770453e-09	
25	-1.25000e+00	7.772678e-09	
26	-1.30000e+00	7.774865e-09	
27	-1.35000e+00	7.777017e-09	
28	-1.40000e+00	7.779138e-09	
29	-1.45000e+00	7.781229e-09	
30	-1.50000e+00	7.783292e-09	
31	-1.55000e+00	7.785329e-09	
32	-1.60000e+00	7.787342e-09	
33	-1.65000e+00	7.789332e-09	
34	-1.70000e+00	7.791300e-09	
35	-1.75000e+00	7.793249e-09	
36	-1.80000e+00	7.795178e-09	
37	-1.85000e+00	7.797090e-09	
38	-1.90000e+00	7.798984e-09	
39	-1.95000e+00	7.800862e-09	
40	-2.00000e+00	7.802725e-09	
41	-2.05000e+00	7.804574e-09	
42	-2.10000e+00	7.806410e-09	
43	-2.15000e+00	7.808233e-09	
44	-2.20000e+00	7.810046e-09	
45	-2.25000e+00	7.811848e-09	
46	-2.30000e+00	7.813642e-09	
47	-2.35000e+00	7.815430e-09	
48	-2.40000e+00	7.817214e-09	
49	-2.45000e+00	7.818996e-09	
50	-2.50000e+00	7.820782e-09	
51	-2.55000e+00	7.822574e-09	
52	-2.60000e+00	7.824380e-09	
53	-2.65000e+00	7.826207e-09	
54	-2.70000e+00	7.828063e-09	

Index   v-sweep         i(vds)          
--------------------------------------------------------------------------------
55	-2.75000e+00	7.829959e-09	
56	-2.80000e+00	7.831910e-09	
57	-2.85000e+00	7.833931e-09	
58	-2.90000e+00	7.836042e-09	
59	-2.95000e+00	7.838268e-09	
60	-3.00000e+00	7.840635e-09	
61	-3.05000e+00	7.843177e-09	
62	-3.10000e+00	7.845933e-09	
63	-3.15000e+00	7.848948e-09	
64	-3.20000e+00	7.852274e-09	
65	-3.25000e+00	7.855970e-09	
66	-3.30000e+00	7.860105e-09	
67	-0.000000e+00	0.000000e+00	
68	-5.00000e-02	8.638315e-08	
69	-1.00000e-01	1.603266e-07	
70	-1.50000e-01	2.218768e-07	
71	-2.00000e-01	2.711211e-07	
72	-2.50000e-01	3.082539e-07	
73	-3.00000e-01	3.337684e-07	
74	-3.50000e-01	3.489430e-07	
75	-4.00000e-01	3.564535e-07	
76	-4.50000e-01	3.597336e-07	
77	-5.00000e-01	3.612087e-07	
78	-5.50000e-01	3.619685e-07	
79	-6.00000e-01	3.624238e-07	
80	-6.50000e-01	3.627331e-07	
81	-7.00000e-01	3.629640e-07	
82	-7.50000e-01	3.631484e-07	
83	-8.00000e-01	3.633030e-07	
84	-8.50000e-01	3.634370e-07	
85	-9.00000e-01	3.635562e-07	
86	-9.50000e-01	3.636642e-07	
87	-1.00000e+00	3.637632e-07	
88	-1.05000e+00	3.638552e-07	
89	-1.10000e+00	3.639412e-07	
90	-1.15000e+00	3.640223e-07	
91	-1.20000e+00	3.640991e-07	
92	-1.25000e+00	3.641722e-07	
93	-1.30000e+00	3.642420e-07	
94	-1.35000e+00	3.643089e-07	
95	-1.40000e+00	3.643732e-07	
96	-1.45000e+00	3.644351e-07	
97	-1.50000e+00	3.644949e-07	
98	-1.55000e+00	3.645528e-07	
99	-1.60000e+00	3.646089e-07	
100	-1.65000e+00	3.646633e-07	
101	-1.70000e+00	3.647162e-07	
102	-1.75000e+00	3.647677e-07	
103	-1.80000e+00	3.648179e-07	
104	-1.85000e+00	3.648668e-07	
105	-1.90000e+00	3.649146e-07	
106	-1.95000e+00	3.649613e-07	
107	-2.00000e+00	3.650070e-07	
108	-2.05000e+00	3.650518e-07	
109	-2.10000e+00	3.650956e-07	
110	-2.15000e+00	3.651386e-07	
111	-2.20000e+00	3.651808e-07	
112	-2.25000e+00	3.652222e-07	

Index   v-sweep         i(vds)          
--------------------------------------------------------------------------------
113	-2.30000e+00	3.652629e-07	
114	-2.35000e+00	3.653029e-07	
115	-2.40000e+00	3.653422e-07	
116	-2.45000e+00	3.653810e-07	
117	-2.50000e+00	3.654193e-07	
118	-2.55000e+00	3.654570e-07	
119	-2.60000e+00	3.654944e-07	
120	-2.65000e+00	3.655315e-07	
121	-2.70000e+00	3.655683e-07	
122	-2.75000e+00	3.656051e-07	
123	-2.80000e+00	3.656419e-07	
124	-2.85000e+00	3.656790e-07	
125	-2.90000e+00	3.657167e-07	
126	-2.95000e+00	3.657553e-07	
127	-3.00000e+00	3.657952e-07	
128	-3.05000e+00	3.658368e-07	
129	-3.10000e+00	3.658809e-07	
130	-3.15000e+00	3.659281e-07	
131	-3.20000e+00	3.659793e-07	
132	-3.25000e+00	3.660356e-07	
133	-3.30000e+00	3.660983e-07	
134	-0.000000e+00	0.000000e+00	
135	-5.00000e-02	1.684579e-07	
136	-1.00000e-01	3.246885e-07	
137	-1.50000e-01	4.687059e-07	
138	-2.00000e-01	6.005259e-07	
139	-2.50000e-01	7.201661e-07	
140	-3.00000e-01	8.276483e-07	
141	-3.50000e-01	9.230005e-07	
142	-4.00000e-01	1.006262e-06	
143	-4.50000e-01	1.077495e-06	
144	-5.00000e-01	1.136805e-06	
145	-5.50000e-01	1.184387e-06	
146	-6.00000e-01	1.220632e-06	
147	-6.50000e-01	1.246328e-06	
148	-7.00000e-01	1.262951e-06	
149	-7.50000e-01	1.272762e-06	
150	-8.00000e-01	1.278264e-06	
151	-8.50000e-01	1.281403e-06	
152	-9.00000e-01	1.283325e-06	
153	-9.50000e-01	1.284609e-06	
154	-1.00000e+00	1.285542e-06	
155	-1.05000e+00	1.286265e-06	
156	-1.10000e+00	1.286856e-06	
157	-1.15000e+00	1.287358e-06	
158	-1.20000e+00	1.287796e-06	
159	-1.25000e+00	1.288187e-06	
160	-1.30000e+00	1.288542e-06	
161	-1.35000e+00	1.288867e-06	
162	-1.40000e+00	1.289169e-06	
163	-1.45000e+00	1.289451e-06	
164	-1.50000e+00	1.289716e-06	
165	-1.55000e+00	1.289967e-06	
166	-1.60000e+00	1.290205e-06	
167	-1.65000e+00	1.290432e-06	
168	-1.70000e+00	1.290648e-06	
169	-1.75000e+00	1.290856e-06	
170	-1.80000e+00	1.291056e-06	

Index   v-sweep         i(vds)          
--------------------------------------------------------------------------------
171	-1.85000e+00	1.291249e-06	
172	-1.90000e+00	1.291434e-06	
173	-1.95000e+00	1.291614e-06	
174	-2.00000e+00	1.291788e-06	
175	-2.05000e+00	1.291956e-06	
176	-2.10000e+00	1.292120e-06	
177	-2.15000e+00	1.292279e-06	
178	-2.20000e+00	1.292434e-06	
179	-2.25000e+00	1.292585e-06	
180	-2.30000e+00	1.292732e-06	
181	-2.35000e+00	1.292875e-06	
182	-2.40000e+00	1.293016e-06	
183	-2.45000e+00	1.293153e-06	
184	-2.50000e+00	1.293287e-06	
185	-2.55000e+00	1.293418e-06	
186	-2.60000e+00	1.293546e-06	
187	-2.65000e+00	1.293672e-06	
188	-2.70000e+00	1.293796e-06	
189	-2.75000e+00	1.293918e-06	
190	-2.80000e+00	1.294037e-06	
191	-2.85000e+00	1.294155e-06	
192	-2.90000e+00	1.294271e-06	
193	-2.95000e+00	1.294385e-06	
194	-3.00000e+00	1.294499e-06	
195	-3.05000e+00	1.294611e-06	
196	-3.10000e+00	1.294724e-06	
197	-3.15000e+00	1.294837e-06	
198	-3.20000e+00	1.294951e-06	
199	-3.25000e+00	1.295068e-06	
200	-3.30000e+00	1.295187e-06	
201	-0.000000e+00	0.000000e+00	
202	-5.00000e-02	2.432883e-07	
203	-1.00000e-01	4.749787e-07	
204	-1.50000e-01	6.950822e-07	
205	-2.00000e-01	9.036099e-07	
206	-2.50000e-01	1.100573e-06	
207	-3.00000e-01	1.285984e-06	
208	-3.50000e-01	1.459853e-06	
209	-4.00000e-01	1.622195e-06	
210	-4.50000e-01	1.773024e-06	
211	-5.00000e-01	1.912354e-06	
212	-5.50000e-01	2.040204e-06	
213	-6.00000e-01	2.156595e-06	
214	-6.50000e-01	2.261554e-06	
215	-7.00000e-01	2.355120e-06	
216	-7.50000e-01	2.437345e-06	
217	-8.00000e-01	2.508312e-06	
218	-8.50000e-01	2.568158e-06	
219	-9.00000e-01	2.617117e-06	
220	-9.50000e-01	2.655605e-06	
221	-1.00000e+00	2.684357e-06	
222	-1.05000e+00	2.704584e-06	
223	-1.10000e+00	2.718006e-06	
224	-1.15000e+00	2.726590e-06	
225	-1.20000e+00	2.732084e-06	
226	-1.25000e+00	2.735732e-06	
227	-1.30000e+00	2.738296e-06	
228	-1.35000e+00	2.740210e-06	

Index   v-sweep         i(vds)          
--------------------------------------------------------------------------------
229	-1.40000e+00	2.741716e-06	
230	-1.45000e+00	2.742955e-06	
231	-1.50000e+00	2.744010e-06	
232	-1.55000e+00	2.744931e-06	
233	-1.60000e+00	2.745752e-06	
234	-1.65000e+00	2.746496e-06	
235	-1.70000e+00	2.747178e-06	
236	-1.75000e+00	2.747810e-06	
237	-1.80000e+00	2.748398e-06	
238	-1.85000e+00	2.748951e-06	
239	-1.90000e+00	2.749473e-06	
240	-1.95000e+00	2.749968e-06	
241	-2.00000e+00	2.750438e-06	
242	-2.05000e+00	2.750887e-06	
243	-2.10000e+00	2.751318e-06	
244	-2.15000e+00	2.751730e-06	
245	-2.20000e+00	2.752127e-06	
246	-2.25000e+00	2.752510e-06	
247	-2.30000e+00	2.752880e-06	
248	-2.35000e+00	2.753237e-06	
249	-2.40000e+00	2.753583e-06	
250	-2.45000e+00	2.753918e-06	
251	-2.50000e+00	2.754244e-06	
252	-2.55000e+00	2.754560e-06	
253	-2.60000e+00	2.754868e-06	
254	-2.65000e+00	2.755168e-06	
255	-2.70000e+00	2.755460e-06	
256	-2.75000e+00	2.755745e-06	
257	-2.80000e+00	2.756024e-06	
258	-2.85000e+00	2.756296e-06	
259	-2.90000e+00	2.756562e-06	
260	-2.95000e+00	2.756822e-06	
261	-3.00000e+00	2.757077e-06	
262	-3.05000e+00	2.757327e-06	
263	-3.10000e+00	2.757572e-06	
264	-3.15000e+00	2.757813e-06	
265	-3.20000e+00	2.758050e-06	
266	-3.25000e+00	2.758283e-06	
267	-3.30000e+00	2.758513e-06	
268	-0.000000e+00	0.000000e+00	
269	-5.00000e-02	3.106518e-07	
270	-1.00000e-01	6.104303e-07	
271	-1.50000e-01	8.993449e-07	
272	-2.00000e-01	1.177405e-06	
273	-2.50000e-01	1.444620e-06	
274	-3.00000e-01	1.701000e-06	
275	-3.50000e-01	1.946555e-06	
276	-4.00000e-01	2.181293e-06	
277	-4.50000e-01	2.405226e-06	
278	-5.00000e-01	2.618363e-06	
279	-5.50000e-01	2.820714e-06	
280	-6.00000e-01	3.012291e-06	
281	-6.50000e-01	3.193104e-06	
282	-7.00000e-01	3.363165e-06	
283	-7.50000e-01	3.522488e-06	
284	-8.00000e-01	3.671085e-06	
285	-8.50000e-01	3.808974e-06	
286	-9.00000e-01	3.936172e-06	

Index   v-sweep         i(vds)          
--------------------------------------------------------------------------------
287	-9.50000e-01	4.052702e-06	
288	-1.00000e+00	4.158593e-06	
289	-1.05000e+00	4.253883e-06	
290	-1.10000e+00	4.338629e-06	
291	-1.15000e+00	4.412909e-06	
292	-1.20000e+00	4.476849e-06	
293	-1.25000e+00	4.530651e-06	
294	-1.30000e+00	4.574643e-06	
295	-1.35000e+00	4.609362e-06	
296	-1.40000e+00	4.635654e-06	
297	-1.45000e+00	4.654731e-06	
298	-1.50000e+00	4.668104e-06	
299	-1.55000e+00	4.677342e-06	
300	-1.60000e+00	4.683791e-06	
301	-1.65000e+00	4.688438e-06	
302	-1.70000e+00	4.691933e-06	
303	-1.75000e+00	4.694680e-06	
304	-1.80000e+00	4.696925e-06	
305	-1.85000e+00	4.698821e-06	
306	-1.90000e+00	4.700466e-06	
307	-1.95000e+00	4.701923e-06	
308	-2.00000e+00	4.703235e-06	
309	-2.05000e+00	4.704432e-06	
310	-2.10000e+00	4.705535e-06	
311	-2.15000e+00	4.706560e-06	
312	-2.20000e+00	4.707519e-06	
313	-2.25000e+00	4.708422e-06	
314	-2.30000e+00	4.709275e-06	
315	-2.35000e+00	4.710085e-06	
316	-2.40000e+00	4.710857e-06	
317	-2.45000e+00	4.711594e-06	
318	-2.50000e+00	4.712301e-06	
319	-2.55000e+00	4.712979e-06	
320	-2.60000e+00	4.713632e-06	
321	-2.65000e+00	4.714262e-06	
322	-2.70000e+00	4.714869e-06	
323	-2.75000e+00	4.715457e-06	
324	-2.80000e+00	4.716026e-06	
325	-2.85000e+00	4.716578e-06	
326	-2.90000e+00	4.717114e-06	
327	-2.95000e+00	4.717634e-06	
328	-3.00000e+00	4.718141e-06	
329	-3.05000e+00	4.718634e-06	
330	-3.10000e+00	4.719115e-06	
331	-3.15000e+00	4.719584e-06	
332	-3.20000e+00	4.720042e-06	
333	-3.25000e+00	4.720489e-06	
334	-3.30000e+00	4.720926e-06	
335	-0.000000e+00	0.000000e+00	
336	-5.00000e-02	3.707700e-07	
337	-1.00000e-01	7.314082e-07	
338	-1.50000e-01	1.081923e-06	
339	-2.00000e-01	1.422322e-06	
340	-2.50000e-01	1.752615e-06	
341	-3.00000e-01	2.072809e-06	
342	-3.50000e-01	2.382913e-06	
343	-4.00000e-01	2.682936e-06	
344	-4.50000e-01	2.972885e-06	

Index   v-sweep         i(vds)          
--------------------------------------------------------------------------------
345	-5.00000e-01	3.252770e-06	
346	-5.50000e-01	3.522599e-06	
347	-6.00000e-01	3.782380e-06	
348	-6.50000e-01	4.032122e-06	
349	-7.00000e-01	4.271834e-06	
350	-7.50000e-01	4.501525e-06	
351	-8.00000e-01	4.721203e-06	
352	-8.50000e-01	4.930879e-06	
353	-9.00000e-01	5.130561e-06	
354	-9.50000e-01	5.320260e-06	
355	-1.00000e+00	5.499986e-06	
356	-1.05000e+00	5.669750e-06	
357	-1.10000e+00	5.829563e-06	
358	-1.15000e+00	5.979440e-06	
359	-1.20000e+00	6.119394e-06	
360	-1.25000e+00	6.249442e-06	
361	-1.30000e+00	6.369607e-06	
362	-1.35000e+00	6.479912e-06	
363	-1.40000e+00	6.580392e-06	
364	-1.45000e+00	6.671091e-06	
365	-1.50000e+00	6.752073e-06	
366	-1.55000e+00	6.823431e-06	
367	-1.60000e+00	6.885302e-06	
368	-1.65000e+00	6.937901e-06	
369	-1.70000e+00	6.981558e-06	
370	-1.75000e+00	7.016782e-06	
371	-1.80000e+00	7.044319e-06	
372	-1.85000e+00	7.065190e-06	
373	-1.90000e+00	7.080625e-06	
374	-1.95000e+00	7.091920e-06	
375	-2.00000e+00	7.100241e-06	
376	-2.05000e+00	7.106508e-06	
377	-2.10000e+00	7.111379e-06	
378	-2.15000e+00	7.115294e-06	
379	-2.20000e+00	7.118544e-06	
380	-2.25000e+00	7.121317e-06	
381	-2.30000e+00	7.123738e-06	
382	-2.35000e+00	7.125892e-06	
383	-2.40000e+00	7.127836e-06	
384	-2.45000e+00	7.129613e-06	
385	-2.50000e+00	7.131252e-06	
386	-2.55000e+00	7.132777e-06	
387	-2.60000e+00	7.134204e-06	
388	-2.65000e+00	7.135548e-06	
389	-2.70000e+00	7.136818e-06	
390	-2.75000e+00	7.138025e-06	
391	-2.80000e+00	7.139174e-06	
392	-2.85000e+00	7.140272e-06	
393	-2.90000e+00	7.141324e-06	
394	-2.95000e+00	7.142333e-06	
395	-3.00000e+00	7.143305e-06	
396	-3.05000e+00	7.144241e-06	
397	-3.10000e+00	7.145145e-06	
398	-3.15000e+00	7.146019e-06	
399	-3.20000e+00	7.146865e-06	
400	-3.25000e+00	7.147685e-06	
401	-3.30000e+00	7.148481e-06	
Note: No ".plot", ".print", or ".fourier" lines; no simulations run
