
Note: Compatibility modes selected: hs

Warning: m=xx on .subckt line will override multiplier m hierarchy!


Circuit: ***************************

Doing analysis at TEMP = 125.000000 and TNOM = 125.000000


No. of Data Rows : 402
                          ***************************
                          DC transfer characteristic  Mon Jan  9 13:57:30  2023
--------------------------------------------------------------------------------
Index   v-sweep         i(vds)          
--------------------------------------------------------------------------------
0	-0.000000e+00	0.000000e+00	
1	-5.00000e-02	9.625401e-09	
2	-1.00000e-01	1.439699e-08	
3	-1.50000e-01	1.618271e-08	
4	-2.00000e-01	1.664549e-08	
5	-2.50000e-01	1.677168e-08	
6	-3.00000e-01	1.681915e-08	
7	-3.50000e-01	1.684302e-08	
8	-4.00000e-01	1.685783e-08	
9	-4.50000e-01	1.686843e-08	
10	-5.00000e-01	1.687676e-08	
11	-5.50000e-01	1.688373e-08	
12	-6.00000e-01	1.688982e-08	
13	-6.50000e-01	1.689528e-08	
14	-7.00000e-01	1.690028e-08	
15	-7.50000e-01	1.690493e-08	
16	-8.00000e-01	1.690930e-08	
17	-8.50000e-01	1.691344e-08	
18	-9.00000e-01	1.691739e-08	
19	-9.50000e-01	1.692118e-08	
20	-1.00000e+00	1.692482e-08	
21	-1.05000e+00	1.692833e-08	
22	-1.10000e+00	1.693174e-08	
23	-1.15000e+00	1.693504e-08	
24	-1.20000e+00	1.693826e-08	
25	-1.25000e+00	1.694139e-08	
26	-1.30000e+00	1.694445e-08	
27	-1.35000e+00	1.694744e-08	
28	-1.40000e+00	1.695036e-08	
29	-1.45000e+00	1.695322e-08	
30	-1.50000e+00	1.695604e-08	
31	-1.55000e+00	1.695879e-08	
32	-1.60000e+00	1.696150e-08	
33	-1.65000e+00	1.696417e-08	
34	-1.70000e+00	1.696679e-08	
35	-1.75000e+00	1.696938e-08	
36	-1.80000e+00	1.697192e-08	
37	-1.85000e+00	1.697443e-08	
38	-1.90000e+00	1.697691e-08	
39	-1.95000e+00	1.697935e-08	
40	-2.00000e+00	1.698176e-08	
41	-2.05000e+00	1.698414e-08	
42	-2.10000e+00	1.698650e-08	
43	-2.15000e+00	1.698883e-08	
44	-2.20000e+00	1.699114e-08	
45	-2.25000e+00	1.699342e-08	
46	-2.30000e+00	1.699569e-08	
47	-2.35000e+00	1.699793e-08	
48	-2.40000e+00	1.700016e-08	
49	-2.45000e+00	1.700238e-08	
50	-2.50000e+00	1.700459e-08	
51	-2.55000e+00	1.700680e-08	
52	-2.60000e+00	1.700901e-08	
53	-2.65000e+00	1.701123e-08	
54	-2.70000e+00	1.701348e-08	

Index   v-sweep         i(vds)          
--------------------------------------------------------------------------------
55	-2.75000e+00	1.701576e-08	
56	-2.80000e+00	1.701808e-08	
57	-2.85000e+00	1.702048e-08	
58	-2.90000e+00	1.702296e-08	
59	-2.95000e+00	1.702556e-08	
60	-3.00000e+00	1.702831e-08	
61	-3.05000e+00	1.703125e-08	
62	-3.10000e+00	1.703443e-08	
63	-3.15000e+00	1.703790e-08	
64	-3.20000e+00	1.704172e-08	
65	-3.25000e+00	1.704597e-08	
66	-3.30000e+00	1.705074e-08	
67	-0.000000e+00	0.000000e+00	
68	-5.00000e-02	3.943611e-08	
69	-1.00000e-01	7.297359e-08	
70	-1.50000e-01	1.018301e-07	
71	-2.00000e-01	1.263007e-07	
72	-2.50000e-01	1.464742e-07	
73	-3.00000e-01	1.624133e-07	
74	-3.50000e-01	1.742277e-07	
75	-4.00000e-01	1.821742e-07	
76	-4.50000e-01	1.868303e-07	
77	-5.00000e-01	1.891845e-07	
78	-5.50000e-01	1.902927e-07	
79	-6.00000e-01	1.908411e-07	
80	-6.50000e-01	1.911472e-07	
81	-7.00000e-01	1.913414e-07	
82	-7.50000e-01	1.914788e-07	
83	-8.00000e-01	1.915843e-07	
84	-8.50000e-01	1.916703e-07	
85	-9.00000e-01	1.917435e-07	
86	-9.50000e-01	1.918078e-07	
87	-1.00000e+00	1.918656e-07	
88	-1.05000e+00	1.919183e-07	
89	-1.10000e+00	1.919671e-07	
90	-1.15000e+00	1.920127e-07	
91	-1.20000e+00	1.920556e-07	
92	-1.25000e+00	1.920961e-07	
93	-1.30000e+00	1.921347e-07	
94	-1.35000e+00	1.921716e-07	
95	-1.40000e+00	1.922069e-07	
96	-1.45000e+00	1.922409e-07	
97	-1.50000e+00	1.922736e-07	
98	-1.55000e+00	1.923052e-07	
99	-1.60000e+00	1.923358e-07	
100	-1.65000e+00	1.923654e-07	
101	-1.70000e+00	1.923942e-07	
102	-1.75000e+00	1.924221e-07	
103	-1.80000e+00	1.924493e-07	
104	-1.85000e+00	1.924758e-07	
105	-1.90000e+00	1.925016e-07	
106	-1.95000e+00	1.925269e-07	
107	-2.00000e+00	1.925515e-07	
108	-2.05000e+00	1.925757e-07	
109	-2.10000e+00	1.925993e-07	
110	-2.15000e+00	1.926224e-07	
111	-2.20000e+00	1.926450e-07	
112	-2.25000e+00	1.926672e-07	

Index   v-sweep         i(vds)          
--------------------------------------------------------------------------------
113	-2.30000e+00	1.926890e-07	
114	-2.35000e+00	1.927105e-07	
115	-2.40000e+00	1.927315e-07	
116	-2.45000e+00	1.927522e-07	
117	-2.50000e+00	1.927726e-07	
118	-2.55000e+00	1.927926e-07	
119	-2.60000e+00	1.928124e-07	
120	-2.65000e+00	1.928319e-07	
121	-2.70000e+00	1.928512e-07	
122	-2.75000e+00	1.928704e-07	
123	-2.80000e+00	1.928894e-07	
124	-2.85000e+00	1.929083e-07	
125	-2.90000e+00	1.929272e-07	
126	-2.95000e+00	1.929463e-07	
127	-3.00000e+00	1.929655e-07	
128	-3.05000e+00	1.929851e-07	
129	-3.10000e+00	1.930053e-07	
130	-3.15000e+00	1.930263e-07	
131	-3.20000e+00	1.930483e-07	
132	-3.25000e+00	1.930716e-07	
133	-3.30000e+00	1.930968e-07	
134	-0.000000e+00	0.000000e+00	
135	-5.00000e-02	6.901046e-08	
136	-1.00000e-01	1.321445e-07	
137	-1.50000e-01	1.906151e-07	
138	-2.00000e-01	2.447078e-07	
139	-2.50000e-01	2.944928e-07	
140	-3.00000e-01	3.399906e-07	
141	-3.50000e-01	3.812112e-07	
142	-4.00000e-01	4.181635e-07	
143	-4.50000e-01	4.508588e-07	
144	-5.00000e-01	4.793138e-07	
145	-5.50000e-01	5.035555e-07	
146	-6.00000e-01	5.236311e-07	
147	-6.50000e-01	5.396285e-07	
148	-7.00000e-01	5.517190e-07	
149	-7.50000e-01	5.602319e-07	
150	-8.00000e-01	5.657387e-07	
151	-8.50000e-01	5.690370e-07	
152	-9.00000e-01	5.709458e-07	
153	-9.50000e-01	5.720786e-07	
154	-1.00000e+00	5.727979e-07	
155	-1.05000e+00	5.732934e-07	
156	-1.10000e+00	5.736614e-07	
157	-1.15000e+00	5.739524e-07	
158	-1.20000e+00	5.741936e-07	
159	-1.25000e+00	5.744010e-07	
160	-1.30000e+00	5.745840e-07	
161	-1.35000e+00	5.747488e-07	
162	-1.40000e+00	5.748994e-07	
163	-1.45000e+00	5.750387e-07	
164	-1.50000e+00	5.751687e-07	
165	-1.55000e+00	5.752909e-07	
166	-1.60000e+00	5.754064e-07	
167	-1.65000e+00	5.755161e-07	
168	-1.70000e+00	5.756207e-07	
169	-1.75000e+00	5.757208e-07	
170	-1.80000e+00	5.758168e-07	

Index   v-sweep         i(vds)          
--------------------------------------------------------------------------------
171	-1.85000e+00	5.759092e-07	
172	-1.90000e+00	5.759982e-07	
173	-1.95000e+00	5.760842e-07	
174	-2.00000e+00	5.761674e-07	
175	-2.05000e+00	5.762480e-07	
176	-2.10000e+00	5.763262e-07	
177	-2.15000e+00	5.764022e-07	
178	-2.20000e+00	5.764761e-07	
179	-2.25000e+00	5.765481e-07	
180	-2.30000e+00	5.766182e-07	
181	-2.35000e+00	5.766866e-07	
182	-2.40000e+00	5.767534e-07	
183	-2.45000e+00	5.768186e-07	
184	-2.50000e+00	5.768824e-07	
185	-2.55000e+00	5.769449e-07	
186	-2.60000e+00	5.770060e-07	
187	-2.65000e+00	5.770659e-07	
188	-2.70000e+00	5.771246e-07	
189	-2.75000e+00	5.771822e-07	
190	-2.80000e+00	5.772388e-07	
191	-2.85000e+00	5.772944e-07	
192	-2.90000e+00	5.773491e-07	
193	-2.95000e+00	5.774030e-07	
194	-3.00000e+00	5.774561e-07	
195	-3.05000e+00	5.775085e-07	
196	-3.10000e+00	5.775604e-07	
197	-3.15000e+00	5.776120e-07	
198	-3.20000e+00	5.776633e-07	
199	-3.25000e+00	5.777147e-07	
200	-3.30000e+00	5.777664e-07	
201	-0.000000e+00	0.000000e+00	
202	-5.00000e-02	9.728489e-08	
203	-1.00000e-01	1.888270e-07	
204	-1.50000e-01	2.758386e-07	
205	-2.00000e-01	3.586044e-07	
206	-2.50000e-01	4.371932e-07	
207	-3.00000e-01	5.116238e-07	
208	-3.50000e-01	5.819032e-07	
209	-4.00000e-01	6.480359e-07	
210	-4.50000e-01	7.100261e-07	
211	-5.00000e-01	7.678779e-07	
212	-5.50000e-01	8.215961e-07	
213	-6.00000e-01	8.711860e-07	
214	-6.50000e-01	9.166541e-07	
215	-7.00000e-01	9.580082e-07	
216	-7.50000e-01	9.952590e-07	
217	-8.00000e-01	1.028421e-06	
218	-8.50000e-01	1.057517e-06	
219	-9.00000e-01	1.082579e-06	
220	-9.50000e-01	1.103666e-06	
221	-1.00000e+00	1.120873e-06	
222	-1.05000e+00	1.134370e-06	
223	-1.10000e+00	1.144444e-06	
224	-1.15000e+00	1.151550e-06	
225	-1.20000e+00	1.156309e-06	
226	-1.25000e+00	1.159402e-06	
227	-1.30000e+00	1.161420e-06	
228	-1.35000e+00	1.162788e-06	

Index   v-sweep         i(vds)          
--------------------------------------------------------------------------------
229	-1.40000e+00	1.163765e-06	
230	-1.45000e+00	1.164506e-06	
231	-1.50000e+00	1.165097e-06	
232	-1.55000e+00	1.165588e-06	
233	-1.60000e+00	1.166009e-06	
234	-1.65000e+00	1.166381e-06	
235	-1.70000e+00	1.166716e-06	
236	-1.75000e+00	1.167021e-06	
237	-1.80000e+00	1.167302e-06	
238	-1.85000e+00	1.167564e-06	
239	-1.90000e+00	1.167810e-06	
240	-1.95000e+00	1.168042e-06	
241	-2.00000e+00	1.168262e-06	
242	-2.05000e+00	1.168471e-06	
243	-2.10000e+00	1.168671e-06	
244	-2.15000e+00	1.168863e-06	
245	-2.20000e+00	1.169047e-06	
246	-2.25000e+00	1.169224e-06	
247	-2.30000e+00	1.169395e-06	
248	-2.35000e+00	1.169560e-06	
249	-2.40000e+00	1.169720e-06	
250	-2.45000e+00	1.169875e-06	
251	-2.50000e+00	1.170025e-06	
252	-2.55000e+00	1.170171e-06	
253	-2.60000e+00	1.170313e-06	
254	-2.65000e+00	1.170451e-06	
255	-2.70000e+00	1.170586e-06	
256	-2.75000e+00	1.170717e-06	
257	-2.80000e+00	1.170846e-06	
258	-2.85000e+00	1.170971e-06	
259	-2.90000e+00	1.171094e-06	
260	-2.95000e+00	1.171213e-06	
261	-3.00000e+00	1.171331e-06	
262	-3.05000e+00	1.171446e-06	
263	-3.10000e+00	1.171558e-06	
264	-3.15000e+00	1.171669e-06	
265	-3.20000e+00	1.171777e-06	
266	-3.25000e+00	1.171884e-06	
267	-3.30000e+00	1.171989e-06	
268	-0.000000e+00	0.000000e+00	
269	-5.00000e-02	1.244481e-07	
270	-1.00000e-01	2.433109e-07	
271	-1.50000e-01	3.578004e-07	
272	-2.00000e-01	4.682010e-07	
273	-2.50000e-01	5.745813e-07	
274	-3.00000e-01	6.769595e-07	
275	-3.50000e-01	7.753421e-07	
276	-4.00000e-01	8.697330e-07	
277	-4.50000e-01	9.601355e-07	
278	-5.00000e-01	1.046553e-06	
279	-5.50000e-01	1.128988e-06	
280	-6.00000e-01	1.207444e-06	
281	-6.50000e-01	1.281925e-06	
282	-7.00000e-01	1.352434e-06	
283	-7.50000e-01	1.418974e-06	
284	-8.00000e-01	1.481551e-06	
285	-8.50000e-01	1.540168e-06	
286	-9.00000e-01	1.594829e-06	

Index   v-sweep         i(vds)          
--------------------------------------------------------------------------------
287	-9.50000e-01	1.645542e-06	
288	-1.00000e+00	1.692312e-06	
289	-1.05000e+00	1.735148e-06	
290	-1.10000e+00	1.774062e-06	
291	-1.15000e+00	1.809067e-06	
292	-1.20000e+00	1.840187e-06	
293	-1.25000e+00	1.867454e-06	
294	-1.30000e+00	1.890917e-06	
295	-1.35000e+00	1.910657e-06	
296	-1.40000e+00	1.926803e-06	
297	-1.45000e+00	1.939563e-06	
298	-1.50000e+00	1.949257e-06	
299	-1.55000e+00	1.956333e-06	
300	-1.60000e+00	1.961338e-06	
301	-1.65000e+00	1.964835e-06	
302	-1.70000e+00	1.967304e-06	
303	-1.75000e+00	1.969104e-06	
304	-1.80000e+00	1.970470e-06	
305	-1.85000e+00	1.971553e-06	
306	-1.90000e+00	1.972446e-06	
307	-1.95000e+00	1.973206e-06	
308	-2.00000e+00	1.973870e-06	
309	-2.05000e+00	1.974462e-06	
310	-2.10000e+00	1.974998e-06	
311	-2.15000e+00	1.975490e-06	
312	-2.20000e+00	1.975947e-06	
313	-2.25000e+00	1.976373e-06	
314	-2.30000e+00	1.976774e-06	
315	-2.35000e+00	1.977153e-06	
316	-2.40000e+00	1.977512e-06	
317	-2.45000e+00	1.977855e-06	
318	-2.50000e+00	1.978183e-06	
319	-2.55000e+00	1.978497e-06	
320	-2.60000e+00	1.978799e-06	
321	-2.65000e+00	1.979090e-06	
322	-2.70000e+00	1.979370e-06	
323	-2.75000e+00	1.979641e-06	
324	-2.80000e+00	1.979904e-06	
325	-2.85000e+00	1.980158e-06	
326	-2.90000e+00	1.980405e-06	
327	-2.95000e+00	1.980644e-06	
328	-3.00000e+00	1.980877e-06	
329	-3.05000e+00	1.981104e-06	
330	-3.10000e+00	1.981325e-06	
331	-3.15000e+00	1.981541e-06	
332	-3.20000e+00	1.981752e-06	
333	-3.25000e+00	1.981957e-06	
334	-3.30000e+00	1.982158e-06	
335	-0.000000e+00	0.000000e+00	
336	-5.00000e-02	1.507221e-07	
337	-1.00000e-01	2.960188e-07	
338	-1.50000e-01	4.371018e-07	
339	-2.00000e-01	5.742553e-07	
340	-2.50000e-01	7.075476e-07	
341	-3.00000e-01	8.369969e-07	
342	-3.50000e-01	9.626093e-07	
343	-4.00000e-01	1.084389e-06	
344	-4.50000e-01	1.202338e-06	

Index   v-sweep         i(vds)          
--------------------------------------------------------------------------------
345	-5.00000e-01	1.316459e-06	
346	-5.50000e-01	1.426756e-06	
347	-6.00000e-01	1.533232e-06	
348	-6.50000e-01	1.635888e-06	
349	-7.00000e-01	1.734729e-06	
350	-7.50000e-01	1.829756e-06	
351	-8.00000e-01	1.920973e-06	
352	-8.50000e-01	2.008384e-06	
353	-9.00000e-01	2.091990e-06	
354	-9.50000e-01	2.171795e-06	
355	-1.00000e+00	2.247802e-06	
356	-1.05000e+00	2.320016e-06	
357	-1.10000e+00	2.388438e-06	
358	-1.15000e+00	2.453074e-06	
359	-1.20000e+00	2.513928e-06	
360	-1.25000e+00	2.571004e-06	
361	-1.30000e+00	2.624308e-06	
362	-1.35000e+00	2.673846e-06	
363	-1.40000e+00	2.719626e-06	
364	-1.45000e+00	2.761658e-06	
365	-1.50000e+00	2.799956e-06	
366	-1.55000e+00	2.834536e-06	
367	-1.60000e+00	2.865425e-06	
368	-1.65000e+00	2.892658e-06	
369	-1.70000e+00	2.916292e-06	
370	-1.75000e+00	2.936409e-06	
371	-1.80000e+00	2.953139e-06	
372	-1.85000e+00	2.966678e-06	
373	-1.90000e+00	2.977309e-06	
374	-1.95000e+00	2.985414e-06	
375	-2.00000e+00	2.991452e-06	
376	-2.05000e+00	2.995907e-06	
377	-2.10000e+00	2.999215e-06	
378	-2.15000e+00	3.001724e-06	
379	-2.20000e+00	3.003686e-06	
380	-2.25000e+00	3.005273e-06	
381	-2.30000e+00	3.006599e-06	
382	-2.35000e+00	3.007736e-06	
383	-2.40000e+00	3.008734e-06	
384	-2.45000e+00	3.009627e-06	
385	-2.50000e+00	3.010438e-06	
386	-2.55000e+00	3.011182e-06	
387	-2.60000e+00	3.011873e-06	
388	-2.65000e+00	3.012518e-06	
389	-2.70000e+00	3.013124e-06	
390	-2.75000e+00	3.013697e-06	
391	-2.80000e+00	3.014241e-06	
392	-2.85000e+00	3.014760e-06	
393	-2.90000e+00	3.015255e-06	
394	-2.95000e+00	3.015730e-06	
395	-3.00000e+00	3.016186e-06	
396	-3.05000e+00	3.016625e-06	
397	-3.10000e+00	3.017048e-06	
398	-3.15000e+00	3.017457e-06	
399	-3.20000e+00	3.017853e-06	
400	-3.25000e+00	3.018236e-06	
401	-3.30000e+00	3.018608e-06	
Note: No ".plot", ".print", or ".fourier" lines; no simulations run
