
Note: Compatibility modes selected: hs

Warning: m=xx on .subckt line will override multiplier m hierarchy!


Circuit: ***************************

Doing analysis at TEMP = 125.000000 and TNOM = 125.000000


No. of Data Rows : 402
                          ***************************
                          DC transfer characteristic  Mon Jan  9 13:57:29  2023
--------------------------------------------------------------------------------
Index   v-sweep         i(vds)          
--------------------------------------------------------------------------------
0	-0.000000e+00	0.000000e+00	
1	-5.00000e-02	1.930036e-07	
2	-1.00000e-01	2.833125e-07	
3	-1.50000e-01	3.143826e-07	
4	-2.00000e-01	3.219845e-07	
5	-2.50000e-01	3.240825e-07	
6	-3.00000e-01	3.248912e-07	
7	-3.50000e-01	3.253055e-07	
8	-4.00000e-01	3.255657e-07	
9	-4.50000e-01	3.257532e-07	
10	-5.00000e-01	3.259011e-07	
11	-5.50000e-01	3.260250e-07	
12	-6.00000e-01	3.261331e-07	
13	-6.50000e-01	3.262302e-07	
14	-7.00000e-01	3.263190e-07	
15	-7.50000e-01	3.264015e-07	
16	-8.00000e-01	3.264790e-07	
17	-8.50000e-01	3.265523e-07	
18	-9.00000e-01	3.266222e-07	
19	-9.50000e-01	3.266892e-07	
20	-1.00000e+00	3.267536e-07	
21	-1.05000e+00	3.268158e-07	
22	-1.10000e+00	3.268760e-07	
23	-1.15000e+00	3.269345e-07	
24	-1.20000e+00	3.269913e-07	
25	-1.25000e+00	3.270467e-07	
26	-1.30000e+00	3.271008e-07	
27	-1.35000e+00	3.271537e-07	
28	-1.40000e+00	3.272055e-07	
29	-1.45000e+00	3.272562e-07	
30	-1.50000e+00	3.273060e-07	
31	-1.55000e+00	3.273549e-07	
32	-1.60000e+00	3.274030e-07	
33	-1.65000e+00	3.274503e-07	
34	-1.70000e+00	3.274968e-07	
35	-1.75000e+00	3.275427e-07	
36	-1.80000e+00	3.275879e-07	
37	-1.85000e+00	3.276325e-07	
38	-1.90000e+00	3.276765e-07	
39	-1.95000e+00	3.277199e-07	
40	-2.00000e+00	3.277629e-07	
41	-2.05000e+00	3.278053e-07	
42	-2.10000e+00	3.278473e-07	
43	-2.15000e+00	3.278889e-07	
44	-2.20000e+00	3.279300e-07	
45	-2.25000e+00	3.279709e-07	
46	-2.30000e+00	3.280114e-07	
47	-2.35000e+00	3.280516e-07	
48	-2.40000e+00	3.280917e-07	
49	-2.45000e+00	3.281317e-07	
50	-2.50000e+00	3.281717e-07	
51	-2.55000e+00	3.282119e-07	
52	-2.60000e+00	3.282525e-07	
53	-2.65000e+00	3.282936e-07	
54	-2.70000e+00	3.283356e-07	

Index   v-sweep         i(vds)          
--------------------------------------------------------------------------------
55	-2.75000e+00	3.283788e-07	
56	-2.80000e+00	3.284236e-07	
57	-2.85000e+00	3.284706e-07	
58	-2.90000e+00	3.285205e-07	
59	-2.95000e+00	3.285740e-07	
60	-3.00000e+00	3.286320e-07	
61	-3.05000e+00	3.286957e-07	
62	-3.10000e+00	3.287663e-07	
63	-3.15000e+00	3.288455e-07	
64	-3.20000e+00	3.289348e-07	
65	-3.25000e+00	3.290365e-07	
66	-3.30000e+00	3.291528e-07	
67	-0.000000e+00	0.000000e+00	
68	-5.00000e-02	8.134065e-07	
69	-1.00000e-01	1.501767e-06	
70	-1.50000e-01	2.092744e-06	
71	-2.00000e-01	2.593020e-06	
72	-2.50000e-01	3.004587e-06	
73	-3.00000e-01	3.328801e-06	
74	-3.50000e-01	3.568032e-06	
75	-4.00000e-01	3.727819e-06	
76	-4.50000e-01	3.820549e-06	
77	-5.00000e-01	3.867004e-06	
78	-5.50000e-01	3.888784e-06	
79	-6.00000e-01	3.899567e-06	
80	-6.50000e-01	3.905591e-06	
81	-7.00000e-01	3.909411e-06	
82	-7.50000e-01	3.912104e-06	
83	-8.00000e-01	3.914163e-06	
84	-8.50000e-01	3.915835e-06	
85	-9.00000e-01	3.917251e-06	
86	-9.50000e-01	3.918489e-06	
87	-1.00000e+00	3.919597e-06	
88	-1.05000e+00	3.920606e-06	
89	-1.10000e+00	3.921536e-06	
90	-1.15000e+00	3.922402e-06	
91	-1.20000e+00	3.923214e-06	
92	-1.25000e+00	3.923982e-06	
93	-1.30000e+00	3.924711e-06	
94	-1.35000e+00	3.925406e-06	
95	-1.40000e+00	3.926071e-06	
96	-1.45000e+00	3.926710e-06	
97	-1.50000e+00	3.927325e-06	
98	-1.55000e+00	3.927918e-06	
99	-1.60000e+00	3.928492e-06	
100	-1.65000e+00	3.929047e-06	
101	-1.70000e+00	3.929586e-06	
102	-1.75000e+00	3.930109e-06	
103	-1.80000e+00	3.930619e-06	
104	-1.85000e+00	3.931115e-06	
105	-1.90000e+00	3.931598e-06	
106	-1.95000e+00	3.932070e-06	
107	-2.00000e+00	3.932532e-06	
108	-2.05000e+00	3.932983e-06	
109	-2.10000e+00	3.933424e-06	
110	-2.15000e+00	3.933856e-06	
111	-2.20000e+00	3.934280e-06	
112	-2.25000e+00	3.934695e-06	

Index   v-sweep         i(vds)          
--------------------------------------------------------------------------------
113	-2.30000e+00	3.935103e-06	
114	-2.35000e+00	3.935504e-06	
115	-2.40000e+00	3.935898e-06	
116	-2.45000e+00	3.936285e-06	
117	-2.50000e+00	3.936666e-06	
118	-2.55000e+00	3.937042e-06	
119	-2.60000e+00	3.937414e-06	
120	-2.65000e+00	3.937781e-06	
121	-2.70000e+00	3.938145e-06	
122	-2.75000e+00	3.938507e-06	
123	-2.80000e+00	3.938869e-06	
124	-2.85000e+00	3.939232e-06	
125	-2.90000e+00	3.939598e-06	
126	-2.95000e+00	3.939972e-06	
127	-3.00000e+00	3.940355e-06	
128	-3.05000e+00	3.940753e-06	
129	-3.10000e+00	3.941171e-06	
130	-3.15000e+00	3.941617e-06	
131	-3.20000e+00	3.942099e-06	
132	-3.25000e+00	3.942626e-06	
133	-3.30000e+00	3.943212e-06	
134	-0.000000e+00	0.000000e+00	
135	-5.00000e-02	1.397892e-06	
136	-1.00000e-01	2.673634e-06	
137	-1.50000e-01	3.854780e-06	
138	-2.00000e-01	4.947813e-06	
139	-2.50000e-01	5.954316e-06	
140	-3.00000e-01	6.874742e-06	
141	-3.50000e-01	7.709297e-06	
142	-4.00000e-01	8.458161e-06	
143	-4.50000e-01	9.121559e-06	
144	-5.00000e-01	9.699816e-06	
145	-5.50000e-01	1.019345e-05	
146	-6.00000e-01	1.060338e-05	
147	-6.50000e-01	1.093127e-05	
148	-7.00000e-01	1.118039e-05	
149	-7.50000e-01	1.135700e-05	
150	-8.00000e-01	1.147212e-05	
151	-8.50000e-01	1.154145e-05	
152	-9.00000e-01	1.158156e-05	
153	-9.50000e-01	1.160520e-05	
154	-1.00000e+00	1.162004e-05	
155	-1.05000e+00	1.163011e-05	
156	-1.10000e+00	1.163750e-05	
157	-1.15000e+00	1.164326e-05	
158	-1.20000e+00	1.164799e-05	
159	-1.25000e+00	1.165201e-05	
160	-1.30000e+00	1.165553e-05	
161	-1.35000e+00	1.165869e-05	
162	-1.40000e+00	1.166155e-05	
163	-1.45000e+00	1.166419e-05	
164	-1.50000e+00	1.166664e-05	
165	-1.55000e+00	1.166893e-05	
166	-1.60000e+00	1.167110e-05	
167	-1.65000e+00	1.167315e-05	
168	-1.70000e+00	1.167510e-05	
169	-1.75000e+00	1.167696e-05	
170	-1.80000e+00	1.167874e-05	

Index   v-sweep         i(vds)          
--------------------------------------------------------------------------------
171	-1.85000e+00	1.168046e-05	
172	-1.90000e+00	1.168211e-05	
173	-1.95000e+00	1.168370e-05	
174	-2.00000e+00	1.168524e-05	
175	-2.05000e+00	1.168673e-05	
176	-2.10000e+00	1.168817e-05	
177	-2.15000e+00	1.168957e-05	
178	-2.20000e+00	1.169094e-05	
179	-2.25000e+00	1.169226e-05	
180	-2.30000e+00	1.169355e-05	
181	-2.35000e+00	1.169481e-05	
182	-2.40000e+00	1.169604e-05	
183	-2.45000e+00	1.169724e-05	
184	-2.50000e+00	1.169842e-05	
185	-2.55000e+00	1.169956e-05	
186	-2.60000e+00	1.170069e-05	
187	-2.65000e+00	1.170179e-05	
188	-2.70000e+00	1.170287e-05	
189	-2.75000e+00	1.170393e-05	
190	-2.80000e+00	1.170497e-05	
191	-2.85000e+00	1.170599e-05	
192	-2.90000e+00	1.170700e-05	
193	-2.95000e+00	1.170799e-05	
194	-3.00000e+00	1.170897e-05	
195	-3.05000e+00	1.170994e-05	
196	-3.10000e+00	1.171091e-05	
197	-3.15000e+00	1.171187e-05	
198	-3.20000e+00	1.171284e-05	
199	-3.25000e+00	1.171382e-05	
200	-3.30000e+00	1.171481e-05	
201	-0.000000e+00	0.000000e+00	
202	-5.00000e-02	1.921985e-06	
203	-1.00000e-01	3.726966e-06	
204	-1.50000e-01	5.442481e-06	
205	-2.00000e-01	7.074990e-06	
206	-2.50000e-01	8.626047e-06	
207	-3.00000e-01	1.009606e-05	
208	-3.50000e-01	1.148519e-05	
209	-4.00000e-01	1.279351e-05	
210	-4.50000e-01	1.402111e-05	
211	-5.00000e-01	1.516806e-05	
212	-5.50000e-01	1.623447e-05	
213	-6.00000e-01	1.722041e-05	
214	-6.50000e-01	1.812602e-05	
215	-7.00000e-01	1.895145e-05	
216	-7.50000e-01	1.969688e-05	
217	-8.00000e-01	2.036258e-05	
218	-8.50000e-01	2.094893e-05	
219	-9.00000e-01	2.145654e-05	
220	-9.50000e-01	2.188638e-05	
221	-1.00000e+00	2.224010e-05	
222	-1.05000e+00	2.252059e-05	
223	-1.10000e+00	2.273280e-05	
224	-1.15000e+00	2.288470e-05	
225	-1.20000e+00	2.298764e-05	
226	-1.25000e+00	2.305480e-05	
227	-1.30000e+00	2.309836e-05	
228	-1.35000e+00	2.312740e-05	

Index   v-sweep         i(vds)          
--------------------------------------------------------------------------------
229	-1.40000e+00	2.314774e-05	
230	-1.45000e+00	2.316282e-05	
231	-1.50000e+00	2.317460e-05	
232	-1.55000e+00	2.318423e-05	
233	-1.60000e+00	2.319239e-05	
234	-1.65000e+00	2.319950e-05	
235	-1.70000e+00	2.320582e-05	
236	-1.75000e+00	2.321154e-05	
237	-1.80000e+00	2.321678e-05	
238	-1.85000e+00	2.322164e-05	
239	-1.90000e+00	2.322618e-05	
240	-1.95000e+00	2.323044e-05	
241	-2.00000e+00	2.323447e-05	
242	-2.05000e+00	2.323830e-05	
243	-2.10000e+00	2.324194e-05	
244	-2.15000e+00	2.324543e-05	
245	-2.20000e+00	2.324877e-05	
246	-2.25000e+00	2.325198e-05	
247	-2.30000e+00	2.325508e-05	
248	-2.35000e+00	2.325806e-05	
249	-2.40000e+00	2.326095e-05	
250	-2.45000e+00	2.326375e-05	
251	-2.50000e+00	2.326646e-05	
252	-2.55000e+00	2.326909e-05	
253	-2.60000e+00	2.327164e-05	
254	-2.65000e+00	2.327413e-05	
255	-2.70000e+00	2.327655e-05	
256	-2.75000e+00	2.327891e-05	
257	-2.80000e+00	2.328122e-05	
258	-2.85000e+00	2.328347e-05	
259	-2.90000e+00	2.328567e-05	
260	-2.95000e+00	2.328782e-05	
261	-3.00000e+00	2.328992e-05	
262	-3.05000e+00	2.329198e-05	
263	-3.10000e+00	2.329400e-05	
264	-3.15000e+00	2.329598e-05	
265	-3.20000e+00	2.329793e-05	
266	-3.25000e+00	2.329984e-05	
267	-3.30000e+00	2.330173e-05	
268	-0.000000e+00	0.000000e+00	
269	-5.00000e-02	2.392317e-06	
270	-1.00000e-01	4.673073e-06	
271	-1.50000e-01	6.869796e-06	
272	-2.00000e-01	8.988938e-06	
273	-2.50000e-01	1.103204e-05	
274	-3.00000e-01	1.299951e-05	
275	-3.50000e-01	1.489148e-05	
276	-4.00000e-01	1.670801e-05	
277	-4.50000e-01	1.844918e-05	
278	-5.00000e-01	2.011504e-05	
279	-5.50000e-01	2.170564e-05	
280	-6.00000e-01	2.322105e-05	
281	-6.50000e-01	2.466133e-05	
282	-7.00000e-01	2.602653e-05	
283	-7.50000e-01	2.731673e-05	
284	-8.00000e-01	2.853200e-05	
285	-8.50000e-01	2.967241e-05	
286	-9.00000e-01	3.073805e-05	

Index   v-sweep         i(vds)          
--------------------------------------------------------------------------------
287	-9.50000e-01	3.172902e-05	
288	-1.00000e+00	3.264544e-05	
289	-1.05000e+00	3.348745e-05	
290	-1.10000e+00	3.425524e-05	
291	-1.15000e+00	3.494906e-05	
292	-1.20000e+00	3.556926e-05	
293	-1.25000e+00	3.611636e-05	
294	-1.30000e+00	3.659113e-05	
295	-1.35000e+00	3.699482e-05	
296	-1.40000e+00	3.732942e-05	
297	-1.45000e+00	3.759814e-05	
298	-1.50000e+00	3.780600e-05	
299	-1.55000e+00	3.796038e-05	
300	-1.60000e+00	3.807088e-05	
301	-1.65000e+00	3.814817e-05	
302	-1.70000e+00	3.820216e-05	
303	-1.75000e+00	3.824069e-05	
304	-1.80000e+00	3.826920e-05	
305	-1.85000e+00	3.829120e-05	
306	-1.90000e+00	3.830890e-05	
307	-1.95000e+00	3.832364e-05	
308	-2.00000e+00	3.833630e-05	
309	-2.05000e+00	3.834742e-05	
310	-2.10000e+00	3.835738e-05	
311	-2.15000e+00	3.836644e-05	
312	-2.20000e+00	3.837477e-05	
313	-2.25000e+00	3.838249e-05	
314	-2.30000e+00	3.838972e-05	
315	-2.35000e+00	3.839653e-05	
316	-2.40000e+00	3.840296e-05	
317	-2.45000e+00	3.840907e-05	
318	-2.50000e+00	3.841490e-05	
319	-2.55000e+00	3.842047e-05	
320	-2.60000e+00	3.842582e-05	
321	-2.65000e+00	3.843096e-05	
322	-2.70000e+00	3.843591e-05	
323	-2.75000e+00	3.844068e-05	
324	-2.80000e+00	3.844530e-05	
325	-2.85000e+00	3.844977e-05	
326	-2.90000e+00	3.845410e-05	
327	-2.95000e+00	3.845831e-05	
328	-3.00000e+00	3.846240e-05	
329	-3.05000e+00	3.846637e-05	
330	-3.10000e+00	3.847024e-05	
331	-3.15000e+00	3.847402e-05	
332	-3.20000e+00	3.847770e-05	
333	-3.25000e+00	3.848129e-05	
334	-3.30000e+00	3.848480e-05	
335	-0.000000e+00	0.000000e+00	
336	-5.00000e-02	2.815689e-06	
337	-1.00000e-01	5.525102e-06	
338	-1.50000e-01	8.155760e-06	
339	-2.00000e-01	1.071411e-05	
340	-2.50000e-01	1.320169e-05	
341	-3.00000e-01	1.561889e-05	
342	-3.50000e-01	1.796583e-05	
343	-4.00000e-01	2.024260e-05	
344	-4.50000e-01	2.244923e-05	

Index   v-sweep         i(vds)          
--------------------------------------------------------------------------------
345	-5.00000e-01	2.458578e-05	
346	-5.50000e-01	2.665229e-05	
347	-6.00000e-01	2.864881e-05	
348	-6.50000e-01	3.057539e-05	
349	-7.00000e-01	3.243208e-05	
350	-7.50000e-01	3.421893e-05	
351	-8.00000e-01	3.593599e-05	
352	-8.50000e-01	3.758331e-05	
353	-9.00000e-01	3.916094e-05	
354	-9.50000e-01	4.066893e-05	
355	-1.00000e+00	4.210735e-05	
356	-1.05000e+00	4.347624e-05	
357	-1.10000e+00	4.477567e-05	
358	-1.15000e+00	4.600570e-05	
359	-1.20000e+00	4.716641e-05	
360	-1.25000e+00	4.825787e-05	
361	-1.30000e+00	4.928018e-05	
362	-1.35000e+00	5.023342e-05	
363	-1.40000e+00	5.111774e-05	
364	-1.45000e+00	5.193327e-05	
365	-1.50000e+00	5.268023e-05	
366	-1.55000e+00	5.335888e-05	
367	-1.60000e+00	5.396958e-05	
368	-1.65000e+00	5.451286e-05	
369	-1.70000e+00	5.498949e-05	
370	-1.75000e+00	5.540063e-05	
371	-1.80000e+00	5.574807e-05	
372	-1.85000e+00	5.603454e-05	
373	-1.90000e+00	5.626408e-05	
374	-1.95000e+00	5.644247e-05	
375	-2.00000e+00	5.657720e-05	
376	-2.05000e+00	5.667689e-05	
377	-2.10000e+00	5.675019e-05	
378	-2.15000e+00	5.680463e-05	
379	-2.20000e+00	5.684601e-05	
380	-2.25000e+00	5.687848e-05	
381	-2.30000e+00	5.690480e-05	
382	-2.35000e+00	5.692680e-05	
383	-2.40000e+00	5.694571e-05	
384	-2.45000e+00	5.696231e-05	
385	-2.50000e+00	5.697716e-05	
386	-2.55000e+00	5.699063e-05	
387	-2.60000e+00	5.700300e-05	
388	-2.65000e+00	5.701447e-05	
389	-2.70000e+00	5.702517e-05	
390	-2.75000e+00	5.703524e-05	
391	-2.80000e+00	5.704475e-05	
392	-2.85000e+00	5.705378e-05	
393	-2.90000e+00	5.706237e-05	
394	-2.95000e+00	5.707059e-05	
395	-3.00000e+00	5.707846e-05	
396	-3.05000e+00	5.708602e-05	
397	-3.10000e+00	5.709330e-05	
398	-3.15000e+00	5.710032e-05	
399	-3.20000e+00	5.710711e-05	
400	-3.25000e+00	5.711367e-05	
401	-3.30000e+00	5.712003e-05	
Note: No ".plot", ".print", or ".fourier" lines; no simulations run
