
Note: Compatibility modes selected: hs

Warning: m=xx on .subckt line will override multiplier m hierarchy!


Circuit: ***************************

Doing analysis at TEMP = 125.000000 and TNOM = 125.000000


No. of Data Rows : 402
                          ***************************
                          DC transfer characteristic  Mon Jan  9 13:57:29  2023
--------------------------------------------------------------------------------
Index   v-sweep         i(vds)          
--------------------------------------------------------------------------------
0	-0.000000e+00	0.000000e+00	
1	-5.00000e-02	1.514328e-07	
2	-1.00000e-01	2.359284e-07	
3	-1.50000e-01	2.700969e-07	
4	-2.00000e-01	2.796558e-07	
5	-2.50000e-01	2.826073e-07	
6	-3.00000e-01	2.839861e-07	
7	-3.50000e-01	2.848766e-07	
8	-4.00000e-01	2.855656e-07	
9	-4.50000e-01	2.861505e-07	
10	-5.00000e-01	2.866720e-07	
11	-5.50000e-01	2.871499e-07	
12	-6.00000e-01	2.875953e-07	
13	-6.50000e-01	2.880149e-07	
14	-7.00000e-01	2.884130e-07	
15	-7.50000e-01	2.887930e-07	
16	-8.00000e-01	2.891572e-07	
17	-8.50000e-01	2.895074e-07	
18	-9.00000e-01	2.898451e-07	
19	-9.50000e-01	2.901715e-07	
20	-1.00000e+00	2.904877e-07	
21	-1.05000e+00	2.907944e-07	
22	-1.10000e+00	2.910925e-07	
23	-1.15000e+00	2.913826e-07	
24	-1.20000e+00	2.916653e-07	
25	-1.25000e+00	2.919410e-07	
26	-1.30000e+00	2.922104e-07	
27	-1.35000e+00	2.924736e-07	
28	-1.40000e+00	2.927312e-07	
29	-1.45000e+00	2.929835e-07	
30	-1.50000e+00	2.932307e-07	
31	-1.55000e+00	2.934732e-07	
32	-1.60000e+00	2.937112e-07	
33	-1.65000e+00	2.939449e-07	
34	-1.70000e+00	2.941746e-07	
35	-1.75000e+00	2.944004e-07	
36	-1.80000e+00	2.946226e-07	
37	-1.85000e+00	2.948413e-07	
38	-1.90000e+00	2.950567e-07	
39	-1.95000e+00	2.952689e-07	
40	-2.00000e+00	2.954781e-07	
41	-2.05000e+00	2.956844e-07	
42	-2.10000e+00	2.958880e-07	
43	-2.15000e+00	2.960890e-07	
44	-2.20000e+00	2.962876e-07	
45	-2.25000e+00	2.964839e-07	
46	-2.30000e+00	2.966780e-07	
47	-2.35000e+00	2.968701e-07	
48	-2.40000e+00	2.970604e-07	
49	-2.45000e+00	2.972492e-07	
50	-2.50000e+00	2.974367e-07	
51	-2.55000e+00	2.976231e-07	
52	-2.60000e+00	2.978088e-07	
53	-2.65000e+00	2.979942e-07	
54	-2.70000e+00	2.981797e-07	

Index   v-sweep         i(vds)          
--------------------------------------------------------------------------------
55	-2.75000e+00	2.983658e-07	
56	-2.80000e+00	2.985531e-07	
57	-2.85000e+00	2.987424e-07	
58	-2.90000e+00	2.989344e-07	
59	-2.95000e+00	2.991301e-07	
60	-3.00000e+00	2.993304e-07	
61	-3.05000e+00	2.995366e-07	
62	-3.10000e+00	2.997500e-07	
63	-3.15000e+00	2.999720e-07	
64	-3.20000e+00	3.002045e-07	
65	-3.25000e+00	3.004492e-07	
66	-3.30000e+00	3.007083e-07	
67	-0.000000e+00	0.000000e+00	
68	-5.00000e-02	7.554372e-07	
69	-1.00000e-01	1.423282e-06	
70	-1.50000e-01	2.009425e-06	
71	-2.00000e-01	2.515599e-06	
72	-2.50000e-01	2.942673e-06	
73	-3.00000e-01	3.291547e-06	
74	-3.50000e-01	3.563682e-06	
75	-4.00000e-01	3.762042e-06	
76	-4.50000e-01	3.893164e-06	
77	-5.00000e-01	3.970109e-06	
78	-5.50000e-01	4.011716e-06	
79	-6.00000e-01	4.034960e-06	
80	-6.50000e-01	4.049736e-06	
81	-7.00000e-01	4.060523e-06	
82	-7.50000e-01	4.069229e-06	
83	-8.00000e-01	4.076712e-06	
84	-8.50000e-01	4.083392e-06	
85	-9.00000e-01	4.089498e-06	
86	-9.50000e-01	4.095162e-06	
87	-1.00000e+00	4.100472e-06	
88	-1.05000e+00	4.105486e-06	
89	-1.10000e+00	4.110246e-06	
90	-1.15000e+00	4.114784e-06	
91	-1.20000e+00	4.119126e-06	
92	-1.25000e+00	4.123291e-06	
93	-1.30000e+00	4.127297e-06	
94	-1.35000e+00	4.131158e-06	
95	-1.40000e+00	4.134885e-06	
96	-1.45000e+00	4.138489e-06	
97	-1.50000e+00	4.141979e-06	
98	-1.55000e+00	4.145363e-06	
99	-1.60000e+00	4.148649e-06	
100	-1.65000e+00	4.151842e-06	
101	-1.70000e+00	4.154949e-06	
102	-1.75000e+00	4.157974e-06	
103	-1.80000e+00	4.160924e-06	
104	-1.85000e+00	4.163800e-06	
105	-1.90000e+00	4.166609e-06	
106	-1.95000e+00	4.169353e-06	
107	-2.00000e+00	4.172035e-06	
108	-2.05000e+00	4.174660e-06	
109	-2.10000e+00	4.177228e-06	
110	-2.15000e+00	4.179745e-06	
111	-2.20000e+00	4.182210e-06	
112	-2.25000e+00	4.184628e-06	

Index   v-sweep         i(vds)          
--------------------------------------------------------------------------------
113	-2.30000e+00	4.187000e-06	
114	-2.35000e+00	4.189329e-06	
115	-2.40000e+00	4.191616e-06	
116	-2.45000e+00	4.193863e-06	
117	-2.50000e+00	4.196073e-06	
118	-2.55000e+00	4.198247e-06	
119	-2.60000e+00	4.200388e-06	
120	-2.65000e+00	4.202498e-06	
121	-2.70000e+00	4.204579e-06	
122	-2.75000e+00	4.206634e-06	
123	-2.80000e+00	4.208666e-06	
124	-2.85000e+00	4.210679e-06	
125	-2.90000e+00	4.212677e-06	
126	-2.95000e+00	4.214664e-06	
127	-3.00000e+00	4.216647e-06	
128	-3.05000e+00	4.218631e-06	
129	-3.10000e+00	4.220624e-06	
130	-3.15000e+00	4.222635e-06	
131	-3.20000e+00	4.224674e-06	
132	-3.25000e+00	4.226753e-06	
133	-3.30000e+00	4.228884e-06	
134	-0.000000e+00	0.000000e+00	
135	-5.00000e-02	1.322744e-06	
136	-1.00000e-01	2.559635e-06	
137	-1.50000e-01	3.716469e-06	
138	-2.00000e-01	4.794830e-06	
139	-2.50000e-01	5.795321e-06	
140	-3.00000e-01	6.718328e-06	
141	-3.50000e-01	7.564188e-06	
142	-4.00000e-01	8.333248e-06	
143	-4.50000e-01	9.025877e-06	
144	-5.00000e-01	9.642493e-06	
145	-5.50000e-01	1.018360e-05	
146	-6.00000e-01	1.064988e-05	
147	-6.50000e-01	1.104230e-05	
148	-7.00000e-01	1.136244e-05	
149	-7.50000e-01	1.161313e-05	
150	-8.00000e-01	1.179945e-05	
151	-8.50000e-01	1.193015e-05	
152	-9.00000e-01	1.201787e-05	
153	-9.50000e-01	1.207667e-05	
154	-1.00000e+00	1.211807e-05	
155	-1.05000e+00	1.214952e-05	
156	-1.10000e+00	1.217513e-05	
157	-1.15000e+00	1.219712e-05	
158	-1.20000e+00	1.221668e-05	
159	-1.25000e+00	1.223449e-05	
160	-1.30000e+00	1.225095e-05	
161	-1.35000e+00	1.226634e-05	
162	-1.40000e+00	1.228084e-05	
163	-1.45000e+00	1.229457e-05	
164	-1.50000e+00	1.230764e-05	
165	-1.55000e+00	1.232013e-05	
166	-1.60000e+00	1.233209e-05	
167	-1.65000e+00	1.234357e-05	
168	-1.70000e+00	1.235462e-05	
169	-1.75000e+00	1.236528e-05	
170	-1.80000e+00	1.237557e-05	

Index   v-sweep         i(vds)          
--------------------------------------------------------------------------------
171	-1.85000e+00	1.238553e-05	
172	-1.90000e+00	1.239517e-05	
173	-1.95000e+00	1.240452e-05	
174	-2.00000e+00	1.241359e-05	
175	-2.05000e+00	1.242241e-05	
176	-2.10000e+00	1.243099e-05	
177	-2.15000e+00	1.243934e-05	
178	-2.20000e+00	1.244748e-05	
179	-2.25000e+00	1.245541e-05	
180	-2.30000e+00	1.246316e-05	
181	-2.35000e+00	1.247072e-05	
182	-2.40000e+00	1.247811e-05	
183	-2.45000e+00	1.248534e-05	
184	-2.50000e+00	1.249241e-05	
185	-2.55000e+00	1.249933e-05	
186	-2.60000e+00	1.250611e-05	
187	-2.65000e+00	1.251275e-05	
188	-2.70000e+00	1.251927e-05	
189	-2.75000e+00	1.252566e-05	
190	-2.80000e+00	1.253193e-05	
191	-2.85000e+00	1.253809e-05	
192	-2.90000e+00	1.254415e-05	
193	-2.95000e+00	1.255010e-05	
194	-3.00000e+00	1.255596e-05	
195	-3.05000e+00	1.256174e-05	
196	-3.10000e+00	1.256743e-05	
197	-3.15000e+00	1.257306e-05	
198	-3.20000e+00	1.257862e-05	
199	-3.25000e+00	1.258413e-05	
200	-3.30000e+00	1.258961e-05	
201	-0.000000e+00	0.000000e+00	
202	-5.00000e-02	1.826231e-06	
203	-1.00000e-01	3.570464e-06	
204	-1.50000e-01	5.238459e-06	
205	-2.00000e-01	6.831761e-06	
206	-2.50000e-01	8.350931e-06	
207	-3.00000e-01	9.796303e-06	
208	-3.50000e-01	1.116816e-05	
209	-4.00000e-01	1.246676e-05	
210	-4.50000e-01	1.369238e-05	
211	-5.00000e-01	1.484528e-05	
212	-5.50000e-01	1.592573e-05	
213	-6.00000e-01	1.693402e-05	
214	-6.50000e-01	1.787042e-05	
215	-7.00000e-01	1.873524e-05	
216	-7.50000e-01	1.952879e-05	
217	-8.00000e-01	2.025142e-05	
218	-8.50000e-01	2.090353e-05	
219	-9.00000e-01	2.148560e-05	
220	-9.50000e-01	2.199827e-05	
221	-1.00000e+00	2.244240e-05	
222	-1.05000e+00	2.281932e-05	
223	-1.10000e+00	2.313112e-05	
224	-1.15000e+00	2.338123e-05	
225	-1.20000e+00	2.357519e-05	
226	-1.25000e+00	2.372115e-05	
227	-1.30000e+00	2.382949e-05	
228	-1.35000e+00	2.391094e-05	

Index   v-sweep         i(vds)          
--------------------------------------------------------------------------------
229	-1.40000e+00	2.397447e-05	
230	-1.45000e+00	2.402641e-05	
231	-1.50000e+00	2.407074e-05	
232	-1.55000e+00	2.410987e-05	
233	-1.60000e+00	2.414526e-05	
234	-1.65000e+00	2.417781e-05	
235	-1.70000e+00	2.420812e-05	
236	-1.75000e+00	2.423657e-05	
237	-1.80000e+00	2.426346e-05	
238	-1.85000e+00	2.428900e-05	
239	-1.90000e+00	2.431334e-05	
240	-1.95000e+00	2.433664e-05	
241	-2.00000e+00	2.435897e-05	
242	-2.05000e+00	2.438045e-05	
243	-2.10000e+00	2.440113e-05	
244	-2.15000e+00	2.442108e-05	
245	-2.20000e+00	2.444036e-05	
246	-2.25000e+00	2.445902e-05	
247	-2.30000e+00	2.447710e-05	
248	-2.35000e+00	2.449464e-05	
249	-2.40000e+00	2.451167e-05	
250	-2.45000e+00	2.452822e-05	
251	-2.50000e+00	2.454432e-05	
252	-2.55000e+00	2.456000e-05	
253	-2.60000e+00	2.457529e-05	
254	-2.65000e+00	2.459019e-05	
255	-2.70000e+00	2.460473e-05	
256	-2.75000e+00	2.461894e-05	
257	-2.80000e+00	2.463282e-05	
258	-2.85000e+00	2.464639e-05	
259	-2.90000e+00	2.465966e-05	
260	-2.95000e+00	2.467266e-05	
261	-3.00000e+00	2.468539e-05	
262	-3.05000e+00	2.469786e-05	
263	-3.10000e+00	2.471009e-05	
264	-3.15000e+00	2.472209e-05	
265	-3.20000e+00	2.473386e-05	
266	-3.25000e+00	2.474543e-05	
267	-3.30000e+00	2.475679e-05	
268	-0.000000e+00	0.000000e+00	
269	-5.00000e-02	2.275272e-06	
270	-1.00000e-01	4.472720e-06	
271	-1.50000e-01	6.598077e-06	
272	-2.00000e-01	8.652857e-06	
273	-2.50000e-01	1.063759e-05	
274	-3.00000e-01	1.255259e-05	
275	-3.50000e-01	1.439810e-05	
276	-4.00000e-01	1.617435e-05	
277	-4.50000e-01	1.788158e-05	
278	-5.00000e-01	1.952002e-05	
279	-5.50000e-01	2.108990e-05	
280	-6.00000e-01	2.259146e-05	
281	-6.50000e-01	2.402492e-05	
282	-7.00000e-01	2.539052e-05	
283	-7.50000e-01	2.668850e-05	
284	-8.00000e-01	2.791907e-05	
285	-8.50000e-01	2.908249e-05	
286	-9.00000e-01	3.017899e-05	

Index   v-sweep         i(vds)          
--------------------------------------------------------------------------------
287	-9.50000e-01	3.120881e-05	
288	-1.00000e+00	3.217222e-05	
289	-1.05000e+00	3.306948e-05	
290	-1.10000e+00	3.390088e-05	
291	-1.15000e+00	3.466671e-05	
292	-1.20000e+00	3.536734e-05	
293	-1.25000e+00	3.600319e-05	
294	-1.30000e+00	3.657476e-05	
295	-1.35000e+00	3.708275e-05	
296	-1.40000e+00	3.752810e-05	
297	-1.45000e+00	3.791222e-05	
298	-1.50000e+00	3.823725e-05	
299	-1.55000e+00	3.850644e-05	
300	-1.60000e+00	3.872467e-05	
301	-1.65000e+00	3.889868e-05	
302	-1.70000e+00	3.903669e-05	
303	-1.75000e+00	3.914731e-05	
304	-1.80000e+00	3.923817e-05	
305	-1.85000e+00	3.931516e-05	
306	-1.90000e+00	3.938237e-05	
307	-1.95000e+00	3.944250e-05	
308	-2.00000e+00	3.949732e-05	
309	-2.05000e+00	3.954800e-05	
310	-2.10000e+00	3.959534e-05	
311	-2.15000e+00	3.963989e-05	
312	-2.20000e+00	3.968207e-05	
313	-2.25000e+00	3.972217e-05	
314	-2.30000e+00	3.976045e-05	
315	-2.35000e+00	3.979710e-05	
316	-2.40000e+00	3.983227e-05	
317	-2.45000e+00	3.986609e-05	
318	-2.50000e+00	3.989869e-05	
319	-2.55000e+00	3.993016e-05	
320	-2.60000e+00	3.996057e-05	
321	-2.65000e+00	3.999002e-05	
322	-2.70000e+00	4.001855e-05	
323	-2.75000e+00	4.004624e-05	
324	-2.80000e+00	4.007313e-05	
325	-2.85000e+00	4.009927e-05	
326	-2.90000e+00	4.012471e-05	
327	-2.95000e+00	4.014948e-05	
328	-3.00000e+00	4.017363e-05	
329	-3.05000e+00	4.019718e-05	
330	-3.10000e+00	4.022016e-05	
331	-3.15000e+00	4.024260e-05	
332	-3.20000e+00	4.026454e-05	
333	-3.25000e+00	4.028599e-05	
334	-3.30000e+00	4.030697e-05	
335	-0.000000e+00	0.000000e+00	
336	-5.00000e-02	2.678445e-06	
337	-1.00000e-01	5.283142e-06	
338	-1.50000e-01	7.819801e-06	
339	-2.00000e-01	1.028991e-05	
340	-2.50000e-01	1.269398e-05	
341	-3.00000e-01	1.503230e-05	
342	-3.50000e-01	1.730508e-05	
343	-4.00000e-01	1.951254e-05	
344	-4.50000e-01	2.165489e-05	

Index   v-sweep         i(vds)          
--------------------------------------------------------------------------------
345	-5.00000e-01	2.373234e-05	
346	-5.50000e-01	2.574509e-05	
347	-6.00000e-01	2.769335e-05	
348	-6.50000e-01	2.957732e-05	
349	-7.00000e-01	3.139721e-05	
350	-7.50000e-01	3.315323e-05	
351	-8.00000e-01	3.484557e-05	
352	-8.50000e-01	3.647444e-05	
353	-9.00000e-01	3.804005e-05	
354	-9.50000e-01	3.954260e-05	
355	-1.00000e+00	4.098228e-05	
356	-1.05000e+00	4.235932e-05	
357	-1.10000e+00	4.367391e-05	
358	-1.15000e+00	4.492625e-05	
359	-1.20000e+00	4.611657e-05	
360	-1.25000e+00	4.724506e-05	
361	-1.30000e+00	4.831195e-05	
362	-1.35000e+00	4.931746e-05	
363	-1.40000e+00	5.026182e-05	
364	-1.45000e+00	5.114528e-05	
365	-1.50000e+00	5.196811e-05	
366	-1.55000e+00	5.273059e-05	
367	-1.60000e+00	5.343307e-05	
368	-1.65000e+00	5.407593e-05	
369	-1.70000e+00	5.465969e-05	
370	-1.75000e+00	5.518498e-05	
371	-1.80000e+00	5.565268e-05	
372	-1.85000e+00	5.606405e-05	
373	-1.90000e+00	5.642091e-05	
374	-1.95000e+00	5.672590e-05	
375	-2.00000e+00	5.698284e-05	
376	-2.05000e+00	5.719688e-05	
377	-2.10000e+00	5.737440e-05	
378	-2.15000e+00	5.752238e-05	
379	-2.20000e+00	5.764757e-05	
380	-2.25000e+00	5.775567e-05	
381	-2.30000e+00	5.785107e-05	
382	-2.35000e+00	5.793692e-05	
383	-2.40000e+00	5.801543e-05	
384	-2.45000e+00	5.808811e-05	
385	-2.50000e+00	5.815605e-05	
386	-2.55000e+00	5.822002e-05	
387	-2.60000e+00	5.828059e-05	
388	-2.65000e+00	5.833820e-05	
389	-2.70000e+00	5.839319e-05	
390	-2.75000e+00	5.844584e-05	
391	-2.80000e+00	5.849637e-05	
392	-2.85000e+00	5.854498e-05	
393	-2.90000e+00	5.859182e-05	
394	-2.95000e+00	5.863704e-05	
395	-3.00000e+00	5.868075e-05	
396	-3.05000e+00	5.872306e-05	
397	-3.10000e+00	5.876407e-05	
398	-3.15000e+00	5.880386e-05	
399	-3.20000e+00	5.884251e-05	
400	-3.25000e+00	5.888008e-05	
401	-3.30000e+00	5.891663e-05	
Note: No ".plot", ".print", or ".fourier" lines; no simulations run
