
Note: Compatibility modes selected: hs

Warning: m=xx on .subckt line will override multiplier m hierarchy!


Circuit: ***************************

Doing analysis at TEMP = 125.000000 and TNOM = 125.000000


No. of Data Rows : 402
                          ***************************
                          DC transfer characteristic  Mon Jan  9 13:57:29  2023
--------------------------------------------------------------------------------
Index   v-sweep         i(vds)          
--------------------------------------------------------------------------------
0	-0.000000e+00	0.000000e+00	
1	-5.00000e-02	1.713199e-06	
2	-1.00000e-01	2.779082e-06	
3	-1.50000e-01	3.299077e-06	
4	-2.00000e-01	3.479798e-06	
5	-2.50000e-01	3.541670e-06	
6	-3.00000e-01	3.572991e-06	
7	-3.50000e-01	3.594917e-06	
8	-4.00000e-01	3.612900e-06	
9	-4.50000e-01	3.628748e-06	
10	-5.00000e-01	3.643214e-06	
11	-5.50000e-01	3.656678e-06	
12	-6.00000e-01	3.669359e-06	
13	-6.50000e-01	3.681400e-06	
14	-7.00000e-01	3.692899e-06	
15	-7.50000e-01	3.703931e-06	
16	-8.00000e-01	3.714552e-06	
17	-8.50000e-01	3.724811e-06	
18	-9.00000e-01	3.734743e-06	
19	-9.50000e-01	3.744381e-06	
20	-1.00000e+00	3.753753e-06	
21	-1.05000e+00	3.762880e-06	
22	-1.10000e+00	3.771784e-06	
23	-1.15000e+00	3.780481e-06	
24	-1.20000e+00	3.788989e-06	
25	-1.25000e+00	3.797319e-06	
26	-1.30000e+00	3.805486e-06	
27	-1.35000e+00	3.813499e-06	
28	-1.40000e+00	3.821369e-06	
29	-1.45000e+00	3.829105e-06	
30	-1.50000e+00	3.836716e-06	
31	-1.55000e+00	3.844208e-06	
32	-1.60000e+00	3.851589e-06	
33	-1.65000e+00	3.858864e-06	
34	-1.70000e+00	3.866040e-06	
35	-1.75000e+00	3.873122e-06	
36	-1.80000e+00	3.880115e-06	
37	-1.85000e+00	3.887023e-06	
38	-1.90000e+00	3.893851e-06	
39	-1.95000e+00	3.900603e-06	
40	-2.00000e+00	3.907282e-06	
41	-2.05000e+00	3.913893e-06	
42	-2.10000e+00	3.920438e-06	
43	-2.15000e+00	3.926922e-06	
44	-2.20000e+00	3.933348e-06	
45	-2.25000e+00	3.939720e-06	
46	-2.30000e+00	3.946040e-06	
47	-2.35000e+00	3.952315e-06	
48	-2.40000e+00	3.958547e-06	
49	-2.45000e+00	3.964742e-06	
50	-2.50000e+00	3.970905e-06	
51	-2.55000e+00	3.977041e-06	
52	-2.60000e+00	3.983159e-06	
53	-2.65000e+00	3.989266e-06	
54	-2.70000e+00	3.995370e-06	

Index   v-sweep         i(vds)          
--------------------------------------------------------------------------------
55	-2.75000e+00	4.001481e-06	
56	-2.80000e+00	4.007612e-06	
57	-2.85000e+00	4.013774e-06	
58	-2.90000e+00	4.019982e-06	
59	-2.95000e+00	4.026253e-06	
60	-3.00000e+00	4.032605e-06	
61	-3.05000e+00	4.039058e-06	
62	-3.10000e+00	4.045634e-06	
63	-3.15000e+00	4.052360e-06	
64	-3.20000e+00	4.059261e-06	
65	-3.25000e+00	4.066370e-06	
66	-3.30000e+00	4.073717e-06	
67	-0.000000e+00	0.000000e+00	
68	-5.00000e-02	8.419686e-06	
69	-1.00000e-01	1.598699e-05	
70	-1.50000e-01	2.273742e-05	
71	-2.00000e-01	2.868562e-05	
72	-2.50000e-01	3.384188e-05	
73	-3.00000e-01	3.821648e-05	
74	-3.50000e-01	4.182201e-05	
75	-4.00000e-01	4.467693e-05	
76	-4.50000e-01	4.681378e-05	
77	-5.00000e-01	4.829684e-05	
78	-5.50000e-01	4.924624e-05	
79	-6.00000e-01	4.983288e-05	
80	-6.50000e-01	5.021665e-05	
81	-7.00000e-01	5.049755e-05	
82	-7.50000e-01	5.072447e-05	
83	-8.00000e-01	5.091985e-05	
84	-8.50000e-01	5.109449e-05	
85	-9.00000e-01	5.125414e-05	
86	-9.50000e-01	5.140219e-05	
87	-1.00000e+00	5.154081e-05	
88	-1.05000e+00	5.167151e-05	
89	-1.10000e+00	5.179540e-05	
90	-1.15000e+00	5.191334e-05	
91	-1.20000e+00	5.202601e-05	
92	-1.25000e+00	5.213395e-05	
93	-1.30000e+00	5.223764e-05	
94	-1.35000e+00	5.233747e-05	
95	-1.40000e+00	5.243377e-05	
96	-1.45000e+00	5.252683e-05	
97	-1.50000e+00	5.261690e-05	
98	-1.55000e+00	5.270422e-05	
99	-1.60000e+00	5.278899e-05	
100	-1.65000e+00	5.287137e-05	
101	-1.70000e+00	5.295153e-05	
102	-1.75000e+00	5.302961e-05	
103	-1.80000e+00	5.310574e-05	
104	-1.85000e+00	5.318004e-05	
105	-1.90000e+00	5.325263e-05	
106	-1.95000e+00	5.332358e-05	
107	-2.00000e+00	5.339300e-05	
108	-2.05000e+00	5.346097e-05	
109	-2.10000e+00	5.352756e-05	
110	-2.15000e+00	5.359285e-05	
111	-2.20000e+00	5.365689e-05	
112	-2.25000e+00	5.371976e-05	

Index   v-sweep         i(vds)          
--------------------------------------------------------------------------------
113	-2.30000e+00	5.378150e-05	
114	-2.35000e+00	5.384218e-05	
115	-2.40000e+00	5.390184e-05	
116	-2.45000e+00	5.396053e-05	
117	-2.50000e+00	5.401831e-05	
118	-2.55000e+00	5.407521e-05	
119	-2.60000e+00	5.413130e-05	
120	-2.65000e+00	5.418661e-05	
121	-2.70000e+00	5.424121e-05	
122	-2.75000e+00	5.429514e-05	
123	-2.80000e+00	5.434848e-05	
124	-2.85000e+00	5.440128e-05	
125	-2.90000e+00	5.445363e-05	
126	-2.95000e+00	5.450561e-05	
127	-3.00000e+00	5.455732e-05	
128	-3.05000e+00	5.460887e-05	
129	-3.10000e+00	5.466038e-05	
130	-3.15000e+00	5.471200e-05	
131	-3.20000e+00	5.476388e-05	
132	-3.25000e+00	5.481622e-05	
133	-3.30000e+00	5.486920e-05	
134	-0.000000e+00	0.000000e+00	
135	-5.00000e-02	1.427141e-05	
136	-1.00000e-01	2.770459e-05	
137	-1.50000e-01	4.033377e-05	
138	-2.00000e-01	5.217206e-05	
139	-2.50000e-01	6.322762e-05	
140	-3.00000e-01	7.350745e-05	
141	-3.50000e-01	8.301827e-05	
142	-4.00000e-01	9.176677e-05	
143	-4.50000e-01	9.975973e-05	
144	-5.00000e-01	1.070041e-04	
145	-5.50000e-01	1.135072e-04	
146	-6.00000e-01	1.192771e-04	
147	-6.50000e-01	1.243228e-04	
148	-7.00000e-01	1.286561e-04	
149	-7.50000e-01	1.322931e-04	
150	-8.00000e-01	1.352586e-04	
151	-8.50000e-01	1.375945e-04	
152	-9.00000e-01	1.393699e-04	
153	-9.50000e-01	1.406879e-04	
154	-1.00000e+00	1.416722e-04	
155	-1.05000e+00	1.424365e-04	
156	-1.10000e+00	1.430623e-04	
157	-1.15000e+00	1.435993e-04	
158	-1.20000e+00	1.440760e-04	
159	-1.25000e+00	1.445089e-04	
160	-1.30000e+00	1.449080e-04	
161	-1.35000e+00	1.452799e-04	
162	-1.40000e+00	1.456290e-04	
163	-1.45000e+00	1.459587e-04	
164	-1.50000e+00	1.462715e-04	
165	-1.55000e+00	1.465693e-04	
166	-1.60000e+00	1.468538e-04	
167	-1.65000e+00	1.471263e-04	
168	-1.70000e+00	1.473879e-04	
169	-1.75000e+00	1.476396e-04	
170	-1.80000e+00	1.478821e-04	

Index   v-sweep         i(vds)          
--------------------------------------------------------------------------------
171	-1.85000e+00	1.481163e-04	
172	-1.90000e+00	1.483428e-04	
173	-1.95000e+00	1.485621e-04	
174	-2.00000e+00	1.487747e-04	
175	-2.05000e+00	1.489811e-04	
176	-2.10000e+00	1.491816e-04	
177	-2.15000e+00	1.493767e-04	
178	-2.20000e+00	1.495667e-04	
179	-2.25000e+00	1.497519e-04	
180	-2.30000e+00	1.499325e-04	
181	-2.35000e+00	1.501088e-04	
182	-2.40000e+00	1.502810e-04	
183	-2.45000e+00	1.504494e-04	
184	-2.50000e+00	1.506142e-04	
185	-2.55000e+00	1.507754e-04	
186	-2.60000e+00	1.509334e-04	
187	-2.65000e+00	1.510882e-04	
188	-2.70000e+00	1.512400e-04	
189	-2.75000e+00	1.513890e-04	
190	-2.80000e+00	1.515353e-04	
191	-2.85000e+00	1.516790e-04	
192	-2.90000e+00	1.518202e-04	
193	-2.95000e+00	1.519591e-04	
194	-3.00000e+00	1.520959e-04	
195	-3.05000e+00	1.522305e-04	
196	-3.10000e+00	1.523633e-04	
197	-3.15000e+00	1.524943e-04	
198	-3.20000e+00	1.526238e-04	
199	-3.25000e+00	1.527518e-04	
200	-3.30000e+00	1.528787e-04	
201	-0.000000e+00	0.000000e+00	
202	-5.00000e-02	1.918905e-05	
203	-1.00000e-01	3.757602e-05	
204	-1.50000e-01	5.519427e-05	
205	-2.00000e-01	7.205604e-05	
206	-2.50000e-01	8.816862e-05	
207	-3.00000e-01	1.035381e-04	
208	-3.50000e-01	1.181702e-04	
209	-4.00000e-01	1.320706e-04	
210	-4.50000e-01	1.452449e-04	
211	-5.00000e-01	1.576987e-04	
212	-5.50000e-01	1.694376e-04	
213	-6.00000e-01	1.804670e-04	
214	-6.50000e-01	1.907925e-04	
215	-7.00000e-01	2.004196e-04	
216	-7.50000e-01	2.093540e-04	
217	-8.00000e-01	2.176014e-04	
218	-8.50000e-01	2.251677e-04	
219	-9.00000e-01	2.320594e-04	
220	-9.50000e-01	2.382833e-04	
221	-1.00000e+00	2.438476e-04	
222	-1.05000e+00	2.487620e-04	
223	-1.10000e+00	2.530399e-04	
224	-1.15000e+00	2.567001e-04	
225	-1.20000e+00	2.597715e-04	
226	-1.25000e+00	2.622984e-04	
227	-1.30000e+00	2.643462e-04	
228	-1.35000e+00	2.659999e-04	

Index   v-sweep         i(vds)          
--------------------------------------------------------------------------------
229	-1.40000e+00	2.673529e-04	
230	-1.45000e+00	2.684890e-04	
231	-1.50000e+00	2.694720e-04	
232	-1.55000e+00	2.703453e-04	
233	-1.60000e+00	2.711369e-04	
234	-1.65000e+00	2.718651e-04	
235	-1.70000e+00	2.725421e-04	
236	-1.75000e+00	2.731764e-04	
237	-1.80000e+00	2.737744e-04	
238	-1.85000e+00	2.743408e-04	
239	-1.90000e+00	2.748794e-04	
240	-1.95000e+00	2.753931e-04	
241	-2.00000e+00	2.758845e-04	
242	-2.05000e+00	2.763557e-04	
243	-2.10000e+00	2.768085e-04	
244	-2.15000e+00	2.772444e-04	
245	-2.20000e+00	2.776648e-04	
246	-2.25000e+00	2.780708e-04	
247	-2.30000e+00	2.784635e-04	
248	-2.35000e+00	2.788439e-04	
249	-2.40000e+00	2.792127e-04	
250	-2.45000e+00	2.795707e-04	
251	-2.50000e+00	2.799187e-04	
252	-2.55000e+00	2.802571e-04	
253	-2.60000e+00	2.805867e-04	
254	-2.65000e+00	2.809078e-04	
255	-2.70000e+00	2.812209e-04	
256	-2.75000e+00	2.815266e-04	
257	-2.80000e+00	2.818251e-04	
258	-2.85000e+00	2.821168e-04	
259	-2.90000e+00	2.824022e-04	
260	-2.95000e+00	2.826814e-04	
261	-3.00000e+00	2.829548e-04	
262	-3.05000e+00	2.832226e-04	
263	-3.10000e+00	2.834852e-04	
264	-3.15000e+00	2.837428e-04	
265	-3.20000e+00	2.839955e-04	
266	-3.25000e+00	2.842437e-04	
267	-3.30000e+00	2.844876e-04	
268	-0.000000e+00	0.000000e+00	
269	-5.00000e-02	2.336969e-05	
270	-1.00000e-01	4.597707e-05	
271	-1.50000e-01	6.785479e-05	
272	-2.00000e-01	8.901438e-05	
273	-2.50000e-01	1.094624e-04	
274	-3.00000e-01	1.292043e-04	
275	-3.50000e-01	1.482450e-04	
276	-4.00000e-01	1.665896e-04	
277	-4.50000e-01	1.842430e-04	
278	-5.00000e-01	2.012100e-04	
279	-5.50000e-01	2.174955e-04	
280	-6.00000e-01	2.331042e-04	
281	-6.50000e-01	2.480409e-04	
282	-7.00000e-01	2.623104e-04	
283	-7.50000e-01	2.759172e-04	
284	-8.00000e-01	2.888661e-04	
285	-8.50000e-01	3.011617e-04	
286	-9.00000e-01	3.128086e-04	

Index   v-sweep         i(vds)          
--------------------------------------------------------------------------------
287	-9.50000e-01	3.238116e-04	
288	-1.00000e+00	3.341751e-04	
289	-1.05000e+00	3.439040e-04	
290	-1.10000e+00	3.530030e-04	
291	-1.15000e+00	3.614769e-04	
292	-1.20000e+00	3.693309e-04	
293	-1.25000e+00	3.765705e-04	
294	-1.30000e+00	3.832015e-04	
295	-1.35000e+00	3.892309e-04	
296	-1.40000e+00	3.946668e-04	
297	-1.45000e+00	3.995199e-04	
298	-1.50000e+00	4.038045e-04	
299	-1.55000e+00	4.075411e-04	
300	-1.60000e+00	4.107599e-04	
301	-1.65000e+00	4.135040e-04	
302	-1.70000e+00	4.158313e-04	
303	-1.75000e+00	4.178113e-04	
304	-1.80000e+00	4.195160e-04	
305	-1.85000e+00	4.210097e-04	
306	-1.90000e+00	4.223431e-04	
307	-1.95000e+00	4.235531e-04	
308	-2.00000e+00	4.246656e-04	
309	-2.05000e+00	4.256991e-04	
310	-2.10000e+00	4.266665e-04	
311	-2.15000e+00	4.275776e-04	
312	-2.20000e+00	4.284398e-04	
313	-2.25000e+00	4.292589e-04	
314	-2.30000e+00	4.300397e-04	
315	-2.35000e+00	4.307860e-04	
316	-2.40000e+00	4.315011e-04	
317	-2.45000e+00	4.321878e-04	
318	-2.50000e+00	4.328485e-04	
319	-2.55000e+00	4.334852e-04	
320	-2.60000e+00	4.340998e-04	
321	-2.65000e+00	4.346939e-04	
322	-2.70000e+00	4.352690e-04	
323	-2.75000e+00	4.358263e-04	
324	-2.80000e+00	4.363670e-04	
325	-2.85000e+00	4.368921e-04	
326	-2.90000e+00	4.374026e-04	
327	-2.95000e+00	4.378994e-04	
328	-3.00000e+00	4.383831e-04	
329	-3.05000e+00	4.388547e-04	
330	-3.10000e+00	4.393146e-04	
331	-3.15000e+00	4.397636e-04	
332	-3.20000e+00	4.402022e-04	
333	-3.25000e+00	4.406309e-04	
334	-3.30000e+00	4.410501e-04	
335	-0.000000e+00	0.000000e+00	
336	-5.00000e-02	2.696537e-05	
337	-1.00000e-01	5.320739e-05	
338	-1.50000e-01	7.875810e-05	
339	-2.00000e-01	1.036284e-04	
340	-2.50000e-01	1.278244e-04	
341	-3.00000e-01	1.513508e-04	
342	-3.50000e-01	1.742121e-04	
343	-4.00000e-01	1.964127e-04	
344	-4.50000e-01	2.179570e-04	

Index   v-sweep         i(vds)          
--------------------------------------------------------------------------------
345	-5.00000e-01	2.388492e-04	
346	-5.50000e-01	2.590937e-04	
347	-6.00000e-01	2.786947e-04	
348	-6.50000e-01	2.976564e-04	
349	-7.00000e-01	3.159829e-04	
350	-7.50000e-01	3.336785e-04	
351	-8.00000e-01	3.507471e-04	
352	-8.50000e-01	3.671929e-04	
353	-9.00000e-01	3.830198e-04	
354	-9.50000e-01	3.982321e-04	
355	-1.00000e+00	4.128335e-04	
356	-1.05000e+00	4.268281e-04	
357	-1.10000e+00	4.402198e-04	
358	-1.15000e+00	4.530126e-04	
359	-1.20000e+00	4.652104e-04	
360	-1.25000e+00	4.768171e-04	
361	-1.30000e+00	4.878367e-04	
362	-1.35000e+00	4.982730e-04	
363	-1.40000e+00	5.081301e-04	
364	-1.45000e+00	5.174121e-04	
365	-1.50000e+00	5.261231e-04	
366	-1.55000e+00	5.342675e-04	
367	-1.60000e+00	5.418499e-04	
368	-1.65000e+00	5.488755e-04	
369	-1.70000e+00	5.553498e-04	
370	-1.75000e+00	5.612798e-04	
371	-1.80000e+00	5.666738e-04	
372	-1.85000e+00	5.715426e-04	
373	-1.90000e+00	5.759013e-04	
374	-1.95000e+00	5.797706e-04	
375	-2.00000e+00	5.831797e-04	
376	-2.05000e+00	5.861681e-04	
377	-2.10000e+00	5.887855e-04	
378	-2.15000e+00	5.910885e-04	
379	-2.20000e+00	5.931338e-04	
380	-2.25000e+00	5.949724e-04	
381	-2.30000e+00	5.966457e-04	
382	-2.35000e+00	5.981857e-04	
383	-2.40000e+00	5.996159e-04	
384	-2.45000e+00	6.009541e-04	
385	-2.50000e+00	6.022137e-04	
386	-2.55000e+00	6.034050e-04	
387	-2.60000e+00	6.045361e-04	
388	-2.65000e+00	6.056137e-04	
389	-2.70000e+00	6.066432e-04	
390	-2.75000e+00	6.076292e-04	
391	-2.80000e+00	6.085755e-04	
392	-2.85000e+00	6.094856e-04	
393	-2.90000e+00	6.103623e-04	
394	-2.95000e+00	6.112082e-04	
395	-3.00000e+00	6.120255e-04	
396	-3.05000e+00	6.128163e-04	
397	-3.10000e+00	6.135824e-04	
398	-3.15000e+00	6.143253e-04	
399	-3.20000e+00	6.150466e-04	
400	-3.25000e+00	6.157475e-04	
401	-3.30000e+00	6.164292e-04	
Note: No ".plot", ".print", or ".fourier" lines; no simulations run
