
Note: Compatibility modes selected: hs

Warning: m=xx on .subckt line will override multiplier m hierarchy!


Circuit: ***************************

Doing analysis at TEMP = -40.000000 and TNOM = -40.000000


No. of Data Rows : 402
                          ***************************
                          DC transfer characteristic  Mon Jan  9 13:57:29  2023
--------------------------------------------------------------------------------
Index   v-sweep         i(vds)          
--------------------------------------------------------------------------------
0	-0.000000e+00	0.000000e+00	
1	-5.00000e-02	5.495215e-08	
2	-1.00000e-01	7.052997e-08	
3	-1.50000e-01	7.469463e-08	
4	-2.00000e-01	7.721145e-08	
5	-2.50000e-01	7.939329e-08	
6	-3.00000e-01	8.146380e-08	
7	-3.50000e-01	8.348391e-08	
8	-4.00000e-01	8.547704e-08	
9	-4.50000e-01	8.745481e-08	
10	-5.00000e-01	8.942411e-08	
11	-5.50000e-01	9.138956e-08	
12	-6.00000e-01	9.335457e-08	
13	-6.50000e-01	9.532178e-08	
14	-7.00000e-01	9.729333e-08	
15	-7.50000e-01	9.927100e-08	
16	-8.00000e-01	1.012563e-07	
17	-8.50000e-01	1.032506e-07	
18	-9.00000e-01	1.052549e-07	
19	-9.50000e-01	1.072704e-07	
20	-1.00000e+00	1.092979e-07	
21	-1.05000e+00	1.113382e-07	
22	-1.10000e+00	1.133920e-07	
23	-1.15000e+00	1.154600e-07	
24	-1.20000e+00	1.175429e-07	
25	-1.25000e+00	1.196411e-07	
26	-1.30000e+00	1.217553e-07	
27	-1.35000e+00	1.238857e-07	
28	-1.40000e+00	1.260330e-07	
29	-1.45000e+00	1.281976e-07	
30	-1.50000e+00	1.303797e-07	
31	-1.55000e+00	1.325798e-07	
32	-1.60000e+00	1.347982e-07	
33	-1.65000e+00	1.370352e-07	
34	-1.70000e+00	1.392912e-07	
35	-1.75000e+00	1.415664e-07	
36	-1.80000e+00	1.438611e-07	
37	-1.85000e+00	1.461756e-07	
38	-1.90000e+00	1.485101e-07	
39	-1.95000e+00	1.508650e-07	
40	-2.00000e+00	1.532404e-07	
41	-2.05000e+00	1.556366e-07	
42	-2.10000e+00	1.580539e-07	
43	-2.15000e+00	1.604925e-07	
44	-2.20000e+00	1.629528e-07	
45	-2.25000e+00	1.654351e-07	
46	-2.30000e+00	1.679396e-07	
47	-2.35000e+00	1.704669e-07	
48	-2.40000e+00	1.730172e-07	
49	-2.45000e+00	1.755912e-07	
50	-2.50000e+00	1.781893e-07	
51	-2.55000e+00	1.808122e-07	
52	-2.60000e+00	1.834605e-07	
53	-2.65000e+00	1.861352e-07	
54	-2.70000e+00	1.888372e-07	

Index   v-sweep         i(vds)          
--------------------------------------------------------------------------------
55	-2.75000e+00	1.915675e-07	
56	-2.80000e+00	1.943275e-07	
57	-2.85000e+00	1.971185e-07	
58	-2.90000e+00	1.999421e-07	
59	-2.95000e+00	2.028002e-07	
60	-3.00000e+00	2.056948e-07	
61	-3.05000e+00	2.086282e-07	
62	-3.10000e+00	2.116031e-07	
63	-3.15000e+00	2.146222e-07	
64	-3.20000e+00	2.176889e-07	
65	-3.25000e+00	2.208066e-07	
66	-3.30000e+00	2.239792e-07	
67	-0.000000e+00	0.000000e+00	
68	-5.00000e-02	9.604188e-07	
69	-1.00000e-01	1.811085e-06	
70	-1.50000e-01	2.554707e-06	
71	-2.00000e-01	3.194001e-06	
72	-2.50000e-01	3.731792e-06	
73	-3.00000e-01	4.171255e-06	
74	-3.50000e-01	4.516524e-06	
75	-4.00000e-01	4.774207e-06	
76	-4.50000e-01	4.956397e-06	
77	-5.00000e-01	5.082942e-06	
78	-5.50000e-01	5.176285e-06	
79	-6.00000e-01	5.252379e-06	
80	-6.50000e-01	5.319263e-06	
81	-7.00000e-01	5.380530e-06	
82	-7.50000e-01	5.437874e-06	
83	-8.00000e-01	5.492199e-06	
84	-8.50000e-01	5.544061e-06	
85	-9.00000e-01	5.593833e-06	
86	-9.50000e-01	5.641794e-06	
87	-1.00000e+00	5.688158e-06	
88	-1.05000e+00	5.733097e-06	
89	-1.10000e+00	5.776757e-06	
90	-1.15000e+00	5.819259e-06	
91	-1.20000e+00	5.860706e-06	
92	-1.25000e+00	5.901190e-06	
93	-1.30000e+00	5.940789e-06	
94	-1.35000e+00	5.979572e-06	
95	-1.40000e+00	6.017603e-06	
96	-1.45000e+00	6.054936e-06	
97	-1.50000e+00	6.091621e-06	
98	-1.55000e+00	6.127701e-06	
99	-1.60000e+00	6.163218e-06	
100	-1.65000e+00	6.198208e-06	
101	-1.70000e+00	6.232704e-06	
102	-1.75000e+00	6.266737e-06	
103	-1.80000e+00	6.300334e-06	
104	-1.85000e+00	6.333521e-06	
105	-1.90000e+00	6.366321e-06	
106	-1.95000e+00	6.398756e-06	
107	-2.00000e+00	6.430846e-06	
108	-2.05000e+00	6.462609e-06	
109	-2.10000e+00	6.494063e-06	
110	-2.15000e+00	6.525224e-06	
111	-2.20000e+00	6.556107e-06	
112	-2.25000e+00	6.586726e-06	

Index   v-sweep         i(vds)          
--------------------------------------------------------------------------------
113	-2.30000e+00	6.617095e-06	
114	-2.35000e+00	6.647227e-06	
115	-2.40000e+00	6.677133e-06	
116	-2.45000e+00	6.706827e-06	
117	-2.50000e+00	6.736320e-06	
118	-2.55000e+00	6.765624e-06	
119	-2.60000e+00	6.794753e-06	
120	-2.65000e+00	6.823718e-06	
121	-2.70000e+00	6.852534e-06	
122	-2.75000e+00	6.881216e-06	
123	-2.80000e+00	6.909779e-06	
124	-2.85000e+00	6.938241e-06	
125	-2.90000e+00	6.966622e-06	
126	-2.95000e+00	6.994945e-06	
127	-3.00000e+00	7.023233e-06	
128	-3.05000e+00	7.051516e-06	
129	-3.10000e+00	7.079823e-06	
130	-3.15000e+00	7.108190e-06	
131	-3.20000e+00	7.136657e-06	
132	-3.25000e+00	7.165268e-06	
133	-3.30000e+00	7.194072e-06	
134	-0.000000e+00	0.000000e+00	
135	-5.00000e-02	1.777348e-06	
136	-1.00000e-01	3.439105e-06	
137	-1.50000e-01	4.987773e-06	
138	-2.00000e-01	6.425788e-06	
139	-2.50000e-01	7.755524e-06	
140	-3.00000e-01	8.979302e-06	
141	-3.50000e-01	1.009940e-05	
142	-4.00000e-01	1.111804e-05	
143	-4.50000e-01	1.203747e-05	
144	-5.00000e-01	1.285994e-05	
145	-5.50000e-01	1.358778e-05	
146	-6.00000e-01	1.422356e-05	
147	-6.50000e-01	1.477033e-05	
148	-7.00000e-01	1.523219e-05	
149	-7.50000e-01	1.561522e-05	
150	-8.00000e-01	1.592889e-05	
151	-8.50000e-01	1.618665e-05	
152	-9.00000e-01	1.640372e-05	
153	-9.50000e-01	1.659319e-05	
154	-1.00000e+00	1.676395e-05	
155	-1.05000e+00	1.692130e-05	
156	-1.10000e+00	1.706838e-05	
157	-1.15000e+00	1.720715e-05	
158	-1.20000e+00	1.733894e-05	
159	-1.25000e+00	1.746471e-05	
160	-1.30000e+00	1.758519e-05	
161	-1.35000e+00	1.770097e-05	
162	-1.40000e+00	1.781253e-05	
163	-1.45000e+00	1.792027e-05	
164	-1.50000e+00	1.802454e-05	
165	-1.55000e+00	1.812563e-05	
166	-1.60000e+00	1.822381e-05	
167	-1.65000e+00	1.831931e-05	
168	-1.70000e+00	1.841231e-05	
169	-1.75000e+00	1.850301e-05	
170	-1.80000e+00	1.859157e-05	

Index   v-sweep         i(vds)          
--------------------------------------------------------------------------------
171	-1.85000e+00	1.867813e-05	
172	-1.90000e+00	1.876282e-05	
173	-1.95000e+00	1.884575e-05	
174	-2.00000e+00	1.892705e-05	
175	-2.05000e+00	1.900679e-05	
176	-2.10000e+00	1.908508e-05	
177	-2.15000e+00	1.916200e-05	
178	-2.20000e+00	1.923762e-05	
179	-2.25000e+00	1.931201e-05	
180	-2.30000e+00	1.938523e-05	
181	-2.35000e+00	1.945735e-05	
182	-2.40000e+00	1.952842e-05	
183	-2.45000e+00	1.959849e-05	
184	-2.50000e+00	1.966761e-05	
185	-2.55000e+00	1.973582e-05	
186	-2.60000e+00	1.980317e-05	
187	-2.65000e+00	1.986970e-05	
188	-2.70000e+00	1.993544e-05	
189	-2.75000e+00	2.000044e-05	
190	-2.80000e+00	2.006473e-05	
191	-2.85000e+00	2.012834e-05	
192	-2.90000e+00	2.019131e-05	
193	-2.95000e+00	2.025369e-05	
194	-3.00000e+00	2.031550e-05	
195	-3.05000e+00	2.037679e-05	
196	-3.10000e+00	2.043760e-05	
197	-3.15000e+00	2.049798e-05	
198	-3.20000e+00	2.055798e-05	
199	-3.25000e+00	2.061766e-05	
200	-3.30000e+00	2.067708e-05	
201	-0.000000e+00	0.000000e+00	
202	-5.00000e-02	2.454837e-06	
203	-1.00000e-01	4.793660e-06	
204	-1.50000e-01	7.018759e-06	
205	-2.00000e-01	9.132363e-06	
206	-2.50000e-01	1.113665e-05	
207	-3.00000e-01	1.303373e-05	
208	-3.50000e-01	1.482568e-05	
209	-4.00000e-01	1.651452e-05	
210	-4.50000e-01	1.810221e-05	
211	-5.00000e-01	1.959070e-05	
212	-5.50000e-01	2.098186e-05	
213	-6.00000e-01	2.227756e-05	
214	-6.50000e-01	2.347963e-05	
215	-7.00000e-01	2.458989e-05	
216	-7.50000e-01	2.561017e-05	
217	-8.00000e-01	2.654232e-05	
218	-8.50000e-01	2.738832e-05	
219	-9.00000e-01	2.815031e-05	
220	-9.50000e-01	2.883083e-05	
221	-1.00000e+00	2.943311e-05	
222	-1.05000e+00	2.996165e-05	
223	-1.10000e+00	3.042288e-05	
224	-1.15000e+00	3.082570e-05	
225	-1.20000e+00	3.118080e-05	
226	-1.25000e+00	3.149890e-05	
227	-1.30000e+00	3.178881e-05	
228	-1.35000e+00	3.205692e-05	

Index   v-sweep         i(vds)          
--------------------------------------------------------------------------------
229	-1.40000e+00	3.230758e-05	
230	-1.45000e+00	3.254377e-05	
231	-1.50000e+00	3.276765e-05	
232	-1.55000e+00	3.298082e-05	
233	-1.60000e+00	3.318453e-05	
234	-1.65000e+00	3.337981e-05	
235	-1.70000e+00	3.356749e-05	
236	-1.75000e+00	3.374828e-05	
237	-1.80000e+00	3.392280e-05	
238	-1.85000e+00	3.409157e-05	
239	-1.90000e+00	3.425506e-05	
240	-1.95000e+00	3.441367e-05	
241	-2.00000e+00	3.456777e-05	
242	-2.05000e+00	3.471767e-05	
243	-2.10000e+00	3.486366e-05	
244	-2.15000e+00	3.500601e-05	
245	-2.20000e+00	3.514494e-05	
246	-2.25000e+00	3.528067e-05	
247	-2.30000e+00	3.541340e-05	
248	-2.35000e+00	3.554329e-05	
249	-2.40000e+00	3.567052e-05	
250	-2.45000e+00	3.579522e-05	
251	-2.50000e+00	3.591754e-05	
252	-2.55000e+00	3.603760e-05	
253	-2.60000e+00	3.615552e-05	
254	-2.65000e+00	3.627140e-05	
255	-2.70000e+00	3.638534e-05	
256	-2.75000e+00	3.649744e-05	
257	-2.80000e+00	3.660779e-05	
258	-2.85000e+00	3.671646e-05	
259	-2.90000e+00	3.682353e-05	
260	-2.95000e+00	3.692908e-05	
261	-3.00000e+00	3.703318e-05	
262	-3.05000e+00	3.713588e-05	
263	-3.10000e+00	3.723726e-05	
264	-3.15000e+00	3.733738e-05	
265	-3.20000e+00	3.743631e-05	
266	-3.25000e+00	3.753410e-05	
267	-3.30000e+00	3.763084e-05	
268	-0.000000e+00	0.000000e+00	
269	-5.00000e-02	3.015940e-06	
270	-1.00000e-01	5.917873e-06	
271	-1.50000e-01	8.707866e-06	
272	-2.00000e-01	1.138794e-05	
273	-2.50000e-01	1.396005e-05	
274	-3.00000e-01	1.642613e-05	
275	-3.50000e-01	1.878806e-05	
276	-4.00000e-01	2.104768e-05	
277	-4.50000e-01	2.320677e-05	
278	-5.00000e-01	2.526708e-05	
279	-5.50000e-01	2.723035e-05	
280	-6.00000e-01	2.909823e-05	
281	-6.50000e-01	3.087238e-05	
282	-7.00000e-01	3.255441e-05	
283	-7.50000e-01	3.414588e-05	
284	-8.00000e-01	3.564837e-05	
285	-8.50000e-01	3.706338e-05	
286	-9.00000e-01	3.839244e-05	

Index   v-sweep         i(vds)          
--------------------------------------------------------------------------------
287	-9.50000e-01	3.963704e-05	
288	-1.00000e+00	4.079869e-05	
289	-1.05000e+00	4.187890e-05	
290	-1.10000e+00	4.287926e-05	
291	-1.15000e+00	4.380145e-05	
292	-1.20000e+00	4.464734e-05	
293	-1.25000e+00	4.541916e-05	
294	-1.30000e+00	4.611973e-05	
295	-1.35000e+00	4.675282e-05	
296	-1.40000e+00	4.732358e-05	
297	-1.45000e+00	4.783877e-05	
298	-1.50000e+00	4.830635e-05	
299	-1.55000e+00	4.873444e-05	
300	-1.60000e+00	4.913024e-05	
301	-1.65000e+00	4.949946e-05	
302	-1.70000e+00	4.984641e-05	
303	-1.75000e+00	5.017433e-05	
304	-1.80000e+00	5.048571e-05	
305	-1.85000e+00	5.078249e-05	
306	-1.90000e+00	5.106626e-05	
307	-1.95000e+00	5.133833e-05	
308	-2.00000e+00	5.159981e-05	
309	-2.05000e+00	5.185164e-05	
310	-2.10000e+00	5.209464e-05	
311	-2.15000e+00	5.232953e-05	
312	-2.20000e+00	5.255694e-05	
313	-2.25000e+00	5.277743e-05	
314	-2.30000e+00	5.299149e-05	
315	-2.35000e+00	5.319956e-05	
316	-2.40000e+00	5.340206e-05	
317	-2.45000e+00	5.359933e-05	
318	-2.50000e+00	5.379171e-05	
319	-2.55000e+00	5.397949e-05	
320	-2.60000e+00	5.416295e-05	
321	-2.65000e+00	5.434232e-05	
322	-2.70000e+00	5.451785e-05	
323	-2.75000e+00	5.468973e-05	
324	-2.80000e+00	5.485816e-05	
325	-2.85000e+00	5.502333e-05	
326	-2.90000e+00	5.518538e-05	
327	-2.95000e+00	5.534448e-05	
328	-3.00000e+00	5.550076e-05	
329	-3.05000e+00	5.565437e-05	
330	-3.10000e+00	5.580541e-05	
331	-3.15000e+00	5.595402e-05	
332	-3.20000e+00	5.610029e-05	
333	-3.25000e+00	5.624434e-05	
334	-3.30000e+00	5.638626e-05	
335	-0.000000e+00	0.000000e+00	
336	-5.00000e-02	3.481017e-06	
337	-1.00000e-01	6.851359e-06	
338	-1.50000e-01	1.011288e-05	
339	-2.00000e-01	1.326738e-05	
340	-2.50000e-01	1.631665e-05	
341	-3.00000e-01	1.926240e-05	
342	-3.50000e-01	2.210634e-05	
343	-4.00000e-01	2.485012e-05	
344	-4.50000e-01	2.749536e-05	

Index   v-sweep         i(vds)          
--------------------------------------------------------------------------------
345	-5.00000e-01	3.004366e-05	
346	-5.50000e-01	3.249657e-05	
347	-6.00000e-01	3.485561e-05	
348	-6.50000e-01	3.712227e-05	
349	-7.00000e-01	3.929802e-05	
350	-7.50000e-01	4.138428e-05	
351	-8.00000e-01	4.338247e-05	
352	-8.50000e-01	4.529395e-05	
353	-9.00000e-01	4.712007e-05	
354	-9.50000e-01	4.886218e-05	
355	-1.00000e+00	5.052156e-05	
356	-1.05000e+00	5.209951e-05	
357	-1.10000e+00	5.359729e-05	
358	-1.15000e+00	5.501616e-05	
359	-1.20000e+00	5.635737e-05	
360	-1.25000e+00	5.762216e-05	
361	-1.30000e+00	5.881181e-05	
362	-1.35000e+00	5.992760e-05	
363	-1.40000e+00	6.097091e-05	
364	-1.45000e+00	6.194321e-05	
365	-1.50000e+00	6.284619e-05	
366	-1.55000e+00	6.368188e-05	
367	-1.60000e+00	6.445283e-05	
368	-1.65000e+00	6.516239e-05	
369	-1.70000e+00	6.581495e-05	
370	-1.75000e+00	6.641597e-05	
371	-1.80000e+00	6.697163e-05	
372	-1.85000e+00	6.748815e-05	
373	-1.90000e+00	6.797119e-05	
374	-1.95000e+00	6.842547e-05	
375	-2.00000e+00	6.885481e-05	
376	-2.05000e+00	6.926230e-05	
377	-2.10000e+00	6.965041e-05	
378	-2.15000e+00	7.002119e-05	
379	-2.20000e+00	7.037636e-05	
380	-2.25000e+00	7.071737e-05	
381	-2.30000e+00	7.104547e-05	
382	-2.35000e+00	7.136176e-05	
383	-2.40000e+00	7.166718e-05	
384	-2.45000e+00	7.196257e-05	
385	-2.50000e+00	7.224868e-05	
386	-2.55000e+00	7.252617e-05	
387	-2.60000e+00	7.279563e-05	
388	-2.65000e+00	7.305759e-05	
389	-2.70000e+00	7.331255e-05	
390	-2.75000e+00	7.356094e-05	
391	-2.80000e+00	7.380315e-05	
392	-2.85000e+00	7.403955e-05	
393	-2.90000e+00	7.427048e-05	
394	-2.95000e+00	7.449623e-05	
395	-3.00000e+00	7.471708e-05	
396	-3.05000e+00	7.493330e-05	
397	-3.10000e+00	7.514512e-05	
398	-3.15000e+00	7.535276e-05	
399	-3.20000e+00	7.555642e-05	
400	-3.25000e+00	7.575631e-05	
401	-3.30000e+00	7.595258e-05	
Note: No ".plot", ".print", or ".fourier" lines; no simulations run
