
Note: Compatibility modes selected: hs

Warning: m=xx on .subckt line will override multiplier m hierarchy!


Circuit: ***************************

Doing analysis at TEMP = -40.000000 and TNOM = -40.000000


No. of Data Rows : 402
                          ***************************
                          DC transfer characteristic  Mon Jan  9 13:57:29  2023
--------------------------------------------------------------------------------
Index   v-sweep         i(vds)          
--------------------------------------------------------------------------------
0	-0.000000e+00	0.000000e+00	
1	-5.00000e-02	9.327037e-08	
2	-1.00000e-01	1.008048e-07	
3	-1.50000e-01	1.022560e-07	
4	-2.00000e-01	1.029427e-07	
5	-2.50000e-01	1.034189e-07	
6	-3.00000e-01	1.038059e-07	
7	-3.50000e-01	1.041442e-07	
8	-4.00000e-01	1.044511e-07	
9	-4.50000e-01	1.047356e-07	
10	-5.00000e-01	1.050030e-07	
11	-5.50000e-01	1.052569e-07	
12	-6.00000e-01	1.054996e-07	
13	-6.50000e-01	1.057329e-07	
14	-7.00000e-01	1.059580e-07	
15	-7.50000e-01	1.061761e-07	
16	-8.00000e-01	1.063880e-07	
17	-8.50000e-01	1.065944e-07	
18	-9.00000e-01	1.067958e-07	
19	-9.50000e-01	1.069928e-07	
20	-1.00000e+00	1.071858e-07	
21	-1.05000e+00	1.073751e-07	
22	-1.10000e+00	1.075610e-07	
23	-1.15000e+00	1.077438e-07	
24	-1.20000e+00	1.079238e-07	
25	-1.25000e+00	1.081011e-07	
26	-1.30000e+00	1.082760e-07	
27	-1.35000e+00	1.084486e-07	
28	-1.40000e+00	1.086191e-07	
29	-1.45000e+00	1.087875e-07	
30	-1.50000e+00	1.089542e-07	
31	-1.55000e+00	1.091190e-07	
32	-1.60000e+00	1.092822e-07	
33	-1.65000e+00	1.094439e-07	
34	-1.70000e+00	1.096041e-07	
35	-1.75000e+00	1.097629e-07	
36	-1.80000e+00	1.099204e-07	
37	-1.85000e+00	1.100766e-07	
38	-1.90000e+00	1.102317e-07	
39	-1.95000e+00	1.103856e-07	
40	-2.00000e+00	1.105385e-07	
41	-2.05000e+00	1.106904e-07	
42	-2.10000e+00	1.108414e-07	
43	-2.15000e+00	1.109915e-07	
44	-2.20000e+00	1.111409e-07	
45	-2.25000e+00	1.112895e-07	
46	-2.30000e+00	1.114374e-07	
47	-2.35000e+00	1.115848e-07	
48	-2.40000e+00	1.117318e-07	
49	-2.45000e+00	1.118784e-07	
50	-2.50000e+00	1.120248e-07	
51	-2.55000e+00	1.121712e-07	
52	-2.60000e+00	1.123177e-07	
53	-2.65000e+00	1.124646e-07	
54	-2.70000e+00	1.126122e-07	

Index   v-sweep         i(vds)          
--------------------------------------------------------------------------------
55	-2.75000e+00	1.127606e-07	
56	-2.80000e+00	1.129103e-07	
57	-2.85000e+00	1.130617e-07	
58	-2.90000e+00	1.132151e-07	
59	-2.95000e+00	1.133711e-07	
60	-3.00000e+00	1.135302e-07	
61	-3.05000e+00	1.136931e-07	
62	-3.10000e+00	1.138605e-07	
63	-3.15000e+00	1.140332e-07	
64	-3.20000e+00	1.142120e-07	
65	-3.25000e+00	1.143980e-07	
66	-3.30000e+00	1.145922e-07	
67	-0.000000e+00	0.000000e+00	
68	-5.00000e-02	1.008408e-05	
69	-1.00000e-01	1.858522e-05	
70	-1.50000e-01	2.552047e-05	
71	-2.00000e-01	3.091442e-05	
72	-2.50000e-01	3.481320e-05	
73	-3.00000e-01	3.732515e-05	
74	-3.50000e-01	3.870495e-05	
75	-4.00000e-01	3.937295e-05	
76	-4.50000e-01	3.971000e-05	
77	-5.00000e-01	3.991248e-05	
78	-5.50000e-01	4.005601e-05	
79	-6.00000e-01	4.016931e-05	
80	-6.50000e-01	4.026462e-05	
81	-7.00000e-01	4.034790e-05	
82	-7.50000e-01	4.042247e-05	
83	-8.00000e-01	4.049033e-05	
84	-8.50000e-01	4.055282e-05	
85	-9.00000e-01	4.061088e-05	
86	-9.50000e-01	4.066520e-05	
87	-1.00000e+00	4.071631e-05	
88	-1.05000e+00	4.076462e-05	
89	-1.10000e+00	4.081047e-05	
90	-1.15000e+00	4.085413e-05	
91	-1.20000e+00	4.089583e-05	
92	-1.25000e+00	4.093576e-05	
93	-1.30000e+00	4.097409e-05	
94	-1.35000e+00	4.101095e-05	
95	-1.40000e+00	4.104648e-05	
96	-1.45000e+00	4.108079e-05	
97	-1.50000e+00	4.111395e-05	
98	-1.55000e+00	4.114607e-05	
99	-1.60000e+00	4.117721e-05	
100	-1.65000e+00	4.120744e-05	
101	-1.70000e+00	4.123683e-05	
102	-1.75000e+00	4.126542e-05	
103	-1.80000e+00	4.129327e-05	
104	-1.85000e+00	4.132042e-05	
105	-1.90000e+00	4.134691e-05	
106	-1.95000e+00	4.137278e-05	
107	-2.00000e+00	4.139806e-05	
108	-2.05000e+00	4.142278e-05	
109	-2.10000e+00	4.144699e-05	
110	-2.15000e+00	4.147069e-05	
111	-2.20000e+00	4.149392e-05	
112	-2.25000e+00	4.151670e-05	

Index   v-sweep         i(vds)          
--------------------------------------------------------------------------------
113	-2.30000e+00	4.153907e-05	
114	-2.35000e+00	4.156103e-05	
115	-2.40000e+00	4.158261e-05	
116	-2.45000e+00	4.160384e-05	
117	-2.50000e+00	4.162474e-05	
118	-2.55000e+00	4.164535e-05	
119	-2.60000e+00	4.166568e-05	
120	-2.65000e+00	4.168578e-05	
121	-2.70000e+00	4.170567e-05	
122	-2.75000e+00	4.172541e-05	
123	-2.80000e+00	4.174504e-05	
124	-2.85000e+00	4.176462e-05	
125	-2.90000e+00	4.178421e-05	
126	-2.95000e+00	4.180390e-05	
127	-3.00000e+00	4.182377e-05	
128	-3.05000e+00	4.184392e-05	
129	-3.10000e+00	4.186448e-05	
130	-3.15000e+00	4.188557e-05	
131	-3.20000e+00	4.190736e-05	
132	-3.25000e+00	4.193002e-05	
133	-3.30000e+00	4.195375e-05	
134	-0.000000e+00	0.000000e+00	
135	-5.00000e-02	2.083832e-05	
136	-1.00000e-01	4.013462e-05	
137	-1.50000e-01	5.789927e-05	
138	-2.00000e-01	7.414273e-05	
139	-2.50000e-01	8.887564e-05	
140	-3.00000e-01	1.021090e-04	
141	-3.50000e-01	1.138545e-04	
142	-4.00000e-01	1.241250e-04	
143	-4.50000e-01	1.329362e-04	
144	-5.00000e-01	1.403088e-04	
145	-5.50000e-01	1.462743e-04	
146	-6.00000e-01	1.508878e-04	
147	-6.50000e-01	1.542521e-04	
148	-7.00000e-01	1.565505e-04	
149	-7.50000e-01	1.580518e-04	
150	-8.00000e-01	1.590421e-04	
151	-8.50000e-01	1.597378e-04	
152	-9.00000e-01	1.602666e-04	
153	-9.50000e-01	1.606954e-04	
154	-1.00000e+00	1.610595e-04	
155	-1.05000e+00	1.613785e-04	
156	-1.10000e+00	1.616638e-04	
157	-1.15000e+00	1.619231e-04	
158	-1.20000e+00	1.621612e-04	
159	-1.25000e+00	1.623819e-04	
160	-1.30000e+00	1.625879e-04	
161	-1.35000e+00	1.627811e-04	
162	-1.40000e+00	1.629632e-04	
163	-1.45000e+00	1.631356e-04	
164	-1.50000e+00	1.632993e-04	
165	-1.55000e+00	1.634552e-04	
166	-1.60000e+00	1.636042e-04	
167	-1.65000e+00	1.637468e-04	
168	-1.70000e+00	1.638836e-04	
169	-1.75000e+00	1.640151e-04	
170	-1.80000e+00	1.641417e-04	

Index   v-sweep         i(vds)          
--------------------------------------------------------------------------------
171	-1.85000e+00	1.642639e-04	
172	-1.90000e+00	1.643819e-04	
173	-1.95000e+00	1.644961e-04	
174	-2.00000e+00	1.646066e-04	
175	-2.05000e+00	1.647138e-04	
176	-2.10000e+00	1.648179e-04	
177	-2.15000e+00	1.649190e-04	
178	-2.20000e+00	1.650174e-04	
179	-2.25000e+00	1.651131e-04	
180	-2.30000e+00	1.652064e-04	
181	-2.35000e+00	1.652974e-04	
182	-2.40000e+00	1.653862e-04	
183	-2.45000e+00	1.654729e-04	
184	-2.50000e+00	1.655577e-04	
185	-2.55000e+00	1.656406e-04	
186	-2.60000e+00	1.657217e-04	
187	-2.65000e+00	1.658011e-04	
188	-2.70000e+00	1.658790e-04	
189	-2.75000e+00	1.659553e-04	
190	-2.80000e+00	1.660303e-04	
191	-2.85000e+00	1.661039e-04	
192	-2.90000e+00	1.661764e-04	
193	-2.95000e+00	1.662478e-04	
194	-3.00000e+00	1.663182e-04	
195	-3.05000e+00	1.663878e-04	
196	-3.10000e+00	1.664567e-04	
197	-3.15000e+00	1.665252e-04	
198	-3.20000e+00	1.665934e-04	
199	-3.25000e+00	1.666617e-04	
200	-3.30000e+00	1.667302e-04	
201	-0.000000e+00	0.000000e+00	
202	-5.00000e-02	2.980379e-05	
203	-1.00000e-01	5.816722e-05	
204	-1.50000e-01	8.509899e-05	
205	-2.00000e-01	1.106078e-04	
206	-2.50000e-01	1.347021e-04	
207	-3.00000e-01	1.573907e-04	
208	-3.50000e-01	1.786820e-04	
209	-4.00000e-01	1.985847e-04	
210	-4.50000e-01	2.171073e-04	
211	-5.00000e-01	2.342586e-04	
212	-5.50000e-01	2.500474e-04	
213	-6.00000e-01	2.644830e-04	
214	-6.50000e-01	2.775749e-04	
215	-7.00000e-01	2.893339e-04	
216	-7.50000e-01	2.997721e-04	
217	-8.00000e-01	3.089042e-04	
218	-8.50000e-01	3.167503e-04	
219	-9.00000e-01	3.233396e-04	
220	-9.50000e-01	3.287189e-04	
221	-1.00000e+00	3.329657e-04	
222	-1.05000e+00	3.362044e-04	
223	-1.10000e+00	3.386134e-04	
224	-1.15000e+00	3.404018e-04	
225	-1.20000e+00	3.417633e-04	
226	-1.25000e+00	3.428432e-04	
227	-1.30000e+00	3.437361e-04	
228	-1.35000e+00	3.445002e-04	

Index   v-sweep         i(vds)          
--------------------------------------------------------------------------------
229	-1.40000e+00	3.451712e-04	
230	-1.45000e+00	3.457717e-04	
231	-1.50000e+00	3.463169e-04	
232	-1.55000e+00	3.468172e-04	
233	-1.60000e+00	3.472802e-04	
234	-1.65000e+00	3.477116e-04	
235	-1.70000e+00	3.481158e-04	
236	-1.75000e+00	3.484964e-04	
237	-1.80000e+00	3.488561e-04	
238	-1.85000e+00	3.491974e-04	
239	-1.90000e+00	3.495220e-04	
240	-1.95000e+00	3.498317e-04	
241	-2.00000e+00	3.501278e-04	
242	-2.05000e+00	3.504116e-04	
243	-2.10000e+00	3.506841e-04	
244	-2.15000e+00	3.509463e-04	
245	-2.20000e+00	3.511989e-04	
246	-2.25000e+00	3.514426e-04	
247	-2.30000e+00	3.516782e-04	
248	-2.35000e+00	3.519061e-04	
249	-2.40000e+00	3.521268e-04	
250	-2.45000e+00	3.523409e-04	
251	-2.50000e+00	3.525487e-04	
252	-2.55000e+00	3.527507e-04	
253	-2.60000e+00	3.529471e-04	
254	-2.65000e+00	3.531383e-04	
255	-2.70000e+00	3.533246e-04	
256	-2.75000e+00	3.535062e-04	
257	-2.80000e+00	3.536835e-04	
258	-2.85000e+00	3.538565e-04	
259	-2.90000e+00	3.540256e-04	
260	-2.95000e+00	3.541909e-04	
261	-3.00000e+00	3.543526e-04	
262	-3.05000e+00	3.545110e-04	
263	-3.10000e+00	3.546662e-04	
264	-3.15000e+00	3.548184e-04	
265	-3.20000e+00	3.549679e-04	
266	-3.25000e+00	3.551147e-04	
267	-3.30000e+00	3.552592e-04	
268	-0.000000e+00	0.000000e+00	
269	-5.00000e-02	3.715505e-05	
270	-1.00000e-01	7.298189e-05	
271	-1.50000e-01	1.074879e-04	
272	-2.00000e-01	1.406804e-04	
273	-2.50000e-01	1.725667e-04	
274	-3.00000e-01	2.031541e-04	
275	-3.50000e-01	2.324497e-04	
276	-4.00000e-01	2.604606e-04	
277	-4.50000e-01	2.871940e-04	
278	-5.00000e-01	3.126571e-04	
279	-5.50000e-01	3.368567e-04	
280	-6.00000e-01	3.598001e-04	
281	-6.50000e-01	3.814942e-04	
282	-7.00000e-01	4.019460e-04	
283	-7.50000e-01	4.211627e-04	
284	-8.00000e-01	4.391513e-04	
285	-8.50000e-01	4.559192e-04	
286	-9.00000e-01	4.714739e-04	

Index   v-sweep         i(vds)          
--------------------------------------------------------------------------------
287	-9.50000e-01	4.858230e-04	
288	-1.00000e+00	4.989748e-04	
289	-1.05000e+00	5.109385e-04	
290	-1.10000e+00	5.217245e-04	
291	-1.15000e+00	5.313455e-04	
292	-1.20000e+00	5.398180e-04	
293	-1.25000e+00	5.471649e-04	
294	-1.30000e+00	5.534205e-04	
295	-1.35000e+00	5.586372e-04	
296	-1.40000e+00	5.628954e-04	
297	-1.45000e+00	5.663101e-04	
298	-1.50000e+00	5.690274e-04	
299	-1.55000e+00	5.712045e-04	
300	-1.60000e+00	5.729834e-04	
301	-1.65000e+00	5.744750e-04	
302	-1.70000e+00	5.757579e-04	
303	-1.75000e+00	5.768854e-04	
304	-1.80000e+00	5.778936e-04	
305	-1.85000e+00	5.788075e-04	
306	-1.90000e+00	5.796446e-04	
307	-1.95000e+00	5.804180e-04	
308	-2.00000e+00	5.811375e-04	
309	-2.05000e+00	5.818106e-04	
310	-2.10000e+00	5.824434e-04	
311	-2.15000e+00	5.830407e-04	
312	-2.20000e+00	5.836066e-04	
313	-2.25000e+00	5.841443e-04	
314	-2.30000e+00	5.846568e-04	
315	-2.35000e+00	5.851463e-04	
316	-2.40000e+00	5.856149e-04	
317	-2.45000e+00	5.860645e-04	
318	-2.50000e+00	5.864966e-04	
319	-2.55000e+00	5.869126e-04	
320	-2.60000e+00	5.873137e-04	
321	-2.65000e+00	5.877009e-04	
322	-2.70000e+00	5.880753e-04	
323	-2.75000e+00	5.884377e-04	
324	-2.80000e+00	5.887888e-04	
325	-2.85000e+00	5.891295e-04	
326	-2.90000e+00	5.894603e-04	
327	-2.95000e+00	5.897818e-04	
328	-3.00000e+00	5.900946e-04	
329	-3.05000e+00	5.903992e-04	
330	-3.10000e+00	5.906959e-04	
331	-3.15000e+00	5.909852e-04	
332	-3.20000e+00	5.912675e-04	
333	-3.25000e+00	5.915432e-04	
334	-3.30000e+00	5.918126e-04	
335	-0.000000e+00	0.000000e+00	
336	-5.00000e-02	4.311245e-05	
337	-1.00000e-01	8.500793e-05	
338	-1.50000e-01	1.256927e-04	
339	-2.00000e-01	1.651729e-04	
340	-2.50000e-01	2.034549e-04	
341	-3.00000e-01	2.405446e-04	
342	-3.50000e-01	2.764483e-04	
343	-4.00000e-01	3.111719e-04	
344	-4.50000e-01	3.447215e-04	

Index   v-sweep         i(vds)          
--------------------------------------------------------------------------------
345	-5.00000e-01	3.771031e-04	
346	-5.50000e-01	4.083227e-04	
347	-6.00000e-01	4.383860e-04	
348	-6.50000e-01	4.672991e-04	
349	-7.00000e-01	4.950678e-04	
350	-7.50000e-01	5.216979e-04	
351	-8.00000e-01	5.471952e-04	
352	-8.50000e-01	5.715655e-04	
353	-9.00000e-01	5.948146e-04	
354	-9.50000e-01	6.169482e-04	
355	-1.00000e+00	6.379720e-04	
356	-1.05000e+00	6.578920e-04	
357	-1.10000e+00	6.767139e-04	
358	-1.15000e+00	6.944436e-04	
359	-1.20000e+00	7.110871e-04	
360	-1.25000e+00	7.266506e-04	
361	-1.30000e+00	7.411404e-04	
362	-1.35000e+00	7.545635e-04	
363	-1.40000e+00	7.669272e-04	
364	-1.45000e+00	7.782400e-04	
365	-1.50000e+00	7.885117e-04	
366	-1.55000e+00	7.977548e-04	
367	-1.60000e+00	8.059854e-04	
368	-1.65000e+00	8.132263e-04	
369	-1.70000e+00	8.195104e-04	
370	-1.75000e+00	8.248858e-04	
371	-1.80000e+00	8.294218e-04	
372	-1.85000e+00	8.332120e-04	
373	-1.90000e+00	8.363698e-04	
374	-1.95000e+00	8.390159e-04	
375	-2.00000e+00	8.412626e-04	
376	-2.05000e+00	8.432026e-04	
377	-2.10000e+00	8.449067e-04	
378	-2.15000e+00	8.464267e-04	
379	-2.20000e+00	8.478002e-04	
380	-2.25000e+00	8.490545e-04	
381	-2.30000e+00	8.502100e-04	
382	-2.35000e+00	8.512821e-04	
383	-2.40000e+00	8.522828e-04	
384	-2.45000e+00	8.532216e-04	
385	-2.50000e+00	8.541060e-04	
386	-2.55000e+00	8.549424e-04	
387	-2.60000e+00	8.557360e-04	
388	-2.65000e+00	8.564910e-04	
389	-2.70000e+00	8.572114e-04	
390	-2.75000e+00	8.579002e-04	
391	-2.80000e+00	8.585602e-04	
392	-2.85000e+00	8.591938e-04	
393	-2.90000e+00	8.598031e-04	
394	-2.95000e+00	8.603901e-04	
395	-3.00000e+00	8.609562e-04	
396	-3.05000e+00	8.615031e-04	
397	-3.10000e+00	8.620321e-04	
398	-3.15000e+00	8.625442e-04	
399	-3.20000e+00	8.630407e-04	
400	-3.25000e+00	8.635224e-04	
401	-3.30000e+00	8.639903e-04	
Note: No ".plot", ".print", or ".fourier" lines; no simulations run
