
Note: Compatibility modes selected: hs

Warning: m=xx on .subckt line will override multiplier m hierarchy!


Circuit: ***************************

Doing analysis at TEMP = 125.000000 and TNOM = 125.000000


No. of Data Rows : 402
                          ***************************
                          DC transfer characteristic  Mon Jan  9 13:57:30  2023
--------------------------------------------------------------------------------
Index   v-sweep         i(vds)          
--------------------------------------------------------------------------------
0	-0.000000e+00	0.000000e+00	
1	-5.00000e-02	3.822560e-08	
2	-1.00000e-01	6.034267e-08	
3	-1.50000e-01	6.987380e-08	
4	-2.00000e-01	7.269415e-08	
5	-2.50000e-01	7.355583e-08	
6	-3.00000e-01	7.394791e-08	
7	-3.50000e-01	7.419829e-08	
8	-4.00000e-01	7.439201e-08	
9	-4.50000e-01	7.455726e-08	
10	-5.00000e-01	7.470548e-08	
11	-5.50000e-01	7.484213e-08	
12	-6.00000e-01	7.497018e-08	
13	-6.50000e-01	7.509139e-08	
14	-7.00000e-01	7.520692e-08	
15	-7.50000e-01	7.531760e-08	
16	-8.00000e-01	7.542403e-08	
17	-8.50000e-01	7.552666e-08	
18	-9.00000e-01	7.562589e-08	
19	-9.50000e-01	7.572202e-08	
20	-1.00000e+00	7.581530e-08	
21	-1.05000e+00	7.590596e-08	
22	-1.10000e+00	7.599419e-08	
23	-1.15000e+00	7.608016e-08	
24	-1.20000e+00	7.616403e-08	
25	-1.25000e+00	7.624593e-08	
26	-1.30000e+00	7.632597e-08	
27	-1.35000e+00	7.640427e-08	
28	-1.40000e+00	7.648093e-08	
29	-1.45000e+00	7.655603e-08	
30	-1.50000e+00	7.662967e-08	
31	-1.55000e+00	7.670190e-08	
32	-1.60000e+00	7.677282e-08	
33	-1.65000e+00	7.684248e-08	
34	-1.70000e+00	7.691093e-08	
35	-1.75000e+00	7.697824e-08	
36	-1.80000e+00	7.704447e-08	
37	-1.85000e+00	7.710965e-08	
38	-1.90000e+00	7.717383e-08	
39	-1.95000e+00	7.723706e-08	
40	-2.00000e+00	7.729938e-08	
41	-2.05000e+00	7.736082e-08	
42	-2.10000e+00	7.742144e-08	
43	-2.15000e+00	7.748125e-08	
44	-2.20000e+00	7.754032e-08	
45	-2.25000e+00	7.759866e-08	
46	-2.30000e+00	7.765634e-08	
47	-2.35000e+00	7.771337e-08	
48	-2.40000e+00	7.776983e-08	
49	-2.45000e+00	7.782576e-08	
50	-2.50000e+00	7.788121e-08	
51	-2.55000e+00	7.793626e-08	
52	-2.60000e+00	7.799099e-08	
53	-2.65000e+00	7.804547e-08	
54	-2.70000e+00	7.809982e-08	

Index   v-sweep         i(vds)          
--------------------------------------------------------------------------------
55	-2.75000e+00	7.815416e-08	
56	-2.80000e+00	7.820861e-08	
57	-2.85000e+00	7.826333e-08	
58	-2.90000e+00	7.831851e-08	
59	-2.95000e+00	7.837434e-08	
60	-3.00000e+00	7.843106e-08	
61	-3.05000e+00	7.848894e-08	
62	-3.10000e+00	7.854827e-08	
63	-3.15000e+00	7.860939e-08	
64	-3.20000e+00	7.867267e-08	
65	-3.25000e+00	7.873852e-08	
66	-3.30000e+00	7.880743e-08	
67	-0.000000e+00	0.000000e+00	
68	-5.00000e-02	1.852334e-07	
69	-1.00000e-01	3.492880e-07	
70	-1.50000e-01	4.934688e-07	
71	-2.00000e-01	6.181665e-07	
72	-2.50000e-01	7.235837e-07	
73	-3.00000e-01	8.099332e-07	
74	-3.50000e-01	8.775588e-07	
75	-4.00000e-01	9.271514e-07	
76	-4.50000e-01	9.602310e-07	
77	-5.00000e-01	9.798657e-07	
78	-5.50000e-01	9.905920e-07	
79	-6.00000e-01	9.966277e-07	
80	-6.50000e-01	1.000494e-06	
81	-7.00000e-01	1.003344e-06	
82	-7.50000e-01	1.005670e-06	
83	-8.00000e-01	1.007691e-06	
84	-8.50000e-01	1.009512e-06	
85	-9.00000e-01	1.011191e-06	
86	-9.50000e-01	1.012760e-06	
87	-1.00000e+00	1.014241e-06	
88	-1.05000e+00	1.015647e-06	
89	-1.10000e+00	1.016988e-06	
90	-1.15000e+00	1.018273e-06	
91	-1.20000e+00	1.019507e-06	
92	-1.25000e+00	1.020696e-06	
93	-1.30000e+00	1.021842e-06	
94	-1.35000e+00	1.022951e-06	
95	-1.40000e+00	1.024024e-06	
96	-1.45000e+00	1.025064e-06	
97	-1.50000e+00	1.026073e-06	
98	-1.55000e+00	1.027054e-06	
99	-1.60000e+00	1.028009e-06	
100	-1.65000e+00	1.028938e-06	
101	-1.70000e+00	1.029843e-06	
102	-1.75000e+00	1.030726e-06	
103	-1.80000e+00	1.031588e-06	
104	-1.85000e+00	1.032430e-06	
105	-1.90000e+00	1.033253e-06	
106	-1.95000e+00	1.034058e-06	
107	-2.00000e+00	1.034845e-06	
108	-2.05000e+00	1.035616e-06	
109	-2.10000e+00	1.036372e-06	
110	-2.15000e+00	1.037113e-06	
111	-2.20000e+00	1.037839e-06	
112	-2.25000e+00	1.038552e-06	

Index   v-sweep         i(vds)          
--------------------------------------------------------------------------------
113	-2.30000e+00	1.039251e-06	
114	-2.35000e+00	1.039939e-06	
115	-2.40000e+00	1.040614e-06	
116	-2.45000e+00	1.041278e-06	
117	-2.50000e+00	1.041931e-06	
118	-2.55000e+00	1.042573e-06	
119	-2.60000e+00	1.043206e-06	
120	-2.65000e+00	1.043829e-06	
121	-2.70000e+00	1.044444e-06	
122	-2.75000e+00	1.045051e-06	
123	-2.80000e+00	1.045650e-06	
124	-2.85000e+00	1.046243e-06	
125	-2.90000e+00	1.046830e-06	
126	-2.95000e+00	1.047413e-06	
127	-3.00000e+00	1.047993e-06	
128	-3.05000e+00	1.048571e-06	
129	-3.10000e+00	1.049149e-06	
130	-3.15000e+00	1.049728e-06	
131	-3.20000e+00	1.050311e-06	
132	-3.25000e+00	1.050901e-06	
133	-3.30000e+00	1.051499e-06	
134	-0.000000e+00	0.000000e+00	
135	-5.00000e-02	3.307800e-07	
136	-1.00000e-01	6.401741e-07	
137	-1.50000e-01	9.294691e-07	
138	-2.00000e-01	1.199025e-06	
139	-2.50000e-01	1.448986e-06	
140	-3.00000e-01	1.679449e-06	
141	-3.50000e-01	1.890501e-06	
142	-4.00000e-01	2.082230e-06	
143	-4.50000e-01	2.254733e-06	
144	-5.00000e-01	2.408118e-06	
145	-5.50000e-01	2.542517e-06	
146	-6.00000e-01	2.658106e-06	
147	-6.50000e-01	2.755143e-06	
148	-7.00000e-01	2.834055e-06	
149	-7.50000e-01	2.895593e-06	
150	-8.00000e-01	2.941128e-06	
151	-8.50000e-01	2.972978e-06	
152	-9.00000e-01	2.994424e-06	
153	-9.50000e-01	3.008986e-06	
154	-1.00000e+00	3.019463e-06	
155	-1.05000e+00	3.027611e-06	
156	-1.10000e+00	3.034394e-06	
157	-1.15000e+00	3.040322e-06	
158	-1.20000e+00	3.045670e-06	
159	-1.25000e+00	3.050594e-06	
160	-1.30000e+00	3.055192e-06	
161	-1.35000e+00	3.059523e-06	
162	-1.40000e+00	3.063631e-06	
163	-1.45000e+00	3.067546e-06	
164	-1.50000e+00	3.071290e-06	
165	-1.55000e+00	3.074884e-06	
166	-1.60000e+00	3.078339e-06	
167	-1.65000e+00	3.081671e-06	
168	-1.70000e+00	3.084887e-06	
169	-1.75000e+00	3.087997e-06	
170	-1.80000e+00	3.091010e-06	

Index   v-sweep         i(vds)          
--------------------------------------------------------------------------------
171	-1.85000e+00	3.093931e-06	
172	-1.90000e+00	3.096766e-06	
173	-1.95000e+00	3.099522e-06	
174	-2.00000e+00	3.102202e-06	
175	-2.05000e+00	3.104812e-06	
176	-2.10000e+00	3.107355e-06	
177	-2.15000e+00	3.109834e-06	
178	-2.20000e+00	3.112254e-06	
179	-2.25000e+00	3.114617e-06	
180	-2.30000e+00	3.116926e-06	
181	-2.35000e+00	3.119183e-06	
182	-2.40000e+00	3.121392e-06	
183	-2.45000e+00	3.123554e-06	
184	-2.50000e+00	3.125671e-06	
185	-2.55000e+00	3.127746e-06	
186	-2.60000e+00	3.129780e-06	
187	-2.65000e+00	3.131774e-06	
188	-2.70000e+00	3.133732e-06	
189	-2.75000e+00	3.135653e-06	
190	-2.80000e+00	3.137541e-06	
191	-2.85000e+00	3.139396e-06	
192	-2.90000e+00	3.141219e-06	
193	-2.95000e+00	3.143013e-06	
194	-3.00000e+00	3.144780e-06	
195	-3.05000e+00	3.146520e-06	
196	-3.10000e+00	3.148235e-06	
197	-3.15000e+00	3.149929e-06	
198	-3.20000e+00	3.151602e-06	
199	-3.25000e+00	3.153259e-06	
200	-3.30000e+00	3.154901e-06	
201	-0.000000e+00	0.000000e+00	
202	-5.00000e-02	4.683979e-07	
203	-1.00000e-01	9.157225e-07	
204	-1.50000e-01	1.343256e-06	
205	-2.00000e-01	1.751351e-06	
206	-2.50000e-01	2.140147e-06	
207	-3.00000e-01	2.509730e-06	
208	-3.50000e-01	2.860177e-06	
209	-4.00000e-01	3.191562e-06	
210	-4.50000e-01	3.503956e-06	
211	-5.00000e-01	3.797435e-06	
212	-5.50000e-01	4.072071e-06	
213	-6.00000e-01	4.327941e-06	
214	-6.50000e-01	4.565125e-06	
215	-7.00000e-01	4.783703e-06	
216	-7.50000e-01	4.983764e-06	
217	-8.00000e-01	5.165406e-06	
218	-8.50000e-01	5.328743e-06	
219	-9.00000e-01	5.473915e-06	
220	-9.50000e-01	5.601107e-06	
221	-1.00000e+00	5.710583e-06	
222	-1.05000e+00	5.802749e-06	
223	-1.10000e+00	5.878263e-06	
224	-1.15000e+00	5.938201e-06	
225	-1.20000e+00	5.984262e-06	
226	-1.25000e+00	6.018840e-06	
227	-1.30000e+00	6.044758e-06	
228	-1.35000e+00	6.064700e-06	

Index   v-sweep         i(vds)          
--------------------------------------------------------------------------------
229	-1.40000e+00	6.080746e-06	
230	-1.45000e+00	6.094276e-06	
231	-1.50000e+00	6.106135e-06	
232	-1.55000e+00	6.116827e-06	
233	-1.60000e+00	6.126656e-06	
234	-1.65000e+00	6.135814e-06	
235	-1.70000e+00	6.144428e-06	
236	-1.75000e+00	6.152586e-06	
237	-1.80000e+00	6.160350e-06	
238	-1.85000e+00	6.167769e-06	
239	-1.90000e+00	6.174881e-06	
240	-1.95000e+00	6.181715e-06	
241	-2.00000e+00	6.188296e-06	
242	-2.05000e+00	6.194646e-06	
243	-2.10000e+00	6.200783e-06	
244	-2.15000e+00	6.206722e-06	
245	-2.20000e+00	6.212477e-06	
246	-2.25000e+00	6.218060e-06	
247	-2.30000e+00	6.223483e-06	
248	-2.35000e+00	6.228754e-06	
249	-2.40000e+00	6.233884e-06	
250	-2.45000e+00	6.238879e-06	
251	-2.50000e+00	6.243747e-06	
252	-2.55000e+00	6.248496e-06	
253	-2.60000e+00	6.253130e-06	
254	-2.65000e+00	6.257656e-06	
255	-2.70000e+00	6.262079e-06	
256	-2.75000e+00	6.266404e-06	
257	-2.80000e+00	6.270636e-06	
258	-2.85000e+00	6.274778e-06	
259	-2.90000e+00	6.278835e-06	
260	-2.95000e+00	6.282810e-06	
261	-3.00000e+00	6.286706e-06	
262	-3.05000e+00	6.290528e-06	
263	-3.10000e+00	6.294279e-06	
264	-3.15000e+00	6.297960e-06	
265	-3.20000e+00	6.301577e-06	
266	-3.25000e+00	6.305130e-06	
267	-3.30000e+00	6.308624e-06	
268	-0.000000e+00	0.000000e+00	
269	-5.00000e-02	5.995374e-07	
270	-1.00000e-01	1.178423e-06	
271	-1.50000e-01	1.737935e-06	
272	-2.00000e-01	2.278423e-06	
273	-2.50000e-01	2.800022e-06	
274	-3.00000e-01	3.302816e-06	
275	-3.50000e-01	3.786876e-06	
276	-4.00000e-01	4.252271e-06	
277	-4.50000e-01	4.699068e-06	
278	-5.00000e-01	5.127337e-06	
279	-5.50000e-01	5.537143e-06	
280	-6.00000e-01	5.928556e-06	
281	-6.50000e-01	6.301641e-06	
282	-7.00000e-01	6.656467e-06	
283	-7.50000e-01	6.993103e-06	
284	-8.00000e-01	7.311615e-06	
285	-8.50000e-01	7.612074e-06	
286	-9.00000e-01	7.894551e-06	

Index   v-sweep         i(vds)          
--------------------------------------------------------------------------------
287	-9.50000e-01	8.159117e-06	
288	-1.00000e+00	8.405849e-06	
289	-1.05000e+00	8.634825e-06	
290	-1.10000e+00	8.846131e-06	
291	-1.15000e+00	9.039863e-06	
292	-1.20000e+00	9.216131e-06	
293	-1.25000e+00	9.375070e-06	
294	-1.30000e+00	9.516853e-06	
295	-1.35000e+00	9.641717e-06	
296	-1.40000e+00	9.750007e-06	
297	-1.45000e+00	9.842240e-06	
298	-1.50000e+00	9.919214e-06	
299	-1.55000e+00	9.982136e-06	
300	-1.60000e+00	1.003271e-05	
301	-1.65000e+00	1.007311e-05	
302	-1.70000e+00	1.010567e-05	
303	-1.75000e+00	1.013255e-05	
304	-1.80000e+00	1.015544e-05	
305	-1.85000e+00	1.017552e-05	
306	-1.90000e+00	1.019359e-05	
307	-1.95000e+00	1.021014e-05	
308	-2.00000e+00	1.022553e-05	
309	-2.05000e+00	1.023996e-05	
310	-2.10000e+00	1.025359e-05	
311	-2.15000e+00	1.026655e-05	
312	-2.20000e+00	1.027892e-05	
313	-2.25000e+00	1.029075e-05	
314	-2.30000e+00	1.030211e-05	
315	-2.35000e+00	1.031304e-05	
316	-2.40000e+00	1.032358e-05	
317	-2.45000e+00	1.033375e-05	
318	-2.50000e+00	1.034359e-05	
319	-2.55000e+00	1.035312e-05	
320	-2.60000e+00	1.036235e-05	
321	-2.65000e+00	1.037132e-05	
322	-2.70000e+00	1.038003e-05	
323	-2.75000e+00	1.038850e-05	
324	-2.80000e+00	1.039674e-05	
325	-2.85000e+00	1.040477e-05	
326	-2.90000e+00	1.041260e-05	
327	-2.95000e+00	1.042024e-05	
328	-3.00000e+00	1.042769e-05	
329	-3.05000e+00	1.043498e-05	
330	-3.10000e+00	1.044209e-05	
331	-3.15000e+00	1.044905e-05	
332	-3.20000e+00	1.045586e-05	
333	-3.25000e+00	1.046253e-05	
334	-3.30000e+00	1.046906e-05	
335	-0.000000e+00	0.000000e+00	
336	-5.00000e-02	7.256994e-07	
337	-1.00000e-01	1.431175e-06	
338	-1.50000e-01	2.117703e-06	
339	-2.00000e-01	2.785630e-06	
340	-2.50000e-01	3.435087e-06	
341	-3.00000e-01	4.066156e-06	
342	-3.50000e-01	4.678906e-06	
343	-4.00000e-01	5.273402e-06	
344	-4.50000e-01	5.849709e-06	

Index   v-sweep         i(vds)          
--------------------------------------------------------------------------------
345	-5.00000e-01	6.407891e-06	
346	-5.50000e-01	6.948014e-06	
347	-6.00000e-01	7.470141e-06	
348	-6.50000e-01	7.974335e-06	
349	-7.00000e-01	8.460661e-06	
350	-7.50000e-01	8.929181e-06	
351	-8.00000e-01	9.379960e-06	
352	-8.50000e-01	9.813060e-06	
353	-9.00000e-01	1.022854e-05	
354	-9.50000e-01	1.062648e-05	
355	-1.00000e+00	1.100692e-05	
356	-1.05000e+00	1.136994e-05	
357	-1.10000e+00	1.171559e-05	
358	-1.15000e+00	1.204395e-05	
359	-1.20000e+00	1.235508e-05	
360	-1.25000e+00	1.264904e-05	
361	-1.30000e+00	1.292591e-05	
362	-1.35000e+00	1.318575e-05	
363	-1.40000e+00	1.342864e-05	
364	-1.45000e+00	1.365466e-05	
365	-1.50000e+00	1.386390e-05	
366	-1.55000e+00	1.405646e-05	
367	-1.60000e+00	1.423247e-05	
368	-1.65000e+00	1.439207e-05	
369	-1.70000e+00	1.453546e-05	
370	-1.75000e+00	1.466291e-05	
371	-1.80000e+00	1.477482e-05	
372	-1.85000e+00	1.487173e-05	
373	-1.90000e+00	1.495450e-05	
374	-1.95000e+00	1.502427e-05	
375	-2.00000e+00	1.508263e-05	
376	-2.05000e+00	1.513143e-05	
377	-2.10000e+00	1.517264e-05	
378	-2.15000e+00	1.520808e-05	
379	-2.20000e+00	1.523921e-05	
380	-2.25000e+00	1.526714e-05	
381	-2.30000e+00	1.529263e-05	
382	-2.35000e+00	1.531621e-05	
383	-2.40000e+00	1.533826e-05	
384	-2.45000e+00	1.535903e-05	
385	-2.50000e+00	1.537872e-05	
386	-2.55000e+00	1.539746e-05	
387	-2.60000e+00	1.541537e-05	
388	-2.65000e+00	1.543254e-05	
389	-2.70000e+00	1.544904e-05	
390	-2.75000e+00	1.546492e-05	
391	-2.80000e+00	1.548024e-05	
392	-2.85000e+00	1.549503e-05	
393	-2.90000e+00	1.550935e-05	
394	-2.95000e+00	1.552322e-05	
395	-3.00000e+00	1.553667e-05	
396	-3.05000e+00	1.554973e-05	
397	-3.10000e+00	1.556242e-05	
398	-3.15000e+00	1.557477e-05	
399	-3.20000e+00	1.558678e-05	
400	-3.25000e+00	1.559849e-05	
401	-3.30000e+00	1.560991e-05	
Note: No ".plot", ".print", or ".fourier" lines; no simulations run
