
Note: Compatibility modes selected: hs

Warning: m=xx on .subckt line will override multiplier m hierarchy!


Circuit: ***************************

Doing analysis at TEMP = 25.000000 and TNOM = 25.000000


No. of Data Rows : 402
                          ***************************
                          DC transfer characteristic  Mon Jan  9 13:57:29  2023
--------------------------------------------------------------------------------
Index   v-sweep         i(vds)          
--------------------------------------------------------------------------------
0	-0.000000e+00	0.000000e+00	
1	-5.00000e-02	1.934000e-06	
2	-1.00000e-01	2.793421e-06	
3	-1.50000e-01	3.054982e-06	
4	-2.00000e-01	3.162903e-06	
5	-2.50000e-01	3.240123e-06	
6	-3.00000e-01	3.308277e-06	
7	-3.50000e-01	3.372442e-06	
8	-4.00000e-01	3.434343e-06	
9	-4.50000e-01	3.494757e-06	
10	-5.00000e-01	3.554114e-06	
11	-5.50000e-01	3.612687e-06	
12	-6.00000e-01	3.670668e-06	
13	-6.50000e-01	3.728199e-06	
14	-7.00000e-01	3.785392e-06	
15	-7.50000e-01	3.842336e-06	
16	-8.00000e-01	3.899104e-06	
17	-8.50000e-01	3.955757e-06	
18	-9.00000e-01	4.012348e-06	
19	-9.50000e-01	4.068922e-06	
20	-1.00000e+00	4.125516e-06	
21	-1.05000e+00	4.182165e-06	
22	-1.10000e+00	4.238899e-06	
23	-1.15000e+00	4.295744e-06	
24	-1.20000e+00	4.352723e-06	
25	-1.25000e+00	4.409858e-06	
26	-1.30000e+00	4.467168e-06	
27	-1.35000e+00	4.524670e-06	
28	-1.40000e+00	4.582379e-06	
29	-1.45000e+00	4.640309e-06	
30	-1.50000e+00	4.698475e-06	
31	-1.55000e+00	4.756886e-06	
32	-1.60000e+00	4.815556e-06	
33	-1.65000e+00	4.874493e-06	
34	-1.70000e+00	4.933707e-06	
35	-1.75000e+00	4.993207e-06	
36	-1.80000e+00	5.053002e-06	
37	-1.85000e+00	5.113099e-06	
38	-1.90000e+00	5.173505e-06	
39	-1.95000e+00	5.234228e-06	
40	-2.00000e+00	5.295276e-06	
41	-2.05000e+00	5.356654e-06	
42	-2.10000e+00	5.418371e-06	
43	-2.15000e+00	5.480433e-06	
44	-2.20000e+00	5.542849e-06	
45	-2.25000e+00	5.605628e-06	
46	-2.30000e+00	5.668778e-06	
47	-2.35000e+00	5.732310e-06	
48	-2.40000e+00	5.796237e-06	
49	-2.45000e+00	5.860571e-06	
50	-2.50000e+00	5.925329e-06	
51	-2.55000e+00	5.990529e-06	
52	-2.60000e+00	6.056190e-06	
53	-2.65000e+00	6.122339e-06	
54	-2.70000e+00	6.189002e-06	

Index   v-sweep         i(vds)          
--------------------------------------------------------------------------------
55	-2.75000e+00	6.256211e-06	
56	-2.80000e+00	6.324002e-06	
57	-2.85000e+00	6.392418e-06	
58	-2.90000e+00	6.461506e-06	
59	-2.95000e+00	6.531318e-06	
60	-3.00000e+00	6.601916e-06	
61	-3.05000e+00	6.673367e-06	
62	-3.10000e+00	6.745747e-06	
63	-3.15000e+00	6.819140e-06	
64	-3.20000e+00	6.893640e-06	
65	-3.25000e+00	6.969349e-06	
66	-3.30000e+00	7.046381e-06	
67	-0.000000e+00	0.000000e+00	
68	-5.00000e-02	1.797246e-05	
69	-1.00000e-01	3.400916e-05	
70	-1.50000e-01	4.815228e-05	
71	-2.00000e-01	6.044404e-05	
72	-2.50000e-01	7.092791e-05	
73	-3.00000e-01	7.965134e-05	
74	-3.50000e-01	8.667241e-05	
75	-4.00000e-01	9.207631e-05	
76	-4.50000e-01	9.601263e-05	
77	-5.00000e-01	9.875016e-05	
78	-5.50000e-01	1.006696e-04	
79	-6.00000e-01	1.021244e-04	
80	-6.50000e-01	1.033323e-04	
81	-7.00000e-01	1.043990e-04	
82	-7.50000e-01	1.053741e-04	
83	-8.00000e-01	1.062831e-04	
84	-8.50000e-01	1.071409e-04	
85	-9.00000e-01	1.079569e-04	
86	-9.50000e-01	1.087379e-04	
87	-1.00000e+00	1.094889e-04	
88	-1.05000e+00	1.102137e-04	
89	-1.10000e+00	1.109155e-04	
90	-1.15000e+00	1.115968e-04	
91	-1.20000e+00	1.122598e-04	
92	-1.25000e+00	1.129062e-04	
93	-1.30000e+00	1.135377e-04	
94	-1.35000e+00	1.141555e-04	
95	-1.40000e+00	1.147610e-04	
96	-1.45000e+00	1.153550e-04	
97	-1.50000e+00	1.159385e-04	
98	-1.55000e+00	1.165123e-04	
99	-1.60000e+00	1.170772e-04	
100	-1.65000e+00	1.176337e-04	
101	-1.70000e+00	1.181825e-04	
102	-1.75000e+00	1.187241e-04	
103	-1.80000e+00	1.192590e-04	
104	-1.85000e+00	1.197876e-04	
105	-1.90000e+00	1.203103e-04	
106	-1.95000e+00	1.208274e-04	
107	-2.00000e+00	1.213394e-04	
108	-2.05000e+00	1.218465e-04	
109	-2.10000e+00	1.223489e-04	
110	-2.15000e+00	1.228470e-04	
111	-2.20000e+00	1.233411e-04	
112	-2.25000e+00	1.238312e-04	

Index   v-sweep         i(vds)          
--------------------------------------------------------------------------------
113	-2.30000e+00	1.243177e-04	
114	-2.35000e+00	1.248008e-04	
115	-2.40000e+00	1.252806e-04	
116	-2.45000e+00	1.257573e-04	
117	-2.50000e+00	1.262312e-04	
118	-2.55000e+00	1.267025e-04	
119	-2.60000e+00	1.271713e-04	
120	-2.65000e+00	1.276378e-04	
121	-2.70000e+00	1.281024e-04	
122	-2.75000e+00	1.285651e-04	
123	-2.80000e+00	1.290264e-04	
124	-2.85000e+00	1.294865e-04	
125	-2.90000e+00	1.299458e-04	
126	-2.95000e+00	1.304045e-04	
127	-3.00000e+00	1.308633e-04	
128	-3.05000e+00	1.313225e-04	
129	-3.10000e+00	1.317827e-04	
130	-3.15000e+00	1.322446e-04	
131	-3.20000e+00	1.327088e-04	
132	-3.25000e+00	1.331761e-04	
133	-3.30000e+00	1.336475e-04	
134	-0.000000e+00	0.000000e+00	
135	-5.00000e-02	3.110779e-05	
136	-1.00000e-01	6.029007e-05	
137	-1.50000e-01	8.758240e-05	
138	-2.00000e-01	1.130195e-04	
139	-2.50000e-01	1.366355e-04	
140	-3.00000e-01	1.584637e-04	
141	-3.50000e-01	1.785368e-04	
142	-4.00000e-01	1.968873e-04	
143	-4.50000e-01	2.135474e-04	
144	-5.00000e-01	2.285495e-04	
145	-5.50000e-01	2.419270e-04	
146	-6.00000e-01	2.537155e-04	
147	-6.50000e-01	2.639557e-04	
148	-7.00000e-01	2.726985e-04	
149	-7.50000e-01	2.800157e-04	
150	-8.00000e-01	2.860179e-04	
151	-8.50000e-01	2.908766e-04	
152	-9.00000e-01	2.948258e-04	
153	-9.50000e-01	2.981184e-04	
154	-1.00000e+00	3.009639e-04	
155	-1.05000e+00	3.035032e-04	
156	-1.10000e+00	3.058223e-04	
157	-1.15000e+00	3.079737e-04	
158	-1.20000e+00	3.099909e-04	
159	-1.25000e+00	3.118970e-04	
160	-1.30000e+00	3.137086e-04	
161	-1.35000e+00	3.154385e-04	
162	-1.40000e+00	3.170968e-04	
163	-1.45000e+00	3.186916e-04	
164	-1.50000e+00	3.202296e-04	
165	-1.55000e+00	3.217165e-04	
166	-1.60000e+00	3.231572e-04	
167	-1.65000e+00	3.245558e-04	
168	-1.70000e+00	3.259160e-04	
169	-1.75000e+00	3.272408e-04	
170	-1.80000e+00	3.285332e-04	

Index   v-sweep         i(vds)          
--------------------------------------------------------------------------------
171	-1.85000e+00	3.297954e-04	
172	-1.90000e+00	3.310299e-04	
173	-1.95000e+00	3.322384e-04	
174	-2.00000e+00	3.334229e-04	
175	-2.05000e+00	3.345849e-04	
176	-2.10000e+00	3.357258e-04	
177	-2.15000e+00	3.368469e-04	
178	-2.20000e+00	3.379495e-04	
179	-2.25000e+00	3.390346e-04	
180	-2.30000e+00	3.401033e-04	
181	-2.35000e+00	3.411564e-04	
182	-2.40000e+00	3.421948e-04	
183	-2.45000e+00	3.432194e-04	
184	-2.50000e+00	3.442307e-04	
185	-2.55000e+00	3.452296e-04	
186	-2.60000e+00	3.462166e-04	
187	-2.65000e+00	3.471923e-04	
188	-2.70000e+00	3.481574e-04	
189	-2.75000e+00	3.491123e-04	
190	-2.80000e+00	3.500576e-04	
191	-2.85000e+00	3.509939e-04	
192	-2.90000e+00	3.519217e-04	
193	-2.95000e+00	3.528414e-04	
194	-3.00000e+00	3.537538e-04	
195	-3.05000e+00	3.546594e-04	
196	-3.10000e+00	3.555588e-04	
197	-3.15000e+00	3.564528e-04	
198	-3.20000e+00	3.573423e-04	
199	-3.25000e+00	3.582280e-04	
200	-3.30000e+00	3.591110e-04	
201	-0.000000e+00	0.000000e+00	
202	-5.00000e-02	4.126864e-05	
203	-1.00000e-01	8.069723e-05	
204	-1.50000e-01	1.183158e-04	
205	-2.00000e-01	1.541538e-04	
206	-2.50000e-01	1.882400e-04	
207	-3.00000e-01	2.206025e-04	
208	-3.50000e-01	2.512691e-04	
209	-4.00000e-01	2.802668e-04	
210	-4.50000e-01	3.076222e-04	
211	-5.00000e-01	3.333614e-04	
212	-5.50000e-01	3.575100e-04	
213	-6.00000e-01	3.800933e-04	
214	-6.50000e-01	4.011363e-04	
215	-7.00000e-01	4.206638e-04	
216	-7.50000e-01	4.387005e-04	
217	-8.00000e-01	4.552715e-04	
218	-8.50000e-01	4.704026e-04	
219	-9.00000e-01	4.841213e-04	
220	-9.50000e-01	4.964578e-04	
221	-1.00000e+00	5.074485e-04	
222	-1.05000e+00	5.171398e-04	
223	-1.10000e+00	5.255966e-04	
224	-1.15000e+00	5.329130e-04	
225	-1.20000e+00	5.392221e-04	
226	-1.25000e+00	5.446916e-04	
227	-1.30000e+00	5.495001e-04	
228	-1.35000e+00	5.538048e-04	

Index   v-sweep         i(vds)          
--------------------------------------------------------------------------------
229	-1.40000e+00	5.577253e-04	
230	-1.45000e+00	5.613454e-04	
231	-1.50000e+00	5.647233e-04	
232	-1.55000e+00	5.679001e-04	
233	-1.60000e+00	5.709058e-04	
234	-1.65000e+00	5.737637e-04	
235	-1.70000e+00	5.764920e-04	
236	-1.75000e+00	5.791053e-04	
237	-1.80000e+00	5.816160e-04	
238	-1.85000e+00	5.840342e-04	
239	-1.90000e+00	5.863687e-04	
240	-1.95000e+00	5.886270e-04	
241	-2.00000e+00	5.908156e-04	
242	-2.05000e+00	5.929403e-04	
243	-2.10000e+00	5.950059e-04	
244	-2.15000e+00	5.970171e-04	
245	-2.20000e+00	5.989778e-04	
246	-2.25000e+00	6.008914e-04	
247	-2.30000e+00	6.027612e-04	
248	-2.35000e+00	6.045902e-04	
249	-2.40000e+00	6.063807e-04	
250	-2.45000e+00	6.081353e-04	
251	-2.50000e+00	6.098561e-04	
252	-2.55000e+00	6.115451e-04	
253	-2.60000e+00	6.132040e-04	
254	-2.65000e+00	6.148345e-04	
255	-2.70000e+00	6.164381e-04	
256	-2.75000e+00	6.180163e-04	
257	-2.80000e+00	6.195704e-04	
258	-2.85000e+00	6.211015e-04	
259	-2.90000e+00	6.226109e-04	
260	-2.95000e+00	6.240995e-04	
261	-3.00000e+00	6.255685e-04	
262	-3.05000e+00	6.270187e-04	
263	-3.10000e+00	6.284511e-04	
264	-3.15000e+00	6.298666e-04	
265	-3.20000e+00	6.312662e-04	
266	-3.25000e+00	6.326507e-04	
267	-3.30000e+00	6.340212e-04	
268	-0.000000e+00	0.000000e+00	
269	-5.00000e-02	4.924769e-05	
270	-1.00000e-01	9.675930e-05	
271	-1.50000e-01	1.425602e-04	
272	-2.00000e-01	1.866755e-04	
273	-2.50000e-01	2.291294e-04	
274	-3.00000e-01	2.699461e-04	
275	-3.50000e-01	3.091491e-04	
276	-4.00000e-01	3.467615e-04	
277	-4.50000e-01	3.828059e-04	
278	-5.00000e-01	4.173046e-04	
279	-5.50000e-01	4.502795e-04	
280	-6.00000e-01	4.817521e-04	
281	-6.50000e-01	5.117434e-04	
282	-7.00000e-01	5.402744e-04	
283	-7.50000e-01	5.673653e-04	
284	-8.00000e-01	5.930363e-04	
285	-8.50000e-01	6.173073e-04	
286	-9.00000e-01	6.401979e-04	

Index   v-sweep         i(vds)          
--------------------------------------------------------------------------------
287	-9.50000e-01	6.617277e-04	
288	-1.00000e+00	6.819160e-04	
289	-1.05000e+00	7.007823e-04	
290	-1.10000e+00	7.183465e-04	
291	-1.15000e+00	7.346289e-04	
292	-1.20000e+00	7.496512e-04	
293	-1.25000e+00	7.634370e-04	
294	-1.30000e+00	7.760137e-04	
295	-1.35000e+00	7.874153e-04	
296	-1.40000e+00	7.976859e-04	
297	-1.45000e+00	8.068865e-04	
298	-1.50000e+00	8.151011e-04	
299	-1.55000e+00	8.224392e-04	
300	-1.60000e+00	8.290294e-04	
301	-1.65000e+00	8.350023e-04	
302	-1.70000e+00	8.404741e-04	
303	-1.75000e+00	8.455379e-04	
304	-1.80000e+00	8.502646e-04	
305	-1.85000e+00	8.547075e-04	
306	-1.90000e+00	8.589073e-04	
307	-1.95000e+00	8.628956e-04	
308	-2.00000e+00	8.666980e-04	
309	-2.05000e+00	8.703350e-04	
310	-2.10000e+00	8.738238e-04	
311	-2.15000e+00	8.771791e-04	
312	-2.20000e+00	8.804131e-04	
313	-2.25000e+00	8.835367e-04	
314	-2.30000e+00	8.865590e-04	
315	-2.35000e+00	8.894884e-04	
316	-2.40000e+00	8.923319e-04	
317	-2.45000e+00	8.950960e-04	
318	-2.50000e+00	8.977864e-04	
319	-2.55000e+00	9.004081e-04	
320	-2.60000e+00	9.029658e-04	
321	-2.65000e+00	9.054637e-04	
322	-2.70000e+00	9.079054e-04	
323	-2.75000e+00	9.102944e-04	
324	-2.80000e+00	9.126338e-04	
325	-2.85000e+00	9.149265e-04	
326	-2.90000e+00	9.171750e-04	
327	-2.95000e+00	9.193818e-04	
328	-3.00000e+00	9.215491e-04	
329	-3.05000e+00	9.236789e-04	
330	-3.10000e+00	9.257731e-04	
331	-3.15000e+00	9.278336e-04	
332	-3.20000e+00	9.298619e-04	
333	-3.25000e+00	9.318596e-04	
334	-3.30000e+00	9.338281e-04	
335	-0.000000e+00	0.000000e+00	
336	-5.00000e-02	5.559838e-05	
337	-1.00000e-01	1.095669e-04	
338	-1.50000e-01	1.619272e-04	
339	-2.00000e-01	2.127005e-04	
340	-2.50000e-01	2.619077e-04	
341	-3.00000e-01	3.095693e-04	
342	-3.50000e-01	3.557055e-04	
343	-4.00000e-01	4.003360e-04	
344	-4.50000e-01	4.434803e-04	

Index   v-sweep         i(vds)          
--------------------------------------------------------------------------------
345	-5.00000e-01	4.851576e-04	
346	-5.50000e-01	5.253868e-04	
347	-6.00000e-01	5.641862e-04	
348	-6.50000e-01	6.015742e-04	
349	-7.00000e-01	6.375686e-04	
350	-7.50000e-01	6.721870e-04	
351	-8.00000e-01	7.054468e-04	
352	-8.50000e-01	7.373651e-04	
353	-9.00000e-01	7.679587e-04	
354	-9.50000e-01	7.972441e-04	
355	-1.00000e+00	8.252377e-04	
356	-1.05000e+00	8.519556e-04	
357	-1.10000e+00	8.774137e-04	
358	-1.15000e+00	9.016278e-04	
359	-1.20000e+00	9.246135e-04	
360	-1.25000e+00	9.463863e-04	
361	-1.30000e+00	9.669619e-04	
362	-1.35000e+00	9.863559e-04	
363	-1.40000e+00	1.004584e-03	
364	-1.45000e+00	1.021663e-03	
365	-1.50000e+00	1.037610e-03	
366	-1.55000e+00	1.052445e-03	
367	-1.60000e+00	1.066187e-03	
368	-1.65000e+00	1.078865e-03	
369	-1.70000e+00	1.090509e-03	
370	-1.75000e+00	1.101164e-03	
371	-1.80000e+00	1.110887e-03	
372	-1.85000e+00	1.119752e-03	
373	-1.90000e+00	1.127852e-03	
374	-1.95000e+00	1.135286e-03	
375	-2.00000e+00	1.142153e-03	
376	-2.05000e+00	1.148540e-03	
377	-2.10000e+00	1.154520e-03	
378	-2.15000e+00	1.160150e-03	
379	-2.20000e+00	1.165477e-03	
380	-2.25000e+00	1.170539e-03	
381	-2.30000e+00	1.175365e-03	
382	-2.35000e+00	1.179981e-03	
383	-2.40000e+00	1.184408e-03	
384	-2.45000e+00	1.188664e-03	
385	-2.50000e+00	1.192764e-03	
386	-2.55000e+00	1.196722e-03	
387	-2.60000e+00	1.200550e-03	
388	-2.65000e+00	1.204258e-03	
389	-2.70000e+00	1.207854e-03	
390	-2.75000e+00	1.211348e-03	
391	-2.80000e+00	1.214745e-03	
392	-2.85000e+00	1.218054e-03	
393	-2.90000e+00	1.221279e-03	
394	-2.95000e+00	1.224427e-03	
395	-3.00000e+00	1.227501e-03	
396	-3.05000e+00	1.230506e-03	
397	-3.10000e+00	1.233446e-03	
398	-3.15000e+00	1.236325e-03	
399	-3.20000e+00	1.239147e-03	
400	-3.25000e+00	1.241914e-03	
401	-3.30000e+00	1.244629e-03	
Note: No ".plot", ".print", or ".fourier" lines; no simulations run
