
Note: Compatibility modes selected: hs

Warning: m=xx on .subckt line will override multiplier m hierarchy!


Circuit: ***************************

Doing analysis at TEMP = 25.000000 and TNOM = 25.000000


No. of Data Rows : 402
                          ***************************
                          DC transfer characteristic  Mon Jan  9 13:57:28  2023
--------------------------------------------------------------------------------
Index   v-sweep         i(vds)          
--------------------------------------------------------------------------------
0	-0.000000e+00	0.000000e+00	
1	-5.00000e-02	5.279577e-07	
2	-1.00000e-01	6.471362e-07	
3	-1.50000e-01	6.662556e-07	
4	-2.00000e-01	6.722203e-07	
5	-2.50000e-01	6.754814e-07	
6	-3.00000e-01	6.778328e-07	
7	-3.50000e-01	6.797610e-07	
8	-4.00000e-01	6.814457e-07	
9	-4.50000e-01	6.829690e-07	
10	-5.00000e-01	6.843751e-07	
11	-5.50000e-01	6.856904e-07	
12	-6.00000e-01	6.869323e-07	
13	-6.50000e-01	6.881130e-07	
14	-7.00000e-01	6.892416e-07	
15	-7.50000e-01	6.903251e-07	
16	-8.00000e-01	6.913689e-07	
17	-8.50000e-01	6.923776e-07	
18	-9.00000e-01	6.933547e-07	
19	-9.50000e-01	6.943034e-07	
20	-1.00000e+00	6.952264e-07	
21	-1.05000e+00	6.961259e-07	
22	-1.10000e+00	6.970038e-07	
23	-1.15000e+00	6.978619e-07	
24	-1.20000e+00	6.987018e-07	
25	-1.25000e+00	6.995247e-07	
26	-1.30000e+00	7.003318e-07	
27	-1.35000e+00	7.011242e-07	
28	-1.40000e+00	7.019029e-07	
29	-1.45000e+00	7.026688e-07	
30	-1.50000e+00	7.034226e-07	
31	-1.55000e+00	7.041651e-07	
32	-1.60000e+00	7.048968e-07	
33	-1.65000e+00	7.056185e-07	
34	-1.70000e+00	7.063306e-07	
35	-1.75000e+00	7.070337e-07	
36	-1.80000e+00	7.077282e-07	
37	-1.85000e+00	7.084147e-07	
38	-1.90000e+00	7.090934e-07	
39	-1.95000e+00	7.097648e-07	
40	-2.00000e+00	7.104294e-07	
41	-2.05000e+00	7.110873e-07	
42	-2.10000e+00	7.117391e-07	
43	-2.15000e+00	7.123852e-07	
44	-2.20000e+00	7.130258e-07	
45	-2.25000e+00	7.136615e-07	
46	-2.30000e+00	7.142927e-07	
47	-2.35000e+00	7.149200e-07	
48	-2.40000e+00	7.155439e-07	
49	-2.45000e+00	7.161651e-07	
50	-2.50000e+00	7.167845e-07	
51	-2.55000e+00	7.174029e-07	
52	-2.60000e+00	7.180213e-07	
53	-2.65000e+00	7.186412e-07	
54	-2.70000e+00	7.192638e-07	

Index   v-sweep         i(vds)          
--------------------------------------------------------------------------------
55	-2.75000e+00	7.198909e-07	
56	-2.80000e+00	7.205245e-07	
57	-2.85000e+00	7.211666e-07	
58	-2.90000e+00	7.218199e-07	
59	-2.95000e+00	7.224873e-07	
60	-3.00000e+00	7.231721e-07	
61	-3.05000e+00	7.238780e-07	
62	-3.10000e+00	7.246090e-07	
63	-3.15000e+00	7.253700e-07	
64	-3.20000e+00	7.261661e-07	
65	-3.25000e+00	7.270030e-07	
66	-3.30000e+00	7.278870e-07	
67	-0.000000e+00	0.000000e+00	
68	-5.00000e-02	9.019283e-06	
69	-1.00000e-01	1.684306e-05	
70	-1.50000e-01	2.348042e-05	
71	-2.00000e-01	2.894285e-05	
72	-2.50000e-01	3.324763e-05	
73	-3.00000e-01	3.642734e-05	
74	-3.50000e-01	3.855557e-05	
75	-4.00000e-01	3.979894e-05	
76	-4.50000e-01	4.044203e-05	
77	-5.00000e-01	4.077541e-05	
78	-5.50000e-01	4.097348e-05	
79	-6.00000e-01	4.111136e-05	
80	-6.50000e-01	4.121898e-05	
81	-7.00000e-01	4.130907e-05	
82	-7.50000e-01	4.138776e-05	
83	-8.00000e-01	4.145831e-05	
84	-8.50000e-01	4.152267e-05	
85	-9.00000e-01	4.158211e-05	
86	-9.50000e-01	4.163749e-05	
87	-1.00000e+00	4.168945e-05	
88	-1.05000e+00	4.173845e-05	
89	-1.10000e+00	4.178489e-05	
90	-1.15000e+00	4.182905e-05	
91	-1.20000e+00	4.187118e-05	
92	-1.25000e+00	4.191150e-05	
93	-1.30000e+00	4.195017e-05	
94	-1.35000e+00	4.198733e-05	
95	-1.40000e+00	4.202313e-05	
96	-1.45000e+00	4.205767e-05	
97	-1.50000e+00	4.209105e-05	
98	-1.55000e+00	4.212336e-05	
99	-1.60000e+00	4.215467e-05	
100	-1.65000e+00	4.218505e-05	
101	-1.70000e+00	4.221456e-05	
102	-1.75000e+00	4.224326e-05	
103	-1.80000e+00	4.227121e-05	
104	-1.85000e+00	4.229844e-05	
105	-1.90000e+00	4.232499e-05	
106	-1.95000e+00	4.235091e-05	
107	-2.00000e+00	4.237624e-05	
108	-2.05000e+00	4.240099e-05	
109	-2.10000e+00	4.242521e-05	
110	-2.15000e+00	4.244891e-05	
111	-2.20000e+00	4.247213e-05	
112	-2.25000e+00	4.249490e-05	

Index   v-sweep         i(vds)          
--------------------------------------------------------------------------------
113	-2.30000e+00	4.251722e-05	
114	-2.35000e+00	4.253914e-05	
115	-2.40000e+00	4.256066e-05	
116	-2.45000e+00	4.258181e-05	
117	-2.50000e+00	4.260262e-05	
118	-2.55000e+00	4.262311e-05	
119	-2.60000e+00	4.264330e-05	
120	-2.65000e+00	4.266322e-05	
121	-2.70000e+00	4.268291e-05	
122	-2.75000e+00	4.270240e-05	
123	-2.80000e+00	4.272174e-05	
124	-2.85000e+00	4.274097e-05	
125	-2.90000e+00	4.276014e-05	
126	-2.95000e+00	4.277933e-05	
127	-3.00000e+00	4.279861e-05	
128	-3.05000e+00	4.281807e-05	
129	-3.10000e+00	4.283780e-05	
130	-3.15000e+00	4.285794e-05	
131	-3.20000e+00	4.287860e-05	
132	-3.25000e+00	4.289996e-05	
133	-3.30000e+00	4.292217e-05	
134	-0.000000e+00	0.000000e+00	
135	-5.00000e-02	1.724862e-05	
136	-1.00000e-01	3.333316e-05	
137	-1.50000e-01	4.825989e-05	
138	-2.00000e-01	6.203510e-05	
139	-2.50000e-01	7.466519e-05	
140	-3.00000e-01	8.615670e-05	
141	-3.50000e-01	9.651649e-05	
142	-4.00000e-01	1.057519e-04	
143	-4.50000e-01	1.138714e-04	
144	-5.00000e-01	1.208850e-04	
145	-5.50000e-01	1.268065e-04	
146	-6.00000e-01	1.316569e-04	
147	-6.50000e-01	1.354722e-04	
148	-7.00000e-01	1.383186e-04	
149	-7.50000e-01	1.403151e-04	
150	-8.00000e-01	1.416450e-04	
151	-8.50000e-01	1.425226e-04	
152	-9.00000e-01	1.431293e-04	
153	-9.50000e-01	1.435816e-04	
154	-1.00000e+00	1.439434e-04	
155	-1.05000e+00	1.442484e-04	
156	-1.10000e+00	1.445149e-04	
157	-1.15000e+00	1.447533e-04	
158	-1.20000e+00	1.449704e-04	
159	-1.25000e+00	1.451702e-04	
160	-1.30000e+00	1.453560e-04	
161	-1.35000e+00	1.455298e-04	
162	-1.40000e+00	1.456933e-04	
163	-1.45000e+00	1.458478e-04	
164	-1.50000e+00	1.459945e-04	
165	-1.55000e+00	1.461341e-04	
166	-1.60000e+00	1.462674e-04	
167	-1.65000e+00	1.463949e-04	
168	-1.70000e+00	1.465172e-04	
169	-1.75000e+00	1.466348e-04	
170	-1.80000e+00	1.467480e-04	

Index   v-sweep         i(vds)          
--------------------------------------------------------------------------------
171	-1.85000e+00	1.468572e-04	
172	-1.90000e+00	1.469626e-04	
173	-1.95000e+00	1.470646e-04	
174	-2.00000e+00	1.471634e-04	
175	-2.05000e+00	1.472592e-04	
176	-2.10000e+00	1.473522e-04	
177	-2.15000e+00	1.474425e-04	
178	-2.20000e+00	1.475304e-04	
179	-2.25000e+00	1.476159e-04	
180	-2.30000e+00	1.476992e-04	
181	-2.35000e+00	1.477805e-04	
182	-2.40000e+00	1.478598e-04	
183	-2.45000e+00	1.479372e-04	
184	-2.50000e+00	1.480128e-04	
185	-2.55000e+00	1.480868e-04	
186	-2.60000e+00	1.481592e-04	
187	-2.65000e+00	1.482301e-04	
188	-2.70000e+00	1.482995e-04	
189	-2.75000e+00	1.483676e-04	
190	-2.80000e+00	1.484344e-04	
191	-2.85000e+00	1.485000e-04	
192	-2.90000e+00	1.485645e-04	
193	-2.95000e+00	1.486279e-04	
194	-3.00000e+00	1.486904e-04	
195	-3.05000e+00	1.487521e-04	
196	-3.10000e+00	1.488130e-04	
197	-3.15000e+00	1.488734e-04	
198	-3.20000e+00	1.489333e-04	
199	-3.25000e+00	1.489930e-04	
200	-3.30000e+00	1.490526e-04	
201	-0.000000e+00	0.000000e+00	
202	-5.00000e-02	2.424508e-05	
203	-1.00000e-01	4.739737e-05	
204	-1.50000e-01	6.946219e-05	
205	-2.00000e-01	9.044484e-05	
206	-2.50000e-01	1.103506e-04	
207	-3.00000e-01	1.291848e-04	
208	-3.50000e-01	1.469526e-04	
209	-4.00000e-01	1.636594e-04	
210	-4.50000e-01	1.793105e-04	
211	-5.00000e-01	1.939111e-04	
212	-5.50000e-01	2.074668e-04	
213	-6.00000e-01	2.199830e-04	
214	-6.50000e-01	2.314657e-04	
215	-7.00000e-01	2.419209e-04	
216	-7.50000e-01	2.513555e-04	
217	-8.00000e-01	2.597773e-04	
218	-8.50000e-01	2.671960e-04	
219	-9.00000e-01	2.736244e-04	
220	-9.50000e-01	2.790812e-04	
221	-1.00000e+00	2.835959e-04	
222	-1.05000e+00	2.872167e-04	
223	-1.10000e+00	2.900221e-04	
224	-1.15000e+00	2.921306e-04	
225	-1.20000e+00	2.936936e-04	
226	-1.25000e+00	2.948675e-04	
227	-1.30000e+00	2.957813e-04	
228	-1.35000e+00	2.965248e-04	

Index   v-sweep         i(vds)          
--------------------------------------------------------------------------------
229	-1.40000e+00	2.971540e-04	
230	-1.45000e+00	2.977033e-04	
231	-1.50000e+00	2.981937e-04	
232	-1.55000e+00	2.986388e-04	
233	-1.60000e+00	2.990477e-04	
234	-1.65000e+00	2.994268e-04	
235	-1.70000e+00	2.997808e-04	
236	-1.75000e+00	3.001133e-04	
237	-1.80000e+00	3.004270e-04	
238	-1.85000e+00	3.007242e-04	
239	-1.90000e+00	3.010066e-04	
240	-1.95000e+00	3.012759e-04	
241	-2.00000e+00	3.015333e-04	
242	-2.05000e+00	3.017799e-04	
243	-2.10000e+00	3.020166e-04	
244	-2.15000e+00	3.022443e-04	
245	-2.20000e+00	3.024636e-04	
246	-2.25000e+00	3.026752e-04	
247	-2.30000e+00	3.028796e-04	
248	-2.35000e+00	3.030774e-04	
249	-2.40000e+00	3.032690e-04	
250	-2.45000e+00	3.034548e-04	
251	-2.50000e+00	3.036352e-04	
252	-2.55000e+00	3.038105e-04	
253	-2.60000e+00	3.039809e-04	
254	-2.65000e+00	3.041468e-04	
255	-2.70000e+00	3.043085e-04	
256	-2.75000e+00	3.044661e-04	
257	-2.80000e+00	3.046198e-04	
258	-2.85000e+00	3.047699e-04	
259	-2.90000e+00	3.049166e-04	
260	-2.95000e+00	3.050600e-04	
261	-3.00000e+00	3.052003e-04	
262	-3.05000e+00	3.053376e-04	
263	-3.10000e+00	3.054721e-04	
264	-3.15000e+00	3.056040e-04	
265	-3.20000e+00	3.057334e-04	
266	-3.25000e+00	3.058604e-04	
267	-3.30000e+00	3.059852e-04	
268	-0.000000e+00	0.000000e+00	
269	-5.00000e-02	3.014354e-05	
270	-1.00000e-01	5.927221e-05	
271	-1.50000e-01	8.739060e-05	
272	-2.00000e-01	1.145033e-04	
273	-2.50000e-01	1.406148e-04	
274	-3.00000e-01	1.657296e-04	
275	-3.50000e-01	1.898524e-04	
276	-4.00000e-01	2.129874e-04	
277	-4.50000e-01	2.351392e-04	
278	-5.00000e-01	2.563123e-04	
279	-5.50000e-01	2.765111e-04	
280	-6.00000e-01	2.957400e-04	
281	-6.50000e-01	3.140034e-04	
282	-7.00000e-01	3.313058e-04	
283	-7.50000e-01	3.476516e-04	
284	-8.00000e-01	3.630453e-04	
285	-8.50000e-01	3.774915e-04	
286	-9.00000e-01	3.909947e-04	

Index   v-sweep         i(vds)          
--------------------------------------------------------------------------------
287	-9.50000e-01	4.035599e-04	
288	-1.00000e+00	4.151919e-04	
289	-1.05000e+00	4.258962e-04	
290	-1.10000e+00	4.356785e-04	
291	-1.15000e+00	4.445457e-04	
292	-1.20000e+00	4.525059e-04	
293	-1.25000e+00	4.595696e-04	
294	-1.30000e+00	4.657511e-04	
295	-1.35000e+00	4.710713e-04	
296	-1.40000e+00	4.755619e-04	
297	-1.45000e+00	4.792717e-04	
298	-1.50000e+00	4.822734e-04	
299	-1.55000e+00	4.846665e-04	
300	-1.60000e+00	4.865694e-04	
301	-1.65000e+00	4.881016e-04	
302	-1.70000e+00	4.893654e-04	
303	-1.75000e+00	4.904373e-04	
304	-1.80000e+00	4.913701e-04	
305	-1.85000e+00	4.921993e-04	
306	-1.90000e+00	4.929486e-04	
307	-1.95000e+00	4.936342e-04	
308	-2.00000e+00	4.942677e-04	
309	-2.05000e+00	4.948576e-04	
310	-2.10000e+00	4.954102e-04	
311	-2.15000e+00	4.959304e-04	
312	-2.20000e+00	4.964224e-04	
313	-2.25000e+00	4.968892e-04	
314	-2.30000e+00	4.973335e-04	
315	-2.35000e+00	4.977576e-04	
316	-2.40000e+00	4.981633e-04	
317	-2.45000e+00	4.985523e-04	
318	-2.50000e+00	4.989261e-04	
319	-2.55000e+00	4.992857e-04	
320	-2.60000e+00	4.996323e-04	
321	-2.65000e+00	4.999669e-04	
322	-2.70000e+00	5.002904e-04	
323	-2.75000e+00	5.006034e-04	
324	-2.80000e+00	5.009066e-04	
325	-2.85000e+00	5.012008e-04	
326	-2.90000e+00	5.014864e-04	
327	-2.95000e+00	5.017640e-04	
328	-3.00000e+00	5.020340e-04	
329	-3.05000e+00	5.022968e-04	
330	-3.10000e+00	5.025529e-04	
331	-3.15000e+00	5.028026e-04	
332	-3.20000e+00	5.030462e-04	
333	-3.25000e+00	5.032841e-04	
334	-3.30000e+00	5.035164e-04	
335	-0.000000e+00	0.000000e+00	
336	-5.00000e-02	3.509248e-05	
337	-1.00000e-01	6.924702e-05	
338	-1.50000e-01	1.024676e-04	
339	-2.00000e-01	1.347581e-04	
340	-2.50000e-01	1.661226e-04	
341	-3.00000e-01	1.965648e-04	
342	-3.50000e-01	2.260887e-04	
343	-4.00000e-01	2.546982e-04	
344	-4.50000e-01	2.823971e-04	

Index   v-sweep         i(vds)          
--------------------------------------------------------------------------------
345	-5.00000e-01	3.091891e-04	
346	-5.50000e-01	3.350782e-04	
347	-6.00000e-01	3.600681e-04	
348	-6.50000e-01	3.841626e-04	
349	-7.00000e-01	4.073655e-04	
350	-7.50000e-01	4.296804e-04	
351	-8.00000e-01	4.511112e-04	
352	-8.50000e-01	4.716615e-04	
353	-9.00000e-01	4.913350e-04	
354	-9.50000e-01	5.101356e-04	
355	-1.00000e+00	5.280669e-04	
356	-1.05000e+00	5.451325e-04	
357	-1.10000e+00	5.613364e-04	
358	-1.15000e+00	5.766822e-04	
359	-1.20000e+00	5.911739e-04	
360	-1.25000e+00	6.048152e-04	
361	-1.30000e+00	6.176103e-04	
362	-1.35000e+00	6.295634e-04	
363	-1.40000e+00	6.406788e-04	
364	-1.45000e+00	6.509615e-04	
365	-1.50000e+00	6.604170e-04	
366	-1.55000e+00	6.690515e-04	
367	-1.60000e+00	6.768729e-04	
368	-1.65000e+00	6.838912e-04	
369	-1.70000e+00	6.901202e-04	
370	-1.75000e+00	6.955792e-04	
371	-1.80000e+00	7.002965e-04	
372	-1.85000e+00	7.043137e-04	
373	-1.90000e+00	7.076892e-04	
374	-1.95000e+00	7.105004e-04	
375	-2.00000e+00	7.128389e-04	
376	-2.05000e+00	7.147996e-04	
377	-2.10000e+00	7.164688e-04	
378	-2.15000e+00	7.179165e-04	
379	-2.20000e+00	7.191954e-04	
380	-2.25000e+00	7.203434e-04	
381	-2.30000e+00	7.213875e-04	
382	-2.35000e+00	7.223472e-04	
383	-2.40000e+00	7.232368e-04	
384	-2.45000e+00	7.240670e-04	
385	-2.50000e+00	7.248461e-04	
386	-2.55000e+00	7.255808e-04	
387	-2.60000e+00	7.262761e-04	
388	-2.65000e+00	7.269366e-04	
389	-2.70000e+00	7.275658e-04	
390	-2.75000e+00	7.281667e-04	
391	-2.80000e+00	7.287418e-04	
392	-2.85000e+00	7.292936e-04	
393	-2.90000e+00	7.298238e-04	
394	-2.95000e+00	7.303343e-04	
395	-3.00000e+00	7.308264e-04	
396	-3.05000e+00	7.313016e-04	
397	-3.10000e+00	7.317609e-04	
398	-3.15000e+00	7.322056e-04	
399	-3.20000e+00	7.326365e-04	
400	-3.25000e+00	7.330545e-04	
401	-3.30000e+00	7.334604e-04	
Note: No ".plot", ".print", or ".fourier" lines; no simulations run
