
Note: Compatibility modes selected: hs

Warning: m=xx on .subckt line will override multiplier m hierarchy!


Circuit: ***************************

Doing analysis at TEMP = 125.000000 and TNOM = 125.000000


No. of Data Rows : 402
                          ***************************
                          DC transfer characteristic  Mon Jan  9 13:57:29  2023
--------------------------------------------------------------------------------
Index   v-sweep         i(vds)          
--------------------------------------------------------------------------------
0	-0.000000e+00	0.000000e+00	
1	-5.00000e-02	1.175240e-08	
2	-1.00000e-01	1.665334e-08	
3	-1.50000e-01	1.825425e-08	
4	-2.00000e-01	1.863887e-08	
5	-2.50000e-01	1.874199e-08	
6	-3.00000e-01	1.877933e-08	
7	-3.50000e-01	1.879702e-08	
8	-4.00000e-01	1.880730e-08	
9	-4.50000e-01	1.881422e-08	
10	-5.00000e-01	1.881937e-08	
11	-5.50000e-01	1.882349e-08	
12	-6.00000e-01	1.882696e-08	
13	-6.50000e-01	1.882999e-08	
14	-7.00000e-01	1.883271e-08	
15	-7.50000e-01	1.883519e-08	
16	-8.00000e-01	1.883749e-08	
17	-8.50000e-01	1.883965e-08	
18	-9.00000e-01	1.884170e-08	
19	-9.50000e-01	1.884366e-08	
20	-1.00000e+00	1.884554e-08	
21	-1.05000e+00	1.884735e-08	
22	-1.10000e+00	1.884910e-08	
23	-1.15000e+00	1.885080e-08	
24	-1.20000e+00	1.885246e-08	
25	-1.25000e+00	1.885407e-08	
26	-1.30000e+00	1.885565e-08	
27	-1.35000e+00	1.885720e-08	
28	-1.40000e+00	1.885871e-08	
29	-1.45000e+00	1.886020e-08	
30	-1.50000e+00	1.886167e-08	
31	-1.55000e+00	1.886311e-08	
32	-1.60000e+00	1.886453e-08	
33	-1.65000e+00	1.886593e-08	
34	-1.70000e+00	1.886731e-08	
35	-1.75000e+00	1.886868e-08	
36	-1.80000e+00	1.887002e-08	
37	-1.85000e+00	1.887135e-08	
38	-1.90000e+00	1.887267e-08	
39	-1.95000e+00	1.887398e-08	
40	-2.00000e+00	1.887527e-08	
41	-2.05000e+00	1.887655e-08	
42	-2.10000e+00	1.887782e-08	
43	-2.15000e+00	1.887907e-08	
44	-2.20000e+00	1.888032e-08	
45	-2.25000e+00	1.888156e-08	
46	-2.30000e+00	1.888279e-08	
47	-2.35000e+00	1.888401e-08	
48	-2.40000e+00	1.888523e-08	
49	-2.45000e+00	1.888644e-08	
50	-2.50000e+00	1.888766e-08	
51	-2.55000e+00	1.888887e-08	
52	-2.60000e+00	1.889009e-08	
53	-2.65000e+00	1.889131e-08	
54	-2.70000e+00	1.889255e-08	

Index   v-sweep         i(vds)          
--------------------------------------------------------------------------------
55	-2.75000e+00	1.889381e-08	
56	-2.80000e+00	1.889510e-08	
57	-2.85000e+00	1.889642e-08	
58	-2.90000e+00	1.889779e-08	
59	-2.95000e+00	1.889923e-08	
60	-3.00000e+00	1.890075e-08	
61	-3.05000e+00	1.890237e-08	
62	-3.10000e+00	1.890411e-08	
63	-3.15000e+00	1.890601e-08	
64	-3.20000e+00	1.890810e-08	
65	-3.25000e+00	1.891041e-08	
66	-3.30000e+00	1.891300e-08	
67	-0.000000e+00	0.000000e+00	
68	-5.00000e-02	4.152899e-08	
69	-1.00000e-01	7.507688e-08	
70	-1.50000e-01	1.033991e-07	
71	-2.00000e-01	1.271488e-07	
72	-2.50000e-01	1.465007e-07	
73	-3.00000e-01	1.615455e-07	
74	-3.50000e-01	1.724233e-07	
75	-4.00000e-01	1.794613e-07	
76	-4.50000e-01	1.833696e-07	
77	-5.00000e-01	1.852434e-07	
78	-5.50000e-01	1.860968e-07	
79	-6.00000e-01	1.865105e-07	
80	-6.50000e-01	1.867352e-07	
81	-7.00000e-01	1.868724e-07	
82	-7.50000e-01	1.869648e-07	
83	-8.00000e-01	1.870322e-07	
84	-8.50000e-01	1.870845e-07	
85	-9.00000e-01	1.871272e-07	
86	-9.50000e-01	1.871633e-07	
87	-1.00000e+00	1.871947e-07	
88	-1.05000e+00	1.872227e-07	
89	-1.10000e+00	1.872480e-07	
90	-1.15000e+00	1.872713e-07	
91	-1.20000e+00	1.872928e-07	
92	-1.25000e+00	1.873130e-07	
93	-1.30000e+00	1.873320e-07	
94	-1.35000e+00	1.873500e-07	
95	-1.40000e+00	1.873672e-07	
96	-1.45000e+00	1.873836e-07	
97	-1.50000e+00	1.873994e-07	
98	-1.55000e+00	1.874146e-07	
99	-1.60000e+00	1.874292e-07	
100	-1.65000e+00	1.874434e-07	
101	-1.70000e+00	1.874572e-07	
102	-1.75000e+00	1.874705e-07	
103	-1.80000e+00	1.874835e-07	
104	-1.85000e+00	1.874962e-07	
105	-1.90000e+00	1.875085e-07	
106	-1.95000e+00	1.875206e-07	
107	-2.00000e+00	1.875324e-07	
108	-2.05000e+00	1.875439e-07	
109	-2.10000e+00	1.875552e-07	
110	-2.15000e+00	1.875663e-07	
111	-2.20000e+00	1.875772e-07	
112	-2.25000e+00	1.875878e-07	

Index   v-sweep         i(vds)          
--------------------------------------------------------------------------------
113	-2.30000e+00	1.875983e-07	
114	-2.35000e+00	1.876087e-07	
115	-2.40000e+00	1.876188e-07	
116	-2.45000e+00	1.876288e-07	
117	-2.50000e+00	1.876387e-07	
118	-2.55000e+00	1.876484e-07	
119	-2.60000e+00	1.876580e-07	
120	-2.65000e+00	1.876675e-07	
121	-2.70000e+00	1.876770e-07	
122	-2.75000e+00	1.876863e-07	
123	-2.80000e+00	1.876956e-07	
124	-2.85000e+00	1.877050e-07	
125	-2.90000e+00	1.877143e-07	
126	-2.95000e+00	1.877238e-07	
127	-3.00000e+00	1.877334e-07	
128	-3.05000e+00	1.877433e-07	
129	-3.10000e+00	1.877535e-07	
130	-3.15000e+00	1.877642e-07	
131	-3.20000e+00	1.877755e-07	
132	-3.25000e+00	1.877877e-07	
133	-3.30000e+00	1.878009e-07	
134	-0.000000e+00	0.000000e+00	
135	-5.00000e-02	7.067444e-08	
136	-1.00000e-01	1.334344e-07	
137	-1.50000e-01	1.910298e-07	
138	-2.00000e-01	2.441031e-07	
139	-2.50000e-01	2.928063e-07	
140	-3.00000e-01	3.371779e-07	
141	-3.50000e-01	3.772312e-07	
142	-4.00000e-01	4.129752e-07	
143	-4.50000e-01	4.444212e-07	
144	-5.00000e-01	4.715869e-07	
145	-5.50000e-01	4.945027e-07	
146	-6.00000e-01	5.132246e-07	
147	-6.50000e-01	5.278615e-07	
148	-7.00000e-01	5.386289e-07	
149	-7.50000e-01	5.459364e-07	
150	-8.00000e-01	5.504590e-07	
151	-8.50000e-01	5.530532e-07	
152	-9.00000e-01	5.545022e-07	
153	-9.50000e-01	5.553359e-07	
154	-1.00000e+00	5.558472e-07	
155	-1.05000e+00	5.561851e-07	
156	-1.10000e+00	5.564247e-07	
157	-1.15000e+00	5.566053e-07	
158	-1.20000e+00	5.567485e-07	
159	-1.25000e+00	5.568665e-07	
160	-1.30000e+00	5.569671e-07	
161	-1.35000e+00	5.570549e-07	
162	-1.40000e+00	5.571331e-07	
163	-1.45000e+00	5.572039e-07	
164	-1.50000e+00	5.572689e-07	
165	-1.55000e+00	5.573290e-07	
166	-1.60000e+00	5.573851e-07	
167	-1.65000e+00	5.574378e-07	
168	-1.70000e+00	5.574877e-07	
169	-1.75000e+00	5.575351e-07	
170	-1.80000e+00	5.575803e-07	

Index   v-sweep         i(vds)          
--------------------------------------------------------------------------------
171	-1.85000e+00	5.576236e-07	
172	-1.90000e+00	5.576651e-07	
173	-1.95000e+00	5.577051e-07	
174	-2.00000e+00	5.577437e-07	
175	-2.05000e+00	5.577810e-07	
176	-2.10000e+00	5.578172e-07	
177	-2.15000e+00	5.578523e-07	
178	-2.20000e+00	5.578863e-07	
179	-2.25000e+00	5.579195e-07	
180	-2.30000e+00	5.579518e-07	
181	-2.35000e+00	5.579833e-07	
182	-2.40000e+00	5.580140e-07	
183	-2.45000e+00	5.580441e-07	
184	-2.50000e+00	5.580735e-07	
185	-2.55000e+00	5.581022e-07	
186	-2.60000e+00	5.581304e-07	
187	-2.65000e+00	5.581580e-07	
188	-2.70000e+00	5.581851e-07	
189	-2.75000e+00	5.582118e-07	
190	-2.80000e+00	5.582379e-07	
191	-2.85000e+00	5.582636e-07	
192	-2.90000e+00	5.582890e-07	
193	-2.95000e+00	5.583140e-07	
194	-3.00000e+00	5.583387e-07	
195	-3.05000e+00	5.583631e-07	
196	-3.10000e+00	5.583874e-07	
197	-3.15000e+00	5.584115e-07	
198	-3.20000e+00	5.584357e-07	
199	-3.25000e+00	5.584601e-07	
200	-3.30000e+00	5.584847e-07	
201	-0.000000e+00	0.000000e+00	
202	-5.00000e-02	9.797947e-08	
203	-1.00000e-01	1.882271e-07	
204	-1.50000e-01	2.734923e-07	
205	-2.00000e-01	3.544163e-07	
206	-2.50000e-01	4.311498e-07	
207	-3.00000e-01	5.037295e-07	
208	-3.50000e-01	5.721653e-07	
209	-4.00000e-01	6.364612e-07	
210	-4.50000e-01	6.966201e-07	
211	-5.00000e-01	7.526447e-07	
212	-5.50000e-01	8.045384e-07	
213	-6.00000e-01	8.523053e-07	
214	-6.50000e-01	8.959506e-07	
215	-7.00000e-01	9.354814e-07	
216	-7.50000e-01	9.709080e-07	
217	-8.00000e-01	1.002246e-06	
218	-8.50000e-01	1.029518e-06	
219	-9.00000e-01	1.052766e-06	
220	-9.50000e-01	1.072056e-06	
221	-1.00000e+00	1.087508e-06	
222	-1.05000e+00	1.099330e-06	
223	-1.10000e+00	1.107877e-06	
224	-1.15000e+00	1.113680e-06	
225	-1.20000e+00	1.117411e-06	
226	-1.25000e+00	1.119744e-06	
227	-1.30000e+00	1.121212e-06	
228	-1.35000e+00	1.122169e-06	

Index   v-sweep         i(vds)          
--------------------------------------------------------------------------------
229	-1.40000e+00	1.122825e-06	
230	-1.45000e+00	1.123301e-06	
231	-1.50000e+00	1.123663e-06	
232	-1.55000e+00	1.123951e-06	
233	-1.60000e+00	1.124189e-06	
234	-1.65000e+00	1.124391e-06	
235	-1.70000e+00	1.124567e-06	
236	-1.75000e+00	1.124724e-06	
237	-1.80000e+00	1.124866e-06	
238	-1.85000e+00	1.124995e-06	
239	-1.90000e+00	1.125114e-06	
240	-1.95000e+00	1.125225e-06	
241	-2.00000e+00	1.125330e-06	
242	-2.05000e+00	1.125428e-06	
243	-2.10000e+00	1.125521e-06	
244	-2.15000e+00	1.125610e-06	
245	-2.20000e+00	1.125695e-06	
246	-2.25000e+00	1.125776e-06	
247	-2.30000e+00	1.125854e-06	
248	-2.35000e+00	1.125929e-06	
249	-2.40000e+00	1.126001e-06	
250	-2.45000e+00	1.126072e-06	
251	-2.50000e+00	1.126140e-06	
252	-2.55000e+00	1.126205e-06	
253	-2.60000e+00	1.126269e-06	
254	-2.65000e+00	1.126332e-06	
255	-2.70000e+00	1.126392e-06	
256	-2.75000e+00	1.126451e-06	
257	-2.80000e+00	1.126509e-06	
258	-2.85000e+00	1.126565e-06	
259	-2.90000e+00	1.126620e-06	
260	-2.95000e+00	1.126674e-06	
261	-3.00000e+00	1.126727e-06	
262	-3.05000e+00	1.126779e-06	
263	-3.10000e+00	1.126829e-06	
264	-3.15000e+00	1.126879e-06	
265	-3.20000e+00	1.126928e-06	
266	-3.25000e+00	1.126976e-06	
267	-3.30000e+00	1.127023e-06	
268	-0.000000e+00	0.000000e+00	
269	-5.00000e-02	1.236403e-07	
270	-1.00000e-01	2.397541e-07	
271	-1.50000e-01	3.510902e-07	
272	-2.00000e-01	4.582900e-07	
273	-2.50000e-01	5.615037e-07	
274	-3.00000e-01	6.607675e-07	
275	-3.50000e-01	7.560909e-07	
276	-4.00000e-01	8.474773e-07	
277	-4.50000e-01	9.349286e-07	
278	-5.00000e-01	1.018446e-06	
279	-5.50000e-01	1.098033e-06	
280	-6.00000e-01	1.173689e-06	
281	-6.50000e-01	1.245417e-06	
282	-7.00000e-01	1.313219e-06	
283	-7.50000e-01	1.377097e-06	
284	-8.00000e-01	1.437054e-06	
285	-8.50000e-01	1.493092e-06	
286	-9.00000e-01	1.545216e-06	

Index   v-sweep         i(vds)          
--------------------------------------------------------------------------------
287	-9.50000e-01	1.593430e-06	
288	-1.00000e+00	1.637740e-06	
289	-1.05000e+00	1.678153e-06	
290	-1.10000e+00	1.714681e-06	
291	-1.15000e+00	1.747339e-06	
292	-1.20000e+00	1.776151e-06	
293	-1.25000e+00	1.801154e-06	
294	-1.30000e+00	1.822408e-06	
295	-1.35000e+00	1.840008e-06	
296	-1.40000e+00	1.854113e-06	
297	-1.45000e+00	1.864972e-06	
298	-1.50000e+00	1.872963e-06	
299	-1.55000e+00	1.878586e-06	
300	-1.60000e+00	1.882412e-06	
301	-1.65000e+00	1.884982e-06	
302	-1.70000e+00	1.886725e-06	
303	-1.75000e+00	1.887943e-06	
304	-1.80000e+00	1.888828e-06	
305	-1.85000e+00	1.889498e-06	
306	-1.90000e+00	1.890027e-06	
307	-1.95000e+00	1.890458e-06	
308	-2.00000e+00	1.890822e-06	
309	-2.05000e+00	1.891135e-06	
310	-2.10000e+00	1.891412e-06	
311	-2.15000e+00	1.891659e-06	
312	-2.20000e+00	1.891884e-06	
313	-2.25000e+00	1.892090e-06	
314	-2.30000e+00	1.892281e-06	
315	-2.35000e+00	1.892459e-06	
316	-2.40000e+00	1.892627e-06	
317	-2.45000e+00	1.892785e-06	
318	-2.50000e+00	1.892935e-06	
319	-2.55000e+00	1.893078e-06	
320	-2.60000e+00	1.893215e-06	
321	-2.65000e+00	1.893346e-06	
322	-2.70000e+00	1.893472e-06	
323	-2.75000e+00	1.893593e-06	
324	-2.80000e+00	1.893710e-06	
325	-2.85000e+00	1.893823e-06	
326	-2.90000e+00	1.893933e-06	
327	-2.95000e+00	1.894039e-06	
328	-3.00000e+00	1.894142e-06	
329	-3.05000e+00	1.894243e-06	
330	-3.10000e+00	1.894340e-06	
331	-3.15000e+00	1.894436e-06	
332	-3.20000e+00	1.894529e-06	
333	-3.25000e+00	1.894619e-06	
334	-3.30000e+00	1.894708e-06	
335	-0.000000e+00	0.000000e+00	
336	-5.00000e-02	1.478825e-07	
337	-1.00000e-01	2.884437e-07	
338	-1.50000e-01	4.244324e-07	
339	-2.00000e-01	5.564898e-07	
340	-2.50000e-01	6.847658e-07	
341	-3.00000e-01	8.092967e-07	
342	-3.50000e-01	9.300916e-07	
343	-4.00000e-01	1.047154e-06	
344	-4.50000e-01	1.160485e-06	

Index   v-sweep         i(vds)          
--------------------------------------------------------------------------------
345	-5.00000e-01	1.270086e-06	
346	-5.50000e-01	1.375959e-06	
347	-6.00000e-01	1.478105e-06	
348	-6.50000e-01	1.576525e-06	
349	-7.00000e-01	1.671221e-06	
350	-7.50000e-01	1.762194e-06	
351	-8.00000e-01	1.849446e-06	
352	-8.50000e-01	1.932977e-06	
353	-9.00000e-01	2.012791e-06	
354	-9.50000e-01	2.088887e-06	
355	-1.00000e+00	2.161270e-06	
356	-1.05000e+00	2.229939e-06	
357	-1.10000e+00	2.294898e-06	
358	-1.15000e+00	2.356148e-06	
359	-1.20000e+00	2.413694e-06	
360	-1.25000e+00	2.467538e-06	
361	-1.30000e+00	2.517685e-06	
362	-1.35000e+00	2.564140e-06	
363	-1.40000e+00	2.606910e-06	
364	-1.45000e+00	2.646005e-06	
365	-1.50000e+00	2.681438e-06	
366	-1.55000e+00	2.713228e-06	
367	-1.60000e+00	2.741402e-06	
368	-1.65000e+00	2.766002e-06	
369	-1.70000e+00	2.787093e-06	
370	-1.75000e+00	2.804771e-06	
371	-1.80000e+00	2.819192e-06	
372	-1.85000e+00	2.830582e-06	
373	-1.90000e+00	2.839268e-06	
374	-1.95000e+00	2.845668e-06	
375	-2.00000e+00	2.850262e-06	
376	-2.05000e+00	2.853517e-06	
377	-2.10000e+00	2.855835e-06	
378	-2.15000e+00	2.857517e-06	
379	-2.20000e+00	2.858775e-06	
380	-2.25000e+00	2.859746e-06	
381	-2.30000e+00	2.860523e-06	
382	-2.35000e+00	2.861162e-06	
383	-2.40000e+00	2.861704e-06	
384	-2.45000e+00	2.862172e-06	
385	-2.50000e+00	2.862586e-06	
386	-2.55000e+00	2.862956e-06	
387	-2.60000e+00	2.863293e-06	
388	-2.65000e+00	2.863601e-06	
389	-2.70000e+00	2.863888e-06	
390	-2.75000e+00	2.864154e-06	
391	-2.80000e+00	2.864405e-06	
392	-2.85000e+00	2.864642e-06	
393	-2.90000e+00	2.864866e-06	
394	-2.95000e+00	2.865080e-06	
395	-3.00000e+00	2.865284e-06	
396	-3.05000e+00	2.865479e-06	
397	-3.10000e+00	2.865667e-06	
398	-3.15000e+00	2.865847e-06	
399	-3.20000e+00	2.866022e-06	
400	-3.25000e+00	2.866190e-06	
401	-3.30000e+00	2.866353e-06	
Note: No ".plot", ".print", or ".fourier" lines; no simulations run
