
Note: Compatibility modes selected: hs

Warning: m=xx on .subckt line will override multiplier m hierarchy!


Circuit: ***************************

Doing analysis at TEMP = 25.000000 and TNOM = 25.000000


No. of Data Rows : 402
                          ***************************
                          DC transfer characteristic  Mon Jan  9 13:57:29  2023
--------------------------------------------------------------------------------
Index   v-sweep         i(vds)          
--------------------------------------------------------------------------------
0	-0.000000e+00	0.000000e+00	
1	-5.00000e-02	5.411599e-08	
2	-1.00000e-01	7.734752e-08	
3	-1.50000e-01	8.341061e-08	
4	-2.00000e-01	8.513691e-08	
5	-2.50000e-01	8.602903e-08	
6	-3.00000e-01	8.668879e-08	
7	-3.50000e-01	8.725189e-08	
8	-4.00000e-01	8.776141e-08	
9	-4.50000e-01	8.823518e-08	
10	-5.00000e-01	8.868220e-08	
11	-5.50000e-01	8.910778e-08	
12	-6.00000e-01	8.951541e-08	
13	-6.50000e-01	8.990759e-08	
14	-7.00000e-01	9.028623e-08	
15	-7.50000e-01	9.065283e-08	
16	-8.00000e-01	9.100862e-08	
17	-8.50000e-01	9.135463e-08	
18	-9.00000e-01	9.169173e-08	
19	-9.50000e-01	9.202067e-08	
20	-1.00000e+00	9.234212e-08	
21	-1.05000e+00	9.265664e-08	
22	-1.10000e+00	9.296476e-08	
23	-1.15000e+00	9.326692e-08	
24	-1.20000e+00	9.356353e-08	
25	-1.25000e+00	9.385496e-08	
26	-1.30000e+00	9.414155e-08	
27	-1.35000e+00	9.442359e-08	
28	-1.40000e+00	9.470135e-08	
29	-1.45000e+00	9.497509e-08	
30	-1.50000e+00	9.524504e-08	
31	-1.55000e+00	9.551141e-08	
32	-1.60000e+00	9.577439e-08	
33	-1.65000e+00	9.603416e-08	
34	-1.70000e+00	9.629088e-08	
35	-1.75000e+00	9.654473e-08	
36	-1.80000e+00	9.679582e-08	
37	-1.85000e+00	9.704431e-08	
38	-1.90000e+00	9.729032e-08	
39	-1.95000e+00	9.753396e-08	
40	-2.00000e+00	9.777536e-08	
41	-2.05000e+00	9.801462e-08	
42	-2.10000e+00	9.825185e-08	
43	-2.15000e+00	9.848716e-08	
44	-2.20000e+00	9.872066e-08	
45	-2.25000e+00	9.895246e-08	
46	-2.30000e+00	9.918266e-08	
47	-2.35000e+00	9.941141e-08	
48	-2.40000e+00	9.963882e-08	
49	-2.45000e+00	9.986504e-08	
50	-2.50000e+00	1.000902e-07	
51	-2.55000e+00	1.003146e-07	
52	-2.60000e+00	1.005383e-07	
53	-2.65000e+00	1.007615e-07	
54	-2.70000e+00	1.009846e-07	

Index   v-sweep         i(vds)          
--------------------------------------------------------------------------------
55	-2.75000e+00	1.012078e-07	
56	-2.80000e+00	1.014314e-07	
57	-2.85000e+00	1.016557e-07	
58	-2.90000e+00	1.018813e-07	
59	-2.95000e+00	1.021085e-07	
60	-3.00000e+00	1.023378e-07	
61	-3.05000e+00	1.025699e-07	
62	-3.10000e+00	1.028052e-07	
63	-3.15000e+00	1.030446e-07	
64	-3.20000e+00	1.032886e-07	
65	-3.25000e+00	1.035383e-07	
66	-3.30000e+00	1.037943e-07	
67	-0.000000e+00	0.000000e+00	
68	-5.00000e-02	4.764918e-07	
69	-1.00000e-01	8.996129e-07	
70	-1.50000e-01	1.270007e-06	
71	-2.00000e-01	1.588353e-06	
72	-2.50000e-01	1.855410e-06	
73	-3.00000e-01	2.072130e-06	
74	-3.50000e-01	2.239939e-06	
75	-4.00000e-01	2.361464e-06	
76	-4.50000e-01	2.442074e-06	
77	-5.00000e-01	2.491505e-06	
78	-5.50000e-01	2.521941e-06	
79	-6.00000e-01	2.542808e-06	
80	-6.50000e-01	2.559039e-06	
81	-7.00000e-01	2.572799e-06	
82	-7.50000e-01	2.585043e-06	
83	-8.00000e-01	2.596234e-06	
84	-8.50000e-01	2.606625e-06	
85	-9.00000e-01	2.616372e-06	
86	-9.50000e-01	2.625577e-06	
87	-1.00000e+00	2.634316e-06	
88	-1.05000e+00	2.642646e-06	
89	-1.10000e+00	2.650612e-06	
90	-1.15000e+00	2.658250e-06	
91	-1.20000e+00	2.665592e-06	
92	-1.25000e+00	2.672663e-06	
93	-1.30000e+00	2.679487e-06	
94	-1.35000e+00	2.686083e-06	
95	-1.40000e+00	2.692469e-06	
96	-1.45000e+00	2.698658e-06	
97	-1.50000e+00	2.704666e-06	
98	-1.55000e+00	2.710505e-06	
99	-1.60000e+00	2.716185e-06	
100	-1.65000e+00	2.721716e-06	
101	-1.70000e+00	2.727108e-06	
102	-1.75000e+00	2.732368e-06	
103	-1.80000e+00	2.737503e-06	
104	-1.85000e+00	2.742522e-06	
105	-1.90000e+00	2.747430e-06	
106	-1.95000e+00	2.752233e-06	
107	-2.00000e+00	2.756936e-06	
108	-2.05000e+00	2.761545e-06	
109	-2.10000e+00	2.766063e-06	
110	-2.15000e+00	2.770496e-06	
111	-2.20000e+00	2.774846e-06	
112	-2.25000e+00	2.779119e-06	

Index   v-sweep         i(vds)          
--------------------------------------------------------------------------------
113	-2.30000e+00	2.783317e-06	
114	-2.35000e+00	2.787444e-06	
115	-2.40000e+00	2.791503e-06	
116	-2.45000e+00	2.795498e-06	
117	-2.50000e+00	2.799431e-06	
118	-2.55000e+00	2.803305e-06	
119	-2.60000e+00	2.807124e-06	
120	-2.65000e+00	2.810891e-06	
121	-2.70000e+00	2.814610e-06	
122	-2.75000e+00	2.818283e-06	
123	-2.80000e+00	2.821915e-06	
124	-2.85000e+00	2.825510e-06	
125	-2.90000e+00	2.829073e-06	
126	-2.95000e+00	2.832609e-06	
127	-3.00000e+00	2.836124e-06	
128	-3.05000e+00	2.839625e-06	
129	-3.10000e+00	2.843119e-06	
130	-3.15000e+00	2.846614e-06	
131	-3.20000e+00	2.850121e-06	
132	-3.25000e+00	2.853649e-06	
133	-3.30000e+00	2.857210e-06	
134	-0.000000e+00	0.000000e+00	
135	-5.00000e-02	8.788745e-07	
136	-1.00000e-01	1.702713e-06	
137	-1.50000e-01	2.472092e-06	
138	-2.00000e-01	3.187584e-06	
139	-2.50000e-01	3.849757e-06	
140	-3.00000e-01	4.459176e-06	
141	-3.50000e-01	5.016410e-06	
142	-4.00000e-01	5.522031e-06	
143	-4.50000e-01	5.976627e-06	
144	-5.00000e-01	6.380820e-06	
145	-5.50000e-01	6.735294e-06	
146	-6.00000e-01	7.040857e-06	
147	-6.50000e-01	7.298565e-06	
148	-7.00000e-01	7.509980e-06	
149	-7.50000e-01	7.677660e-06	
150	-8.00000e-01	7.805953e-06	
151	-8.50000e-01	7.901668e-06	
152	-9.00000e-01	7.973462e-06	
153	-9.50000e-01	8.029582e-06	
154	-1.00000e+00	8.075985e-06	
155	-1.05000e+00	8.116233e-06	
156	-1.10000e+00	8.152311e-06	
157	-1.15000e+00	8.185339e-06	
158	-1.20000e+00	8.215990e-06	
159	-1.25000e+00	8.244698e-06	
160	-1.30000e+00	8.271763e-06	
161	-1.35000e+00	8.297408e-06	
162	-1.40000e+00	8.321804e-06	
163	-1.45000e+00	8.345086e-06	
164	-1.50000e+00	8.367367e-06	
165	-1.55000e+00	8.388740e-06	
166	-1.60000e+00	8.409285e-06	
167	-1.65000e+00	8.429071e-06	
168	-1.70000e+00	8.448158e-06	
169	-1.75000e+00	8.466600e-06	
170	-1.80000e+00	8.484442e-06	

Index   v-sweep         i(vds)          
--------------------------------------------------------------------------------
171	-1.85000e+00	8.501727e-06	
172	-1.90000e+00	8.518491e-06	
173	-1.95000e+00	8.534768e-06	
174	-2.00000e+00	8.550590e-06	
175	-2.05000e+00	8.565982e-06	
176	-2.10000e+00	8.580971e-06	
177	-2.15000e+00	8.595579e-06	
178	-2.20000e+00	8.609828e-06	
179	-2.25000e+00	8.623736e-06	
180	-2.30000e+00	8.637321e-06	
181	-2.35000e+00	8.650600e-06	
182	-2.40000e+00	8.663589e-06	
183	-2.45000e+00	8.676300e-06	
184	-2.50000e+00	8.688748e-06	
185	-2.55000e+00	8.700944e-06	
186	-2.60000e+00	8.712900e-06	
187	-2.65000e+00	8.724627e-06	
188	-2.70000e+00	8.736135e-06	
189	-2.75000e+00	8.747435e-06	
190	-2.80000e+00	8.758536e-06	
191	-2.85000e+00	8.769446e-06	
192	-2.90000e+00	8.780176e-06	
193	-2.95000e+00	8.790736e-06	
194	-3.00000e+00	8.801133e-06	
195	-3.05000e+00	8.811380e-06	
196	-3.10000e+00	8.821487e-06	
197	-3.15000e+00	8.831465e-06	
198	-3.20000e+00	8.841327e-06	
199	-3.25000e+00	8.851087e-06	
200	-3.30000e+00	8.860762e-06	
201	-0.000000e+00	0.000000e+00	
202	-5.00000e-02	1.237771e-06	
203	-1.00000e-01	2.420698e-06	
204	-1.50000e-01	3.549320e-06	
205	-2.00000e-01	4.624171e-06	
206	-2.50000e-01	5.645777e-06	
207	-3.00000e-01	6.614659e-06	
208	-3.50000e-01	7.531330e-06	
209	-4.00000e-01	8.396302e-06	
210	-4.50000e-01	9.210080e-06	
211	-5.00000e-01	9.973165e-06	
212	-5.50000e-01	1.068606e-05	
213	-6.00000e-01	1.134926e-05	
214	-6.50000e-01	1.196326e-05	
215	-7.00000e-01	1.252858e-05	
216	-7.50000e-01	1.304575e-05	
217	-8.00000e-01	1.351530e-05	
218	-8.50000e-01	1.393783e-05	
219	-9.00000e-01	1.431404e-05	
220	-9.50000e-01	1.464476e-05	
221	-1.00000e+00	1.493111e-05	
222	-1.05000e+00	1.517471e-05	
223	-1.10000e+00	1.537808e-05	
224	-1.15000e+00	1.554506e-05	
225	-1.20000e+00	1.568111e-05	
226	-1.25000e+00	1.579285e-05	
227	-1.30000e+00	1.588679e-05	
228	-1.35000e+00	1.596816e-05	

Index   v-sweep         i(vds)          
--------------------------------------------------------------------------------
229	-1.40000e+00	1.604058e-05	
230	-1.45000e+00	1.610639e-05	
231	-1.50000e+00	1.616708e-05	
232	-1.55000e+00	1.622363e-05	
233	-1.60000e+00	1.627673e-05	
234	-1.65000e+00	1.632685e-05	
235	-1.70000e+00	1.637439e-05	
236	-1.75000e+00	1.641963e-05	
237	-1.80000e+00	1.646281e-05	
238	-1.85000e+00	1.650415e-05	
239	-1.90000e+00	1.654379e-05	
240	-1.95000e+00	1.658190e-05	
241	-2.00000e+00	1.661859e-05	
242	-2.05000e+00	1.665397e-05	
243	-2.10000e+00	1.668815e-05	
244	-2.15000e+00	1.672121e-05	
245	-2.20000e+00	1.675322e-05	
246	-2.25000e+00	1.678425e-05	
247	-2.30000e+00	1.681437e-05	
248	-2.35000e+00	1.684363e-05	
249	-2.40000e+00	1.687209e-05	
250	-2.45000e+00	1.689978e-05	
251	-2.50000e+00	1.692676e-05	
252	-2.55000e+00	1.695306e-05	
253	-2.60000e+00	1.697872e-05	
254	-2.65000e+00	1.700377e-05	
255	-2.70000e+00	1.702824e-05	
256	-2.75000e+00	1.705216e-05	
257	-2.80000e+00	1.707556e-05	
258	-2.85000e+00	1.709846e-05	
259	-2.90000e+00	1.712089e-05	
260	-2.95000e+00	1.714286e-05	
261	-3.00000e+00	1.716440e-05	
262	-3.05000e+00	1.718552e-05	
263	-3.10000e+00	1.720625e-05	
264	-3.15000e+00	1.722660e-05	
265	-3.20000e+00	1.724659e-05	
266	-3.25000e+00	1.726624e-05	
267	-3.30000e+00	1.728557e-05	
268	-0.000000e+00	0.000000e+00	
269	-5.00000e-02	1.556421e-06	
270	-1.00000e-01	3.058885e-06	
271	-1.50000e-01	4.507892e-06	
272	-2.00000e-01	5.903939e-06	
273	-2.50000e-01	7.247517e-06	
274	-3.00000e-01	8.539110e-06	
275	-3.50000e-01	9.779196e-06	
276	-4.00000e-01	1.096825e-05	
277	-4.50000e-01	1.210674e-05	
278	-5.00000e-01	1.319512e-05	
279	-5.50000e-01	1.423386e-05	
280	-6.00000e-01	1.522341e-05	
281	-6.50000e-01	1.616422e-05	
282	-7.00000e-01	1.705673e-05	
283	-7.50000e-01	1.790139e-05	
284	-8.00000e-01	1.869864e-05	
285	-8.50000e-01	1.944891e-05	
286	-9.00000e-01	2.015264e-05	

Index   v-sweep         i(vds)          
--------------------------------------------------------------------------------
287	-9.50000e-01	2.081028e-05	
288	-1.00000e+00	2.142227e-05	
289	-1.05000e+00	2.198908e-05	
290	-1.10000e+00	2.251119e-05	
291	-1.15000e+00	2.298913e-05	
292	-1.20000e+00	2.342347e-05	
293	-1.25000e+00	2.381492e-05	
294	-1.30000e+00	2.416434e-05	
295	-1.35000e+00	2.447292e-05	
296	-1.40000e+00	2.474236e-05	
297	-1.45000e+00	2.497513e-05	
298	-1.50000e+00	2.517478e-05	
299	-1.55000e+00	2.534592e-05	
300	-1.60000e+00	2.549385e-05	
301	-1.65000e+00	2.562369e-05	
302	-1.70000e+00	2.573971e-05	
303	-1.75000e+00	2.584509e-05	
304	-1.80000e+00	2.594209e-05	
305	-1.85000e+00	2.603227e-05	
306	-1.90000e+00	2.611676e-05	
307	-1.95000e+00	2.619637e-05	
308	-2.00000e+00	2.627173e-05	
309	-2.05000e+00	2.634335e-05	
310	-2.10000e+00	2.641161e-05	
311	-2.15000e+00	2.647686e-05	
312	-2.20000e+00	2.653937e-05	
313	-2.25000e+00	2.659938e-05	
314	-2.30000e+00	2.665709e-05	
315	-2.35000e+00	2.671270e-05	
316	-2.40000e+00	2.676635e-05	
317	-2.45000e+00	2.681819e-05	
318	-2.50000e+00	2.686835e-05	
319	-2.55000e+00	2.691693e-05	
320	-2.60000e+00	2.696404e-05	
321	-2.65000e+00	2.700978e-05	
322	-2.70000e+00	2.705421e-05	
323	-2.75000e+00	2.709743e-05	
324	-2.80000e+00	2.713949e-05	
325	-2.85000e+00	2.718047e-05	
326	-2.90000e+00	2.722042e-05	
327	-2.95000e+00	2.725939e-05	
328	-3.00000e+00	2.729744e-05	
329	-3.05000e+00	2.733460e-05	
330	-3.10000e+00	2.737094e-05	
331	-3.15000e+00	2.740647e-05	
332	-3.20000e+00	2.744124e-05	
333	-3.25000e+00	2.747529e-05	
334	-3.30000e+00	2.750864e-05	
335	-0.000000e+00	0.000000e+00	
336	-5.00000e-02	1.838829e-06	
337	-1.00000e-01	3.624945e-06	
338	-1.50000e-01	5.358813e-06	
339	-2.00000e-01	7.040895e-06	
340	-2.50000e-01	8.671646e-06	
341	-3.00000e-01	1.025152e-05	
342	-3.50000e-01	1.178095e-05	
343	-4.00000e-01	1.326039e-05	
344	-4.50000e-01	1.469026e-05	

Index   v-sweep         i(vds)          
--------------------------------------------------------------------------------
345	-5.00000e-01	1.607101e-05	
346	-5.50000e-01	1.740305e-05	
347	-6.00000e-01	1.868680e-05	
348	-6.50000e-01	1.992268e-05	
349	-7.00000e-01	2.111111e-05	
350	-7.50000e-01	2.225249e-05	
351	-8.00000e-01	2.334722e-05	
352	-8.50000e-01	2.439570e-05	
353	-9.00000e-01	2.539833e-05	
354	-9.50000e-01	2.635551e-05	
355	-1.00000e+00	2.726762e-05	
356	-1.05000e+00	2.813505e-05	
357	-1.10000e+00	2.895819e-05	
358	-1.15000e+00	2.973742e-05	
359	-1.20000e+00	3.047313e-05	
360	-1.25000e+00	3.116571e-05	
361	-1.30000e+00	3.181556e-05	
362	-1.35000e+00	3.242308e-05	
363	-1.40000e+00	3.298871e-05	
364	-1.45000e+00	3.351289e-05	
365	-1.50000e+00	3.399614e-05	
366	-1.55000e+00	3.443904e-05	
367	-1.60000e+00	3.484229e-05	
368	-1.65000e+00	3.520683e-05	
369	-1.70000e+00	3.553390e-05	
370	-1.75000e+00	3.582526e-05	
371	-1.80000e+00	3.608334e-05	
372	-1.85000e+00	3.631142e-05	
373	-1.90000e+00	3.651345e-05	
374	-1.95000e+00	3.669374e-05	
375	-2.00000e+00	3.685633e-05	
376	-2.05000e+00	3.700467e-05	
377	-2.10000e+00	3.714142e-05	
378	-2.15000e+00	3.726860e-05	
379	-2.20000e+00	3.738770e-05	
380	-2.25000e+00	3.749987e-05	
381	-2.30000e+00	3.760599e-05	
382	-2.35000e+00	3.770676e-05	
383	-2.40000e+00	3.780275e-05	
384	-2.45000e+00	3.789444e-05	
385	-2.50000e+00	3.798222e-05	
386	-2.55000e+00	3.806644e-05	
387	-2.60000e+00	3.814740e-05	
388	-2.65000e+00	3.822535e-05	
389	-2.70000e+00	3.830052e-05	
390	-2.75000e+00	3.837312e-05	
391	-2.80000e+00	3.844331e-05	
392	-2.85000e+00	3.851128e-05	
393	-2.90000e+00	3.857715e-05	
394	-2.95000e+00	3.864106e-05	
395	-3.00000e+00	3.870313e-05	
396	-3.05000e+00	3.876347e-05	
397	-3.10000e+00	3.882218e-05	
398	-3.15000e+00	3.887934e-05	
399	-3.20000e+00	3.893504e-05	
400	-3.25000e+00	3.898936e-05	
401	-3.30000e+00	3.904237e-05	
Note: No ".plot", ".print", or ".fourier" lines; no simulations run
