
Note: Compatibility modes selected: hs

Warning: m=xx on .subckt line will override multiplier m hierarchy!


Circuit: ***************************

Doing analysis at TEMP = 25.000000 and TNOM = 25.000000


No. of Data Rows : 402
                          ***************************
                          DC transfer characteristic  Mon Jan  9 13:57:29  2023
--------------------------------------------------------------------------------
Index   v-sweep         i(vds)          
--------------------------------------------------------------------------------
0	-0.000000e+00	0.000000e+00	
1	-5.00000e-02	1.961717e-08	
2	-1.00000e-01	2.571016e-08	
3	-1.50000e-01	2.683615e-08	
4	-2.00000e-01	2.714336e-08	
5	-2.50000e-01	2.729641e-08	
6	-3.00000e-01	2.740309e-08	
7	-3.50000e-01	2.748999e-08	
8	-4.00000e-01	2.756613e-08	
9	-4.50000e-01	2.763536e-08	
10	-5.00000e-01	2.769962e-08	
11	-5.50000e-01	2.776003e-08	
12	-6.00000e-01	2.781731e-08	
13	-6.50000e-01	2.787194e-08	
14	-7.00000e-01	2.792429e-08	
15	-7.50000e-01	2.797462e-08	
16	-8.00000e-01	2.802318e-08	
17	-8.50000e-01	2.807012e-08	
18	-9.00000e-01	2.811560e-08	
19	-9.50000e-01	2.815975e-08	
20	-1.00000e+00	2.820268e-08	
21	-1.05000e+00	2.824448e-08	
22	-1.10000e+00	2.828524e-08	
23	-1.15000e+00	2.832504e-08	
24	-1.20000e+00	2.836393e-08	
25	-1.25000e+00	2.840197e-08	
26	-1.30000e+00	2.843923e-08	
27	-1.35000e+00	2.847574e-08	
28	-1.40000e+00	2.851156e-08	
29	-1.45000e+00	2.854672e-08	
30	-1.50000e+00	2.858126e-08	
31	-1.55000e+00	2.861521e-08	
32	-1.60000e+00	2.864861e-08	
33	-1.65000e+00	2.868148e-08	
34	-1.70000e+00	2.871384e-08	
35	-1.75000e+00	2.874573e-08	
36	-1.80000e+00	2.877716e-08	
37	-1.85000e+00	2.880816e-08	
38	-1.90000e+00	2.883875e-08	
39	-1.95000e+00	2.886895e-08	
40	-2.00000e+00	2.889876e-08	
41	-2.05000e+00	2.892822e-08	
42	-2.10000e+00	2.895734e-08	
43	-2.15000e+00	2.898614e-08	
44	-2.20000e+00	2.901463e-08	
45	-2.25000e+00	2.904284e-08	
46	-2.30000e+00	2.907077e-08	
47	-2.35000e+00	2.909846e-08	
48	-2.40000e+00	2.912593e-08	
49	-2.45000e+00	2.915320e-08	
50	-2.50000e+00	2.918029e-08	
51	-2.55000e+00	2.920725e-08	
52	-2.60000e+00	2.923411e-08	
53	-2.65000e+00	2.926091e-08	
54	-2.70000e+00	2.928771e-08	

Index   v-sweep         i(vds)          
--------------------------------------------------------------------------------
55	-2.75000e+00	2.931455e-08	
56	-2.80000e+00	2.934150e-08	
57	-2.85000e+00	2.936864e-08	
58	-2.90000e+00	2.939604e-08	
59	-2.95000e+00	2.942382e-08	
60	-3.00000e+00	2.945206e-08	
61	-3.05000e+00	2.948090e-08	
62	-3.10000e+00	2.951046e-08	
63	-3.15000e+00	2.954091e-08	
64	-3.20000e+00	2.957241e-08	
65	-3.25000e+00	2.960514e-08	
66	-3.30000e+00	2.963932e-08	
67	-0.000000e+00	0.000000e+00	
68	-5.00000e-02	2.208389e-07	
69	-1.00000e-01	4.135215e-07	
70	-1.50000e-01	5.782439e-07	
71	-2.00000e-01	7.152484e-07	
72	-2.50000e-01	8.248870e-07	
73	-3.00000e-01	9.077915e-07	
74	-3.50000e-01	9.653358e-07	
75	-4.00000e-01	1.000677e-06	
76	-4.50000e-01	1.019770e-06	
77	-5.00000e-01	1.029746e-06	
78	-5.50000e-01	1.035585e-06	
79	-6.00000e-01	1.039617e-06	
80	-6.50000e-01	1.042780e-06	
81	-7.00000e-01	1.045460e-06	
82	-7.50000e-01	1.047834e-06	
83	-8.00000e-01	1.049993e-06	
84	-8.50000e-01	1.051988e-06	
85	-9.00000e-01	1.053853e-06	
86	-9.50000e-01	1.055608e-06	
87	-1.00000e+00	1.057271e-06	
88	-1.05000e+00	1.058851e-06	
89	-1.10000e+00	1.060360e-06	
90	-1.15000e+00	1.061804e-06	
91	-1.20000e+00	1.063189e-06	
92	-1.25000e+00	1.064522e-06	
93	-1.30000e+00	1.065806e-06	
94	-1.35000e+00	1.067045e-06	
95	-1.40000e+00	1.068243e-06	
96	-1.45000e+00	1.069403e-06	
97	-1.50000e+00	1.070527e-06	
98	-1.55000e+00	1.071617e-06	
99	-1.60000e+00	1.072677e-06	
100	-1.65000e+00	1.073707e-06	
101	-1.70000e+00	1.074710e-06	
102	-1.75000e+00	1.075687e-06	
103	-1.80000e+00	1.076640e-06	
104	-1.85000e+00	1.077570e-06	
105	-1.90000e+00	1.078478e-06	
106	-1.95000e+00	1.079365e-06	
107	-2.00000e+00	1.080233e-06	
108	-2.05000e+00	1.081081e-06	
109	-2.10000e+00	1.081912e-06	
110	-2.15000e+00	1.082726e-06	
111	-2.20000e+00	1.083524e-06	
112	-2.25000e+00	1.084307e-06	

Index   v-sweep         i(vds)          
--------------------------------------------------------------------------------
113	-2.30000e+00	1.085075e-06	
114	-2.35000e+00	1.085828e-06	
115	-2.40000e+00	1.086569e-06	
116	-2.45000e+00	1.087296e-06	
117	-2.50000e+00	1.088012e-06	
118	-2.55000e+00	1.088716e-06	
119	-2.60000e+00	1.089409e-06	
120	-2.65000e+00	1.090092e-06	
121	-2.70000e+00	1.090766e-06	
122	-2.75000e+00	1.091432e-06	
123	-2.80000e+00	1.092091e-06	
124	-2.85000e+00	1.092743e-06	
125	-2.90000e+00	1.093390e-06	
126	-2.95000e+00	1.094034e-06	
127	-3.00000e+00	1.094675e-06	
128	-3.05000e+00	1.095317e-06	
129	-3.10000e+00	1.095961e-06	
130	-3.15000e+00	1.096609e-06	
131	-3.20000e+00	1.097264e-06	
132	-3.25000e+00	1.097930e-06	
133	-3.30000e+00	1.098611e-06	
134	-0.000000e+00	0.000000e+00	
135	-5.00000e-02	4.256084e-07	
136	-1.00000e-01	8.227396e-07	
137	-1.50000e-01	1.191541e-06	
138	-2.00000e-01	1.532161e-06	
139	-2.50000e-01	1.844752e-06	
140	-3.00000e-01	2.129467e-06	
141	-3.50000e-01	2.386469e-06	
142	-4.00000e-01	2.615932e-06	
143	-4.50000e-01	2.818054e-06	
144	-5.00000e-01	2.993075e-06	
145	-5.50000e-01	3.141318e-06	
146	-6.00000e-01	3.263275e-06	
147	-6.50000e-01	3.359785e-06	
148	-7.00000e-01	3.432389e-06	
149	-7.50000e-01	3.483868e-06	
150	-8.00000e-01	3.518595e-06	
151	-8.50000e-01	3.541834e-06	
152	-9.00000e-01	3.558165e-06	
153	-9.50000e-01	3.570587e-06	
154	-1.00000e+00	3.580747e-06	
155	-1.05000e+00	3.589502e-06	
156	-1.10000e+00	3.597308e-06	
157	-1.15000e+00	3.604422e-06	
158	-1.20000e+00	3.611000e-06	
159	-1.25000e+00	3.617143e-06	
160	-1.30000e+00	3.622922e-06	
161	-1.35000e+00	3.628387e-06	
162	-1.40000e+00	3.633580e-06	
163	-1.45000e+00	3.638529e-06	
164	-1.50000e+00	3.643261e-06	
165	-1.55000e+00	3.647796e-06	
166	-1.60000e+00	3.652152e-06	
167	-1.65000e+00	3.656345e-06	
168	-1.70000e+00	3.660386e-06	
169	-1.75000e+00	3.664289e-06	
170	-1.80000e+00	3.668061e-06	

Index   v-sweep         i(vds)          
--------------------------------------------------------------------------------
171	-1.85000e+00	3.671714e-06	
172	-1.90000e+00	3.675254e-06	
173	-1.95000e+00	3.678690e-06	
174	-2.00000e+00	3.682027e-06	
175	-2.05000e+00	3.685271e-06	
176	-2.10000e+00	3.688428e-06	
177	-2.15000e+00	3.691502e-06	
178	-2.20000e+00	3.694499e-06	
179	-2.25000e+00	3.697422e-06	
180	-2.30000e+00	3.700275e-06	
181	-2.35000e+00	3.703062e-06	
182	-2.40000e+00	3.705785e-06	
183	-2.45000e+00	3.708448e-06	
184	-2.50000e+00	3.711055e-06	
185	-2.55000e+00	3.713606e-06	
186	-2.60000e+00	3.716105e-06	
187	-2.65000e+00	3.718555e-06	
188	-2.70000e+00	3.720957e-06	
189	-2.75000e+00	3.723314e-06	
190	-2.80000e+00	3.725628e-06	
191	-2.85000e+00	3.727900e-06	
192	-2.90000e+00	3.730134e-06	
193	-2.95000e+00	3.732332e-06	
194	-3.00000e+00	3.734496e-06	
195	-3.05000e+00	3.736628e-06	
196	-3.10000e+00	3.738732e-06	
197	-3.15000e+00	3.740811e-06	
198	-3.20000e+00	3.742868e-06	
199	-3.25000e+00	3.744907e-06	
200	-3.30000e+00	3.746934e-06	
201	-0.000000e+00	0.000000e+00	
202	-5.00000e-02	6.145679e-07	
203	-1.00000e-01	1.201275e-06	
204	-1.50000e-01	1.760257e-06	
205	-2.00000e-01	2.291650e-06	
206	-2.50000e-01	2.795588e-06	
207	-3.00000e-01	3.272205e-06	
208	-3.50000e-01	3.721636e-06	
209	-4.00000e-01	4.144017e-06	
210	-4.50000e-01	4.539481e-06	
211	-5.00000e-01	4.908167e-06	
212	-5.50000e-01	5.250213e-06	
213	-6.00000e-01	5.565762e-06	
214	-6.50000e-01	5.854964e-06	
215	-7.00000e-01	6.117979e-06	
216	-7.50000e-01	6.354985e-06	
217	-8.00000e-01	6.566189e-06	
218	-8.50000e-01	6.751851e-06	
219	-9.00000e-01	6.912323e-06	
220	-9.50000e-01	7.048126e-06	
221	-1.00000e+00	7.160090e-06	
222	-1.05000e+00	7.249582e-06	
223	-1.10000e+00	7.318816e-06	
224	-1.15000e+00	7.371046e-06	
225	-1.20000e+00	7.410278e-06	
226	-1.25000e+00	7.440455e-06	
227	-1.30000e+00	7.464685e-06	
228	-1.35000e+00	7.485044e-06	

Index   v-sweep         i(vds)          
--------------------------------------------------------------------------------
229	-1.40000e+00	7.502800e-06	
230	-1.45000e+00	7.518710e-06	
231	-1.50000e+00	7.533237e-06	
232	-1.55000e+00	7.546677e-06	
233	-1.60000e+00	7.559227e-06	
234	-1.65000e+00	7.571029e-06	
235	-1.70000e+00	7.582187e-06	
236	-1.75000e+00	7.592781e-06	
237	-1.80000e+00	7.602874e-06	
238	-1.85000e+00	7.612518e-06	
239	-1.90000e+00	7.621756e-06	
240	-1.95000e+00	7.630625e-06	
241	-2.00000e+00	7.639155e-06	
242	-2.05000e+00	7.647373e-06	
243	-2.10000e+00	7.655304e-06	
244	-2.15000e+00	7.662968e-06	
245	-2.20000e+00	7.670384e-06	
246	-2.25000e+00	7.677568e-06	
247	-2.30000e+00	7.684535e-06	
248	-2.35000e+00	7.691299e-06	
249	-2.40000e+00	7.697872e-06	
250	-2.45000e+00	7.704264e-06	
251	-2.50000e+00	7.710487e-06	
252	-2.55000e+00	7.716549e-06	
253	-2.60000e+00	7.722459e-06	
254	-2.65000e+00	7.728225e-06	
255	-2.70000e+00	7.733853e-06	
256	-2.75000e+00	7.739352e-06	
257	-2.80000e+00	7.744726e-06	
258	-2.85000e+00	7.749982e-06	
259	-2.90000e+00	7.755126e-06	
260	-2.95000e+00	7.760161e-06	
261	-3.00000e+00	7.765095e-06	
262	-3.05000e+00	7.769930e-06	
263	-3.10000e+00	7.774672e-06	
264	-3.15000e+00	7.779324e-06	
265	-3.20000e+00	7.783892e-06	
266	-3.25000e+00	7.788380e-06	
267	-3.30000e+00	7.792792e-06	
268	-0.000000e+00	0.000000e+00	
269	-5.00000e-02	7.875937e-07	
270	-1.00000e-01	1.548219e-06	
271	-1.50000e-01	2.282001e-06	
272	-2.00000e-01	2.989067e-06	
273	-2.50000e-01	3.669541e-06	
274	-3.00000e-01	4.323547e-06	
275	-3.50000e-01	4.951210e-06	
276	-4.00000e-01	5.552651e-06	
277	-4.50000e-01	6.127995e-06	
278	-5.00000e-01	6.677364e-06	
279	-5.50000e-01	7.200878e-06	
280	-6.00000e-01	7.698661e-06	
281	-6.50000e-01	8.170833e-06	
282	-7.00000e-01	8.617518e-06	
283	-7.50000e-01	9.038838e-06	
284	-8.00000e-01	9.434916e-06	
285	-8.50000e-01	9.805880e-06	
286	-9.00000e-01	1.015186e-05	

Index   v-sweep         i(vds)          
--------------------------------------------------------------------------------
287	-9.50000e-01	1.047298e-05	
288	-1.00000e+00	1.076940e-05	
289	-1.05000e+00	1.104126e-05	
290	-1.10000e+00	1.128873e-05	
291	-1.15000e+00	1.151202e-05	
292	-1.20000e+00	1.171138e-05	
293	-1.25000e+00	1.188715e-05	
294	-1.30000e+00	1.203981e-05	
295	-1.35000e+00	1.217007e-05	
296	-1.40000e+00	1.227903e-05	
297	-1.45000e+00	1.236838e-05	
298	-1.50000e+00	1.244051e-05	
299	-1.55000e+00	1.249846e-05	
300	-1.60000e+00	1.254552e-05	
301	-1.65000e+00	1.258465e-05	
302	-1.70000e+00	1.261814e-05	
303	-1.75000e+00	1.264760e-05	
304	-1.80000e+00	1.267408e-05	
305	-1.85000e+00	1.269829e-05	
306	-1.90000e+00	1.272068e-05	
307	-1.95000e+00	1.274159e-05	
308	-2.00000e+00	1.276124e-05	
309	-2.05000e+00	1.277980e-05	
310	-2.10000e+00	1.279741e-05	
311	-2.15000e+00	1.281419e-05	
312	-2.20000e+00	1.283021e-05	
313	-2.25000e+00	1.284554e-05	
314	-2.30000e+00	1.286026e-05	
315	-2.35000e+00	1.287440e-05	
316	-2.40000e+00	1.288803e-05	
317	-2.45000e+00	1.290117e-05	
318	-2.50000e+00	1.291386e-05	
319	-2.55000e+00	1.292613e-05	
320	-2.60000e+00	1.293802e-05	
321	-2.65000e+00	1.294955e-05	
322	-2.70000e+00	1.296073e-05	
323	-2.75000e+00	1.297159e-05	
324	-2.80000e+00	1.298215e-05	
325	-2.85000e+00	1.299243e-05	
326	-2.90000e+00	1.300244e-05	
327	-2.95000e+00	1.301219e-05	
328	-3.00000e+00	1.302170e-05	
329	-3.05000e+00	1.303099e-05	
330	-3.10000e+00	1.304005e-05	
331	-3.15000e+00	1.304891e-05	
332	-3.20000e+00	1.305757e-05	
333	-3.25000e+00	1.306604e-05	
334	-3.30000e+00	1.307433e-05	
335	-0.000000e+00	0.000000e+00	
336	-5.00000e-02	9.453400e-07	
337	-1.00000e-01	1.864715e-06	
338	-1.50000e-01	2.758241e-06	
339	-2.00000e-01	3.626037e-06	
340	-2.50000e-01	4.468218e-06	
341	-3.00000e-01	5.284899e-06	
342	-3.50000e-01	6.076196e-06	
343	-4.00000e-01	6.842223e-06	
344	-4.50000e-01	7.583092e-06	

Index   v-sweep         i(vds)          
--------------------------------------------------------------------------------
345	-5.00000e-01	8.298918e-06	
346	-5.50000e-01	8.989813e-06	
347	-6.00000e-01	9.655889e-06	
348	-6.50000e-01	1.029726e-05	
349	-7.00000e-01	1.091403e-05	
350	-7.50000e-01	1.150631e-05	
351	-8.00000e-01	1.207422e-05	
352	-8.50000e-01	1.261786e-05	
353	-9.00000e-01	1.313735e-05	
354	-9.50000e-01	1.363279e-05	
355	-1.00000e+00	1.410429e-05	
356	-1.05000e+00	1.455197e-05	
357	-1.10000e+00	1.497594e-05	
358	-1.15000e+00	1.537630e-05	
359	-1.20000e+00	1.575318e-05	
360	-1.25000e+00	1.610669e-05	
361	-1.30000e+00	1.643695e-05	
362	-1.35000e+00	1.674410e-05	
363	-1.40000e+00	1.702828e-05	
364	-1.45000e+00	1.728965e-05	
365	-1.50000e+00	1.752838e-05	
366	-1.55000e+00	1.774472e-05	
367	-1.60000e+00	1.793896e-05	
368	-1.65000e+00	1.811148e-05	
369	-1.70000e+00	1.826287e-05	
370	-1.75000e+00	1.839396e-05	
371	-1.80000e+00	1.850597e-05	
372	-1.85000e+00	1.860062e-05	
373	-1.90000e+00	1.868015e-05	
374	-1.95000e+00	1.874717e-05	
375	-2.00000e+00	1.880432e-05	
376	-2.05000e+00	1.885394e-05	
377	-2.10000e+00	1.889787e-05	
378	-2.15000e+00	1.893745e-05	
379	-2.20000e+00	1.897362e-05	
380	-2.25000e+00	1.900707e-05	
381	-2.30000e+00	1.903826e-05	
382	-2.35000e+00	1.906754e-05	
383	-2.40000e+00	1.909519e-05	
384	-2.45000e+00	1.912139e-05	
385	-2.50000e+00	1.914632e-05	
386	-2.55000e+00	1.917012e-05	
387	-2.60000e+00	1.919288e-05	
388	-2.65000e+00	1.921471e-05	
389	-2.70000e+00	1.923568e-05	
390	-2.75000e+00	1.925586e-05	
391	-2.80000e+00	1.927532e-05	
392	-2.85000e+00	1.929411e-05	
393	-2.90000e+00	1.931227e-05	
394	-2.95000e+00	1.932985e-05	
395	-3.00000e+00	1.934688e-05	
396	-3.05000e+00	1.936340e-05	
397	-3.10000e+00	1.937945e-05	
398	-3.15000e+00	1.939504e-05	
399	-3.20000e+00	1.941021e-05	
400	-3.25000e+00	1.942497e-05	
401	-3.30000e+00	1.943935e-05	
Note: No ".plot", ".print", or ".fourier" lines; no simulations run
