
Note: Compatibility modes selected: hs

Warning: m=xx on .subckt line will override multiplier m hierarchy!


Circuit: ***************************

Doing analysis at TEMP = 25.000000 and TNOM = 25.000000


No. of Data Rows : 402
                          ***************************
                          DC transfer characteristic  Mon Jan  9 13:57:29  2023
--------------------------------------------------------------------------------
Index   v-sweep         i(vds)          
--------------------------------------------------------------------------------
0	-0.000000e+00	0.000000e+00	
1	-5.00000e-02	1.706099e-09	
2	-1.00000e-01	2.110602e-09	
3	-1.50000e-01	2.171271e-09	
4	-2.00000e-01	2.185804e-09	
5	-2.50000e-01	2.191422e-09	
6	-3.00000e-01	2.194353e-09	
7	-3.50000e-01	2.196211e-09	
8	-4.00000e-01	2.197553e-09	
9	-4.50000e-01	2.198613e-09	
10	-5.00000e-01	2.199503e-09	
11	-5.50000e-01	2.200282e-09	
12	-6.00000e-01	2.200984e-09	
13	-6.50000e-01	2.201632e-09	
14	-7.00000e-01	2.202237e-09	
15	-7.50000e-01	2.202811e-09	
16	-8.00000e-01	2.203358e-09	
17	-8.50000e-01	2.203884e-09	
18	-9.00000e-01	2.204393e-09	
19	-9.50000e-01	2.204886e-09	
20	-1.00000e+00	2.205367e-09	
21	-1.05000e+00	2.205836e-09	
22	-1.10000e+00	2.206295e-09	
23	-1.15000e+00	2.206746e-09	
24	-1.20000e+00	2.207189e-09	
25	-1.25000e+00	2.207624e-09	
26	-1.30000e+00	2.208053e-09	
27	-1.35000e+00	2.208477e-09	
28	-1.40000e+00	2.208895e-09	
29	-1.45000e+00	2.209308e-09	
30	-1.50000e+00	2.209716e-09	
31	-1.55000e+00	2.210120e-09	
32	-1.60000e+00	2.210520e-09	
33	-1.65000e+00	2.210917e-09	
34	-1.70000e+00	2.211310e-09	
35	-1.75000e+00	2.211700e-09	
36	-1.80000e+00	2.212086e-09	
37	-1.85000e+00	2.212470e-09	
38	-1.90000e+00	2.212851e-09	
39	-1.95000e+00	2.213230e-09	
40	-2.00000e+00	2.213606e-09	
41	-2.05000e+00	2.213980e-09	
42	-2.10000e+00	2.214352e-09	
43	-2.15000e+00	2.214722e-09	
44	-2.20000e+00	2.215090e-09	
45	-2.25000e+00	2.215457e-09	
46	-2.30000e+00	2.215822e-09	
47	-2.35000e+00	2.216186e-09	
48	-2.40000e+00	2.216548e-09	
49	-2.45000e+00	2.216910e-09	
50	-2.50000e+00	2.217272e-09	
51	-2.55000e+00	2.217635e-09	
52	-2.60000e+00	2.217998e-09	
53	-2.65000e+00	2.218362e-09	
54	-2.70000e+00	2.218730e-09	

Index   v-sweep         i(vds)          
--------------------------------------------------------------------------------
55	-2.75000e+00	2.219101e-09	
56	-2.80000e+00	2.219477e-09	
57	-2.85000e+00	2.219860e-09	
58	-2.90000e+00	2.220252e-09	
59	-2.95000e+00	2.220656e-09	
60	-3.00000e+00	2.221075e-09	
61	-3.05000e+00	2.221512e-09	
62	-3.10000e+00	2.221972e-09	
63	-3.15000e+00	2.222459e-09	
64	-3.20000e+00	2.222979e-09	
65	-3.25000e+00	2.223540e-09	
66	-3.30000e+00	2.224148e-09	
67	-0.000000e+00	0.000000e+00	
68	-5.00000e-02	2.211727e-08	
69	-1.00000e-01	4.106079e-08	
70	-1.50000e-01	5.684089e-08	
71	-2.00000e-01	6.947819e-08	
72	-2.50000e-01	7.902018e-08	
73	-3.00000e-01	8.558920e-08	
74	-3.50000e-01	8.950471e-08	
75	-4.00000e-01	9.144172e-08	
76	-4.50000e-01	9.227852e-08	
77	-5.00000e-01	9.264437e-08	
78	-5.50000e-01	9.282445e-08	
79	-6.00000e-01	9.292635e-08	
80	-6.50000e-01	9.299145e-08	
81	-7.00000e-01	9.303726e-08	
82	-7.50000e-01	9.307196e-08	
83	-8.00000e-01	9.309975e-08	
84	-8.50000e-01	9.312296e-08	
85	-9.00000e-01	9.314297e-08	
86	-9.50000e-01	9.316064e-08	
87	-1.00000e+00	9.317654e-08	
88	-1.05000e+00	9.319106e-08	
89	-1.10000e+00	9.320447e-08	
90	-1.15000e+00	9.321697e-08	
91	-1.20000e+00	9.322870e-08	
92	-1.25000e+00	9.323980e-08	
93	-1.30000e+00	9.325034e-08	
94	-1.35000e+00	9.326039e-08	
95	-1.40000e+00	9.327002e-08	
96	-1.45000e+00	9.327927e-08	
97	-1.50000e+00	9.328818e-08	
98	-1.55000e+00	9.329679e-08	
99	-1.60000e+00	9.330512e-08	
100	-1.65000e+00	9.331320e-08	
101	-1.70000e+00	9.332104e-08	
102	-1.75000e+00	9.332868e-08	
103	-1.80000e+00	9.333611e-08	
104	-1.85000e+00	9.334337e-08	
105	-1.90000e+00	9.335045e-08	
106	-1.95000e+00	9.335738e-08	
107	-2.00000e+00	9.336416e-08	
108	-2.05000e+00	9.337080e-08	
109	-2.10000e+00	9.337730e-08	
110	-2.15000e+00	9.338369e-08	
111	-2.20000e+00	9.338996e-08	
112	-2.25000e+00	9.339612e-08	

Index   v-sweep         i(vds)          
--------------------------------------------------------------------------------
113	-2.30000e+00	9.340218e-08	
114	-2.35000e+00	9.340814e-08	
115	-2.40000e+00	9.341401e-08	
116	-2.45000e+00	9.341980e-08	
117	-2.50000e+00	9.342551e-08	
118	-2.55000e+00	9.343114e-08	
119	-2.60000e+00	9.343671e-08	
120	-2.65000e+00	9.344223e-08	
121	-2.70000e+00	9.344771e-08	
122	-2.75000e+00	9.345315e-08	
123	-2.80000e+00	9.345858e-08	
124	-2.85000e+00	9.346402e-08	
125	-2.90000e+00	9.346949e-08	
126	-2.95000e+00	9.347502e-08	
127	-3.00000e+00	9.348066e-08	
128	-3.05000e+00	9.348644e-08	
129	-3.10000e+00	9.349243e-08	
130	-3.15000e+00	9.349871e-08	
131	-3.20000e+00	9.350535e-08	
132	-3.25000e+00	9.351247e-08	
133	-3.30000e+00	9.352018e-08	
134	-0.000000e+00	0.000000e+00	
135	-5.00000e-02	4.341370e-08	
136	-1.00000e-01	8.366137e-08	
137	-1.50000e-01	1.207454e-07	
138	-2.00000e-01	1.546685e-07	
139	-2.50000e-01	1.854340e-07	
140	-3.00000e-01	2.130463e-07	
141	-3.50000e-01	2.375116e-07	
142	-4.00000e-01	2.588389e-07	
143	-4.50000e-01	2.770436e-07	
144	-5.00000e-01	2.921530e-07	
145	-5.50000e-01	3.042192e-07	
146	-6.00000e-01	3.133479e-07	
147	-6.50000e-01	3.197539e-07	
148	-7.00000e-01	3.238381e-07	
149	-7.50000e-01	3.262025e-07	
150	-8.00000e-01	3.274969e-07	
151	-8.50000e-01	3.282129e-07	
152	-9.00000e-01	3.286341e-07	
153	-9.50000e-01	3.289028e-07	
154	-1.00000e+00	3.290884e-07	
155	-1.05000e+00	3.292256e-07	
156	-1.10000e+00	3.293329e-07	
157	-1.15000e+00	3.294205e-07	
158	-1.20000e+00	3.294945e-07	
159	-1.25000e+00	3.295587e-07	
160	-1.30000e+00	3.296156e-07	
161	-1.35000e+00	3.296668e-07	
162	-1.40000e+00	3.297136e-07	
163	-1.45000e+00	3.297567e-07	
164	-1.50000e+00	3.297968e-07	
165	-1.55000e+00	3.298344e-07	
166	-1.60000e+00	3.298698e-07	
167	-1.65000e+00	3.299034e-07	
168	-1.70000e+00	3.299353e-07	
169	-1.75000e+00	3.299657e-07	
170	-1.80000e+00	3.299949e-07	

Index   v-sweep         i(vds)          
--------------------------------------------------------------------------------
171	-1.85000e+00	3.300229e-07	
172	-1.90000e+00	3.300498e-07	
173	-1.95000e+00	3.300758e-07	
174	-2.00000e+00	3.301009e-07	
175	-2.05000e+00	3.301253e-07	
176	-2.10000e+00	3.301489e-07	
177	-2.15000e+00	3.301718e-07	
178	-2.20000e+00	3.301940e-07	
179	-2.25000e+00	3.302157e-07	
180	-2.30000e+00	3.302369e-07	
181	-2.35000e+00	3.302575e-07	
182	-2.40000e+00	3.302776e-07	
183	-2.45000e+00	3.302973e-07	
184	-2.50000e+00	3.303165e-07	
185	-2.55000e+00	3.303354e-07	
186	-2.60000e+00	3.303539e-07	
187	-2.65000e+00	3.303720e-07	
188	-2.70000e+00	3.303898e-07	
189	-2.75000e+00	3.304072e-07	
190	-2.80000e+00	3.304244e-07	
191	-2.85000e+00	3.304413e-07	
192	-2.90000e+00	3.304579e-07	
193	-2.95000e+00	3.304743e-07	
194	-3.00000e+00	3.304906e-07	
195	-3.05000e+00	3.305067e-07	
196	-3.10000e+00	3.305227e-07	
197	-3.15000e+00	3.305387e-07	
198	-3.20000e+00	3.305547e-07	
199	-3.25000e+00	3.305709e-07	
200	-3.30000e+00	3.305873e-07	
201	-0.000000e+00	0.000000e+00	
202	-5.00000e-02	6.356840e-08	
203	-1.00000e-01	1.240852e-07	
204	-1.50000e-01	1.815521e-07	
205	-2.00000e-01	2.359708e-07	
206	-2.50000e-01	2.873431e-07	
207	-3.00000e-01	3.356708e-07	
208	-3.50000e-01	3.809561e-07	
209	-4.00000e-01	4.232011e-07	
210	-4.50000e-01	4.624084e-07	
211	-5.00000e-01	4.985810e-07	
212	-5.50000e-01	5.317225e-07	
213	-6.00000e-01	5.618375e-07	
214	-6.50000e-01	5.889326e-07	
215	-7.00000e-01	6.130169e-07	
216	-7.50000e-01	6.341043e-07	
217	-8.00000e-01	6.522174e-07	
218	-8.50000e-01	6.673946e-07	
219	-9.00000e-01	6.797031e-07	
220	-9.50000e-01	6.892642e-07	
221	-1.00000e+00	6.962915e-07	
222	-1.05000e+00	7.011320e-07	
223	-1.10000e+00	7.042642e-07	
224	-1.15000e+00	7.062118e-07	
225	-1.20000e+00	7.074202e-07	
226	-1.25000e+00	7.081948e-07	
227	-1.30000e+00	7.087182e-07	
228	-1.35000e+00	7.090927e-07	

Index   v-sweep         i(vds)          
--------------------------------------------------------------------------------
229	-1.40000e+00	7.093757e-07	
230	-1.45000e+00	7.095996e-07	
231	-1.50000e+00	7.097836e-07	
232	-1.55000e+00	7.099396e-07	
233	-1.60000e+00	7.100752e-07	
234	-1.65000e+00	7.101952e-07	
235	-1.70000e+00	7.103033e-07	
236	-1.75000e+00	7.104017e-07	
237	-1.80000e+00	7.104924e-07	
238	-1.85000e+00	7.105765e-07	
239	-1.90000e+00	7.106552e-07	
240	-1.95000e+00	7.107292e-07	
241	-2.00000e+00	7.107992e-07	
242	-2.05000e+00	7.108656e-07	
243	-2.10000e+00	7.109288e-07	
244	-2.15000e+00	7.109893e-07	
245	-2.20000e+00	7.110472e-07	
246	-2.25000e+00	7.111029e-07	
247	-2.30000e+00	7.111565e-07	
248	-2.35000e+00	7.112082e-07	
249	-2.40000e+00	7.112582e-07	
250	-2.45000e+00	7.113066e-07	
251	-2.50000e+00	7.113535e-07	
252	-2.55000e+00	7.113990e-07	
253	-2.60000e+00	7.114433e-07	
254	-2.65000e+00	7.114864e-07	
255	-2.70000e+00	7.115283e-07	
256	-2.75000e+00	7.115692e-07	
257	-2.80000e+00	7.116091e-07	
258	-2.85000e+00	7.116481e-07	
259	-2.90000e+00	7.116863e-07	
260	-2.95000e+00	7.117235e-07	
261	-3.00000e+00	7.117601e-07	
262	-3.05000e+00	7.117959e-07	
263	-3.10000e+00	7.118310e-07	
264	-3.15000e+00	7.118654e-07	
265	-3.20000e+00	7.118993e-07	
266	-3.25000e+00	7.119326e-07	
267	-3.30000e+00	7.119655e-07	
268	-0.000000e+00	0.000000e+00	
269	-5.00000e-02	8.243031e-08	
270	-1.00000e-01	1.619530e-07	
271	-1.50000e-01	2.385695e-07	
272	-2.00000e-01	3.122813e-07	
273	-2.50000e-01	3.830898e-07	
274	-3.00000e-01	4.509965e-07	
275	-3.50000e-01	5.160030e-07	
276	-4.00000e-01	5.781107e-07	
277	-4.50000e-01	6.373214e-07	
278	-5.00000e-01	6.936365e-07	
279	-5.50000e-01	7.470579e-07	
280	-6.00000e-01	7.975874e-07	
281	-6.50000e-01	8.452269e-07	
282	-7.00000e-01	8.899787e-07	
283	-7.50000e-01	9.318450e-07	
284	-8.00000e-01	9.708288e-07	
285	-8.50000e-01	1.006933e-06	
286	-9.00000e-01	1.040163e-06	

Index   v-sweep         i(vds)          
--------------------------------------------------------------------------------
287	-9.50000e-01	1.070523e-06	
288	-1.00000e+00	1.098020e-06	
289	-1.05000e+00	1.122666e-06	
290	-1.10000e+00	1.144475e-06	
291	-1.15000e+00	1.163470e-06	
292	-1.20000e+00	1.179689e-06	
293	-1.25000e+00	1.193194e-06	
294	-1.30000e+00	1.204084e-06	
295	-1.35000e+00	1.212527e-06	
296	-1.40000e+00	1.218778e-06	
297	-1.45000e+00	1.223194e-06	
298	-1.50000e+00	1.226200e-06	
299	-1.55000e+00	1.228213e-06	
300	-1.60000e+00	1.229574e-06	
301	-1.65000e+00	1.230522e-06	
302	-1.70000e+00	1.231210e-06	
303	-1.75000e+00	1.231731e-06	
304	-1.80000e+00	1.232143e-06	
305	-1.85000e+00	1.232479e-06	
306	-1.90000e+00	1.232763e-06	
307	-1.95000e+00	1.233008e-06	
308	-2.00000e+00	1.233223e-06	
309	-2.05000e+00	1.233416e-06	
310	-2.10000e+00	1.233592e-06	
311	-2.15000e+00	1.233752e-06	
312	-2.20000e+00	1.233901e-06	
313	-2.25000e+00	1.234039e-06	
314	-2.30000e+00	1.234169e-06	
315	-2.35000e+00	1.234291e-06	
316	-2.40000e+00	1.234406e-06	
317	-2.45000e+00	1.234516e-06	
318	-2.50000e+00	1.234621e-06	
319	-2.55000e+00	1.234721e-06	
320	-2.60000e+00	1.234818e-06	
321	-2.65000e+00	1.234910e-06	
322	-2.70000e+00	1.234999e-06	
323	-2.75000e+00	1.235085e-06	
324	-2.80000e+00	1.235168e-06	
325	-2.85000e+00	1.235248e-06	
326	-2.90000e+00	1.235326e-06	
327	-2.95000e+00	1.235402e-06	
328	-3.00000e+00	1.235475e-06	
329	-3.05000e+00	1.235546e-06	
330	-3.10000e+00	1.235616e-06	
331	-3.15000e+00	1.235684e-06	
332	-3.20000e+00	1.235750e-06	
333	-3.25000e+00	1.235814e-06	
334	-3.30000e+00	1.235878e-06	
335	-0.000000e+00	0.000000e+00	
336	-5.00000e-02	9.994971e-08	
337	-1.00000e-01	1.971462e-07	
338	-1.50000e-01	2.915909e-07	
339	-2.00000e-01	3.832850e-07	
340	-2.50000e-01	4.722298e-07	
341	-3.00000e-01	5.584267e-07	
342	-3.50000e-01	6.418769e-07	
343	-4.00000e-01	7.225819e-07	
344	-4.50000e-01	8.005429e-07	

Index   v-sweep         i(vds)          
--------------------------------------------------------------------------------
345	-5.00000e-01	8.757613e-07	
346	-5.50000e-01	9.482384e-07	
347	-6.00000e-01	1.017976e-06	
348	-6.50000e-01	1.084975e-06	
349	-7.00000e-01	1.149236e-06	
350	-7.50000e-01	1.210763e-06	
351	-8.00000e-01	1.269555e-06	
352	-8.50000e-01	1.325615e-06	
353	-9.00000e-01	1.378945e-06	
354	-9.50000e-01	1.429545e-06	
355	-1.00000e+00	1.477418e-06	
356	-1.05000e+00	1.522567e-06	
357	-1.10000e+00	1.564993e-06	
358	-1.15000e+00	1.604700e-06	
359	-1.20000e+00	1.641690e-06	
360	-1.25000e+00	1.675968e-06	
361	-1.30000e+00	1.707539e-06	
362	-1.35000e+00	1.736409e-06	
363	-1.40000e+00	1.762589e-06	
364	-1.45000e+00	1.786090e-06	
365	-1.50000e+00	1.806933e-06	
366	-1.55000e+00	1.825146e-06	
367	-1.60000e+00	1.840773e-06	
368	-1.65000e+00	1.853882e-06	
369	-1.70000e+00	1.864583e-06	
370	-1.75000e+00	1.873038e-06	
371	-1.80000e+00	1.879484e-06	
372	-1.85000e+00	1.884232e-06	
373	-1.90000e+00	1.887637e-06	
374	-1.95000e+00	1.890052e-06	
375	-2.00000e+00	1.891776e-06	
376	-2.05000e+00	1.893034e-06	
377	-2.10000e+00	1.893981e-06	
378	-2.15000e+00	1.894719e-06	
379	-2.20000e+00	1.895313e-06	
380	-2.25000e+00	1.895805e-06	
381	-2.30000e+00	1.896224e-06	
382	-2.35000e+00	1.896589e-06	
383	-2.40000e+00	1.896911e-06	
384	-2.45000e+00	1.897201e-06	
385	-2.50000e+00	1.897464e-06	
386	-2.55000e+00	1.897706e-06	
387	-2.60000e+00	1.897930e-06	
388	-2.65000e+00	1.898139e-06	
389	-2.70000e+00	1.898334e-06	
390	-2.75000e+00	1.898519e-06	
391	-2.80000e+00	1.898694e-06	
392	-2.85000e+00	1.898859e-06	
393	-2.90000e+00	1.899018e-06	
394	-2.95000e+00	1.899169e-06	
395	-3.00000e+00	1.899314e-06	
396	-3.05000e+00	1.899453e-06	
397	-3.10000e+00	1.899588e-06	
398	-3.15000e+00	1.899717e-06	
399	-3.20000e+00	1.899842e-06	
400	-3.25000e+00	1.899963e-06	
401	-3.30000e+00	1.900080e-06	
Note: No ".plot", ".print", or ".fourier" lines; no simulations run
