
Note: Compatibility modes selected: hs

Warning: m=xx on .subckt line will override multiplier m hierarchy!


Circuit: ***************************

Doing analysis at TEMP = 125.000000 and TNOM = 125.000000


No. of Data Rows : 402
                          ***************************
                          DC transfer characteristic  Mon Jan  9 13:57:29  2023
--------------------------------------------------------------------------------
Index   v-sweep         i(vds)          
--------------------------------------------------------------------------------
0	-0.000000e+00	0.000000e+00	
1	-5.00000e-02	8.089540e-08	
2	-1.00000e-01	1.273640e-07	
3	-1.50000e-01	1.471842e-07	
4	-2.00000e-01	1.529892e-07	
5	-2.50000e-01	1.547557e-07	
6	-3.00000e-01	1.555538e-07	
7	-3.50000e-01	1.560573e-07	
8	-4.00000e-01	1.564418e-07	
9	-4.50000e-01	1.567661e-07	
10	-5.00000e-01	1.570541e-07	
11	-5.50000e-01	1.573175e-07	
12	-6.00000e-01	1.575626e-07	
13	-6.50000e-01	1.577933e-07	
14	-7.00000e-01	1.580121e-07	
15	-7.50000e-01	1.582208e-07	
16	-8.00000e-01	1.584207e-07	
17	-8.50000e-01	1.586129e-07	
18	-9.00000e-01	1.587982e-07	
19	-9.50000e-01	1.589772e-07	
20	-1.00000e+00	1.591506e-07	
21	-1.05000e+00	1.593187e-07	
22	-1.10000e+00	1.594821e-07	
23	-1.15000e+00	1.596411e-07	
24	-1.20000e+00	1.597959e-07	
25	-1.25000e+00	1.599470e-07	
26	-1.30000e+00	1.600944e-07	
27	-1.35000e+00	1.602386e-07	
28	-1.40000e+00	1.603795e-07	
29	-1.45000e+00	1.605176e-07	
30	-1.50000e+00	1.606529e-07	
31	-1.55000e+00	1.607855e-07	
32	-1.60000e+00	1.609156e-07	
33	-1.65000e+00	1.610434e-07	
34	-1.70000e+00	1.611690e-07	
35	-1.75000e+00	1.612924e-07	
36	-1.80000e+00	1.614138e-07	
37	-1.85000e+00	1.615333e-07	
38	-1.90000e+00	1.616510e-07	
39	-1.95000e+00	1.617669e-07	
40	-2.00000e+00	1.618811e-07	
41	-2.05000e+00	1.619938e-07	
42	-2.10000e+00	1.621049e-07	
43	-2.15000e+00	1.622146e-07	
44	-2.20000e+00	1.623229e-07	
45	-2.25000e+00	1.624300e-07	
46	-2.30000e+00	1.625358e-07	
47	-2.35000e+00	1.626405e-07	
48	-2.40000e+00	1.627443e-07	
49	-2.45000e+00	1.628471e-07	
50	-2.50000e+00	1.629491e-07	
51	-2.55000e+00	1.630505e-07	
52	-2.60000e+00	1.631515e-07	
53	-2.65000e+00	1.632522e-07	
54	-2.70000e+00	1.633528e-07	

Index   v-sweep         i(vds)          
--------------------------------------------------------------------------------
55	-2.75000e+00	1.634536e-07	
56	-2.80000e+00	1.635549e-07	
57	-2.85000e+00	1.636571e-07	
58	-2.90000e+00	1.637604e-07	
59	-2.95000e+00	1.638655e-07	
60	-3.00000e+00	1.639727e-07	
61	-3.05000e+00	1.640828e-07	
62	-3.10000e+00	1.641962e-07	
63	-3.15000e+00	1.643137e-07	
64	-3.20000e+00	1.644363e-07	
65	-3.25000e+00	1.645646e-07	
66	-3.30000e+00	1.646999e-07	
67	-0.000000e+00	0.000000e+00	
68	-5.00000e-02	3.881532e-07	
69	-1.00000e-01	7.319346e-07	
70	-1.50000e-01	1.034289e-06	
71	-2.00000e-01	1.296079e-06	
72	-2.50000e-01	1.517734e-06	
73	-3.00000e-01	1.699689e-06	
74	-3.50000e-01	1.842635e-06	
75	-4.00000e-01	1.947946e-06	
76	-4.50000e-01	2.018643e-06	
77	-5.00000e-01	2.060871e-06	
78	-5.50000e-01	2.083934e-06	
79	-6.00000e-01	2.096743e-06	
80	-6.50000e-01	2.104768e-06	
81	-7.00000e-01	2.110548e-06	
82	-7.50000e-01	2.115171e-06	
83	-8.00000e-01	2.119122e-06	
84	-8.50000e-01	2.122639e-06	
85	-9.00000e-01	2.125846e-06	
86	-9.50000e-01	2.128818e-06	
87	-1.00000e+00	2.131601e-06	
88	-1.05000e+00	2.134228e-06	
89	-1.10000e+00	2.136721e-06	
90	-1.15000e+00	2.139097e-06	
91	-1.20000e+00	2.141370e-06	
92	-1.25000e+00	2.143550e-06	
93	-1.30000e+00	2.145646e-06	
94	-1.35000e+00	2.147666e-06	
95	-1.40000e+00	2.149616e-06	
96	-1.45000e+00	2.151501e-06	
97	-1.50000e+00	2.153326e-06	
98	-1.55000e+00	2.155096e-06	
99	-1.60000e+00	2.156815e-06	
100	-1.65000e+00	2.158484e-06	
101	-1.70000e+00	2.160109e-06	
102	-1.75000e+00	2.161691e-06	
103	-1.80000e+00	2.163233e-06	
104	-1.85000e+00	2.164737e-06	
105	-1.90000e+00	2.166205e-06	
106	-1.95000e+00	2.167639e-06	
107	-2.00000e+00	2.169041e-06	
108	-2.05000e+00	2.170413e-06	
109	-2.10000e+00	2.171755e-06	
110	-2.15000e+00	2.173070e-06	
111	-2.20000e+00	2.174358e-06	
112	-2.25000e+00	2.175622e-06	

Index   v-sweep         i(vds)          
--------------------------------------------------------------------------------
113	-2.30000e+00	2.176861e-06	
114	-2.35000e+00	2.178078e-06	
115	-2.40000e+00	2.179272e-06	
116	-2.45000e+00	2.180446e-06	
117	-2.50000e+00	2.181601e-06	
118	-2.55000e+00	2.182736e-06	
119	-2.60000e+00	2.183854e-06	
120	-2.65000e+00	2.184955e-06	
121	-2.70000e+00	2.186041e-06	
122	-2.75000e+00	2.187113e-06	
123	-2.80000e+00	2.188173e-06	
124	-2.85000e+00	2.189222e-06	
125	-2.90000e+00	2.190262e-06	
126	-2.95000e+00	2.191295e-06	
127	-3.00000e+00	2.192325e-06	
128	-3.05000e+00	2.193354e-06	
129	-3.10000e+00	2.194385e-06	
130	-3.15000e+00	2.195423e-06	
131	-3.20000e+00	2.196473e-06	
132	-3.25000e+00	2.197539e-06	
133	-3.30000e+00	2.198628e-06	
134	-0.000000e+00	0.000000e+00	
135	-5.00000e-02	6.791226e-07	
136	-1.00000e-01	1.314540e-06	
137	-1.50000e-01	1.909153e-06	
138	-2.00000e-01	2.463755e-06	
139	-2.50000e-01	2.978649e-06	
140	-3.00000e-01	3.454030e-06	
141	-3.50000e-01	3.890068e-06	
142	-4.00000e-01	4.286937e-06	
143	-4.50000e-01	4.644823e-06	
144	-5.00000e-01	4.963936e-06	
145	-5.50000e-01	5.244526e-06	
146	-6.00000e-01	5.486924e-06	
147	-6.50000e-01	5.691604e-06	
148	-7.00000e-01	5.859333e-06	
149	-7.50000e-01	5.991450e-06	
150	-8.00000e-01	6.090386e-06	
151	-8.50000e-01	6.160348e-06	
152	-9.00000e-01	6.207578e-06	
153	-9.50000e-01	6.239233e-06	
154	-1.00000e+00	6.261408e-06	
155	-1.05000e+00	6.278129e-06	
156	-1.10000e+00	6.291670e-06	
157	-1.15000e+00	6.303244e-06	
158	-1.20000e+00	6.313508e-06	
159	-1.25000e+00	6.322835e-06	
160	-1.30000e+00	6.331449e-06	
161	-1.35000e+00	6.339494e-06	
162	-1.40000e+00	6.347067e-06	
163	-1.45000e+00	6.354239e-06	
164	-1.50000e+00	6.361063e-06	
165	-1.55000e+00	6.367578e-06	
166	-1.60000e+00	6.373817e-06	
167	-1.65000e+00	6.379808e-06	
168	-1.70000e+00	6.385572e-06	
169	-1.75000e+00	6.391129e-06	
170	-1.80000e+00	6.396495e-06	

Index   v-sweep         i(vds)          
--------------------------------------------------------------------------------
171	-1.85000e+00	6.401684e-06	
172	-1.90000e+00	6.406709e-06	
173	-1.95000e+00	6.411582e-06	
174	-2.00000e+00	6.416311e-06	
175	-2.05000e+00	6.420907e-06	
176	-2.10000e+00	6.425376e-06	
177	-2.15000e+00	6.429728e-06	
178	-2.20000e+00	6.433967e-06	
179	-2.25000e+00	6.438101e-06	
180	-2.30000e+00	6.442135e-06	
181	-2.35000e+00	6.446074e-06	
182	-2.40000e+00	6.449923e-06	
183	-2.45000e+00	6.453686e-06	
184	-2.50000e+00	6.457368e-06	
185	-2.55000e+00	6.460972e-06	
186	-2.60000e+00	6.464501e-06	
187	-2.65000e+00	6.467960e-06	
188	-2.70000e+00	6.471351e-06	
189	-2.75000e+00	6.474678e-06	
190	-2.80000e+00	6.477944e-06	
191	-2.85000e+00	6.481150e-06	
192	-2.90000e+00	6.484301e-06	
193	-2.95000e+00	6.487400e-06	
194	-3.00000e+00	6.490449e-06	
195	-3.05000e+00	6.493452e-06	
196	-3.10000e+00	6.496413e-06	
197	-3.15000e+00	6.499336e-06	
198	-3.20000e+00	6.502225e-06	
199	-3.25000e+00	6.505087e-06	
200	-3.30000e+00	6.507926e-06	
201	-0.000000e+00	0.000000e+00	
202	-5.00000e-02	9.416739e-07	
203	-1.00000e-01	1.841336e-06	
204	-1.50000e-01	2.701870e-06	
205	-2.00000e-01	3.524051e-06	
206	-2.50000e-01	4.308164e-06	
207	-3.00000e-01	5.054378e-06	
208	-3.50000e-01	5.762837e-06	
209	-4.00000e-01	6.433678e-06	
210	-4.50000e-01	7.067039e-06	
211	-5.00000e-01	7.663056e-06	
212	-5.50000e-01	8.221869e-06	
213	-6.00000e-01	8.743619e-06	
214	-6.50000e-01	9.228452e-06	
215	-7.00000e-01	9.676519e-06	
216	-7.50000e-01	1.008798e-05	
217	-8.00000e-01	1.046302e-05	
218	-8.50000e-01	1.080184e-05	
219	-9.00000e-01	1.110467e-05	
220	-9.50000e-01	1.137184e-05	
221	-1.00000e+00	1.160378e-05	
222	-1.05000e+00	1.180114e-05	
223	-1.10000e+00	1.196494e-05	
224	-1.15000e+00	1.209686e-05	
225	-1.20000e+00	1.219962e-05	
226	-1.25000e+00	1.227726e-05	
227	-1.30000e+00	1.233502e-05	
228	-1.35000e+00	1.237842e-05	

Index   v-sweep         i(vds)          
--------------------------------------------------------------------------------
229	-1.40000e+00	1.241219e-05	
230	-1.45000e+00	1.243970e-05	
231	-1.50000e+00	1.246313e-05	
232	-1.55000e+00	1.248376e-05	
233	-1.60000e+00	1.250238e-05	
234	-1.65000e+00	1.251950e-05	
235	-1.70000e+00	1.253541e-05	
236	-1.75000e+00	1.255035e-05	
237	-1.80000e+00	1.256445e-05	
238	-1.85000e+00	1.257784e-05	
239	-1.90000e+00	1.259061e-05	
240	-1.95000e+00	1.260281e-05	
241	-2.00000e+00	1.261451e-05	
242	-2.05000e+00	1.262576e-05	
243	-2.10000e+00	1.263659e-05	
244	-2.15000e+00	1.264704e-05	
245	-2.20000e+00	1.265713e-05	
246	-2.25000e+00	1.266689e-05	
247	-2.30000e+00	1.267635e-05	
248	-2.35000e+00	1.268553e-05	
249	-2.40000e+00	1.269444e-05	
250	-2.45000e+00	1.270309e-05	
251	-2.50000e+00	1.271151e-05	
252	-2.55000e+00	1.271971e-05	
253	-2.60000e+00	1.272770e-05	
254	-2.65000e+00	1.273549e-05	
255	-2.70000e+00	1.274310e-05	
256	-2.75000e+00	1.275052e-05	
257	-2.80000e+00	1.275777e-05	
258	-2.85000e+00	1.276487e-05	
259	-2.90000e+00	1.277180e-05	
260	-2.95000e+00	1.277859e-05	
261	-3.00000e+00	1.278525e-05	
262	-3.05000e+00	1.279176e-05	
263	-3.10000e+00	1.279815e-05	
264	-3.15000e+00	1.280442e-05	
265	-3.20000e+00	1.281056e-05	
266	-3.25000e+00	1.281660e-05	
267	-3.30000e+00	1.282254e-05	
268	-0.000000e+00	0.000000e+00	
269	-5.00000e-02	1.180439e-06	
270	-1.00000e-01	2.320714e-06	
271	-1.50000e-01	3.423696e-06	
272	-2.00000e-01	4.490146e-06	
273	-2.50000e-01	5.520338e-06	
274	-3.00000e-01	6.514427e-06	
275	-3.50000e-01	7.472543e-06	
276	-4.00000e-01	8.394809e-06	
277	-4.50000e-01	9.281348e-06	
278	-5.00000e-01	1.013228e-05	
279	-5.50000e-01	1.094772e-05	
280	-6.00000e-01	1.172780e-05	
281	-6.50000e-01	1.247264e-05	
282	-7.00000e-01	1.318234e-05	
283	-7.50000e-01	1.385705e-05	
284	-8.00000e-01	1.449687e-05	
285	-8.50000e-01	1.510194e-05	
286	-9.00000e-01	1.567237e-05	

Index   v-sweep         i(vds)          
--------------------------------------------------------------------------------
287	-9.50000e-01	1.620830e-05	
288	-1.00000e+00	1.670986e-05	
289	-1.05000e+00	1.717718e-05	
290	-1.10000e+00	1.761042e-05	
291	-1.15000e+00	1.800972e-05	
292	-1.20000e+00	1.837529e-05	
293	-1.25000e+00	1.870731e-05	
294	-1.30000e+00	1.900607e-05	
295	-1.35000e+00	1.927191e-05	
296	-1.40000e+00	1.950531e-05	
297	-1.45000e+00	1.970697e-05	
298	-1.50000e+00	1.987797e-05	
299	-1.55000e+00	2.001995e-05	
300	-1.60000e+00	2.013535e-05	
301	-1.65000e+00	2.022759e-05	
302	-1.70000e+00	2.030087e-05	
303	-1.75000e+00	2.035965e-05	
304	-1.80000e+00	2.040792e-05	
305	-1.85000e+00	2.044878e-05	
306	-1.90000e+00	2.048441e-05	
307	-1.95000e+00	2.051626e-05	
308	-2.00000e+00	2.054528e-05	
309	-2.05000e+00	2.057209e-05	
310	-2.10000e+00	2.059711e-05	
311	-2.15000e+00	2.062065e-05	
312	-2.20000e+00	2.064292e-05	
313	-2.25000e+00	2.066409e-05	
314	-2.30000e+00	2.068429e-05	
315	-2.35000e+00	2.070362e-05	
316	-2.40000e+00	2.072217e-05	
317	-2.45000e+00	2.074000e-05	
318	-2.50000e+00	2.075718e-05	
319	-2.55000e+00	2.077376e-05	
320	-2.60000e+00	2.078978e-05	
321	-2.65000e+00	2.080529e-05	
322	-2.70000e+00	2.082031e-05	
323	-2.75000e+00	2.083489e-05	
324	-2.80000e+00	2.084904e-05	
325	-2.85000e+00	2.086280e-05	
326	-2.90000e+00	2.087618e-05	
327	-2.95000e+00	2.088921e-05	
328	-3.00000e+00	2.090191e-05	
329	-3.05000e+00	2.091430e-05	
330	-3.10000e+00	2.092638e-05	
331	-3.15000e+00	2.093818e-05	
332	-3.20000e+00	2.094971e-05	
333	-3.25000e+00	2.096099e-05	
334	-3.30000e+00	2.097201e-05	
335	-0.000000e+00	0.000000e+00	
336	-5.00000e-02	1.399590e-06	
337	-1.00000e-01	2.760816e-06	
338	-1.50000e-01	4.086539e-06	
339	-2.00000e-01	5.377512e-06	
340	-2.50000e-01	6.633995e-06	
341	-3.00000e-01	7.856135e-06	
342	-3.50000e-01	9.044051e-06	
343	-4.00000e-01	1.019785e-05	
344	-4.50000e-01	1.131766e-05	

Index   v-sweep         i(vds)          
--------------------------------------------------------------------------------
345	-5.00000e-01	1.240357e-05	
346	-5.50000e-01	1.345570e-05	
347	-6.00000e-01	1.447416e-05	
348	-6.50000e-01	1.545906e-05	
349	-7.00000e-01	1.641050e-05	
350	-7.50000e-01	1.732859e-05	
351	-8.00000e-01	1.821345e-05	
352	-8.50000e-01	1.906517e-05	
353	-9.00000e-01	1.988388e-05	
354	-9.50000e-01	2.066966e-05	
355	-1.00000e+00	2.142265e-05	
356	-1.05000e+00	2.214293e-05	
357	-1.10000e+00	2.283062e-05	
358	-1.15000e+00	2.348583e-05	
359	-1.20000e+00	2.410867e-05	
360	-1.25000e+00	2.469926e-05	
361	-1.30000e+00	2.525770e-05	
362	-1.35000e+00	2.578411e-05	
363	-1.40000e+00	2.627863e-05	
364	-1.45000e+00	2.674137e-05	
365	-1.50000e+00	2.717247e-05	
366	-1.55000e+00	2.757210e-05	
367	-1.60000e+00	2.794042e-05	
368	-1.65000e+00	2.827764e-05	
369	-1.70000e+00	2.858403e-05	
370	-1.75000e+00	2.885992e-05	
371	-1.80000e+00	2.910576e-05	
372	-1.85000e+00	2.932220e-05	
373	-1.90000e+00	2.951017e-05	
374	-1.95000e+00	2.967106e-05	
375	-2.00000e+00	2.980682e-05	
376	-2.05000e+00	2.992011e-05	
377	-2.10000e+00	3.001424e-05	
378	-2.15000e+00	3.009284e-05	
379	-2.20000e+00	3.015942e-05	
380	-2.25000e+00	3.021696e-05	
381	-2.30000e+00	3.026776e-05	
382	-2.35000e+00	3.031349e-05	
383	-2.40000e+00	3.035531e-05	
384	-2.45000e+00	3.039402e-05	
385	-2.50000e+00	3.043019e-05	
386	-2.55000e+00	3.046424e-05	
387	-2.60000e+00	3.049647e-05	
388	-2.65000e+00	3.052711e-05	
389	-2.70000e+00	3.055635e-05	
390	-2.75000e+00	3.058433e-05	
391	-2.80000e+00	3.061118e-05	
392	-2.85000e+00	3.063700e-05	
393	-2.90000e+00	3.066188e-05	
394	-2.95000e+00	3.068588e-05	
395	-3.00000e+00	3.070908e-05	
396	-3.05000e+00	3.073152e-05	
397	-3.10000e+00	3.075327e-05	
398	-3.15000e+00	3.077437e-05	
399	-3.20000e+00	3.079486e-05	
400	-3.25000e+00	3.081477e-05	
401	-3.30000e+00	3.083415e-05	
Note: No ".plot", ".print", or ".fourier" lines; no simulations run
