
Note: Compatibility modes selected: hs

Warning: m=xx on .subckt line will override multiplier m hierarchy!


Circuit: ***************************

Doing analysis at TEMP = 25.000000 and TNOM = 25.000000


No. of Data Rows : 402
                          ***************************
                          DC transfer characteristic  Mon Jan  9 13:57:29  2023
--------------------------------------------------------------------------------
Index   v-sweep         i(vds)          
--------------------------------------------------------------------------------
0	-0.000000e+00	0.000000e+00	
1	-5.00000e-02	1.063546e-07	
2	-1.00000e-01	1.362257e-07	
3	-1.50000e-01	1.418387e-07	
4	-2.00000e-01	1.438009e-07	
5	-2.50000e-01	1.450341e-07	
6	-3.00000e-01	1.460231e-07	
7	-3.50000e-01	1.468942e-07	
8	-4.00000e-01	1.476937e-07	
9	-4.50000e-01	1.484427e-07	
10	-5.00000e-01	1.491531e-07	
11	-5.50000e-01	1.498322e-07	
12	-6.00000e-01	1.504850e-07	
13	-6.50000e-01	1.511154e-07	
14	-7.00000e-01	1.517262e-07	
15	-7.50000e-01	1.523196e-07	
16	-8.00000e-01	1.528975e-07	
17	-8.50000e-01	1.534615e-07	
18	-9.00000e-01	1.540129e-07	
19	-9.50000e-01	1.545529e-07	
20	-1.00000e+00	1.550824e-07	
21	-1.05000e+00	1.556023e-07	
22	-1.10000e+00	1.561133e-07	
23	-1.15000e+00	1.566161e-07	
24	-1.20000e+00	1.571114e-07	
25	-1.25000e+00	1.575996e-07	
26	-1.30000e+00	1.580813e-07	
27	-1.35000e+00	1.585569e-07	
28	-1.40000e+00	1.590267e-07	
29	-1.45000e+00	1.594912e-07	
30	-1.50000e+00	1.599506e-07	
31	-1.55000e+00	1.604053e-07	
32	-1.60000e+00	1.608555e-07	
33	-1.65000e+00	1.613016e-07	
34	-1.70000e+00	1.617437e-07	
35	-1.75000e+00	1.621820e-07	
36	-1.80000e+00	1.626168e-07	
37	-1.85000e+00	1.630482e-07	
38	-1.90000e+00	1.634765e-07	
39	-1.95000e+00	1.639017e-07	
40	-2.00000e+00	1.643242e-07	
41	-2.05000e+00	1.647440e-07	
42	-2.10000e+00	1.651612e-07	
43	-2.15000e+00	1.655761e-07	
44	-2.20000e+00	1.659889e-07	
45	-2.25000e+00	1.663997e-07	
46	-2.30000e+00	1.668086e-07	
47	-2.35000e+00	1.672160e-07	
48	-2.40000e+00	1.676221e-07	
49	-2.45000e+00	1.680270e-07	
50	-2.50000e+00	1.684312e-07	
51	-2.55000e+00	1.688349e-07	
52	-2.60000e+00	1.692385e-07	
53	-2.65000e+00	1.696425e-07	
54	-2.70000e+00	1.700473e-07	

Index   v-sweep         i(vds)          
--------------------------------------------------------------------------------
55	-2.75000e+00	1.704535e-07	
56	-2.80000e+00	1.708618e-07	
57	-2.85000e+00	1.712728e-07	
58	-2.90000e+00	1.716873e-07	
59	-2.95000e+00	1.721063e-07	
60	-3.00000e+00	1.725307e-07	
61	-3.05000e+00	1.729616e-07	
62	-3.10000e+00	1.734001e-07	
63	-3.15000e+00	1.738478e-07	
64	-3.20000e+00	1.743059e-07	
65	-3.25000e+00	1.747762e-07	
66	-3.30000e+00	1.752602e-07	
67	-0.000000e+00	0.000000e+00	
68	-5.00000e-02	1.697561e-06	
69	-1.00000e-01	3.192464e-06	
70	-1.50000e-01	4.487120e-06	
71	-2.00000e-01	5.584135e-06	
72	-2.50000e-01	6.486580e-06	
73	-3.00000e-01	7.198673e-06	
74	-3.50000e-01	7.727584e-06	
75	-4.00000e-01	8.087929e-06	
76	-4.50000e-01	8.309470e-06	
77	-5.00000e-01	8.438103e-06	
78	-5.50000e-01	8.517659e-06	
79	-6.00000e-01	8.574196e-06	
80	-6.50000e-01	8.619396e-06	
81	-7.00000e-01	8.658205e-06	
82	-7.50000e-01	8.692880e-06	
83	-8.00000e-01	8.724582e-06	
84	-8.50000e-01	8.753984e-06	
85	-9.00000e-01	8.781513e-06	
86	-9.50000e-01	8.807470e-06	
87	-1.00000e+00	8.832073e-06	
88	-1.05000e+00	8.855491e-06	
89	-1.10000e+00	8.877860e-06	
90	-1.15000e+00	8.899291e-06	
91	-1.20000e+00	8.919874e-06	
92	-1.25000e+00	8.939690e-06	
93	-1.30000e+00	8.958804e-06	
94	-1.35000e+00	8.977276e-06	
95	-1.40000e+00	8.995155e-06	
96	-1.45000e+00	9.012488e-06	
97	-1.50000e+00	9.029312e-06	
98	-1.55000e+00	9.045665e-06	
99	-1.60000e+00	9.061579e-06	
100	-1.65000e+00	9.077080e-06	
101	-1.70000e+00	9.092196e-06	
102	-1.75000e+00	9.106951e-06	
103	-1.80000e+00	9.121364e-06	
104	-1.85000e+00	9.135457e-06	
105	-1.90000e+00	9.149246e-06	
106	-1.95000e+00	9.162749e-06	
107	-2.00000e+00	9.175980e-06	
108	-2.05000e+00	9.188953e-06	
109	-2.10000e+00	9.201682e-06	
110	-2.15000e+00	9.214179e-06	
111	-2.20000e+00	9.226454e-06	
112	-2.25000e+00	9.238519e-06	

Index   v-sweep         i(vds)          
--------------------------------------------------------------------------------
113	-2.30000e+00	9.250383e-06	
114	-2.35000e+00	9.262057e-06	
115	-2.40000e+00	9.273550e-06	
116	-2.45000e+00	9.284871e-06	
117	-2.50000e+00	9.296030e-06	
118	-2.55000e+00	9.307035e-06	
119	-2.60000e+00	9.317898e-06	
120	-2.65000e+00	9.328629e-06	
121	-2.70000e+00	9.339239e-06	
122	-2.75000e+00	9.349741e-06	
123	-2.80000e+00	9.360148e-06	
124	-2.85000e+00	9.370476e-06	
125	-2.90000e+00	9.380743e-06	
126	-2.95000e+00	9.390968e-06	
127	-3.00000e+00	9.401173e-06	
128	-3.05000e+00	9.411385e-06	
129	-3.10000e+00	9.421631e-06	
130	-3.15000e+00	9.431944e-06	
131	-3.20000e+00	9.442359e-06	
132	-3.25000e+00	9.452919e-06	
133	-3.30000e+00	9.463667e-06	
134	-0.000000e+00	0.000000e+00	
135	-5.00000e-02	3.187376e-06	
136	-1.00000e-01	6.173376e-06	
137	-1.50000e-01	8.959962e-06	
138	-2.00000e-01	1.154908e-05	
139	-2.50000e-01	1.394268e-05	
140	-3.00000e-01	1.614268e-05	
141	-3.50000e-01	1.815103e-05	
142	-4.00000e-01	1.996971e-05	
143	-4.50000e-01	2.160076e-05	
144	-5.00000e-01	2.304635e-05	
145	-5.50000e-01	2.430891e-05	
146	-6.00000e-01	2.539139e-05	
147	-6.50000e-01	2.629772e-05	
148	-7.00000e-01	2.703392e-05	
149	-7.50000e-01	2.761005e-05	
150	-8.00000e-01	2.804330e-05	
151	-8.50000e-01	2.836019e-05	
152	-9.00000e-01	2.859331e-05	
153	-9.50000e-01	2.877250e-05	
154	-1.00000e+00	2.891862e-05	
155	-1.05000e+00	2.904389e-05	
156	-1.10000e+00	2.915512e-05	
157	-1.15000e+00	2.925615e-05	
158	-1.20000e+00	2.934930e-05	
159	-1.25000e+00	2.943608e-05	
160	-1.30000e+00	2.951754e-05	
161	-1.35000e+00	2.959442e-05	
162	-1.40000e+00	2.966732e-05	
163	-1.45000e+00	2.973671e-05	
164	-1.50000e+00	2.980295e-05	
165	-1.55000e+00	2.986636e-05	
166	-1.60000e+00	2.992720e-05	
167	-1.65000e+00	2.998571e-05	
168	-1.70000e+00	3.004208e-05	
169	-1.75000e+00	3.009647e-05	
170	-1.80000e+00	3.014904e-05	

Index   v-sweep         i(vds)          
--------------------------------------------------------------------------------
171	-1.85000e+00	3.019992e-05	
172	-1.90000e+00	3.024924e-05	
173	-1.95000e+00	3.029709e-05	
174	-2.00000e+00	3.034358e-05	
175	-2.05000e+00	3.038878e-05	
176	-2.10000e+00	3.043278e-05	
177	-2.15000e+00	3.047566e-05	
178	-2.20000e+00	3.051746e-05	
179	-2.25000e+00	3.055826e-05	
180	-2.30000e+00	3.059811e-05	
181	-2.35000e+00	3.063705e-05	
182	-2.40000e+00	3.067515e-05	
183	-2.45000e+00	3.071243e-05	
184	-2.50000e+00	3.074893e-05	
185	-2.55000e+00	3.078471e-05	
186	-2.60000e+00	3.081978e-05	
187	-2.65000e+00	3.085419e-05	
188	-2.70000e+00	3.088796e-05	
189	-2.75000e+00	3.092113e-05	
190	-2.80000e+00	3.095373e-05	
191	-2.85000e+00	3.098578e-05	
192	-2.90000e+00	3.101732e-05	
193	-2.95000e+00	3.104837e-05	
194	-3.00000e+00	3.107898e-05	
195	-3.05000e+00	3.110917e-05	
196	-3.10000e+00	3.113898e-05	
197	-3.15000e+00	3.116846e-05	
198	-3.20000e+00	3.119764e-05	
199	-3.25000e+00	3.122660e-05	
200	-3.30000e+00	3.125537e-05	
201	-0.000000e+00	0.000000e+00	
202	-5.00000e-02	4.427012e-06	
203	-1.00000e-01	8.661307e-06	
204	-1.50000e-01	1.270459e-05	
205	-2.00000e-01	1.655855e-05	
206	-2.50000e-01	2.022486e-05	
207	-3.00000e-01	2.370516e-05	
208	-3.50000e-01	2.700111e-05	
209	-4.00000e-01	3.011431e-05	
210	-4.50000e-01	3.304639e-05	
211	-5.00000e-01	3.579894e-05	
212	-5.50000e-01	3.837357e-05	
213	-6.00000e-01	4.077186e-05	
214	-6.50000e-01	4.299543e-05	
215	-7.00000e-01	4.504591e-05	
216	-7.50000e-01	4.692496e-05	
217	-8.00000e-01	4.863433e-05	
218	-8.50000e-01	5.017594e-05	
219	-9.00000e-01	5.155190e-05	
220	-9.50000e-01	5.276482e-05	
221	-1.00000e+00	5.381809e-05	
222	-1.05000e+00	5.471652e-05	
223	-1.10000e+00	5.546747e-05	
224	-1.15000e+00	5.608241e-05	
225	-1.20000e+00	5.657835e-05	
226	-1.25000e+00	5.697753e-05	
227	-1.30000e+00	5.730396e-05	
228	-1.35000e+00	5.757870e-05	

Index   v-sweep         i(vds)          
--------------------------------------------------------------------------------
229	-1.40000e+00	5.781722e-05	
230	-1.45000e+00	5.802978e-05	
231	-1.50000e+00	5.822292e-05	
232	-1.55000e+00	5.840086e-05	
233	-1.60000e+00	5.856644e-05	
234	-1.65000e+00	5.872166e-05	
235	-1.70000e+00	5.886801e-05	
236	-1.75000e+00	5.900661e-05	
237	-1.80000e+00	5.913838e-05	
238	-1.85000e+00	5.926403e-05	
239	-1.90000e+00	5.938419e-05	
240	-1.95000e+00	5.949937e-05	
241	-2.00000e+00	5.961000e-05	
242	-2.05000e+00	5.971647e-05	
243	-2.10000e+00	5.981911e-05	
244	-2.15000e+00	5.991821e-05	
245	-2.20000e+00	6.001403e-05	
246	-2.25000e+00	6.010681e-05	
247	-2.30000e+00	6.019673e-05	
248	-2.35000e+00	6.028401e-05	
249	-2.40000e+00	6.036879e-05	
250	-2.45000e+00	6.045123e-05	
251	-2.50000e+00	6.053148e-05	
252	-2.55000e+00	6.060965e-05	
253	-2.60000e+00	6.068586e-05	
254	-2.65000e+00	6.076023e-05	
255	-2.70000e+00	6.083284e-05	
256	-2.75000e+00	6.090378e-05	
257	-2.80000e+00	6.097315e-05	
258	-2.85000e+00	6.104101e-05	
259	-2.90000e+00	6.110745e-05	
260	-2.95000e+00	6.117252e-05	
261	-3.00000e+00	6.123629e-05	
262	-3.05000e+00	6.129883e-05	
263	-3.10000e+00	6.136019e-05	
264	-3.15000e+00	6.142043e-05	
265	-3.20000e+00	6.147960e-05	
266	-3.25000e+00	6.153777e-05	
267	-3.30000e+00	6.159498e-05	
268	-0.000000e+00	0.000000e+00	
269	-5.00000e-02	5.458660e-06	
270	-1.00000e-01	1.073495e-05	
271	-1.50000e-01	1.583037e-05	
272	-2.00000e-01	2.074637e-05	
273	-2.50000e-01	2.548442e-05	
274	-3.00000e-01	3.004596e-05	
275	-3.50000e-01	3.443242e-05	
276	-4.00000e-01	3.864520e-05	
277	-4.50000e-01	4.268570e-05	
278	-5.00000e-01	4.655531e-05	
279	-5.50000e-01	5.025540e-05	
280	-6.00000e-01	5.378733e-05	
281	-6.50000e-01	5.715245e-05	
282	-7.00000e-01	6.035210e-05	
283	-7.50000e-01	6.338761e-05	
284	-8.00000e-01	6.626030e-05	
285	-8.50000e-01	6.897149e-05	
286	-9.00000e-01	7.152251e-05	

Index   v-sweep         i(vds)          
--------------------------------------------------------------------------------
287	-9.50000e-01	7.391468e-05	
288	-1.00000e+00	7.614934e-05	
289	-1.05000e+00	7.822787e-05	
290	-1.10000e+00	8.015167e-05	
291	-1.15000e+00	8.192226e-05	
292	-1.20000e+00	8.354125e-05	
293	-1.25000e+00	8.501050e-05	
294	-1.30000e+00	8.633222e-05	
295	-1.35000e+00	8.750924e-05	
296	-1.40000e+00	8.854539e-05	
297	-1.45000e+00	8.944622e-05	
298	-1.50000e+00	9.021984e-05	
299	-1.55000e+00	9.087791e-05	
300	-1.60000e+00	9.143588e-05	
301	-1.65000e+00	9.191177e-05	
302	-1.70000e+00	9.232353e-05	
303	-1.75000e+00	9.268652e-05	
304	-1.80000e+00	9.301242e-05	
305	-1.85000e+00	9.330954e-05	
306	-1.90000e+00	9.358369e-05	
307	-1.95000e+00	9.383896e-05	
308	-2.00000e+00	9.407831e-05	
309	-2.05000e+00	9.430398e-05	
310	-2.10000e+00	9.451769e-05	
311	-2.15000e+00	9.472083e-05	
312	-2.20000e+00	9.491450e-05	
313	-2.25000e+00	9.509966e-05	
314	-2.30000e+00	9.527709e-05	
315	-2.35000e+00	9.544747e-05	
316	-2.40000e+00	9.561139e-05	
317	-2.45000e+00	9.576935e-05	
318	-2.50000e+00	9.592181e-05	
319	-2.55000e+00	9.606918e-05	
320	-2.60000e+00	9.621180e-05	
321	-2.65000e+00	9.634999e-05	
322	-2.70000e+00	9.648405e-05	
323	-2.75000e+00	9.661423e-05	
324	-2.80000e+00	9.674076e-05	
325	-2.85000e+00	9.686387e-05	
326	-2.90000e+00	9.698375e-05	
327	-2.95000e+00	9.710058e-05	
328	-3.00000e+00	9.721451e-05	
329	-3.05000e+00	9.732571e-05	
330	-3.10000e+00	9.743432e-05	
331	-3.15000e+00	9.754046e-05	
332	-3.20000e+00	9.764425e-05	
333	-3.25000e+00	9.774581e-05	
334	-3.30000e+00	9.784524e-05	
335	-0.000000e+00	0.000000e+00	
336	-5.00000e-02	6.319276e-06	
337	-1.00000e-01	1.246682e-05	
338	-1.50000e-01	1.844393e-05	
339	-2.00000e-01	2.425189e-05	
340	-2.50000e-01	2.989197e-05	
341	-3.00000e-01	3.536543e-05	
342	-3.50000e-01	4.067352e-05	
343	-4.00000e-01	4.581748e-05	
344	-4.50000e-01	5.079852e-05	

Index   v-sweep         i(vds)          
--------------------------------------------------------------------------------
345	-5.00000e-01	5.561786e-05	
346	-5.50000e-01	6.027671e-05	
347	-6.00000e-01	6.477624e-05	
348	-6.50000e-01	6.911764e-05	
349	-7.00000e-01	7.330207e-05	
350	-7.50000e-01	7.733069e-05	
351	-8.00000e-01	8.120466e-05	
352	-8.50000e-01	8.492510e-05	
353	-9.00000e-01	8.849314e-05	
354	-9.50000e-01	9.190992e-05	
355	-1.00000e+00	9.517653e-05	
356	-1.05000e+00	9.829409e-05	
357	-1.10000e+00	1.012637e-04	
358	-1.15000e+00	1.040865e-04	
359	-1.20000e+00	1.067635e-04	
360	-1.25000e+00	1.092958e-04	
361	-1.30000e+00	1.116847e-04	
362	-1.35000e+00	1.139311e-04	
363	-1.40000e+00	1.160363e-04	
364	-1.45000e+00	1.180014e-04	
365	-1.50000e+00	1.198277e-04	
366	-1.55000e+00	1.215167e-04	
367	-1.60000e+00	1.230699e-04	
368	-1.65000e+00	1.244891e-04	
369	-1.70000e+00	1.257766e-04	
370	-1.75000e+00	1.269356e-04	
371	-1.80000e+00	1.279701e-04	
372	-1.85000e+00	1.288861e-04	
373	-1.90000e+00	1.296918e-04	
374	-1.95000e+00	1.303982e-04	
375	-2.00000e+00	1.310184e-04	
376	-2.05000e+00	1.315669e-04	
377	-2.10000e+00	1.320573e-04	
378	-2.15000e+00	1.325012e-04	
379	-2.20000e+00	1.329078e-04	
380	-2.25000e+00	1.332839e-04	
381	-2.30000e+00	1.336346e-04	
382	-2.35000e+00	1.339638e-04	
383	-2.40000e+00	1.342743e-04	
384	-2.45000e+00	1.345684e-04	
385	-2.50000e+00	1.348481e-04	
386	-2.55000e+00	1.351148e-04	
387	-2.60000e+00	1.353698e-04	
388	-2.65000e+00	1.356142e-04	
389	-2.70000e+00	1.358488e-04	
390	-2.75000e+00	1.360746e-04	
391	-2.80000e+00	1.362922e-04	
392	-2.85000e+00	1.365021e-04	
393	-2.90000e+00	1.367050e-04	
394	-2.95000e+00	1.369014e-04	
395	-3.00000e+00	1.370917e-04	
396	-3.05000e+00	1.372762e-04	
397	-3.10000e+00	1.374554e-04	
398	-3.15000e+00	1.376295e-04	
399	-3.20000e+00	1.377989e-04	
400	-3.25000e+00	1.379638e-04	
401	-3.30000e+00	1.381245e-04	
Note: No ".plot", ".print", or ".fourier" lines; no simulations run
