
Note: Compatibility modes selected: hs

Warning: m=xx on .subckt line will override multiplier m hierarchy!


Circuit: ***************************

Doing analysis at TEMP = 25.000000 and TNOM = 25.000000


No. of Data Rows : 402
                          ***************************
                          DC transfer characteristic  Mon Jan  9 13:57:28  2023
--------------------------------------------------------------------------------
Index   v-sweep         i(vds)          
--------------------------------------------------------------------------------
0	-0.000000e+00	0.000000e+00	
1	-5.00000e-02	3.824407e-06	
2	-1.00000e-01	5.498390e-06	
3	-1.50000e-01	6.001427e-06	
4	-2.00000e-01	6.211645e-06	
5	-2.50000e-01	6.363436e-06	
6	-3.00000e-01	6.497745e-06	
7	-3.50000e-01	6.624272e-06	
8	-4.00000e-01	6.746348e-06	
9	-4.50000e-01	6.865493e-06	
10	-5.00000e-01	6.982552e-06	
11	-5.50000e-01	7.098066e-06	
12	-6.00000e-01	7.212415e-06	
13	-6.50000e-01	7.325884e-06	
14	-7.00000e-01	7.438692e-06	
15	-7.50000e-01	7.551017e-06	
16	-8.00000e-01	7.663006e-06	
17	-8.50000e-01	7.774779e-06	
18	-9.00000e-01	7.886441e-06	
19	-9.50000e-01	7.998080e-06	
20	-1.00000e+00	8.109773e-06	
21	-1.05000e+00	8.221587e-06	
22	-1.10000e+00	8.333581e-06	
23	-1.15000e+00	8.445808e-06	
24	-1.20000e+00	8.558313e-06	
25	-1.25000e+00	8.671139e-06	
26	-1.30000e+00	8.784323e-06	
27	-1.35000e+00	8.897899e-06	
28	-1.40000e+00	9.011898e-06	
29	-1.45000e+00	9.126348e-06	
30	-1.50000e+00	9.241274e-06	
31	-1.55000e+00	9.356700e-06	
32	-1.60000e+00	9.472649e-06	
33	-1.65000e+00	9.589139e-06	
34	-1.70000e+00	9.706190e-06	
35	-1.75000e+00	9.823818e-06	
36	-1.80000e+00	9.942042e-06	
37	-1.85000e+00	1.006088e-05	
38	-1.90000e+00	1.018033e-05	
39	-1.95000e+00	1.030043e-05	
40	-2.00000e+00	1.042118e-05	
41	-2.05000e+00	1.054260e-05	
42	-2.10000e+00	1.066470e-05	
43	-2.15000e+00	1.078749e-05	
44	-2.20000e+00	1.091100e-05	
45	-2.25000e+00	1.103523e-05	
46	-2.30000e+00	1.116022e-05	
47	-2.35000e+00	1.128597e-05	
48	-2.40000e+00	1.141251e-05	
49	-2.45000e+00	1.153988e-05	
50	-2.50000e+00	1.166809e-05	
51	-2.55000e+00	1.179719e-05	
52	-2.60000e+00	1.192721e-05	
53	-2.65000e+00	1.205821e-05	
54	-2.70000e+00	1.219024e-05	

Index   v-sweep         i(vds)          
--------------------------------------------------------------------------------
55	-2.75000e+00	1.232337e-05	
56	-2.80000e+00	1.245766e-05	
57	-2.85000e+00	1.259319e-05	
58	-2.90000e+00	1.273007e-05	
59	-2.95000e+00	1.286840e-05	
60	-3.00000e+00	1.300829e-05	
61	-3.05000e+00	1.314988e-05	
62	-3.10000e+00	1.329333e-05	
63	-3.15000e+00	1.343880e-05	
64	-3.20000e+00	1.358647e-05	
65	-3.25000e+00	1.373654e-05	
66	-3.30000e+00	1.388925e-05	
67	-0.000000e+00	0.000000e+00	
68	-5.00000e-02	3.623182e-05	
69	-1.00000e-01	6.853508e-05	
70	-1.50000e-01	9.699661e-05	
71	-2.00000e-01	1.217033e-04	
72	-2.50000e-01	1.427447e-04	
73	-3.00000e-01	1.602187e-04	
74	-3.50000e-01	1.742459e-04	
75	-4.00000e-01	1.850047e-04	
76	-4.50000e-01	1.928099e-04	
77	-5.00000e-01	1.982240e-04	
78	-5.50000e-01	2.020267e-04	
79	-6.00000e-01	2.049222e-04	
80	-6.50000e-01	2.073345e-04	
81	-7.00000e-01	2.094680e-04	
82	-7.50000e-01	2.114191e-04	
83	-8.00000e-01	2.132379e-04	
84	-8.50000e-01	2.149537e-04	
85	-9.00000e-01	2.165856e-04	
86	-9.50000e-01	2.181470e-04	
87	-1.00000e+00	2.196479e-04	
88	-1.05000e+00	2.210963e-04	
89	-1.10000e+00	2.224984e-04	
90	-1.15000e+00	2.238594e-04	
91	-1.20000e+00	2.251836e-04	
92	-1.25000e+00	2.264747e-04	
93	-1.30000e+00	2.277358e-04	
94	-1.35000e+00	2.289697e-04	
95	-1.40000e+00	2.301786e-04	
96	-1.45000e+00	2.313647e-04	
97	-1.50000e+00	2.325299e-04	
98	-1.55000e+00	2.336757e-04	
99	-1.60000e+00	2.348036e-04	
100	-1.65000e+00	2.359148e-04	
101	-1.70000e+00	2.370107e-04	
102	-1.75000e+00	2.380922e-04	
103	-1.80000e+00	2.391603e-04	
104	-1.85000e+00	2.402158e-04	
105	-1.90000e+00	2.412596e-04	
106	-1.95000e+00	2.422924e-04	
107	-2.00000e+00	2.433149e-04	
108	-2.05000e+00	2.443276e-04	
109	-2.10000e+00	2.453311e-04	
110	-2.15000e+00	2.463260e-04	
111	-2.20000e+00	2.473128e-04	
112	-2.25000e+00	2.482919e-04	

Index   v-sweep         i(vds)          
--------------------------------------------------------------------------------
113	-2.30000e+00	2.492637e-04	
114	-2.35000e+00	2.502287e-04	
115	-2.40000e+00	2.511872e-04	
116	-2.45000e+00	2.521397e-04	
117	-2.50000e+00	2.530865e-04	
118	-2.55000e+00	2.540281e-04	
119	-2.60000e+00	2.549648e-04	
120	-2.65000e+00	2.558971e-04	
121	-2.70000e+00	2.568254e-04	
122	-2.75000e+00	2.577503e-04	
123	-2.80000e+00	2.586722e-04	
124	-2.85000e+00	2.595918e-04	
125	-2.90000e+00	2.605098e-04	
126	-2.95000e+00	2.614269e-04	
127	-3.00000e+00	2.623440e-04	
128	-3.05000e+00	2.632622e-04	
129	-3.10000e+00	2.641824e-04	
130	-3.15000e+00	2.651061e-04	
131	-3.20000e+00	2.660347e-04	
132	-3.25000e+00	2.669696e-04	
133	-3.30000e+00	2.679128e-04	
134	-0.000000e+00	0.000000e+00	
135	-5.00000e-02	6.273564e-05	
136	-1.00000e-01	1.215656e-04	
137	-1.50000e-01	1.765628e-04	
138	-2.00000e-01	2.277987e-04	
139	-2.50000e-01	2.753431e-04	
140	-3.00000e-01	3.192643e-04	
141	-3.50000e-01	3.596298e-04	
142	-4.00000e-01	3.965058e-04	
143	-4.50000e-01	4.299585e-04	
144	-5.00000e-01	4.600543e-04	
145	-5.50000e-01	4.868619e-04	
146	-6.00000e-01	5.104547e-04	
147	-6.50000e-01	5.309168e-04	
148	-7.00000e-01	5.483543e-04	
149	-7.50000e-01	5.629178e-04	
150	-8.00000e-01	5.748406e-04	
151	-8.50000e-01	5.844818e-04	
152	-9.00000e-01	5.923238e-04	
153	-9.50000e-01	5.988754e-04	
154	-1.00000e+00	6.045489e-04	
155	-1.05000e+00	6.096183e-04	
156	-1.10000e+00	6.142505e-04	
157	-1.15000e+00	6.185479e-04	
158	-1.20000e+00	6.225767e-04	
159	-1.25000e+00	6.263827e-04	
160	-1.30000e+00	6.299991e-04	
161	-1.35000e+00	6.334515e-04	
162	-1.40000e+00	6.367601e-04	
163	-1.45000e+00	6.399414e-04	
164	-1.50000e+00	6.430088e-04	
165	-1.55000e+00	6.459739e-04	
166	-1.60000e+00	6.488464e-04	
167	-1.65000e+00	6.516347e-04	
168	-1.70000e+00	6.543460e-04	
169	-1.75000e+00	6.569867e-04	
170	-1.80000e+00	6.595624e-04	

Index   v-sweep         i(vds)          
--------------------------------------------------------------------------------
171	-1.85000e+00	6.620782e-04	
172	-1.90000e+00	6.645383e-04	
173	-1.95000e+00	6.669468e-04	
174	-2.00000e+00	6.693072e-04	
175	-2.05000e+00	6.716227e-04	
176	-2.10000e+00	6.738962e-04	
177	-2.15000e+00	6.761304e-04	
178	-2.20000e+00	6.783275e-04	
179	-2.25000e+00	6.804899e-04	
180	-2.30000e+00	6.826196e-04	
181	-2.35000e+00	6.847182e-04	
182	-2.40000e+00	6.867877e-04	
183	-2.45000e+00	6.888295e-04	
184	-2.50000e+00	6.908451e-04	
185	-2.55000e+00	6.928358e-04	
186	-2.60000e+00	6.948029e-04	
187	-2.65000e+00	6.967477e-04	
188	-2.70000e+00	6.986713e-04	
189	-2.75000e+00	7.005747e-04	
190	-2.80000e+00	7.024591e-04	
191	-2.85000e+00	7.043255e-04	
192	-2.90000e+00	7.061749e-04	
193	-2.95000e+00	7.080086e-04	
194	-3.00000e+00	7.098277e-04	
195	-3.05000e+00	7.116333e-04	
196	-3.10000e+00	7.134268e-04	
197	-3.15000e+00	7.152097e-04	
198	-3.20000e+00	7.169837e-04	
199	-3.25000e+00	7.187504e-04	
200	-3.30000e+00	7.205120e-04	
201	-0.000000e+00	0.000000e+00	
202	-5.00000e-02	8.316677e-05	
203	-1.00000e-01	1.626050e-04	
204	-1.50000e-01	2.383761e-04	
205	-2.00000e-01	3.105405e-04	
206	-2.50000e-01	3.791569e-04	
207	-3.00000e-01	4.442833e-04	
208	-3.50000e-01	5.059760e-04	
209	-4.00000e-01	5.642905e-04	
210	-4.50000e-01	6.192811e-04	
211	-5.00000e-01	6.710013e-04	
212	-5.50000e-01	7.195035e-04	
213	-6.00000e-01	7.648393e-04	
214	-6.50000e-01	8.070597e-04	
215	-7.00000e-01	8.462156e-04	
216	-7.50000e-01	8.823576e-04	
217	-8.00000e-01	9.155368e-04	
218	-8.50000e-01	9.458064e-04	
219	-9.00000e-01	9.732225e-04	
220	-9.50000e-01	9.978480e-04	
221	-1.00000e+00	1.019758e-03	
222	-1.05000e+00	1.039050e-03	
223	-1.10000e+00	1.055861e-03	
224	-1.15000e+00	1.070388e-03	
225	-1.20000e+00	1.082911e-03	
226	-1.25000e+00	1.093772e-03	
227	-1.30000e+00	1.103332e-03	
228	-1.35000e+00	1.111900e-03	

Index   v-sweep         i(vds)          
--------------------------------------------------------------------------------
229	-1.40000e+00	1.119709e-03	
230	-1.45000e+00	1.126923e-03	
231	-1.50000e+00	1.133654e-03	
232	-1.55000e+00	1.139983e-03	
233	-1.60000e+00	1.145971e-03	
234	-1.65000e+00	1.151663e-03	
235	-1.70000e+00	1.157096e-03	
236	-1.75000e+00	1.162299e-03	
237	-1.80000e+00	1.167296e-03	
238	-1.85000e+00	1.172109e-03	
239	-1.90000e+00	1.176754e-03	
240	-1.95000e+00	1.181247e-03	
241	-2.00000e+00	1.185602e-03	
242	-2.05000e+00	1.189828e-03	
243	-2.10000e+00	1.193937e-03	
244	-2.15000e+00	1.197937e-03	
245	-2.20000e+00	1.201837e-03	
246	-2.25000e+00	1.205643e-03	
247	-2.30000e+00	1.209361e-03	
248	-2.35000e+00	1.212998e-03	
249	-2.40000e+00	1.216559e-03	
250	-2.45000e+00	1.220048e-03	
251	-2.50000e+00	1.223470e-03	
252	-2.55000e+00	1.226829e-03	
253	-2.60000e+00	1.230128e-03	
254	-2.65000e+00	1.233370e-03	
255	-2.70000e+00	1.236559e-03	
256	-2.75000e+00	1.239698e-03	
257	-2.80000e+00	1.242788e-03	
258	-2.85000e+00	1.245833e-03	
259	-2.90000e+00	1.248835e-03	
260	-2.95000e+00	1.251796e-03	
261	-3.00000e+00	1.254717e-03	
262	-3.05000e+00	1.257601e-03	
263	-3.10000e+00	1.260451e-03	
264	-3.15000e+00	1.263266e-03	
265	-3.20000e+00	1.266050e-03	
266	-3.25000e+00	1.268804e-03	
267	-3.30000e+00	1.271531e-03	
268	-0.000000e+00	0.000000e+00	
269	-5.00000e-02	9.915258e-05	
270	-1.00000e-01	1.947914e-04	
271	-1.50000e-01	2.869685e-04	
272	-2.00000e-01	3.757347e-04	
273	-2.50000e-01	4.611400e-04	
274	-3.00000e-01	5.432334e-04	
275	-3.50000e-01	6.220630e-04	
276	-4.00000e-01	6.976758e-04	
277	-4.50000e-01	7.701182e-04	
278	-5.00000e-01	8.394357e-04	
279	-5.50000e-01	9.056727e-04	
280	-6.00000e-01	9.688732e-04	
281	-6.50000e-01	1.029080e-03	
282	-7.00000e-01	1.086336e-03	
283	-7.50000e-01	1.140682e-03	
284	-8.00000e-01	1.192160e-03	
285	-8.50000e-01	1.240810e-03	
286	-9.00000e-01	1.286672e-03	

Index   v-sweep         i(vds)          
--------------------------------------------------------------------------------
287	-9.50000e-01	1.329786e-03	
288	-1.00000e+00	1.370191e-03	
289	-1.05000e+00	1.407928e-03	
290	-1.10000e+00	1.443036e-03	
291	-1.15000e+00	1.475558e-03	
292	-1.20000e+00	1.505537e-03	
293	-1.25000e+00	1.533023e-03	
294	-1.30000e+00	1.558072e-03	
295	-1.35000e+00	1.580756e-03	
296	-1.40000e+00	1.601167e-03	
297	-1.45000e+00	1.619433e-03	
298	-1.50000e+00	1.635731e-03	
299	-1.55000e+00	1.650289e-03	
300	-1.60000e+00	1.663368e-03	
301	-1.65000e+00	1.675230e-03	
302	-1.70000e+00	1.686103e-03	
303	-1.75000e+00	1.696169e-03	
304	-1.80000e+00	1.705566e-03	
305	-1.85000e+00	1.714399e-03	
306	-1.90000e+00	1.722749e-03	
307	-1.95000e+00	1.730676e-03	
308	-2.00000e+00	1.738233e-03	
309	-2.05000e+00	1.745460e-03	
310	-2.10000e+00	1.752392e-03	
311	-2.15000e+00	1.759057e-03	
312	-2.20000e+00	1.765481e-03	
313	-2.25000e+00	1.771684e-03	
314	-2.30000e+00	1.777686e-03	
315	-2.35000e+00	1.783503e-03	
316	-2.40000e+00	1.789149e-03	
317	-2.45000e+00	1.794636e-03	
318	-2.50000e+00	1.799978e-03	
319	-2.55000e+00	1.805182e-03	
320	-2.60000e+00	1.810260e-03	
321	-2.65000e+00	1.815218e-03	
322	-2.70000e+00	1.820065e-03	
323	-2.75000e+00	1.824807e-03	
324	-2.80000e+00	1.829451e-03	
325	-2.85000e+00	1.834002e-03	
326	-2.90000e+00	1.838465e-03	
327	-2.95000e+00	1.842846e-03	
328	-3.00000e+00	1.847148e-03	
329	-3.05000e+00	1.851376e-03	
330	-3.10000e+00	1.855533e-03	
331	-3.15000e+00	1.859623e-03	
332	-3.20000e+00	1.863649e-03	
333	-3.25000e+00	1.867615e-03	
334	-3.30000e+00	1.871523e-03	
335	-0.000000e+00	0.000000e+00	
336	-5.00000e-02	1.118273e-04	
337	-1.00000e-01	2.203599e-04	
338	-1.50000e-01	3.256420e-04	
339	-2.00000e-01	4.277168e-04	
340	-2.50000e-01	5.266269e-04	
341	-3.00000e-01	6.224140e-04	
342	-3.50000e-01	7.151191e-04	
343	-4.00000e-01	8.047827e-04	
344	-4.50000e-01	8.914443e-04	

Index   v-sweep         i(vds)          
--------------------------------------------------------------------------------
345	-5.00000e-01	9.751430e-04	
346	-5.50000e-01	1.055917e-03	
347	-6.00000e-01	1.133804e-03	
348	-6.50000e-01	1.208841e-03	
349	-7.00000e-01	1.281065e-03	
350	-7.50000e-01	1.350511e-03	
351	-8.00000e-01	1.417214e-03	
352	-8.50000e-01	1.481210e-03	
353	-9.00000e-01	1.542533e-03	
354	-9.50000e-01	1.601216e-03	
355	-1.00000e+00	1.657292e-03	
356	-1.05000e+00	1.710795e-03	
357	-1.10000e+00	1.761756e-03	
358	-1.15000e+00	1.810207e-03	
359	-1.20000e+00	1.856182e-03	
360	-1.25000e+00	1.899710e-03	
361	-1.30000e+00	1.940824e-03	
362	-1.35000e+00	1.979555e-03	
363	-1.40000e+00	2.015937e-03	
364	-1.45000e+00	2.050002e-03	
365	-1.50000e+00	2.081787e-03	
366	-1.55000e+00	2.111330e-03	
367	-1.60000e+00	2.138676e-03	
368	-1.65000e+00	2.163879e-03	
369	-1.70000e+00	2.187007e-03	
370	-1.75000e+00	2.208151e-03	
371	-1.80000e+00	2.227431e-03	
372	-1.85000e+00	2.245006e-03	
373	-1.90000e+00	2.261062e-03	
374	-1.95000e+00	2.275802e-03	
375	-2.00000e+00	2.289422e-03	
376	-2.05000e+00	2.302094e-03	
377	-2.10000e+00	2.313960e-03	
378	-2.15000e+00	2.325132e-03	
379	-2.20000e+00	2.335703e-03	
380	-2.25000e+00	2.345745e-03	
381	-2.30000e+00	2.355320e-03	
382	-2.35000e+00	2.364476e-03	
383	-2.40000e+00	2.373257e-03	
384	-2.45000e+00	2.381697e-03	
385	-2.50000e+00	2.389828e-03	
386	-2.55000e+00	2.397676e-03	
387	-2.60000e+00	2.405265e-03	
388	-2.65000e+00	2.412615e-03	
389	-2.70000e+00	2.419745e-03	
390	-2.75000e+00	2.426670e-03	
391	-2.80000e+00	2.433405e-03	
392	-2.85000e+00	2.439963e-03	
393	-2.90000e+00	2.446355e-03	
394	-2.95000e+00	2.452593e-03	
395	-3.00000e+00	2.458686e-03	
396	-3.05000e+00	2.464642e-03	
397	-3.10000e+00	2.470470e-03	
398	-3.15000e+00	2.476176e-03	
399	-3.20000e+00	2.481768e-03	
400	-3.25000e+00	2.487252e-03	
401	-3.30000e+00	2.492633e-03	
Note: No ".plot", ".print", or ".fourier" lines; no simulations run
