
Note: Compatibility modes selected: hs

Warning: m=xx on .subckt line will override multiplier m hierarchy!


Circuit: ***************************

Doing analysis at TEMP = -40.000000 and TNOM = -40.000000


No. of Data Rows : 402
                          ***************************
                          DC transfer characteristic  Mon Jan  9 13:57:29  2023
--------------------------------------------------------------------------------
Index   v-sweep         i(vds)          
--------------------------------------------------------------------------------
0	-0.000000e+00	0.000000e+00	
1	-5.00000e-02	4.424439e-10	
2	-1.00000e-01	4.784204e-10	
3	-1.50000e-01	4.838461e-10	
4	-2.00000e-01	4.856344e-10	
5	-2.50000e-01	4.865270e-10	
6	-3.00000e-01	4.870963e-10	
7	-3.50000e-01	4.875191e-10	
8	-4.00000e-01	4.878647e-10	
9	-4.50000e-01	4.881649e-10	
10	-5.00000e-01	4.884361e-10	
11	-5.50000e-01	4.886875e-10	
12	-6.00000e-01	4.889248e-10	
13	-6.50000e-01	4.891514e-10	
14	-7.00000e-01	4.893699e-10	
15	-7.50000e-01	4.895818e-10	
16	-8.00000e-01	4.897884e-10	
17	-8.50000e-01	4.899906e-10	
18	-9.00000e-01	4.901890e-10	
19	-9.50000e-01	4.903843e-10	
20	-1.00000e+00	4.905767e-10	
21	-1.05000e+00	4.907667e-10	
22	-1.10000e+00	4.909546e-10	
23	-1.15000e+00	4.911405e-10	
24	-1.20000e+00	4.913247e-10	
25	-1.25000e+00	4.915074e-10	
26	-1.30000e+00	4.916886e-10	
27	-1.35000e+00	4.918685e-10	
28	-1.40000e+00	4.920472e-10	
29	-1.45000e+00	4.922248e-10	
30	-1.50000e+00	4.924013e-10	
31	-1.55000e+00	4.925770e-10	
32	-1.60000e+00	4.927517e-10	
33	-1.65000e+00	4.929256e-10	
34	-1.70000e+00	4.930988e-10	
35	-1.75000e+00	4.932712e-10	
36	-1.80000e+00	4.934429e-10	
37	-1.85000e+00	4.936140e-10	
38	-1.90000e+00	4.937845e-10	
39	-1.95000e+00	4.939544e-10	
40	-2.00000e+00	4.941238e-10	
41	-2.05000e+00	4.942927e-10	
42	-2.10000e+00	4.944611e-10	
43	-2.15000e+00	4.946291e-10	
44	-2.20000e+00	4.947967e-10	
45	-2.25000e+00	4.949639e-10	
46	-2.30000e+00	4.951309e-10	
47	-2.35000e+00	4.952976e-10	
48	-2.40000e+00	4.954641e-10	
49	-2.45000e+00	4.956305e-10	
50	-2.50000e+00	4.957969e-10	
51	-2.55000e+00	4.959634e-10	
52	-2.60000e+00	4.961303e-10	
53	-2.65000e+00	4.962976e-10	
54	-2.70000e+00	4.964658e-10	

Index   v-sweep         i(vds)          
--------------------------------------------------------------------------------
55	-2.75000e+00	4.966349e-10	
56	-2.80000e+00	4.968055e-10	
57	-2.85000e+00	4.969780e-10	
58	-2.90000e+00	4.971528e-10	
59	-2.95000e+00	4.973308e-10	
60	-3.00000e+00	4.975125e-10	
61	-3.05000e+00	4.976990e-10	
62	-3.10000e+00	4.978913e-10	
63	-3.15000e+00	4.980907e-10	
64	-3.20000e+00	4.982985e-10	
65	-3.25000e+00	4.985165e-10	
66	-3.30000e+00	4.987466e-10	
67	-0.000000e+00	0.000000e+00	
68	-5.00000e-02	2.563439e-08	
69	-1.00000e-01	4.697127e-08	
70	-1.50000e-01	6.403451e-08	
71	-2.00000e-01	7.687957e-08	
72	-2.50000e-01	8.565548e-08	
73	-3.00000e-01	9.078066e-08	
74	-3.50000e-01	9.320405e-08	
75	-4.00000e-01	9.418772e-08	
76	-4.50000e-01	9.459717e-08	
77	-5.00000e-01	9.479370e-08	
78	-5.50000e-01	9.490391e-08	
79	-6.00000e-01	9.497426e-08	
80	-6.50000e-01	9.502388e-08	
81	-7.00000e-01	9.506157e-08	
82	-7.50000e-01	9.509184e-08	
83	-8.00000e-01	9.511718e-08	
84	-8.50000e-01	9.513905e-08	
85	-9.00000e-01	9.515838e-08	
86	-9.50000e-01	9.517579e-08	
87	-1.00000e+00	9.519168e-08	
88	-1.05000e+00	9.520635e-08	
89	-1.10000e+00	9.522003e-08	
90	-1.15000e+00	9.523287e-08	
91	-1.20000e+00	9.524500e-08	
92	-1.25000e+00	9.525652e-08	
93	-1.30000e+00	9.526750e-08	
94	-1.35000e+00	9.527802e-08	
95	-1.40000e+00	9.528812e-08	
96	-1.45000e+00	9.529785e-08	
97	-1.50000e+00	9.530724e-08	
98	-1.55000e+00	9.531632e-08	
99	-1.60000e+00	9.532513e-08	
100	-1.65000e+00	9.533369e-08	
101	-1.70000e+00	9.534201e-08	
102	-1.75000e+00	9.535012e-08	
103	-1.80000e+00	9.535803e-08	
104	-1.85000e+00	9.536575e-08	
105	-1.90000e+00	9.537330e-08	
106	-1.95000e+00	9.538069e-08	
107	-2.00000e+00	9.538793e-08	
108	-2.05000e+00	9.539502e-08	
109	-2.10000e+00	9.540199e-08	
110	-2.15000e+00	9.540882e-08	
111	-2.20000e+00	9.541554e-08	
112	-2.25000e+00	9.542215e-08	

Index   v-sweep         i(vds)          
--------------------------------------------------------------------------------
113	-2.30000e+00	9.542865e-08	
114	-2.35000e+00	9.543506e-08	
115	-2.40000e+00	9.544137e-08	
116	-2.45000e+00	9.544759e-08	
117	-2.50000e+00	9.545374e-08	
118	-2.55000e+00	9.545982e-08	
119	-2.60000e+00	9.546585e-08	
120	-2.65000e+00	9.547182e-08	
121	-2.70000e+00	9.547776e-08	
122	-2.75000e+00	9.548368e-08	
123	-2.80000e+00	9.548960e-08	
124	-2.85000e+00	9.549556e-08	
125	-2.90000e+00	9.550158e-08	
126	-2.95000e+00	9.550770e-08	
127	-3.00000e+00	9.551397e-08	
128	-3.05000e+00	9.552045e-08	
129	-3.10000e+00	9.552722e-08	
130	-3.15000e+00	9.553436e-08	
131	-3.20000e+00	9.554199e-08	
132	-3.25000e+00	9.555022e-08	
133	-3.30000e+00	9.555922e-08	
134	-0.000000e+00	0.000000e+00	
135	-5.00000e-02	5.421502e-08	
136	-1.00000e-01	1.041390e-07	
137	-1.50000e-01	1.497759e-07	
138	-2.00000e-01	1.911308e-07	
139	-2.50000e-01	2.282098e-07	
140	-3.00000e-01	2.610211e-07	
141	-3.50000e-01	2.895770e-07	
142	-4.00000e-01	3.138977e-07	
143	-4.50000e-01	3.340188e-07	
144	-5.00000e-01	3.500095e-07	
145	-5.50000e-01	3.620129e-07	
146	-6.00000e-01	3.703276e-07	
147	-6.50000e-01	3.755227e-07	
148	-7.00000e-01	3.784541e-07	
149	-7.50000e-01	3.800223e-07	
150	-8.00000e-01	3.808784e-07	
151	-8.50000e-01	3.813807e-07	
152	-9.00000e-01	3.817022e-07	
153	-9.50000e-01	3.819257e-07	
154	-1.00000e+00	3.820919e-07	
155	-1.05000e+00	3.822226e-07	
156	-1.10000e+00	3.823297e-07	
157	-1.15000e+00	3.824204e-07	
158	-1.20000e+00	3.824993e-07	
159	-1.25000e+00	3.825693e-07	
160	-1.30000e+00	3.826323e-07	
161	-1.35000e+00	3.826898e-07	
162	-1.40000e+00	3.827428e-07	
163	-1.45000e+00	3.827920e-07	
164	-1.50000e+00	3.828381e-07	
165	-1.55000e+00	3.828815e-07	
166	-1.60000e+00	3.829226e-07	
167	-1.65000e+00	3.829616e-07	
168	-1.70000e+00	3.829988e-07	
169	-1.75000e+00	3.830344e-07	
170	-1.80000e+00	3.830685e-07	

Index   v-sweep         i(vds)          
--------------------------------------------------------------------------------
171	-1.85000e+00	3.831013e-07	
172	-1.90000e+00	3.831330e-07	
173	-1.95000e+00	3.831635e-07	
174	-2.00000e+00	3.831931e-07	
175	-2.05000e+00	3.832217e-07	
176	-2.10000e+00	3.832495e-07	
177	-2.15000e+00	3.832765e-07	
178	-2.20000e+00	3.833027e-07	
179	-2.25000e+00	3.833283e-07	
180	-2.30000e+00	3.833533e-07	
181	-2.35000e+00	3.833776e-07	
182	-2.40000e+00	3.834014e-07	
183	-2.45000e+00	3.834247e-07	
184	-2.50000e+00	3.834475e-07	
185	-2.55000e+00	3.834698e-07	
186	-2.60000e+00	3.834916e-07	
187	-2.65000e+00	3.835131e-07	
188	-2.70000e+00	3.835341e-07	
189	-2.75000e+00	3.835548e-07	
190	-2.80000e+00	3.835752e-07	
191	-2.85000e+00	3.835952e-07	
192	-2.90000e+00	3.836150e-07	
193	-2.95000e+00	3.836346e-07	
194	-3.00000e+00	3.836539e-07	
195	-3.05000e+00	3.836732e-07	
196	-3.10000e+00	3.836924e-07	
197	-3.15000e+00	3.837117e-07	
198	-3.20000e+00	3.837311e-07	
199	-3.25000e+00	3.837508e-07	
200	-3.30000e+00	3.837710e-07	
201	-0.000000e+00	0.000000e+00	
202	-5.00000e-02	8.100502e-08	
203	-1.00000e-01	1.578919e-07	
204	-1.50000e-01	2.306634e-07	
205	-2.00000e-01	2.993226e-07	
206	-2.50000e-01	3.638724e-07	
207	-3.00000e-01	4.243161e-07	
208	-3.50000e-01	4.806573e-07	
209	-4.00000e-01	5.328997e-07	
210	-4.50000e-01	5.810480e-07	
211	-5.00000e-01	6.251074e-07	
212	-5.50000e-01	6.650847e-07	
213	-6.00000e-01	7.009889e-07	
214	-6.50000e-01	7.328327e-07	
215	-7.00000e-01	7.606355e-07	
216	-7.50000e-01	7.844286e-07	
217	-8.00000e-01	8.042653e-07	
218	-8.50000e-01	8.202408e-07	
219	-9.00000e-01	8.325289e-07	
220	-9.50000e-01	8.414390e-07	
221	-1.00000e+00	8.474729e-07	
222	-1.05000e+00	8.513097e-07	
223	-1.10000e+00	8.536654e-07	
224	-1.15000e+00	8.551208e-07	
225	-1.20000e+00	8.560572e-07	
226	-1.25000e+00	8.566952e-07	
227	-1.30000e+00	8.571565e-07	
228	-1.35000e+00	8.575083e-07	

Index   v-sweep         i(vds)          
--------------------------------------------------------------------------------
229	-1.40000e+00	8.577888e-07	
230	-1.45000e+00	8.580208e-07	
231	-1.50000e+00	8.582184e-07	
232	-1.55000e+00	8.583905e-07	
233	-1.60000e+00	8.585432e-07	
234	-1.65000e+00	8.586808e-07	
235	-1.70000e+00	8.588063e-07	
236	-1.75000e+00	8.589217e-07	
237	-1.80000e+00	8.590289e-07	
238	-1.85000e+00	8.591290e-07	
239	-1.90000e+00	8.592231e-07	
240	-1.95000e+00	8.593119e-07	
241	-2.00000e+00	8.593961e-07	
242	-2.05000e+00	8.594763e-07	
243	-2.10000e+00	8.595528e-07	
244	-2.15000e+00	8.596261e-07	
245	-2.20000e+00	8.596964e-07	
246	-2.25000e+00	8.597641e-07	
247	-2.30000e+00	8.598293e-07	
248	-2.35000e+00	8.598922e-07	
249	-2.40000e+00	8.599531e-07	
250	-2.45000e+00	8.600121e-07	
251	-2.50000e+00	8.600693e-07	
252	-2.55000e+00	8.601249e-07	
253	-2.60000e+00	8.601789e-07	
254	-2.65000e+00	8.602315e-07	
255	-2.70000e+00	8.602828e-07	
256	-2.75000e+00	8.603328e-07	
257	-2.80000e+00	8.603816e-07	
258	-2.85000e+00	8.604292e-07	
259	-2.90000e+00	8.604759e-07	
260	-2.95000e+00	8.605215e-07	
261	-3.00000e+00	8.605662e-07	
262	-3.05000e+00	8.606100e-07	
263	-3.10000e+00	8.606530e-07	
264	-3.15000e+00	8.606952e-07	
265	-3.20000e+00	8.607368e-07	
266	-3.25000e+00	8.607777e-07	
267	-3.30000e+00	8.608182e-07	
268	-0.000000e+00	0.000000e+00	
269	-5.00000e-02	1.055568e-07	
270	-1.00000e-01	2.072174e-07	
271	-1.50000e-01	3.049843e-07	
272	-2.00000e-01	3.988599e-07	
273	-2.50000e-01	4.888466e-07	
274	-3.00000e-01	5.749470e-07	
275	-3.50000e-01	6.571637e-07	
276	-4.00000e-01	7.354992e-07	
277	-4.50000e-01	8.099562e-07	
278	-5.00000e-01	8.805376e-07	
279	-5.50000e-01	9.472462e-07	
280	-6.00000e-01	1.010085e-06	
281	-6.50000e-01	1.069058e-06	
282	-7.00000e-01	1.124168e-06	
283	-7.50000e-01	1.175420e-06	
284	-8.00000e-01	1.222819e-06	
285	-8.50000e-01	1.266370e-06	
286	-9.00000e-01	1.306082e-06	

Index   v-sweep         i(vds)          
--------------------------------------------------------------------------------
287	-9.50000e-01	1.341965e-06	
288	-1.00000e+00	1.374033e-06	
289	-1.05000e+00	1.402309e-06	
290	-1.10000e+00	1.426826e-06	
291	-1.15000e+00	1.447639e-06	
292	-1.20000e+00	1.464836e-06	
293	-1.25000e+00	1.478567e-06	
294	-1.30000e+00	1.489078e-06	
295	-1.35000e+00	1.496745e-06	
296	-1.40000e+00	1.502083e-06	
297	-1.45000e+00	1.505677e-06	
298	-1.50000e+00	1.508075e-06	
299	-1.55000e+00	1.509703e-06	
300	-1.60000e+00	1.510847e-06	
301	-1.65000e+00	1.511688e-06	
302	-1.70000e+00	1.512333e-06	
303	-1.75000e+00	1.512847e-06	
304	-1.80000e+00	1.513272e-06	
305	-1.85000e+00	1.513632e-06	
306	-1.90000e+00	1.513945e-06	
307	-1.95000e+00	1.514221e-06	
308	-2.00000e+00	1.514469e-06	
309	-2.05000e+00	1.514694e-06	
310	-2.10000e+00	1.514901e-06	
311	-2.15000e+00	1.515092e-06	
312	-2.20000e+00	1.515270e-06	
313	-2.25000e+00	1.515437e-06	
314	-2.30000e+00	1.515594e-06	
315	-2.35000e+00	1.515743e-06	
316	-2.40000e+00	1.515884e-06	
317	-2.45000e+00	1.516018e-06	
318	-2.50000e+00	1.516147e-06	
319	-2.55000e+00	1.516270e-06	
320	-2.60000e+00	1.516388e-06	
321	-2.65000e+00	1.516501e-06	
322	-2.70000e+00	1.516611e-06	
323	-2.75000e+00	1.516717e-06	
324	-2.80000e+00	1.516819e-06	
325	-2.85000e+00	1.516918e-06	
326	-2.90000e+00	1.517014e-06	
327	-2.95000e+00	1.517108e-06	
328	-3.00000e+00	1.517199e-06	
329	-3.05000e+00	1.517287e-06	
330	-3.10000e+00	1.517373e-06	
331	-3.15000e+00	1.517457e-06	
332	-3.20000e+00	1.517538e-06	
333	-3.25000e+00	1.517618e-06	
334	-3.30000e+00	1.517696e-06	
335	-0.000000e+00	0.000000e+00	
336	-5.00000e-02	1.276606e-07	
337	-1.00000e-01	2.516671e-07	
338	-1.50000e-01	3.720216e-07	
339	-2.00000e-01	4.887263e-07	
340	-2.50000e-01	6.017835e-07	
341	-3.00000e-01	7.111952e-07	
342	-3.50000e-01	8.169636e-07	
343	-4.00000e-01	9.190911e-07	
344	-4.50000e-01	1.017580e-06	

Index   v-sweep         i(vds)          
--------------------------------------------------------------------------------
345	-5.00000e-01	1.112432e-06	
346	-5.50000e-01	1.203650e-06	
347	-6.00000e-01	1.291236e-06	
348	-6.50000e-01	1.375192e-06	
349	-7.00000e-01	1.455521e-06	
350	-7.50000e-01	1.532225e-06	
351	-8.00000e-01	1.605307e-06	
352	-8.50000e-01	1.674770e-06	
353	-9.00000e-01	1.740616e-06	
354	-9.50000e-01	1.802848e-06	
355	-1.00000e+00	1.861469e-06	
356	-1.05000e+00	1.916484e-06	
357	-1.10000e+00	1.967896e-06	
358	-1.15000e+00	2.015710e-06	
359	-1.20000e+00	2.059933e-06	
360	-1.25000e+00	2.100572e-06	
361	-1.30000e+00	2.137636e-06	
362	-1.35000e+00	2.171139e-06	
363	-1.40000e+00	2.201101e-06	
364	-1.45000e+00	2.227549e-06	
365	-1.50000e+00	2.250526e-06	
366	-1.55000e+00	2.270097e-06	
367	-1.60000e+00	2.286368e-06	
368	-1.65000e+00	2.299500e-06	
369	-1.70000e+00	2.309742e-06	
370	-1.75000e+00	2.317441e-06	
371	-1.80000e+00	2.323041e-06	
372	-1.85000e+00	2.327027e-06	
373	-1.90000e+00	2.329852e-06	
374	-1.95000e+00	2.331881e-06	
375	-2.00000e+00	2.333379e-06	
376	-2.05000e+00	2.334522e-06	
377	-2.10000e+00	2.335424e-06	
378	-2.15000e+00	2.336160e-06	
379	-2.20000e+00	2.336776e-06	
380	-2.25000e+00	2.337305e-06	
381	-2.30000e+00	2.337767e-06	
382	-2.35000e+00	2.338178e-06	
383	-2.40000e+00	2.338549e-06	
384	-2.45000e+00	2.338886e-06	
385	-2.50000e+00	2.339196e-06	
386	-2.55000e+00	2.339484e-06	
387	-2.60000e+00	2.339752e-06	
388	-2.65000e+00	2.340003e-06	
389	-2.70000e+00	2.340240e-06	
390	-2.75000e+00	2.340464e-06	
391	-2.80000e+00	2.340677e-06	
392	-2.85000e+00	2.340880e-06	
393	-2.90000e+00	2.341074e-06	
394	-2.95000e+00	2.341260e-06	
395	-3.00000e+00	2.341438e-06	
396	-3.05000e+00	2.341609e-06	
397	-3.10000e+00	2.341775e-06	
398	-3.15000e+00	2.341934e-06	
399	-3.20000e+00	2.342088e-06	
400	-3.25000e+00	2.342238e-06	
401	-3.30000e+00	2.342382e-06	
Note: No ".plot", ".print", or ".fourier" lines; no simulations run
