
Note: Compatibility modes selected: hs

Warning: m=xx on .subckt line will override multiplier m hierarchy!


Circuit: ***************************

Doing analysis at TEMP = -40.000000 and TNOM = -40.000000


No. of Data Rows : 402
                          ***************************
                          DC transfer characteristic  Mon Jan  9 13:57:29  2023
--------------------------------------------------------------------------------
Index   v-sweep         i(vds)          
--------------------------------------------------------------------------------
0	-0.000000e+00	0.000000e+00	
1	-5.00000e-02	1.020733e-08	
2	-1.00000e-01	1.148116e-08	
3	-1.50000e-01	1.174902e-08	
4	-2.00000e-01	1.189581e-08	
5	-2.50000e-01	1.201067e-08	
6	-3.00000e-01	1.211165e-08	
7	-3.50000e-01	1.220452e-08	
8	-4.00000e-01	1.229180e-08	
9	-4.50000e-01	1.237480e-08	
10	-5.00000e-01	1.245436e-08	
11	-5.50000e-01	1.253103e-08	
12	-6.00000e-01	1.260524e-08	
13	-6.50000e-01	1.267730e-08	
14	-7.00000e-01	1.274746e-08	
15	-7.50000e-01	1.281595e-08	
16	-8.00000e-01	1.288292e-08	
17	-8.50000e-01	1.294853e-08	
18	-9.00000e-01	1.301291e-08	
19	-9.50000e-01	1.307617e-08	
20	-1.00000e+00	1.313839e-08	
21	-1.05000e+00	1.319968e-08	
22	-1.10000e+00	1.326010e-08	
23	-1.15000e+00	1.331972e-08	
24	-1.20000e+00	1.337860e-08	
25	-1.25000e+00	1.343679e-08	
26	-1.30000e+00	1.349435e-08	
27	-1.35000e+00	1.355131e-08	
28	-1.40000e+00	1.360772e-08	
29	-1.45000e+00	1.366361e-08	
30	-1.50000e+00	1.371901e-08	
31	-1.55000e+00	1.377397e-08	
32	-1.60000e+00	1.382850e-08	
33	-1.65000e+00	1.388263e-08	
34	-1.70000e+00	1.393638e-08	
35	-1.75000e+00	1.398978e-08	
36	-1.80000e+00	1.404286e-08	
37	-1.85000e+00	1.409561e-08	
38	-1.90000e+00	1.414808e-08	
39	-1.95000e+00	1.420027e-08	
40	-2.00000e+00	1.425220e-08	
41	-2.05000e+00	1.430388e-08	
42	-2.10000e+00	1.435534e-08	
43	-2.15000e+00	1.440659e-08	
44	-2.20000e+00	1.445765e-08	
45	-2.25000e+00	1.450853e-08	
46	-2.30000e+00	1.455925e-08	
47	-2.35000e+00	1.460984e-08	
48	-2.40000e+00	1.466031e-08	
49	-2.45000e+00	1.471069e-08	
50	-2.50000e+00	1.476101e-08	
51	-2.55000e+00	1.481129e-08	
52	-2.60000e+00	1.486158e-08	
53	-2.65000e+00	1.491190e-08	
54	-2.70000e+00	1.496231e-08	

Index   v-sweep         i(vds)          
--------------------------------------------------------------------------------
55	-2.75000e+00	1.501285e-08	
56	-2.80000e+00	1.506358e-08	
57	-2.85000e+00	1.511456e-08	
58	-2.90000e+00	1.516586e-08	
59	-2.95000e+00	1.521755e-08	
60	-3.00000e+00	1.526973e-08	
61	-3.05000e+00	1.532249e-08	
62	-3.10000e+00	1.537594e-08	
63	-3.15000e+00	1.543018e-08	
64	-3.20000e+00	1.548536e-08	
65	-3.25000e+00	1.554160e-08	
66	-3.30000e+00	1.559906e-08	
67	-0.000000e+00	0.000000e+00	
68	-5.00000e-02	5.155153e-07	
69	-1.00000e-01	9.604321e-07	
70	-1.50000e-01	1.335884e-06	
71	-2.00000e-01	1.643144e-06	
72	-2.50000e-01	1.883850e-06	
73	-3.00000e-01	2.060660e-06	
74	-3.50000e-01	2.178965e-06	
75	-4.00000e-01	2.249967e-06	
76	-4.50000e-01	2.290720e-06	
77	-5.00000e-01	2.316445e-06	
78	-5.50000e-01	2.335367e-06	
79	-6.00000e-01	2.350901e-06	
80	-6.50000e-01	2.364448e-06	
81	-7.00000e-01	2.376653e-06	
82	-7.50000e-01	2.387857e-06	
83	-8.00000e-01	2.398266e-06	
84	-8.50000e-01	2.408017e-06	
85	-9.00000e-01	2.417208e-06	
86	-9.50000e-01	2.425913e-06	
87	-1.00000e+00	2.434190e-06	
88	-1.05000e+00	2.442088e-06	
89	-1.10000e+00	2.449645e-06	
90	-1.15000e+00	2.456895e-06	
91	-1.20000e+00	2.463865e-06	
92	-1.25000e+00	2.470580e-06	
93	-1.30000e+00	2.477061e-06	
94	-1.35000e+00	2.483327e-06	
95	-1.40000e+00	2.489394e-06	
96	-1.45000e+00	2.495276e-06	
97	-1.50000e+00	2.500986e-06	
98	-1.55000e+00	2.506537e-06	
99	-1.60000e+00	2.511938e-06	
100	-1.65000e+00	2.517199e-06	
101	-1.70000e+00	2.522328e-06	
102	-1.75000e+00	2.527334e-06	
103	-1.80000e+00	2.532224e-06	
104	-1.85000e+00	2.537003e-06	
105	-1.90000e+00	2.541679e-06	
106	-1.95000e+00	2.546256e-06	
107	-2.00000e+00	2.550740e-06	
108	-2.05000e+00	2.555136e-06	
109	-2.10000e+00	2.559447e-06	
110	-2.15000e+00	2.563678e-06	
111	-2.20000e+00	2.567833e-06	
112	-2.25000e+00	2.571915e-06	

Index   v-sweep         i(vds)          
--------------------------------------------------------------------------------
113	-2.30000e+00	2.575928e-06	
114	-2.35000e+00	2.579876e-06	
115	-2.40000e+00	2.583760e-06	
116	-2.45000e+00	2.587586e-06	
117	-2.50000e+00	2.591355e-06	
118	-2.55000e+00	2.595071e-06	
119	-2.60000e+00	2.598737e-06	
120	-2.65000e+00	2.602357e-06	
121	-2.70000e+00	2.605934e-06	
122	-2.75000e+00	2.609474e-06	
123	-2.80000e+00	2.612979e-06	
124	-2.85000e+00	2.616455e-06	
125	-2.90000e+00	2.619907e-06	
126	-2.95000e+00	2.623341e-06	
127	-3.00000e+00	2.626765e-06	
128	-3.05000e+00	2.630185e-06	
129	-3.10000e+00	2.633610e-06	
130	-3.15000e+00	2.637050e-06	
131	-3.20000e+00	2.640516e-06	
132	-3.25000e+00	2.644018e-06	
133	-3.30000e+00	2.647571e-06	
134	-0.000000e+00	0.000000e+00	
135	-5.00000e-02	1.040018e-06	
136	-1.00000e-01	2.006813e-06	
137	-1.50000e-01	2.901349e-06	
138	-2.00000e-01	3.724578e-06	
139	-2.50000e-01	4.477445e-06	
140	-3.00000e-01	5.160891e-06	
141	-3.50000e-01	5.775866e-06	
142	-4.00000e-01	6.323340e-06	
143	-4.50000e-01	6.804341e-06	
144	-5.00000e-01	7.220007e-06	
145	-5.50000e-01	7.571722e-06	
146	-6.00000e-01	7.861381e-06	
147	-6.50000e-01	8.091954e-06	
148	-7.00000e-01	8.268522e-06	
149	-7.50000e-01	8.399462e-06	
150	-8.00000e-01	8.496236e-06	
151	-8.50000e-01	8.570446e-06	
152	-9.00000e-01	8.630720e-06	
153	-9.50000e-01	8.682226e-06	
154	-1.00000e+00	8.727815e-06	
155	-1.05000e+00	8.769089e-06	
156	-1.10000e+00	8.807015e-06	
157	-1.15000e+00	8.842222e-06	
158	-1.20000e+00	8.875150e-06	
159	-1.25000e+00	8.906124e-06	
160	-1.30000e+00	8.935397e-06	
161	-1.35000e+00	8.963167e-06	
162	-1.40000e+00	8.989600e-06	
163	-1.45000e+00	9.014831e-06	
164	-1.50000e+00	9.038975e-06	
165	-1.55000e+00	9.062131e-06	
166	-1.60000e+00	9.084385e-06	
167	-1.65000e+00	9.105810e-06	
168	-1.70000e+00	9.126472e-06	
169	-1.75000e+00	9.146428e-06	
170	-1.80000e+00	9.165730e-06	

Index   v-sweep         i(vds)          
--------------------------------------------------------------------------------
171	-1.85000e+00	9.184423e-06	
172	-1.90000e+00	9.202549e-06	
173	-1.95000e+00	9.220144e-06	
174	-2.00000e+00	9.237242e-06	
175	-2.05000e+00	9.253873e-06	
176	-2.10000e+00	9.270065e-06	
177	-2.15000e+00	9.285843e-06	
178	-2.20000e+00	9.301231e-06	
179	-2.25000e+00	9.316249e-06	
180	-2.30000e+00	9.330916e-06	
181	-2.35000e+00	9.345252e-06	
182	-2.40000e+00	9.359273e-06	
183	-2.45000e+00	9.372994e-06	
184	-2.50000e+00	9.386431e-06	
185	-2.55000e+00	9.399595e-06	
186	-2.60000e+00	9.412501e-06	
187	-2.65000e+00	9.425161e-06	
188	-2.70000e+00	9.437586e-06	
189	-2.75000e+00	9.449787e-06	
190	-2.80000e+00	9.461777e-06	
191	-2.85000e+00	9.473565e-06	
192	-2.90000e+00	9.485165e-06	
193	-2.95000e+00	9.496586e-06	
194	-3.00000e+00	9.507841e-06	
195	-3.05000e+00	9.518945e-06	
196	-3.10000e+00	9.529910e-06	
197	-3.15000e+00	9.540752e-06	
198	-3.20000e+00	9.551489e-06	
199	-3.25000e+00	9.562139e-06	
200	-3.30000e+00	9.572725e-06	
201	-0.000000e+00	0.000000e+00	
202	-5.00000e-02	1.495087e-06	
203	-1.00000e-01	2.917511e-06	
204	-1.50000e-01	4.268156e-06	
205	-2.00000e-01	5.547894e-06	
206	-2.50000e-01	6.757581e-06	
207	-3.00000e-01	7.898065e-06	
208	-3.50000e-01	8.970179e-06	
209	-4.00000e-01	9.974749e-06	
210	-4.50000e-01	1.091259e-05	
211	-5.00000e-01	1.178451e-05	
212	-5.50000e-01	1.259133e-05	
213	-6.00000e-01	1.333383e-05	
214	-6.50000e-01	1.401286e-05	
215	-7.00000e-01	1.462924e-05	
216	-7.50000e-01	1.518387e-05	
217	-8.00000e-01	1.567773e-05	
218	-8.50000e-01	1.611198e-05	
219	-9.00000e-01	1.648810e-05	
220	-9.50000e-01	1.680817e-05	
221	-1.00000e+00	1.707537e-05	
222	-1.05000e+00	1.729460e-05	
223	-1.10000e+00	1.747293e-05	
224	-1.15000e+00	1.761905e-05	
225	-1.20000e+00	1.774146e-05	
226	-1.25000e+00	1.784701e-05	
227	-1.30000e+00	1.794040e-05	
228	-1.35000e+00	1.802467e-05	

Index   v-sweep         i(vds)          
--------------------------------------------------------------------------------
229	-1.40000e+00	1.810182e-05	
230	-1.45000e+00	1.817318e-05	
231	-1.50000e+00	1.823971e-05	
232	-1.55000e+00	1.830210e-05	
233	-1.60000e+00	1.836090e-05	
234	-1.65000e+00	1.841655e-05	
235	-1.70000e+00	1.846938e-05	
236	-1.75000e+00	1.851971e-05	
237	-1.80000e+00	1.856777e-05	
238	-1.85000e+00	1.861377e-05	
239	-1.90000e+00	1.865790e-05	
240	-1.95000e+00	1.870030e-05	
241	-2.00000e+00	1.874112e-05	
242	-2.05000e+00	1.878049e-05	
243	-2.10000e+00	1.881850e-05	
244	-2.15000e+00	1.885526e-05	
245	-2.20000e+00	1.889084e-05	
246	-2.25000e+00	1.892533e-05	
247	-2.30000e+00	1.895881e-05	
248	-2.35000e+00	1.899132e-05	
249	-2.40000e+00	1.902293e-05	
250	-2.45000e+00	1.905369e-05	
251	-2.50000e+00	1.908365e-05	
252	-2.55000e+00	1.911285e-05	
253	-2.60000e+00	1.914133e-05	
254	-2.65000e+00	1.916914e-05	
255	-2.70000e+00	1.919630e-05	
256	-2.75000e+00	1.922285e-05	
257	-2.80000e+00	1.924882e-05	
258	-2.85000e+00	1.927424e-05	
259	-2.90000e+00	1.929912e-05	
260	-2.95000e+00	1.932350e-05	
261	-3.00000e+00	1.934740e-05	
262	-3.05000e+00	1.937085e-05	
263	-3.10000e+00	1.939386e-05	
264	-3.15000e+00	1.941646e-05	
265	-3.20000e+00	1.943866e-05	
266	-3.25000e+00	1.946050e-05	
267	-3.30000e+00	1.948200e-05	
268	-0.000000e+00	0.000000e+00	
269	-5.00000e-02	1.884305e-06	
270	-1.00000e-01	3.697759e-06	
271	-1.50000e-01	5.441167e-06	
272	-2.00000e-01	7.115321e-06	
273	-2.50000e-01	8.721003e-06	
274	-3.00000e-01	1.025898e-05	
275	-3.50000e-01	1.173002e-05	
276	-4.00000e-01	1.313487e-05	
277	-4.50000e-01	1.447425e-05	
278	-5.00000e-01	1.574892e-05	
279	-5.50000e-01	1.695957e-05	
280	-6.00000e-01	1.810692e-05	
281	-6.50000e-01	1.919169e-05	
282	-7.00000e-01	2.021455e-05	
283	-7.50000e-01	2.117620e-05	
284	-8.00000e-01	2.207733e-05	
285	-8.50000e-01	2.291863e-05	
286	-9.00000e-01	2.370078e-05	

Index   v-sweep         i(vds)          
--------------------------------------------------------------------------------
287	-9.50000e-01	2.442450e-05	
288	-1.00000e+00	2.509049e-05	
289	-1.05000e+00	2.569954e-05	
290	-1.10000e+00	2.625248e-05	
291	-1.15000e+00	2.675029e-05	
292	-1.20000e+00	2.719417e-05	
293	-1.25000e+00	2.758573e-05	
294	-1.30000e+00	2.792724e-05	
295	-1.35000e+00	2.822204e-05	
296	-1.40000e+00	2.847483e-05	
297	-1.45000e+00	2.869170e-05	
298	-1.50000e+00	2.887940e-05	
299	-1.55000e+00	2.904425e-05	
300	-1.60000e+00	2.919143e-05	
301	-1.65000e+00	2.932474e-05	
302	-1.70000e+00	2.944694e-05	
303	-1.75000e+00	2.955998e-05	
304	-1.80000e+00	2.966532e-05	
305	-1.85000e+00	2.976404e-05	
306	-1.90000e+00	2.985702e-05	
307	-1.95000e+00	2.994493e-05	
308	-2.00000e+00	3.002835e-05	
309	-2.05000e+00	3.010773e-05	
310	-2.10000e+00	3.018347e-05	
311	-2.15000e+00	3.025591e-05	
312	-2.20000e+00	3.032534e-05	
313	-2.25000e+00	3.039201e-05	
314	-2.30000e+00	3.045615e-05	
315	-2.35000e+00	3.051795e-05	
316	-2.40000e+00	3.057759e-05	
317	-2.45000e+00	3.063521e-05	
318	-2.50000e+00	3.069096e-05	
319	-2.55000e+00	3.074497e-05	
320	-2.60000e+00	3.079733e-05	
321	-2.65000e+00	3.084816e-05	
322	-2.70000e+00	3.089756e-05	
323	-2.75000e+00	3.094559e-05	
324	-2.80000e+00	3.099234e-05	
325	-2.85000e+00	3.103789e-05	
326	-2.90000e+00	3.108229e-05	
327	-2.95000e+00	3.112561e-05	
328	-3.00000e+00	3.116789e-05	
329	-3.05000e+00	3.120920e-05	
330	-3.10000e+00	3.124958e-05	
331	-3.15000e+00	3.128908e-05	
332	-3.20000e+00	3.132773e-05	
333	-3.25000e+00	3.136557e-05	
334	-3.30000e+00	3.140265e-05	
335	-0.000000e+00	0.000000e+00	
336	-5.00000e-02	2.213889e-06	
337	-1.00000e-01	4.359425e-06	
338	-1.50000e-01	6.437335e-06	
339	-2.00000e-01	8.448336e-06	
340	-2.50000e-01	1.039313e-05	
341	-3.00000e-01	1.227243e-05	
342	-3.50000e-01	1.408690e-05	
343	-4.00000e-01	1.583723e-05	
344	-4.50000e-01	1.752409e-05	

Index   v-sweep         i(vds)          
--------------------------------------------------------------------------------
345	-5.00000e-01	1.914814e-05	
346	-5.50000e-01	2.071003e-05	
347	-6.00000e-01	2.221040e-05	
348	-6.50000e-01	2.364988e-05	
349	-7.00000e-01	2.502911e-05	
350	-7.50000e-01	2.634870e-05	
351	-8.00000e-01	2.760926e-05	
352	-8.50000e-01	2.881140e-05	
353	-9.00000e-01	2.995571e-05	
354	-9.50000e-01	3.104279e-05	
355	-1.00000e+00	3.207323e-05	
356	-1.05000e+00	3.304761e-05	
357	-1.10000e+00	3.396652e-05	
358	-1.15000e+00	3.483053e-05	
359	-1.20000e+00	3.564025e-05	
360	-1.25000e+00	3.639627e-05	
361	-1.30000e+00	3.709921e-05	
362	-1.35000e+00	3.774974e-05	
363	-1.40000e+00	3.834857e-05	
364	-1.45000e+00	3.889653e-05	
365	-1.50000e+00	3.939461e-05	
366	-1.55000e+00	3.984410e-05	
367	-1.60000e+00	4.024673e-05	
368	-1.65000e+00	4.060492e-05	
369	-1.70000e+00	4.092203e-05	
370	-1.75000e+00	4.120242e-05	
371	-1.80000e+00	4.145120e-05	
372	-1.85000e+00	4.167361e-05	
373	-1.90000e+00	4.187441e-05	
374	-1.95000e+00	4.205753e-05	
375	-2.00000e+00	4.222604e-05	
376	-2.05000e+00	4.238228e-05	
377	-2.10000e+00	4.252807e-05	
378	-2.15000e+00	4.266483e-05	
379	-2.20000e+00	4.279368e-05	
380	-2.25000e+00	4.291554e-05	
381	-2.30000e+00	4.303119e-05	
382	-2.35000e+00	4.314124e-05	
383	-2.40000e+00	4.324625e-05	
384	-2.45000e+00	4.334667e-05	
385	-2.50000e+00	4.344290e-05	
386	-2.55000e+00	4.353531e-05	
387	-2.60000e+00	4.362418e-05	
388	-2.65000e+00	4.370980e-05	
389	-2.70000e+00	4.379240e-05	
390	-2.75000e+00	4.387219e-05	
391	-2.80000e+00	4.394938e-05	
392	-2.85000e+00	4.402413e-05	
393	-2.90000e+00	4.409659e-05	
394	-2.95000e+00	4.416692e-05	
395	-3.00000e+00	4.423524e-05	
396	-3.05000e+00	4.430166e-05	
397	-3.10000e+00	4.436629e-05	
398	-3.15000e+00	4.442924e-05	
399	-3.20000e+00	4.449059e-05	
400	-3.25000e+00	4.455042e-05	
401	-3.30000e+00	4.460882e-05	
Note: No ".plot", ".print", or ".fourier" lines; no simulations run
