
Note: Compatibility modes selected: hs

Warning: m=xx on .subckt line will override multiplier m hierarchy!


Circuit: ***************************

Doing analysis at TEMP = -40.000000 and TNOM = -40.000000


No. of Data Rows : 402
                          ***************************
                          DC transfer characteristic  Mon Jan  9 13:57:29  2023
--------------------------------------------------------------------------------
Index   v-sweep         i(vds)          
--------------------------------------------------------------------------------
0	-0.000000e+00	0.000000e+00	
1	-5.00000e-02	4.633070e-09	
2	-1.00000e-01	5.097909e-09	
3	-1.50000e-01	5.181302e-09	
4	-2.00000e-01	5.219166e-09	
5	-2.50000e-01	5.245310e-09	
6	-3.00000e-01	5.266701e-09	
7	-3.50000e-01	5.285540e-09	
8	-4.00000e-01	5.302742e-09	
9	-4.50000e-01	5.318764e-09	
10	-5.00000e-01	5.333872e-09	
11	-5.50000e-01	5.348239e-09	
12	-6.00000e-01	5.361982e-09	
13	-6.50000e-01	5.375190e-09	
14	-7.00000e-01	5.387930e-09	
15	-7.50000e-01	5.400258e-09	
16	-8.00000e-01	5.412215e-09	
17	-8.50000e-01	5.423841e-09	
18	-9.00000e-01	5.435165e-09	
19	-9.50000e-01	5.446213e-09	
20	-1.00000e+00	5.457010e-09	
21	-1.05000e+00	5.467576e-09	
22	-1.10000e+00	5.477927e-09	
23	-1.15000e+00	5.488079e-09	
24	-1.20000e+00	5.498047e-09	
25	-1.25000e+00	5.507843e-09	
26	-1.30000e+00	5.517479e-09	
27	-1.35000e+00	5.526964e-09	
28	-1.40000e+00	5.536308e-09	
29	-1.45000e+00	5.545518e-09	
30	-1.50000e+00	5.554604e-09	
31	-1.55000e+00	5.563571e-09	
32	-1.60000e+00	5.572427e-09	
33	-1.65000e+00	5.581176e-09	
34	-1.70000e+00	5.589826e-09	
35	-1.75000e+00	5.598380e-09	
36	-1.80000e+00	5.606843e-09	
37	-1.85000e+00	5.615221e-09	
38	-1.90000e+00	5.623516e-09	
39	-1.95000e+00	5.631734e-09	
40	-2.00000e+00	5.639877e-09	
41	-2.05000e+00	5.647951e-09	
42	-2.10000e+00	5.655957e-09	
43	-2.15000e+00	5.663901e-09	
44	-2.20000e+00	5.671785e-09	
45	-2.25000e+00	5.679615e-09	
46	-2.30000e+00	5.687393e-09	
47	-2.35000e+00	5.695125e-09	
48	-2.40000e+00	5.702816e-09	
49	-2.45000e+00	5.710471e-09	
50	-2.50000e+00	5.718097e-09	
51	-2.55000e+00	5.725701e-09	
52	-2.60000e+00	5.733292e-09	
53	-2.65000e+00	5.740879e-09	
54	-2.70000e+00	5.748473e-09	

Index   v-sweep         i(vds)          
--------------------------------------------------------------------------------
55	-2.75000e+00	5.756086e-09	
56	-2.80000e+00	5.763733e-09	
57	-2.85000e+00	5.771431e-09	
58	-2.90000e+00	5.779197e-09	
59	-2.95000e+00	5.787054e-09	
60	-3.00000e+00	5.795023e-09	
61	-3.05000e+00	5.803133e-09	
62	-3.10000e+00	5.811412e-09	
63	-3.15000e+00	5.819894e-09	
64	-3.20000e+00	5.828616e-09	
65	-3.25000e+00	5.837617e-09	
66	-3.30000e+00	5.846943e-09	
67	-0.000000e+00	0.000000e+00	
68	-5.00000e-02	2.489197e-07	
69	-1.00000e-01	4.600962e-07	
70	-1.50000e-01	6.339033e-07	
71	-2.00000e-01	7.708673e-07	
72	-2.50000e-01	8.719342e-07	
73	-3.00000e-01	9.392528e-07	
74	-3.50000e-01	9.779662e-07	
75	-4.00000e-01	9.974073e-07	
76	-4.50000e-01	1.007282e-06	
77	-5.00000e-01	1.013206e-06	
78	-5.50000e-01	1.017445e-06	
79	-6.00000e-01	1.020848e-06	
80	-6.50000e-01	1.023765e-06	
81	-7.00000e-01	1.026358e-06	
82	-7.50000e-01	1.028716e-06	
83	-8.00000e-01	1.030890e-06	
84	-8.50000e-01	1.032915e-06	
85	-9.00000e-01	1.034816e-06	
86	-9.50000e-01	1.036608e-06	
87	-1.00000e+00	1.038307e-06	
88	-1.05000e+00	1.039923e-06	
89	-1.10000e+00	1.041465e-06	
90	-1.15000e+00	1.042940e-06	
91	-1.20000e+00	1.044355e-06	
92	-1.25000e+00	1.045715e-06	
93	-1.30000e+00	1.047024e-06	
94	-1.35000e+00	1.048287e-06	
95	-1.40000e+00	1.049507e-06	
96	-1.45000e+00	1.050688e-06	
97	-1.50000e+00	1.051831e-06	
98	-1.55000e+00	1.052941e-06	
99	-1.60000e+00	1.054018e-06	
100	-1.65000e+00	1.055065e-06	
101	-1.70000e+00	1.056083e-06	
102	-1.75000e+00	1.057075e-06	
103	-1.80000e+00	1.058042e-06	
104	-1.85000e+00	1.058986e-06	
105	-1.90000e+00	1.059907e-06	
106	-1.95000e+00	1.060807e-06	
107	-2.00000e+00	1.061686e-06	
108	-2.05000e+00	1.062547e-06	
109	-2.10000e+00	1.063389e-06	
110	-2.15000e+00	1.064214e-06	
111	-2.20000e+00	1.065023e-06	
112	-2.25000e+00	1.065816e-06	

Index   v-sweep         i(vds)          
--------------------------------------------------------------------------------
113	-2.30000e+00	1.066594e-06	
114	-2.35000e+00	1.067358e-06	
115	-2.40000e+00	1.068108e-06	
116	-2.45000e+00	1.068846e-06	
117	-2.50000e+00	1.069571e-06	
118	-2.55000e+00	1.070286e-06	
119	-2.60000e+00	1.070990e-06	
120	-2.65000e+00	1.071684e-06	
121	-2.70000e+00	1.072369e-06	
122	-2.75000e+00	1.073047e-06	
123	-2.80000e+00	1.073718e-06	
124	-2.85000e+00	1.074384e-06	
125	-2.90000e+00	1.075046e-06	
126	-2.95000e+00	1.075706e-06	
127	-3.00000e+00	1.076366e-06	
128	-3.05000e+00	1.077029e-06	
129	-3.10000e+00	1.077695e-06	
130	-3.15000e+00	1.078370e-06	
131	-3.20000e+00	1.079055e-06	
132	-3.25000e+00	1.079755e-06	
133	-3.30000e+00	1.080473e-06	
134	-0.000000e+00	0.000000e+00	
135	-5.00000e-02	5.191835e-07	
136	-1.00000e-01	1.000114e-06	
137	-1.50000e-01	1.443044e-06	
138	-2.00000e-01	1.848226e-06	
139	-2.50000e-01	2.215919e-06	
140	-3.00000e-01	2.546389e-06	
141	-3.50000e-01	2.839922e-06	
142	-4.00000e-01	3.096834e-06	
143	-4.50000e-01	3.317505e-06	
144	-5.00000e-01	3.502444e-06	
145	-5.50000e-01	3.652429e-06	
146	-6.00000e-01	3.768815e-06	
147	-6.50000e-01	3.854135e-06	
148	-7.00000e-01	3.912922e-06	
149	-7.50000e-01	3.951852e-06	
150	-8.00000e-01	3.978072e-06	
151	-8.50000e-01	3.997011e-06	
152	-9.00000e-01	4.011848e-06	
153	-9.50000e-01	4.024237e-06	
154	-1.00000e+00	4.035031e-06	
155	-1.05000e+00	4.044697e-06	
156	-1.10000e+00	4.053509e-06	
157	-1.15000e+00	4.061642e-06	
158	-1.20000e+00	4.069216e-06	
159	-1.25000e+00	4.076317e-06	
160	-1.30000e+00	4.083009e-06	
161	-1.35000e+00	4.089344e-06	
162	-1.40000e+00	4.095362e-06	
163	-1.45000e+00	4.101097e-06	
164	-1.50000e+00	4.106576e-06	
165	-1.55000e+00	4.111824e-06	
166	-1.60000e+00	4.116860e-06	
167	-1.65000e+00	4.121703e-06	
168	-1.70000e+00	4.126367e-06	
169	-1.75000e+00	4.130867e-06	
170	-1.80000e+00	4.135214e-06	

Index   v-sweep         i(vds)          
--------------------------------------------------------------------------------
171	-1.85000e+00	4.139420e-06	
172	-1.90000e+00	4.143493e-06	
173	-1.95000e+00	4.147442e-06	
174	-2.00000e+00	4.151275e-06	
175	-2.05000e+00	4.155000e-06	
176	-2.10000e+00	4.158622e-06	
177	-2.15000e+00	4.162147e-06	
178	-2.20000e+00	4.165581e-06	
179	-2.25000e+00	4.168929e-06	
180	-2.30000e+00	4.172196e-06	
181	-2.35000e+00	4.175384e-06	
182	-2.40000e+00	4.178500e-06	
183	-2.45000e+00	4.181545e-06	
184	-2.50000e+00	4.184523e-06	
185	-2.55000e+00	4.187438e-06	
186	-2.60000e+00	4.190293e-06	
187	-2.65000e+00	4.193090e-06	
188	-2.70000e+00	4.195833e-06	
189	-2.75000e+00	4.198523e-06	
190	-2.80000e+00	4.201165e-06	
191	-2.85000e+00	4.203760e-06	
192	-2.90000e+00	4.206311e-06	
193	-2.95000e+00	4.208821e-06	
194	-3.00000e+00	4.211295e-06	
195	-3.05000e+00	4.213734e-06	
196	-3.10000e+00	4.216144e-06	
197	-3.15000e+00	4.218529e-06	
198	-3.20000e+00	4.220893e-06	
199	-3.25000e+00	4.223243e-06	
200	-3.30000e+00	4.225584e-06	
201	-0.000000e+00	0.000000e+00	
202	-5.00000e-02	7.636241e-07	
203	-1.00000e-01	1.489994e-06	
204	-1.50000e-01	2.179336e-06	
205	-2.00000e-01	2.831879e-06	
206	-2.50000e-01	3.447847e-06	
207	-3.00000e-01	4.027465e-06	
208	-3.50000e-01	4.570958e-06	
209	-4.00000e-01	5.078551e-06	
210	-4.50000e-01	5.550470e-06	
211	-5.00000e-01	5.986945e-06	
212	-5.50000e-01	6.388209e-06	
213	-6.00000e-01	6.754506e-06	
214	-6.50000e-01	7.086094e-06	
215	-7.00000e-01	7.383260e-06	
216	-7.50000e-01	7.646334e-06	
217	-8.00000e-01	7.875734e-06	
218	-8.50000e-01	8.072032e-06	
219	-9.00000e-01	8.236089e-06	
220	-9.50000e-01	8.369301e-06	
221	-1.00000e+00	8.473988e-06	
222	-1.05000e+00	8.553801e-06	
223	-1.10000e+00	8.613732e-06	
224	-1.15000e+00	8.659264e-06	
225	-1.20000e+00	8.695133e-06	
226	-1.25000e+00	8.724684e-06	
227	-1.30000e+00	8.750007e-06	
228	-1.35000e+00	8.772360e-06	

Index   v-sweep         i(vds)          
--------------------------------------------------------------------------------
229	-1.40000e+00	8.792509e-06	
230	-1.45000e+00	8.810941e-06	
231	-1.50000e+00	8.827985e-06	
232	-1.55000e+00	8.843871e-06	
233	-1.60000e+00	8.858771e-06	
234	-1.65000e+00	8.872816e-06	
235	-1.70000e+00	8.886111e-06	
236	-1.75000e+00	8.898738e-06	
237	-1.80000e+00	8.910768e-06	
238	-1.85000e+00	8.922259e-06	
239	-1.90000e+00	8.933260e-06	
240	-1.95000e+00	8.943815e-06	
241	-2.00000e+00	8.953959e-06	
242	-2.05000e+00	8.963726e-06	
243	-2.10000e+00	8.973144e-06	
244	-2.15000e+00	8.982238e-06	
245	-2.20000e+00	8.991032e-06	
246	-2.25000e+00	8.999545e-06	
247	-2.30000e+00	9.007795e-06	
248	-2.35000e+00	9.015800e-06	
249	-2.40000e+00	9.023573e-06	
250	-2.45000e+00	9.031129e-06	
251	-2.50000e+00	9.038480e-06	
252	-2.55000e+00	9.045637e-06	
253	-2.60000e+00	9.052611e-06	
254	-2.65000e+00	9.059412e-06	
255	-2.70000e+00	9.066048e-06	
256	-2.75000e+00	9.072528e-06	
257	-2.80000e+00	9.078858e-06	
258	-2.85000e+00	9.085048e-06	
259	-2.90000e+00	9.091102e-06	
260	-2.95000e+00	9.097029e-06	
261	-3.00000e+00	9.102833e-06	
262	-3.05000e+00	9.108520e-06	
263	-3.10000e+00	9.114097e-06	
264	-3.15000e+00	9.119569e-06	
265	-3.20000e+00	9.124943e-06	
266	-3.25000e+00	9.130223e-06	
267	-3.30000e+00	9.135417e-06	
268	-0.000000e+00	0.000000e+00	
269	-5.00000e-02	9.806153e-07	
270	-1.00000e-01	1.925455e-06	
271	-1.50000e-01	2.834727e-06	
272	-2.00000e-01	3.708638e-06	
273	-2.50000e-01	4.547393e-06	
274	-3.00000e-01	5.351196e-06	
275	-3.50000e-01	6.120251e-06	
276	-4.00000e-01	6.854757e-06	
277	-4.50000e-01	7.554916e-06	
278	-5.00000e-01	8.220927e-06	
279	-5.50000e-01	8.852990e-06	
280	-6.00000e-01	9.451301e-06	
281	-6.50000e-01	1.001606e-05	
282	-7.00000e-01	1.054747e-05	
283	-7.50000e-01	1.104572e-05	
284	-8.00000e-01	1.151102e-05	
285	-8.50000e-01	1.194358e-05	
286	-9.00000e-01	1.234361e-05	

Index   v-sweep         i(vds)          
--------------------------------------------------------------------------------
287	-9.50000e-01	1.271134e-05	
288	-1.00000e+00	1.304701e-05	
289	-1.05000e+00	1.335089e-05	
290	-1.10000e+00	1.362332e-05	
291	-1.15000e+00	1.386470e-05	
292	-1.20000e+00	1.407560e-05	
293	-1.25000e+00	1.425684e-05	
294	-1.30000e+00	1.440965e-05	
295	-1.35000e+00	1.453597e-05	
296	-1.40000e+00	1.463862e-05	
297	-1.45000e+00	1.472138e-05	
298	-1.50000e+00	1.478852e-05	
299	-1.55000e+00	1.484407e-05	
300	-1.60000e+00	1.489128e-05	
301	-1.65000e+00	1.493245e-05	
302	-1.70000e+00	1.496915e-05	
303	-1.75000e+00	1.500240e-05	
304	-1.80000e+00	1.503290e-05	
305	-1.85000e+00	1.506116e-05	
306	-1.90000e+00	1.508752e-05	
307	-1.95000e+00	1.511226e-05	
308	-2.00000e+00	1.513558e-05	
309	-2.05000e+00	1.515767e-05	
310	-2.10000e+00	1.517864e-05	
311	-2.15000e+00	1.519862e-05	
312	-2.20000e+00	1.521771e-05	
313	-2.25000e+00	1.523598e-05	
314	-2.30000e+00	1.525350e-05	
315	-2.35000e+00	1.527035e-05	
316	-2.40000e+00	1.528656e-05	
317	-2.45000e+00	1.530219e-05	
318	-2.50000e+00	1.531728e-05	
319	-2.55000e+00	1.533186e-05	
320	-2.60000e+00	1.534598e-05	
321	-2.65000e+00	1.535966e-05	
322	-2.70000e+00	1.537293e-05	
323	-2.75000e+00	1.538581e-05	
324	-2.80000e+00	1.539833e-05	
325	-2.85000e+00	1.541051e-05	
326	-2.90000e+00	1.542236e-05	
327	-2.95000e+00	1.543391e-05	
328	-3.00000e+00	1.544516e-05	
329	-3.05000e+00	1.545614e-05	
330	-3.10000e+00	1.546686e-05	
331	-3.15000e+00	1.547733e-05	
332	-3.20000e+00	1.548757e-05	
333	-3.25000e+00	1.549758e-05	
334	-3.30000e+00	1.550737e-05	
335	-0.000000e+00	0.000000e+00	
336	-5.00000e-02	1.170577e-06	
337	-1.00000e-01	2.307083e-06	
338	-1.50000e-01	3.409708e-06	
339	-2.00000e-01	4.478640e-06	
340	-2.50000e-01	5.514064e-06	
341	-3.00000e-01	6.516167e-06	
342	-3.50000e-01	7.485132e-06	
343	-4.00000e-01	8.421141e-06	
344	-4.50000e-01	9.324376e-06	

Index   v-sweep         i(vds)          
--------------------------------------------------------------------------------
345	-5.00000e-01	1.019502e-05	
346	-5.50000e-01	1.103324e-05	
347	-6.00000e-01	1.183923e-05	
348	-6.50000e-01	1.261316e-05	
349	-7.00000e-01	1.335521e-05	
350	-7.50000e-01	1.406554e-05	
351	-8.00000e-01	1.474435e-05	
352	-8.50000e-01	1.539179e-05	
353	-9.00000e-01	1.600804e-05	
354	-9.50000e-01	1.659329e-05	
355	-1.00000e+00	1.714769e-05	
356	-1.05000e+00	1.767143e-05	
357	-1.10000e+00	1.816469e-05	
358	-1.15000e+00	1.862764e-05	
359	-1.20000e+00	1.906046e-05	
360	-1.25000e+00	1.946336e-05	
361	-1.30000e+00	1.983654e-05	
362	-1.35000e+00	2.018021e-05	
363	-1.40000e+00	2.049464e-05	
364	-1.45000e+00	2.078012e-05	
365	-1.50000e+00	2.103702e-05	
366	-1.55000e+00	2.126586e-05	
367	-1.60000e+00	2.146731e-05	
368	-1.65000e+00	2.164240e-05	
369	-1.70000e+00	2.179262e-05	
370	-1.75000e+00	2.192008e-05	
371	-1.80000e+00	2.202759e-05	
372	-1.85000e+00	2.211846e-05	
373	-1.90000e+00	2.219605e-05	
374	-1.95000e+00	2.226339e-05	
375	-2.00000e+00	2.232285e-05	
376	-2.05000e+00	2.237622e-05	
377	-2.10000e+00	2.242477e-05	
378	-2.15000e+00	2.246940e-05	
379	-2.20000e+00	2.251079e-05	
380	-2.25000e+00	2.254943e-05	
381	-2.30000e+00	2.258570e-05	
382	-2.35000e+00	2.261991e-05	
383	-2.40000e+00	2.265229e-05	
384	-2.45000e+00	2.268305e-05	
385	-2.50000e+00	2.271235e-05	
386	-2.55000e+00	2.274033e-05	
387	-2.60000e+00	2.276711e-05	
388	-2.65000e+00	2.279279e-05	
389	-2.70000e+00	2.281747e-05	
390	-2.75000e+00	2.284122e-05	
391	-2.80000e+00	2.286412e-05	
392	-2.85000e+00	2.288622e-05	
393	-2.90000e+00	2.290758e-05	
394	-2.95000e+00	2.292824e-05	
395	-3.00000e+00	2.294827e-05	
396	-3.05000e+00	2.296768e-05	
397	-3.10000e+00	2.298653e-05	
398	-3.15000e+00	2.300485e-05	
399	-3.20000e+00	2.302265e-05	
400	-3.25000e+00	2.303999e-05	
401	-3.30000e+00	2.305687e-05	
Note: No ".plot", ".print", or ".fourier" lines; no simulations run
