
Note: Compatibility modes selected: hs

Warning: m=xx on .subckt line will override multiplier m hierarchy!


Circuit: ***************************

Doing analysis at TEMP = 25.000000 and TNOM = 25.000000


No. of Data Rows : 402
                          ***************************
                          DC transfer characteristic  Mon Jan  9 13:57:29  2023
--------------------------------------------------------------------------------
Index   v-sweep         i(vds)          
--------------------------------------------------------------------------------
0	-0.000000e+00	0.000000e+00	
1	-5.00000e-02	3.369183e-08	
2	-1.00000e-01	4.282052e-08	
3	-1.50000e-01	4.437728e-08	
4	-2.00000e-01	4.482338e-08	
5	-2.50000e-01	4.505367e-08	
6	-3.00000e-01	4.521588e-08	
7	-3.50000e-01	4.534800e-08	
8	-4.00000e-01	4.546337e-08	
9	-4.50000e-01	4.556787e-08	
10	-5.00000e-01	4.566454e-08	
11	-5.50000e-01	4.575516e-08	
12	-6.00000e-01	4.584088e-08	
13	-6.50000e-01	4.592250e-08	
14	-7.00000e-01	4.600060e-08	
15	-7.50000e-01	4.607564e-08	
16	-8.00000e-01	4.614796e-08	
17	-8.50000e-01	4.621786e-08	
18	-9.00000e-01	4.628557e-08	
19	-9.50000e-01	4.635131e-08	
20	-1.00000e+00	4.641524e-08	
21	-1.05000e+00	4.647752e-08	
22	-1.10000e+00	4.653827e-08	
23	-1.15000e+00	4.659761e-08	
24	-1.20000e+00	4.665564e-08	
25	-1.25000e+00	4.671246e-08	
26	-1.30000e+00	4.676813e-08	
27	-1.35000e+00	4.682275e-08	
28	-1.40000e+00	4.687637e-08	
29	-1.45000e+00	4.692906e-08	
30	-1.50000e+00	4.698086e-08	
31	-1.55000e+00	4.703183e-08	
32	-1.60000e+00	4.708202e-08	
33	-1.65000e+00	4.713146e-08	
34	-1.70000e+00	4.718020e-08	
35	-1.75000e+00	4.722827e-08	
36	-1.80000e+00	4.727571e-08	
37	-1.85000e+00	4.732254e-08	
38	-1.90000e+00	4.736880e-08	
39	-1.95000e+00	4.741451e-08	
40	-2.00000e+00	4.745970e-08	
41	-2.05000e+00	4.750440e-08	
42	-2.10000e+00	4.754863e-08	
43	-2.15000e+00	4.759242e-08	
44	-2.20000e+00	4.763580e-08	
45	-2.25000e+00	4.767879e-08	
46	-2.30000e+00	4.772142e-08	
47	-2.35000e+00	4.776374e-08	
48	-2.40000e+00	4.780577e-08	
49	-2.45000e+00	4.784756e-08	
50	-2.50000e+00	4.788916e-08	
51	-2.55000e+00	4.793062e-08	
52	-2.60000e+00	4.797200e-08	
53	-2.65000e+00	4.801338e-08	
54	-2.70000e+00	4.805484e-08	

Index   v-sweep         i(vds)          
--------------------------------------------------------------------------------
55	-2.75000e+00	4.809649e-08	
56	-2.80000e+00	4.813843e-08	
57	-2.85000e+00	4.818079e-08	
58	-2.90000e+00	4.822371e-08	
59	-2.95000e+00	4.826737e-08	
60	-3.00000e+00	4.831195e-08	
61	-3.05000e+00	4.835766e-08	
62	-3.10000e+00	4.840473e-08	
63	-3.15000e+00	4.845344e-08	
64	-3.20000e+00	4.850407e-08	
65	-3.25000e+00	4.855695e-08	
66	-3.30000e+00	4.861243e-08	
67	-0.000000e+00	0.000000e+00	
68	-5.00000e-02	4.437256e-07	
69	-1.00000e-01	8.298022e-07	
70	-1.50000e-01	1.158631e-06	
71	-2.00000e-01	1.430718e-06	
72	-2.50000e-01	1.646820e-06	
73	-3.00000e-01	1.808344e-06	
74	-3.50000e-01	1.918435e-06	
75	-4.00000e-01	1.984307e-06	
76	-4.50000e-01	2.018973e-06	
77	-5.00000e-01	2.036868e-06	
78	-5.50000e-01	2.047329e-06	
79	-6.00000e-01	2.054537e-06	
80	-6.50000e-01	2.060154e-06	
81	-7.00000e-01	2.064875e-06	
82	-7.50000e-01	2.069024e-06	
83	-8.00000e-01	2.072770e-06	
84	-8.50000e-01	2.076210e-06	
85	-9.00000e-01	2.079406e-06	
86	-9.50000e-01	2.082400e-06	
87	-1.00000e+00	2.085223e-06	
88	-1.05000e+00	2.087897e-06	
89	-1.10000e+00	2.090441e-06	
90	-1.15000e+00	2.092870e-06	
91	-1.20000e+00	2.095194e-06	
92	-1.25000e+00	2.097424e-06	
93	-1.30000e+00	2.099568e-06	
94	-1.35000e+00	2.101634e-06	
95	-1.40000e+00	2.103628e-06	
96	-1.45000e+00	2.105556e-06	
97	-1.50000e+00	2.107421e-06	
98	-1.55000e+00	2.109230e-06	
99	-1.60000e+00	2.110985e-06	
100	-1.65000e+00	2.112690e-06	
101	-1.70000e+00	2.114349e-06	
102	-1.75000e+00	2.115963e-06	
103	-1.80000e+00	2.117537e-06	
104	-1.85000e+00	2.119071e-06	
105	-1.90000e+00	2.120568e-06	
106	-1.95000e+00	2.122031e-06	
107	-2.00000e+00	2.123461e-06	
108	-2.05000e+00	2.124859e-06	
109	-2.10000e+00	2.126228e-06	
110	-2.15000e+00	2.127569e-06	
111	-2.20000e+00	2.128882e-06	
112	-2.25000e+00	2.130170e-06	

Index   v-sweep         i(vds)          
--------------------------------------------------------------------------------
113	-2.30000e+00	2.131434e-06	
114	-2.35000e+00	2.132674e-06	
115	-2.40000e+00	2.133893e-06	
116	-2.45000e+00	2.135091e-06	
117	-2.50000e+00	2.136269e-06	
118	-2.55000e+00	2.137428e-06	
119	-2.60000e+00	2.138570e-06	
120	-2.65000e+00	2.139697e-06	
121	-2.70000e+00	2.140809e-06	
122	-2.75000e+00	2.141909e-06	
123	-2.80000e+00	2.142998e-06	
124	-2.85000e+00	2.144079e-06	
125	-2.90000e+00	2.145154e-06	
126	-2.95000e+00	2.146226e-06	
127	-3.00000e+00	2.147298e-06	
128	-3.05000e+00	2.148375e-06	
129	-3.10000e+00	2.149461e-06	
130	-3.15000e+00	2.150560e-06	
131	-3.20000e+00	2.151679e-06	
132	-3.25000e+00	2.152824e-06	
133	-3.30000e+00	2.154004e-06	
134	-0.000000e+00	0.000000e+00	
135	-5.00000e-02	8.481387e-07	
136	-1.00000e-01	1.639549e-06	
137	-1.50000e-01	2.374512e-06	
138	-2.00000e-01	3.053310e-06	
139	-2.50000e-01	3.676233e-06	
140	-3.00000e-01	4.243577e-06	
141	-3.50000e-01	4.755650e-06	
142	-4.00000e-01	5.212790e-06	
143	-4.50000e-01	5.615376e-06	
144	-5.00000e-01	5.963875e-06	
145	-5.50000e-01	6.258918e-06	
146	-6.00000e-01	6.501468e-06	
147	-6.50000e-01	6.693177e-06	
148	-7.00000e-01	6.837085e-06	
149	-7.50000e-01	6.938700e-06	
150	-8.00000e-01	7.006702e-06	
151	-8.50000e-01	7.051595e-06	
152	-9.00000e-01	7.082565e-06	
153	-9.50000e-01	7.105650e-06	
154	-1.00000e+00	7.124184e-06	
155	-1.05000e+00	7.139909e-06	
156	-1.10000e+00	7.153752e-06	
157	-1.15000e+00	7.166239e-06	
158	-1.20000e+00	7.177686e-06	
159	-1.25000e+00	7.188302e-06	
160	-1.30000e+00	7.198229e-06	
161	-1.35000e+00	7.207570e-06	
162	-1.40000e+00	7.216403e-06	
163	-1.45000e+00	7.224791e-06	
164	-1.50000e+00	7.232782e-06	
165	-1.55000e+00	7.240418e-06	
166	-1.60000e+00	7.247733e-06	
167	-1.65000e+00	7.254754e-06	
168	-1.70000e+00	7.261509e-06	
169	-1.75000e+00	7.268017e-06	
170	-1.80000e+00	7.274298e-06	

Index   v-sweep         i(vds)          
--------------------------------------------------------------------------------
171	-1.85000e+00	7.280368e-06	
172	-1.90000e+00	7.286243e-06	
173	-1.95000e+00	7.291936e-06	
174	-2.00000e+00	7.297459e-06	
175	-2.05000e+00	7.302822e-06	
176	-2.10000e+00	7.308035e-06	
177	-2.15000e+00	7.313107e-06	
178	-2.20000e+00	7.318046e-06	
179	-2.25000e+00	7.322859e-06	
180	-2.30000e+00	7.327554e-06	
181	-2.35000e+00	7.332136e-06	
182	-2.40000e+00	7.336612e-06	
183	-2.45000e+00	7.340986e-06	
184	-2.50000e+00	7.345263e-06	
185	-2.55000e+00	7.349449e-06	
186	-2.60000e+00	7.353547e-06	
187	-2.65000e+00	7.357563e-06	
188	-2.70000e+00	7.361499e-06	
189	-2.75000e+00	7.365359e-06	
190	-2.80000e+00	7.369149e-06	
191	-2.85000e+00	7.372870e-06	
192	-2.90000e+00	7.376529e-06	
193	-2.95000e+00	7.380128e-06	
194	-3.00000e+00	7.383672e-06	
195	-3.05000e+00	7.387167e-06	
196	-3.10000e+00	7.390618e-06	
197	-3.15000e+00	7.394031e-06	
198	-3.20000e+00	7.397413e-06	
199	-3.25000e+00	7.400773e-06	
200	-3.30000e+00	7.404120e-06	
201	-0.000000e+00	0.000000e+00	
202	-5.00000e-02	1.203619e-06	
203	-1.00000e-01	2.353288e-06	
204	-1.50000e-01	3.449253e-06	
205	-2.00000e-01	4.491758e-06	
206	-2.50000e-01	5.481048e-06	
207	-3.00000e-01	6.417367e-06	
208	-3.50000e-01	7.300958e-06	
209	-4.00000e-01	8.132066e-06	
210	-4.50000e-01	8.910937e-06	
211	-5.00000e-01	9.637819e-06	
212	-5.50000e-01	1.031296e-05	
213	-6.00000e-01	1.093663e-05	
214	-6.50000e-01	1.150910e-05	
215	-7.00000e-01	1.203064e-05	
216	-7.50000e-01	1.250159e-05	
217	-8.00000e-01	1.292232e-05	
218	-8.50000e-01	1.329328e-05	
219	-9.00000e-01	1.361509e-05	
220	-9.50000e-01	1.388865e-05	
221	-1.00000e+00	1.411537e-05	
222	-1.05000e+00	1.429758e-05	
223	-1.10000e+00	1.443908e-05	
224	-1.15000e+00	1.454565e-05	
225	-1.20000e+00	1.462478e-05	
226	-1.25000e+00	1.468431e-05	
227	-1.30000e+00	1.473082e-05	
228	-1.35000e+00	1.476886e-05	

Index   v-sweep         i(vds)          
--------------------------------------------------------------------------------
229	-1.40000e+00	1.480130e-05	
230	-1.45000e+00	1.482984e-05	
231	-1.50000e+00	1.485554e-05	
232	-1.55000e+00	1.487905e-05	
233	-1.60000e+00	1.490080e-05	
234	-1.65000e+00	1.492110e-05	
235	-1.70000e+00	1.494018e-05	
236	-1.75000e+00	1.495819e-05	
237	-1.80000e+00	1.497527e-05	
238	-1.85000e+00	1.499152e-05	
239	-1.90000e+00	1.500704e-05	
240	-1.95000e+00	1.502188e-05	
241	-2.00000e+00	1.503612e-05	
242	-2.05000e+00	1.504980e-05	
243	-2.10000e+00	1.506297e-05	
244	-2.15000e+00	1.507567e-05	
245	-2.20000e+00	1.508793e-05	
246	-2.25000e+00	1.509979e-05	
247	-2.30000e+00	1.511128e-05	
248	-2.35000e+00	1.512241e-05	
249	-2.40000e+00	1.513321e-05	
250	-2.45000e+00	1.514370e-05	
251	-2.50000e+00	1.515390e-05	
252	-2.55000e+00	1.516382e-05	
253	-2.60000e+00	1.517349e-05	
254	-2.65000e+00	1.518291e-05	
255	-2.70000e+00	1.519210e-05	
256	-2.75000e+00	1.520106e-05	
257	-2.80000e+00	1.520982e-05	
258	-2.85000e+00	1.521838e-05	
259	-2.90000e+00	1.522675e-05	
260	-2.95000e+00	1.523494e-05	
261	-3.00000e+00	1.524296e-05	
262	-3.05000e+00	1.525082e-05	
263	-3.10000e+00	1.525852e-05	
264	-3.15000e+00	1.526607e-05	
265	-3.20000e+00	1.527348e-05	
266	-3.25000e+00	1.528076e-05	
267	-3.30000e+00	1.528791e-05	
268	-0.000000e+00	0.000000e+00	
269	-5.00000e-02	1.514205e-06	
270	-1.00000e-01	2.977617e-06	
271	-1.50000e-01	4.390453e-06	
272	-2.00000e-01	5.752931e-06	
273	-2.50000e-01	7.065265e-06	
274	-3.00000e-01	8.327670e-06	
275	-3.50000e-01	9.540361e-06	
276	-4.00000e-01	1.070355e-05	
277	-4.50000e-01	1.181745e-05	
278	-5.00000e-01	1.288227e-05	
279	-5.50000e-01	1.389823e-05	
280	-6.00000e-01	1.486553e-05	
281	-6.50000e-01	1.578438e-05	
282	-7.00000e-01	1.665500e-05	
283	-7.50000e-01	1.747760e-05	
284	-8.00000e-01	1.825240e-05	
285	-8.50000e-01	1.897961e-05	
286	-9.00000e-01	1.965945e-05	

Index   v-sweep         i(vds)          
--------------------------------------------------------------------------------
287	-9.50000e-01	2.029216e-05	
288	-1.00000e+00	2.087797e-05	
289	-1.05000e+00	2.141715e-05	
290	-1.10000e+00	2.190998e-05	
291	-1.15000e+00	2.235679e-05	
292	-1.20000e+00	2.275799e-05	
293	-1.25000e+00	2.311409e-05	
294	-1.30000e+00	2.342581e-05	
295	-1.35000e+00	2.369420e-05	
296	-1.40000e+00	2.392085e-05	
297	-1.45000e+00	2.410822e-05	
298	-1.50000e+00	2.425998e-05	
299	-1.55000e+00	2.438115e-05	
300	-1.60000e+00	2.447776e-05	
301	-1.65000e+00	2.455587e-05	
302	-1.70000e+00	2.462068e-05	
303	-1.75000e+00	2.467606e-05	
304	-1.80000e+00	2.472466e-05	
305	-1.85000e+00	2.476823e-05	
306	-1.90000e+00	2.480792e-05	
307	-1.95000e+00	2.484453e-05	
308	-2.00000e+00	2.487859e-05	
309	-2.05000e+00	2.491051e-05	
310	-2.10000e+00	2.494060e-05	
311	-2.15000e+00	2.496907e-05	
312	-2.20000e+00	2.499613e-05	
313	-2.25000e+00	2.502192e-05	
314	-2.30000e+00	2.504657e-05	
315	-2.35000e+00	2.507018e-05	
316	-2.40000e+00	2.509285e-05	
317	-2.45000e+00	2.511465e-05	
318	-2.50000e+00	2.513565e-05	
319	-2.55000e+00	2.515591e-05	
320	-2.60000e+00	2.517549e-05	
321	-2.65000e+00	2.519444e-05	
322	-2.70000e+00	2.521279e-05	
323	-2.75000e+00	2.523058e-05	
324	-2.80000e+00	2.524785e-05	
325	-2.85000e+00	2.526463e-05	
326	-2.90000e+00	2.528095e-05	
327	-2.95000e+00	2.529683e-05	
328	-3.00000e+00	2.531230e-05	
329	-3.05000e+00	2.532738e-05	
330	-3.10000e+00	2.534209e-05	
331	-3.15000e+00	2.535645e-05	
332	-3.20000e+00	2.537048e-05	
333	-3.25000e+00	2.538418e-05	
334	-3.30000e+00	2.539759e-05	
335	-0.000000e+00	0.000000e+00	
336	-5.00000e-02	1.784849e-06	
337	-1.00000e-01	3.522093e-06	
338	-1.50000e-01	5.211927e-06	
339	-2.00000e-01	6.854543e-06	
340	-2.50000e-01	8.450133e-06	
341	-3.00000e-01	9.998886e-06	
342	-3.50000e-01	1.150099e-05	
343	-4.00000e-01	1.295664e-05	
344	-4.50000e-01	1.436602e-05	

Index   v-sweep         i(vds)          
--------------------------------------------------------------------------------
345	-5.00000e-01	1.572932e-05	
346	-5.50000e-01	1.704672e-05	
347	-6.00000e-01	1.831841e-05	
348	-6.50000e-01	1.954458e-05	
349	-7.00000e-01	2.072540e-05	
350	-7.50000e-01	2.186106e-05	
351	-8.00000e-01	2.295174e-05	
352	-8.50000e-01	2.399763e-05	
353	-9.00000e-01	2.499891e-05	
354	-9.50000e-01	2.595577e-05	
355	-1.00000e+00	2.686837e-05	
356	-1.05000e+00	2.773691e-05	
357	-1.10000e+00	2.856157e-05	
358	-1.15000e+00	2.934254e-05	
359	-1.20000e+00	3.008001e-05	
360	-1.25000e+00	3.077417e-05	
361	-1.30000e+00	3.142521e-05	
362	-1.35000e+00	3.203336e-05	
363	-1.40000e+00	3.259883e-05	
364	-1.45000e+00	3.312186e-05	
365	-1.50000e+00	3.360274e-05	
366	-1.55000e+00	3.404178e-05	
367	-1.60000e+00	3.443939e-05	
368	-1.65000e+00	3.479608e-05	
369	-1.70000e+00	3.511258e-05	
370	-1.75000e+00	3.538989e-05	
371	-1.80000e+00	3.562951e-05	
372	-1.85000e+00	3.583359e-05	
373	-1.90000e+00	3.600522e-05	
374	-1.95000e+00	3.614843e-05	
375	-2.00000e+00	3.626795e-05	
376	-2.05000e+00	3.636870e-05	
377	-2.10000e+00	3.645506e-05	
378	-2.15000e+00	3.653057e-05	
379	-2.20000e+00	3.659784e-05	
380	-2.25000e+00	3.665875e-05	
381	-2.30000e+00	3.671461e-05	
382	-2.35000e+00	3.676634e-05	
383	-2.40000e+00	3.681464e-05	
384	-2.45000e+00	3.686000e-05	
385	-2.50000e+00	3.690282e-05	
386	-2.55000e+00	3.694342e-05	
387	-2.60000e+00	3.698203e-05	
388	-2.65000e+00	3.701887e-05	
389	-2.70000e+00	3.705410e-05	
390	-2.75000e+00	3.708788e-05	
391	-2.80000e+00	3.712032e-05	
392	-2.85000e+00	3.715154e-05	
393	-2.90000e+00	3.718163e-05	
394	-2.95000e+00	3.721067e-05	
395	-3.00000e+00	3.723874e-05	
396	-3.05000e+00	3.726591e-05	
397	-3.10000e+00	3.729223e-05	
398	-3.15000e+00	3.731776e-05	
399	-3.20000e+00	3.734254e-05	
400	-3.25000e+00	3.736663e-05	
401	-3.30000e+00	3.739005e-05	
Note: No ".plot", ".print", or ".fourier" lines; no simulations run
