
Note: Compatibility modes selected: hs

Warning: m=xx on .subckt line will override multiplier m hierarchy!


Circuit: ***************************

Doing analysis at TEMP = -40.000000 and TNOM = -40.000000


No. of Data Rows : 402
                          ***************************
                          DC transfer characteristic  Mon Jan  9 13:57:29  2023
--------------------------------------------------------------------------------
Index   v-sweep         i(vds)          
--------------------------------------------------------------------------------
0	-0.000000e+00	0.000000e+00	
1	-5.00000e-02	1.432841e-08	
2	-1.00000e-01	1.563401e-08	
3	-1.50000e-01	1.587287e-08	
4	-2.00000e-01	1.598209e-08	
5	-2.50000e-01	1.605707e-08	
6	-3.00000e-01	1.611797e-08	
7	-3.50000e-01	1.617129e-08	
8	-4.00000e-01	1.621976e-08	
9	-4.50000e-01	1.626477e-08	
10	-5.00000e-01	1.630713e-08	
11	-5.50000e-01	1.634737e-08	
12	-6.00000e-01	1.638584e-08	
13	-6.50000e-01	1.642281e-08	
14	-7.00000e-01	1.645847e-08	
15	-7.50000e-01	1.649300e-08	
16	-8.00000e-01	1.652652e-08	
17	-8.50000e-01	1.655914e-08	
18	-9.00000e-01	1.659095e-08	
19	-9.50000e-01	1.662201e-08	
20	-1.00000e+00	1.665241e-08	
21	-1.05000e+00	1.668219e-08	
22	-1.10000e+00	1.671140e-08	
23	-1.15000e+00	1.674009e-08	
24	-1.20000e+00	1.676830e-08	
25	-1.25000e+00	1.679606e-08	
26	-1.30000e+00	1.682341e-08	
27	-1.35000e+00	1.685036e-08	
28	-1.40000e+00	1.687695e-08	
29	-1.45000e+00	1.690319e-08	
30	-1.50000e+00	1.692912e-08	
31	-1.55000e+00	1.695473e-08	
32	-1.60000e+00	1.698007e-08	
33	-1.65000e+00	1.700513e-08	
34	-1.70000e+00	1.702994e-08	
35	-1.75000e+00	1.705451e-08	
36	-1.80000e+00	1.707884e-08	
37	-1.85000e+00	1.710296e-08	
38	-1.90000e+00	1.712687e-08	
39	-1.95000e+00	1.715059e-08	
40	-2.00000e+00	1.717412e-08	
41	-2.05000e+00	1.719748e-08	
42	-2.10000e+00	1.722067e-08	
43	-2.15000e+00	1.724370e-08	
44	-2.20000e+00	1.726659e-08	
45	-2.25000e+00	1.728935e-08	
46	-2.30000e+00	1.731199e-08	
47	-2.35000e+00	1.733453e-08	
48	-2.40000e+00	1.735697e-08	
49	-2.45000e+00	1.737935e-08	
50	-2.50000e+00	1.740167e-08	
51	-2.55000e+00	1.742397e-08	
52	-2.60000e+00	1.744627e-08	
53	-2.65000e+00	1.746862e-08	
54	-2.70000e+00	1.749103e-08	

Index   v-sweep         i(vds)          
--------------------------------------------------------------------------------
55	-2.75000e+00	1.751356e-08	
56	-2.80000e+00	1.753627e-08	
57	-2.85000e+00	1.755919e-08	
58	-2.90000e+00	1.758241e-08	
59	-2.95000e+00	1.760600e-08	
60	-3.00000e+00	1.763004e-08	
61	-3.05000e+00	1.765462e-08	
62	-3.10000e+00	1.767986e-08	
63	-3.15000e+00	1.770587e-08	
64	-3.20000e+00	1.773277e-08	
65	-3.25000e+00	1.776073e-08	
66	-3.30000e+00	1.778989e-08	
67	-0.000000e+00	0.000000e+00	
68	-5.00000e-02	9.746671e-07	
69	-1.00000e-01	1.799325e-06	
70	-1.50000e-01	2.475459e-06	
71	-2.00000e-01	3.005213e-06	
72	-2.50000e-01	3.392551e-06	
73	-3.00000e-01	3.646688e-06	
74	-3.50000e-01	3.789626e-06	
75	-4.00000e-01	3.859817e-06	
76	-4.50000e-01	3.894977e-06	
77	-5.00000e-01	3.915839e-06	
78	-5.50000e-01	3.930571e-06	
79	-6.00000e-01	3.942243e-06	
80	-6.50000e-01	3.952128e-06	
81	-7.00000e-01	3.960831e-06	
82	-7.50000e-01	3.968680e-06	
83	-8.00000e-01	3.975870e-06	
84	-8.50000e-01	3.982530e-06	
85	-9.00000e-01	3.988749e-06	
86	-9.50000e-01	3.994593e-06	
87	-1.00000e+00	4.000113e-06	
88	-1.05000e+00	4.005349e-06	
89	-1.10000e+00	4.010332e-06	
90	-1.15000e+00	4.015090e-06	
91	-1.20000e+00	4.019645e-06	
92	-1.25000e+00	4.024016e-06	
93	-1.30000e+00	4.028219e-06	
94	-1.35000e+00	4.032268e-06	
95	-1.40000e+00	4.036176e-06	
96	-1.45000e+00	4.039953e-06	
97	-1.50000e+00	4.043610e-06	
98	-1.55000e+00	4.047154e-06	
99	-1.60000e+00	4.050594e-06	
100	-1.65000e+00	4.053936e-06	
101	-1.70000e+00	4.057186e-06	
102	-1.75000e+00	4.060350e-06	
103	-1.80000e+00	4.063434e-06	
104	-1.85000e+00	4.066442e-06	
105	-1.90000e+00	4.069377e-06	
106	-1.95000e+00	4.072245e-06	
107	-2.00000e+00	4.075049e-06	
108	-2.05000e+00	4.077791e-06	
109	-2.10000e+00	4.080476e-06	
110	-2.15000e+00	4.083106e-06	
111	-2.20000e+00	4.085684e-06	
112	-2.25000e+00	4.088212e-06	

Index   v-sweep         i(vds)          
--------------------------------------------------------------------------------
113	-2.30000e+00	4.090693e-06	
114	-2.35000e+00	4.093130e-06	
115	-2.40000e+00	4.095524e-06	
116	-2.45000e+00	4.097879e-06	
117	-2.50000e+00	4.100197e-06	
118	-2.55000e+00	4.102481e-06	
119	-2.60000e+00	4.104733e-06	
120	-2.65000e+00	4.106957e-06	
121	-2.70000e+00	4.109157e-06	
122	-2.75000e+00	4.111336e-06	
123	-2.80000e+00	4.113501e-06	
124	-2.85000e+00	4.115655e-06	
125	-2.90000e+00	4.117806e-06	
126	-2.95000e+00	4.119960e-06	
127	-3.00000e+00	4.122127e-06	
128	-3.05000e+00	4.124316e-06	
129	-3.10000e+00	4.126539e-06	
130	-3.15000e+00	4.128807e-06	
131	-3.20000e+00	4.131136e-06	
132	-3.25000e+00	4.133542e-06	
133	-3.30000e+00	4.136045e-06	
134	-0.000000e+00	0.000000e+00	
135	-5.00000e-02	1.994774e-06	
136	-1.00000e-01	3.843250e-06	
137	-1.50000e-01	5.546338e-06	
138	-2.00000e-01	7.104955e-06	
139	-2.50000e-01	8.520036e-06	
140	-3.00000e-01	9.792551e-06	
141	-3.50000e-01	1.092353e-05	
142	-4.00000e-01	1.191413e-05	
143	-4.50000e-01	1.276574e-05	
144	-5.00000e-01	1.348022e-05	
145	-5.50000e-01	1.406039e-05	
146	-6.00000e-01	1.451121e-05	
147	-6.50000e-01	1.484191e-05	
148	-7.00000e-01	1.506918e-05	
149	-7.50000e-01	1.521811e-05	
150	-8.00000e-01	1.531629e-05	
151	-8.50000e-01	1.538524e-05	
152	-9.00000e-01	1.543781e-05	
153	-9.50000e-01	1.548073e-05	
154	-1.00000e+00	1.551748e-05	
155	-1.05000e+00	1.554995e-05	
156	-1.10000e+00	1.557925e-05	
157	-1.15000e+00	1.560606e-05	
158	-1.20000e+00	1.563087e-05	
159	-1.25000e+00	1.565399e-05	
160	-1.30000e+00	1.567568e-05	
161	-1.35000e+00	1.569613e-05	
162	-1.40000e+00	1.571549e-05	
163	-1.45000e+00	1.573388e-05	
164	-1.50000e+00	1.575140e-05	
165	-1.55000e+00	1.576815e-05	
166	-1.60000e+00	1.578419e-05	
167	-1.65000e+00	1.579958e-05	
168	-1.70000e+00	1.581438e-05	
169	-1.75000e+00	1.582864e-05	
170	-1.80000e+00	1.584239e-05	

Index   v-sweep         i(vds)          
--------------------------------------------------------------------------------
171	-1.85000e+00	1.585568e-05	
172	-1.90000e+00	1.586854e-05	
173	-1.95000e+00	1.588100e-05	
174	-2.00000e+00	1.589308e-05	
175	-2.05000e+00	1.590481e-05	
176	-2.10000e+00	1.591620e-05	
177	-2.15000e+00	1.592729e-05	
178	-2.20000e+00	1.593808e-05	
179	-2.25000e+00	1.594860e-05	
180	-2.30000e+00	1.595885e-05	
181	-2.35000e+00	1.596886e-05	
182	-2.40000e+00	1.597863e-05	
183	-2.45000e+00	1.598818e-05	
184	-2.50000e+00	1.599752e-05	
185	-2.55000e+00	1.600665e-05	
186	-2.60000e+00	1.601560e-05	
187	-2.65000e+00	1.602436e-05	
188	-2.70000e+00	1.603295e-05	
189	-2.75000e+00	1.604138e-05	
190	-2.80000e+00	1.604966e-05	
191	-2.85000e+00	1.605779e-05	
192	-2.90000e+00	1.606579e-05	
193	-2.95000e+00	1.607367e-05	
194	-3.00000e+00	1.608143e-05	
195	-3.05000e+00	1.608910e-05	
196	-3.10000e+00	1.609669e-05	
197	-3.15000e+00	1.610422e-05	
198	-3.20000e+00	1.611171e-05	
199	-3.25000e+00	1.611918e-05	
200	-3.30000e+00	1.612665e-05	
201	-0.000000e+00	0.000000e+00	
202	-5.00000e-02	2.854147e-06	
203	-1.00000e-01	5.571310e-06	
204	-1.50000e-01	8.152256e-06	
205	-2.00000e-01	1.059775e-05	
206	-2.50000e-01	1.290855e-05	
207	-3.00000e-01	1.508541e-05	
208	-3.50000e-01	1.712909e-05	
209	-4.00000e-01	1.904036e-05	
210	-4.50000e-01	2.081997e-05	
211	-5.00000e-01	2.246870e-05	
212	-5.50000e-01	2.398735e-05	
213	-6.00000e-01	2.537672e-05	
214	-6.50000e-01	2.663769e-05	
215	-7.00000e-01	2.777122e-05	
216	-7.50000e-01	2.877841e-05	
217	-8.00000e-01	2.966061e-05	
218	-8.50000e-01	3.041964e-05	
219	-9.00000e-01	3.105822e-05	
220	-9.50000e-01	3.158064e-05	
221	-1.00000e+00	3.199407e-05	
222	-1.05000e+00	3.231011e-05	
223	-1.10000e+00	3.254559e-05	
224	-1.15000e+00	3.272061e-05	
225	-1.20000e+00	3.285412e-05	
226	-1.25000e+00	3.296048e-05	
227	-1.30000e+00	3.304903e-05	
228	-1.35000e+00	3.312543e-05	

Index   v-sweep         i(vds)          
--------------------------------------------------------------------------------
229	-1.40000e+00	3.319311e-05	
230	-1.45000e+00	3.325419e-05	
231	-1.50000e+00	3.331009e-05	
232	-1.55000e+00	3.336175e-05	
233	-1.60000e+00	3.340988e-05	
234	-1.65000e+00	3.345498e-05	
235	-1.70000e+00	3.349747e-05	
236	-1.75000e+00	3.353766e-05	
237	-1.80000e+00	3.357580e-05	
238	-1.85000e+00	3.361213e-05	
239	-1.90000e+00	3.364680e-05	
240	-1.95000e+00	3.367999e-05	
241	-2.00000e+00	3.371182e-05	
242	-2.05000e+00	3.374240e-05	
243	-2.10000e+00	3.377183e-05	
244	-2.15000e+00	3.380021e-05	
245	-2.20000e+00	3.382761e-05	
246	-2.25000e+00	3.385410e-05	
247	-2.30000e+00	3.387974e-05	
248	-2.35000e+00	3.390458e-05	
249	-2.40000e+00	3.392869e-05	
250	-2.45000e+00	3.395209e-05	
251	-2.50000e+00	3.397485e-05	
252	-2.55000e+00	3.399698e-05	
253	-2.60000e+00	3.401853e-05	
254	-2.65000e+00	3.403954e-05	
255	-2.70000e+00	3.406002e-05	
256	-2.75000e+00	3.408000e-05	
257	-2.80000e+00	3.409952e-05	
258	-2.85000e+00	3.411859e-05	
259	-2.90000e+00	3.413724e-05	
260	-2.95000e+00	3.415548e-05	
261	-3.00000e+00	3.417334e-05	
262	-3.05000e+00	3.419084e-05	
263	-3.10000e+00	3.420800e-05	
264	-3.15000e+00	3.422483e-05	
265	-3.20000e+00	3.424135e-05	
266	-3.25000e+00	3.425759e-05	
267	-3.30000e+00	3.427357e-05	
268	-0.000000e+00	0.000000e+00	
269	-5.00000e-02	3.565168e-06	
270	-1.00000e-01	7.003732e-06	
271	-1.50000e-01	1.031635e-05	
272	-2.00000e-01	1.350366e-05	
273	-2.50000e-01	1.656633e-05	
274	-3.00000e-01	1.950498e-05	
275	-3.50000e-01	2.232027e-05	
276	-4.00000e-01	2.501282e-05	
277	-4.50000e-01	2.758327e-05	
278	-5.00000e-01	3.003226e-05	
279	-5.50000e-01	3.236040e-05	
280	-6.00000e-01	3.456833e-05	
281	-6.50000e-01	3.665668e-05	
282	-7.00000e-01	3.862607e-05	
283	-7.50000e-01	4.047715e-05	
284	-8.00000e-01	4.221054e-05	
285	-8.50000e-01	4.382692e-05	
286	-9.00000e-01	4.532694e-05	

Index   v-sweep         i(vds)          
--------------------------------------------------------------------------------
287	-9.50000e-01	4.671132e-05	
288	-1.00000e+00	4.798080e-05	
289	-1.05000e+00	4.913622e-05	
290	-1.10000e+00	5.017855e-05	
291	-1.15000e+00	5.110895e-05	
292	-1.20000e+00	5.192897e-05	
293	-1.25000e+00	5.264075e-05	
294	-1.30000e+00	5.324752e-05	
295	-1.35000e+00	5.375420e-05	
296	-1.40000e+00	5.416838e-05	
297	-1.45000e+00	5.450099e-05	
298	-1.50000e+00	5.476609e-05	
299	-1.55000e+00	5.497897e-05	
300	-1.60000e+00	5.515359e-05	
301	-1.65000e+00	5.530086e-05	
302	-1.70000e+00	5.542845e-05	
303	-1.75000e+00	5.554150e-05	
304	-1.80000e+00	5.564342e-05	
305	-1.85000e+00	5.573653e-05	
306	-1.90000e+00	5.582246e-05	
307	-1.95000e+00	5.590240e-05	
308	-2.00000e+00	5.597722e-05	
309	-2.05000e+00	5.604762e-05	
310	-2.10000e+00	5.611414e-05	
311	-2.15000e+00	5.617722e-05	
312	-2.20000e+00	5.623724e-05	
313	-2.25000e+00	5.629449e-05	
314	-2.30000e+00	5.634923e-05	
315	-2.35000e+00	5.640170e-05	
316	-2.40000e+00	5.645207e-05	
317	-2.45000e+00	5.650053e-05	
318	-2.50000e+00	5.654721e-05	
319	-2.55000e+00	5.659226e-05	
320	-2.60000e+00	5.663578e-05	
321	-2.65000e+00	5.667789e-05	
322	-2.70000e+00	5.671867e-05	
323	-2.75000e+00	5.675821e-05	
324	-2.80000e+00	5.679659e-05	
325	-2.85000e+00	5.683387e-05	
326	-2.90000e+00	5.687013e-05	
327	-2.95000e+00	5.690541e-05	
328	-3.00000e+00	5.693978e-05	
329	-3.05000e+00	5.697327e-05	
330	-3.10000e+00	5.700594e-05	
331	-3.15000e+00	5.703783e-05	
332	-3.20000e+00	5.706898e-05	
333	-3.25000e+00	5.709942e-05	
334	-3.30000e+00	5.712918e-05	
335	-0.000000e+00	0.000000e+00	
336	-5.00000e-02	4.145793e-06	
337	-1.00000e-01	8.175361e-06	
338	-1.50000e-01	1.208926e-05	
339	-2.00000e-01	1.588805e-05	
340	-2.50000e-01	1.957228e-05	
341	-3.00000e-01	2.314250e-05	
342	-3.50000e-01	2.659924e-05	
343	-4.00000e-01	2.994306e-05	
344	-4.50000e-01	3.317450e-05	

Index   v-sweep         i(vds)          
--------------------------------------------------------------------------------
345	-5.00000e-01	3.629408e-05	
346	-5.50000e-01	3.930234e-05	
347	-6.00000e-01	4.219981e-05	
348	-6.50000e-01	4.498701e-05	
349	-7.00000e-01	4.766448e-05	
350	-7.50000e-01	5.023273e-05	
351	-8.00000e-01	5.269229e-05	
352	-8.50000e-01	5.504368e-05	
353	-9.00000e-01	5.728741e-05	
354	-9.50000e-01	5.942400e-05	
355	-1.00000e+00	6.145398e-05	
356	-1.05000e+00	6.337786e-05	
357	-1.10000e+00	6.519618e-05	
358	-1.15000e+00	6.690947e-05	
359	-1.20000e+00	6.851826e-05	
360	-1.25000e+00	7.002314e-05	
361	-1.30000e+00	7.142468e-05	
362	-1.35000e+00	7.272350e-05	
363	-1.40000e+00	7.392031e-05	
364	-1.45000e+00	7.501588e-05	
365	-1.50000e+00	7.601115e-05	
366	-1.55000e+00	7.690727e-05	
367	-1.60000e+00	7.770579e-05	
368	-1.65000e+00	7.840887e-05	
369	-1.70000e+00	7.901964e-05	
370	-1.75000e+00	7.954269e-05	
371	-1.80000e+00	7.998464e-05	
372	-1.85000e+00	8.035449e-05	
373	-1.90000e+00	8.066326e-05	
374	-1.95000e+00	8.092277e-05	
375	-2.00000e+00	8.114405e-05	
376	-2.05000e+00	8.133624e-05	
377	-2.10000e+00	8.150622e-05	
378	-2.15000e+00	8.165898e-05	
379	-2.20000e+00	8.179808e-05	
380	-2.25000e+00	8.192604e-05	
381	-2.30000e+00	8.204476e-05	
382	-2.35000e+00	8.215562e-05	
383	-2.40000e+00	8.225973e-05	
384	-2.45000e+00	8.235792e-05	
385	-2.50000e+00	8.245090e-05	
386	-2.55000e+00	8.253924e-05	
387	-2.60000e+00	8.262340e-05	
388	-2.65000e+00	8.270379e-05	
389	-2.70000e+00	8.278076e-05	
390	-2.75000e+00	8.285459e-05	
391	-2.80000e+00	8.292554e-05	
392	-2.85000e+00	8.299385e-05	
393	-2.90000e+00	8.305971e-05	
394	-2.95000e+00	8.312330e-05	
395	-3.00000e+00	8.318477e-05	
396	-3.05000e+00	8.324427e-05	
397	-3.10000e+00	8.330192e-05	
398	-3.15000e+00	8.335785e-05	
399	-3.20000e+00	8.341215e-05	
400	-3.25000e+00	8.346492e-05	
401	-3.30000e+00	8.351625e-05	
Note: No ".plot", ".print", or ".fourier" lines; no simulations run
