
Note: Compatibility modes selected: hs

Warning: m=xx on .subckt line will override multiplier m hierarchy!


Circuit: ***************************

Doing analysis at TEMP = -40.000000 and TNOM = -40.000000


No. of Data Rows : 402
                          ***************************
                          DC transfer characteristic  Mon Jan  9 13:57:29  2023
--------------------------------------------------------------------------------
Index   v-sweep         i(vds)          
--------------------------------------------------------------------------------
0	-0.000000e+00	0.000000e+00	
1	-5.00000e-02	2.317651e-08	
2	-1.00000e-01	2.563450e-08	
3	-1.50000e-01	2.617502e-08	
4	-2.00000e-01	2.647939e-08	
5	-2.50000e-01	2.671848e-08	
6	-3.00000e-01	2.692852e-08	
7	-3.50000e-01	2.712153e-08	
8	-4.00000e-01	2.730284e-08	
9	-4.50000e-01	2.747533e-08	
10	-5.00000e-01	2.764081e-08	
11	-5.50000e-01	2.780049e-08	
12	-6.00000e-01	2.795528e-08	
13	-6.50000e-01	2.810584e-08	
14	-7.00000e-01	2.825274e-08	
15	-7.50000e-01	2.839639e-08	
16	-8.00000e-01	2.853717e-08	
17	-8.50000e-01	2.867539e-08	
18	-9.00000e-01	2.881129e-08	
19	-9.50000e-01	2.894511e-08	
20	-1.00000e+00	2.907704e-08	
21	-1.05000e+00	2.920725e-08	
22	-1.10000e+00	2.933588e-08	
23	-1.15000e+00	2.946307e-08	
24	-1.20000e+00	2.958893e-08	
25	-1.25000e+00	2.971358e-08	
26	-1.30000e+00	2.983710e-08	
27	-1.35000e+00	2.995958e-08	
28	-1.40000e+00	3.008109e-08	
29	-1.45000e+00	3.020171e-08	
30	-1.50000e+00	3.032150e-08	
31	-1.55000e+00	3.044052e-08	
32	-1.60000e+00	3.055882e-08	
33	-1.65000e+00	3.067645e-08	
34	-1.70000e+00	3.079345e-08	
35	-1.75000e+00	3.090987e-08	
36	-1.80000e+00	3.102574e-08	
37	-1.85000e+00	3.114111e-08	
38	-1.90000e+00	3.125601e-08	
39	-1.95000e+00	3.137047e-08	
40	-2.00000e+00	3.148452e-08	
41	-2.05000e+00	3.159820e-08	
42	-2.10000e+00	3.171154e-08	
43	-2.15000e+00	3.182457e-08	
44	-2.20000e+00	3.193732e-08	
45	-2.25000e+00	3.204984e-08	
46	-2.30000e+00	3.216217e-08	
47	-2.35000e+00	3.227434e-08	
48	-2.40000e+00	3.238641e-08	
49	-2.45000e+00	3.249844e-08	
50	-2.50000e+00	3.261048e-08	
51	-2.55000e+00	3.272262e-08	
52	-2.60000e+00	3.283493e-08	
53	-2.65000e+00	3.294750e-08	
54	-2.70000e+00	3.306045e-08	

Index   v-sweep         i(vds)          
--------------------------------------------------------------------------------
55	-2.75000e+00	3.317389e-08	
56	-2.80000e+00	3.328796e-08	
57	-2.85000e+00	3.340280e-08	
58	-2.90000e+00	3.351861e-08	
59	-2.95000e+00	3.363555e-08	
60	-3.00000e+00	3.375385e-08	
61	-3.05000e+00	3.387374e-08	
62	-3.10000e+00	3.399548e-08	
63	-3.15000e+00	3.411936e-08	
64	-3.20000e+00	3.424569e-08	
65	-3.25000e+00	3.437480e-08	
66	-3.30000e+00	3.450708e-08	
67	-0.000000e+00	0.000000e+00	
68	-5.00000e-02	1.916772e-06	
69	-1.00000e-01	3.566901e-06	
70	-1.50000e-01	4.954510e-06	
71	-2.00000e-01	6.084298e-06	
72	-2.50000e-01	6.962509e-06	
73	-3.00000e-01	7.599658e-06	
74	-3.50000e-01	8.017745e-06	
75	-4.00000e-01	8.262181e-06	
76	-4.50000e-01	8.399073e-06	
77	-5.00000e-01	8.483936e-06	
78	-5.50000e-01	8.545404e-06	
79	-6.00000e-01	8.595187e-06	
80	-6.50000e-01	8.638123e-06	
81	-7.00000e-01	8.676464e-06	
82	-7.50000e-01	8.711418e-06	
83	-8.00000e-01	8.743711e-06	
84	-8.50000e-01	8.773828e-06	
85	-9.00000e-01	8.802115e-06	
86	-9.50000e-01	8.828829e-06	
87	-1.00000e+00	8.854172e-06	
88	-1.05000e+00	8.878308e-06	
89	-1.10000e+00	8.901367e-06	
90	-1.15000e+00	8.923461e-06	
91	-1.20000e+00	8.944684e-06	
92	-1.25000e+00	8.965115e-06	
93	-1.30000e+00	8.984823e-06	
94	-1.35000e+00	9.003870e-06	
95	-1.40000e+00	9.022307e-06	
96	-1.45000e+00	9.040181e-06	
97	-1.50000e+00	9.057534e-06	
98	-1.55000e+00	9.074403e-06	
99	-1.60000e+00	9.090820e-06	
100	-1.65000e+00	9.106816e-06	
101	-1.70000e+00	9.122417e-06	
102	-1.75000e+00	9.137648e-06	
103	-1.80000e+00	9.152531e-06	
104	-1.85000e+00	9.167086e-06	
105	-1.90000e+00	9.181332e-06	
106	-1.95000e+00	9.195285e-06	
107	-2.00000e+00	9.208963e-06	
108	-2.05000e+00	9.222378e-06	
109	-2.10000e+00	9.235544e-06	
110	-2.15000e+00	9.248475e-06	
111	-2.20000e+00	9.261182e-06	
112	-2.25000e+00	9.273676e-06	

Index   v-sweep         i(vds)          
--------------------------------------------------------------------------------
113	-2.30000e+00	9.285968e-06	
114	-2.35000e+00	9.298068e-06	
115	-2.40000e+00	9.309986e-06	
116	-2.45000e+00	9.321733e-06	
117	-2.50000e+00	9.333319e-06	
118	-2.55000e+00	9.344755e-06	
119	-2.60000e+00	9.356052e-06	
120	-2.65000e+00	9.367223e-06	
121	-2.70000e+00	9.378280e-06	
122	-2.75000e+00	9.389239e-06	
123	-2.80000e+00	9.400115e-06	
124	-2.85000e+00	9.410928e-06	
125	-2.90000e+00	9.421698e-06	
126	-2.95000e+00	9.432448e-06	
127	-3.00000e+00	9.443205e-06	
128	-3.05000e+00	9.453998e-06	
129	-3.10000e+00	9.464861e-06	
130	-3.15000e+00	9.475832e-06	
131	-3.20000e+00	9.486952e-06	
132	-3.25000e+00	9.498268e-06	
133	-3.30000e+00	9.509833e-06	
134	-0.000000e+00	0.000000e+00	
135	-5.00000e-02	3.836869e-06	
136	-1.00000e-01	7.408594e-06	
137	-1.50000e-01	1.071837e-05	
138	-2.00000e-01	1.376938e-05	
139	-2.50000e-01	1.656475e-05	
140	-3.00000e-01	1.910763e-05	
141	-3.50000e-01	2.140118e-05	
142	-4.00000e-01	2.344866e-05	
143	-4.50000e-01	2.525345e-05	
144	-5.00000e-01	2.681934e-05	
145	-5.50000e-01	2.815082e-05	
146	-6.00000e-01	2.925391e-05	
147	-6.50000e-01	3.013787e-05	
148	-7.00000e-01	3.081835e-05	
149	-7.50000e-01	3.132195e-05	
150	-8.00000e-01	3.168762e-05	
151	-8.50000e-01	3.195885e-05	
152	-9.00000e-01	3.217109e-05	
153	-9.50000e-01	3.234688e-05	
154	-1.00000e+00	3.249893e-05	
155	-1.05000e+00	3.263430e-05	
156	-1.10000e+00	3.275716e-05	
157	-1.15000e+00	3.287013e-05	
158	-1.20000e+00	3.297500e-05	
159	-1.25000e+00	3.307306e-05	
160	-1.30000e+00	3.316526e-05	
161	-1.35000e+00	3.325237e-05	
162	-1.40000e+00	3.333499e-05	
163	-1.45000e+00	3.341362e-05	
164	-1.50000e+00	3.348866e-05	
165	-1.55000e+00	3.356047e-05	
166	-1.60000e+00	3.362935e-05	
167	-1.65000e+00	3.369555e-05	
168	-1.70000e+00	3.375930e-05	
169	-1.75000e+00	3.382079e-05	
170	-1.80000e+00	3.388020e-05	

Index   v-sweep         i(vds)          
--------------------------------------------------------------------------------
171	-1.85000e+00	3.393767e-05	
172	-1.90000e+00	3.399336e-05	
173	-1.95000e+00	3.404738e-05	
174	-2.00000e+00	3.409983e-05	
175	-2.05000e+00	3.415083e-05	
176	-2.10000e+00	3.420046e-05	
177	-2.15000e+00	3.424880e-05	
178	-2.20000e+00	3.429593e-05	
179	-2.25000e+00	3.434192e-05	
180	-2.30000e+00	3.438682e-05	
181	-2.35000e+00	3.443071e-05	
182	-2.40000e+00	3.447362e-05	
183	-2.45000e+00	3.451562e-05	
184	-2.50000e+00	3.455674e-05	
185	-2.55000e+00	3.459703e-05	
186	-2.60000e+00	3.463654e-05	
187	-2.65000e+00	3.467530e-05	
188	-2.70000e+00	3.471334e-05	
189	-2.75000e+00	3.475071e-05	
190	-2.80000e+00	3.478744e-05	
191	-2.85000e+00	3.482357e-05	
192	-2.90000e+00	3.485914e-05	
193	-2.95000e+00	3.489418e-05	
194	-3.00000e+00	3.492874e-05	
195	-3.05000e+00	3.496287e-05	
196	-3.10000e+00	3.499661e-05	
197	-3.15000e+00	3.503002e-05	
198	-3.20000e+00	3.506317e-05	
199	-3.25000e+00	3.509612e-05	
200	-3.30000e+00	3.512895e-05	
201	-0.000000e+00	0.000000e+00	
202	-5.00000e-02	5.393916e-06	
203	-1.00000e-01	1.053536e-05	
204	-1.50000e-01	1.542708e-05	
205	-2.00000e-01	2.007177e-05	
206	-2.50000e-01	2.447209e-05	
207	-3.00000e-01	2.863067e-05	
208	-3.50000e-01	3.255012e-05	
209	-4.00000e-01	3.623301e-05	
210	-4.50000e-01	3.968189e-05	
211	-5.00000e-01	4.289929e-05	
212	-5.50000e-01	4.588773e-05	
213	-6.00000e-01	4.864973e-05	
214	-6.50000e-01	5.118784e-05	
215	-7.00000e-01	5.350466e-05	
216	-7.50000e-01	5.560290e-05	
217	-8.00000e-01	5.748548e-05	
218	-8.50000e-01	5.915570e-05	
219	-9.00000e-01	6.061756e-05	
220	-9.50000e-01	6.187636e-05	
221	-1.00000e+00	6.293981e-05	
222	-1.05000e+00	6.381978e-05	
223	-1.10000e+00	6.453454e-05	
224	-1.15000e+00	6.510987e-05	
225	-1.20000e+00	6.557640e-05	
226	-1.25000e+00	6.596350e-05	
227	-1.30000e+00	6.629430e-05	
228	-1.35000e+00	6.658468e-05	

Index   v-sweep         i(vds)          
--------------------------------------------------------------------------------
229	-1.40000e+00	6.684498e-05	
230	-1.45000e+00	6.708195e-05	
231	-1.50000e+00	6.730015e-05	
232	-1.55000e+00	6.750279e-05	
233	-1.60000e+00	6.769225e-05	
234	-1.65000e+00	6.787035e-05	
235	-1.70000e+00	6.803852e-05	
236	-1.75000e+00	6.819792e-05	
237	-1.80000e+00	6.834950e-05	
238	-1.85000e+00	6.849406e-05	
239	-1.90000e+00	6.863227e-05	
240	-1.95000e+00	6.876472e-05	
241	-2.00000e+00	6.889191e-05	
242	-2.05000e+00	6.901427e-05	
243	-2.10000e+00	6.913219e-05	
244	-2.15000e+00	6.924600e-05	
245	-2.20000e+00	6.935601e-05	
246	-2.25000e+00	6.946249e-05	
247	-2.30000e+00	6.956566e-05	
248	-2.35000e+00	6.966576e-05	
249	-2.40000e+00	6.976298e-05	
250	-2.45000e+00	6.985749e-05	
251	-2.50000e+00	6.994945e-05	
252	-2.55000e+00	7.003902e-05	
253	-2.60000e+00	7.012633e-05	
254	-2.65000e+00	7.021150e-05	
255	-2.70000e+00	7.029465e-05	
256	-2.75000e+00	7.037588e-05	
257	-2.80000e+00	7.045529e-05	
258	-2.85000e+00	7.053297e-05	
259	-2.90000e+00	7.060901e-05	
260	-2.95000e+00	7.068348e-05	
261	-3.00000e+00	7.075647e-05	
262	-3.05000e+00	7.082804e-05	
263	-3.10000e+00	7.089827e-05	
264	-3.15000e+00	7.096724e-05	
265	-3.20000e+00	7.103500e-05	
266	-3.25000e+00	7.110164e-05	
267	-3.30000e+00	7.116722e-05	
268	-0.000000e+00	0.000000e+00	
269	-5.00000e-02	6.648192e-06	
270	-1.00000e-01	1.305933e-05	
271	-1.50000e-01	1.923575e-05	
272	-2.00000e-01	2.517976e-05	
273	-2.50000e-01	3.089366e-05	
274	-3.00000e-01	3.637968e-05	
275	-3.50000e-01	4.164005e-05	
276	-4.00000e-01	4.667697e-05	
277	-4.50000e-01	5.149262e-05	
278	-5.00000e-01	5.608914e-05	
279	-5.50000e-01	6.046864e-05	
280	-6.00000e-01	6.463323e-05	
281	-6.50000e-01	6.858499e-05	
282	-7.00000e-01	7.232598e-05	
283	-7.50000e-01	7.585824e-05	
284	-8.00000e-01	7.918380e-05	
285	-8.50000e-01	8.230469e-05	
286	-9.00000e-01	8.522294e-05	

Index   v-sweep         i(vds)          
--------------------------------------------------------------------------------
287	-9.50000e-01	8.794060e-05	
288	-1.00000e+00	9.045975e-05	
289	-1.05000e+00	9.278255e-05	
290	-1.10000e+00	9.491127e-05	
291	-1.15000e+00	9.684839e-05	
292	-1.20000e+00	9.859676e-05	
293	-1.25000e+00	1.001598e-04	
294	-1.30000e+00	1.015421e-04	
295	-1.35000e+00	1.027500e-04	
296	-1.40000e+00	1.037925e-04	
297	-1.45000e+00	1.046831e-04	
298	-1.50000e+00	1.054399e-04	
299	-1.55000e+00	1.060850e-04	
300	-1.60000e+00	1.066411e-04	
301	-1.65000e+00	1.071285e-04	
302	-1.70000e+00	1.075628e-04	
303	-1.75000e+00	1.079557e-04	
304	-1.80000e+00	1.083153e-04	
305	-1.85000e+00	1.086475e-04	
306	-1.90000e+00	1.089568e-04	
307	-1.95000e+00	1.092464e-04	
308	-2.00000e+00	1.095189e-04	
309	-2.05000e+00	1.097764e-04	
310	-2.10000e+00	1.100207e-04	
311	-2.15000e+00	1.102531e-04	
312	-2.20000e+00	1.104747e-04	
313	-2.25000e+00	1.106867e-04	
314	-2.30000e+00	1.108899e-04	
315	-2.35000e+00	1.110849e-04	
316	-2.40000e+00	1.112726e-04	
317	-2.45000e+00	1.114534e-04	
318	-2.50000e+00	1.116280e-04	
319	-2.55000e+00	1.117966e-04	
320	-2.60000e+00	1.119598e-04	
321	-2.65000e+00	1.121179e-04	
322	-2.70000e+00	1.122713e-04	
323	-2.75000e+00	1.124202e-04	
324	-2.80000e+00	1.125649e-04	
325	-2.85000e+00	1.127056e-04	
326	-2.90000e+00	1.128427e-04	
327	-2.95000e+00	1.129762e-04	
328	-3.00000e+00	1.131065e-04	
329	-3.05000e+00	1.132336e-04	
330	-3.10000e+00	1.133577e-04	
331	-3.15000e+00	1.134790e-04	
332	-3.20000e+00	1.135976e-04	
333	-3.25000e+00	1.137136e-04	
334	-3.30000e+00	1.138272e-04	
335	-0.000000e+00	0.000000e+00	
336	-5.00000e-02	7.655098e-06	
337	-1.00000e-01	1.508912e-05	
338	-1.50000e-01	2.230408e-05	
339	-2.00000e-01	2.930194e-05	
340	-2.50000e-01	3.608466e-05	
341	-3.00000e-01	4.265416e-05	
342	-3.50000e-01	4.901236e-05	
343	-4.00000e-01	5.516114e-05	
344	-4.50000e-01	6.110237e-05	

Index   v-sweep         i(vds)          
--------------------------------------------------------------------------------
345	-5.00000e-01	6.683787e-05	
346	-5.50000e-01	7.236949e-05	
347	-6.00000e-01	7.769901e-05	
348	-6.50000e-01	8.282822e-05	
349	-7.00000e-01	8.775888e-05	
350	-7.50000e-01	9.249273e-05	
351	-8.00000e-01	9.703150e-05	
352	-8.50000e-01	1.013769e-04	
353	-9.00000e-01	1.055306e-04	
354	-9.50000e-01	1.094943e-04	
355	-1.00000e+00	1.132697e-04	
356	-1.05000e+00	1.168584e-04	
357	-1.10000e+00	1.202620e-04	
358	-1.15000e+00	1.234822e-04	
359	-1.20000e+00	1.265207e-04	
360	-1.25000e+00	1.293791e-04	
361	-1.30000e+00	1.320591e-04	
362	-1.35000e+00	1.345623e-04	
363	-1.40000e+00	1.368906e-04	
364	-1.45000e+00	1.390460e-04	
365	-1.50000e+00	1.410304e-04	
366	-1.55000e+00	1.428463e-04	
367	-1.60000e+00	1.444966e-04	
368	-1.65000e+00	1.459851e-04	
369	-1.70000e+00	1.473169e-04	
370	-1.75000e+00	1.484989e-04	
371	-1.80000e+00	1.495411e-04	
372	-1.85000e+00	1.504567e-04	
373	-1.90000e+00	1.512618e-04	
374	-1.95000e+00	1.519739e-04	
375	-2.00000e+00	1.526098e-04	
376	-2.05000e+00	1.531838e-04	
377	-2.10000e+00	1.537073e-04	
378	-2.15000e+00	1.541893e-04	
379	-2.20000e+00	1.546364e-04	
380	-2.25000e+00	1.550537e-04	
381	-2.30000e+00	1.554453e-04	
382	-2.35000e+00	1.558144e-04	
383	-2.40000e+00	1.561637e-04	
384	-2.45000e+00	1.564954e-04	
385	-2.50000e+00	1.568111e-04	
386	-2.55000e+00	1.571125e-04	
387	-2.60000e+00	1.574009e-04	
388	-2.65000e+00	1.576775e-04	
389	-2.70000e+00	1.579431e-04	
390	-2.75000e+00	1.581988e-04	
391	-2.80000e+00	1.584452e-04	
392	-2.85000e+00	1.586830e-04	
393	-2.90000e+00	1.589129e-04	
394	-2.95000e+00	1.591354e-04	
395	-3.00000e+00	1.593509e-04	
396	-3.05000e+00	1.595600e-04	
397	-3.10000e+00	1.597631e-04	
398	-3.15000e+00	1.599604e-04	
399	-3.20000e+00	1.601523e-04	
400	-3.25000e+00	1.603392e-04	
401	-3.30000e+00	1.605212e-04	
Note: No ".plot", ".print", or ".fourier" lines; no simulations run
