
Note: Compatibility modes selected: hs

Warning: m=xx on .subckt line will override multiplier m hierarchy!


Circuit: ***************************

Doing analysis at TEMP = 125.000000 and TNOM = 125.000000


No. of Data Rows : 402
                          ***************************
                          DC transfer characteristic  Mon Jan  9 13:57:29  2023
--------------------------------------------------------------------------------
Index   v-sweep         i(vds)          
--------------------------------------------------------------------------------
0	-0.000000e+00	0.000000e+00	
1	-5.00000e-02	1.575062e-06	
2	-1.00000e-01	2.448643e-06	
3	-1.50000e-01	2.797120e-06	
4	-2.00000e-01	2.893732e-06	
5	-2.50000e-01	2.923843e-06	
6	-3.00000e-01	2.938058e-06	
7	-3.50000e-01	2.947254e-06	
8	-4.00000e-01	2.954338e-06	
9	-4.50000e-01	2.960311e-06	
10	-5.00000e-01	2.965597e-06	
11	-5.50000e-01	2.970408e-06	
12	-6.00000e-01	2.974862e-06	
13	-6.50000e-01	2.979035e-06	
14	-7.00000e-01	2.982975e-06	
15	-7.50000e-01	2.986719e-06	
16	-8.00000e-01	2.990293e-06	
17	-8.50000e-01	2.993719e-06	
18	-9.00000e-01	2.997012e-06	
19	-9.50000e-01	3.000187e-06	
20	-1.00000e+00	3.003255e-06	
21	-1.05000e+00	3.006225e-06	
22	-1.10000e+00	3.009106e-06	
23	-1.15000e+00	3.011906e-06	
24	-1.20000e+00	3.014630e-06	
25	-1.25000e+00	3.017284e-06	
26	-1.30000e+00	3.019873e-06	
27	-1.35000e+00	3.022401e-06	
28	-1.40000e+00	3.024873e-06	
29	-1.45000e+00	3.027292e-06	
30	-1.50000e+00	3.029661e-06	
31	-1.55000e+00	3.031983e-06	
32	-1.60000e+00	3.034261e-06	
33	-1.65000e+00	3.036498e-06	
34	-1.70000e+00	3.038695e-06	
35	-1.75000e+00	3.040854e-06	
36	-1.80000e+00	3.042978e-06	
37	-1.85000e+00	3.045068e-06	
38	-1.90000e+00	3.047127e-06	
39	-1.95000e+00	3.049155e-06	
40	-2.00000e+00	3.051154e-06	
41	-2.05000e+00	3.053125e-06	
42	-2.10000e+00	3.055071e-06	
43	-2.15000e+00	3.056991e-06	
44	-2.20000e+00	3.058889e-06	
45	-2.25000e+00	3.060765e-06	
46	-2.30000e+00	3.062621e-06	
47	-2.35000e+00	3.064458e-06	
48	-2.40000e+00	3.066280e-06	
49	-2.45000e+00	3.068087e-06	
50	-2.50000e+00	3.069882e-06	
51	-2.55000e+00	3.071669e-06	
52	-2.60000e+00	3.073451e-06	
53	-2.65000e+00	3.075232e-06	
54	-2.70000e+00	3.077016e-06	

Index   v-sweep         i(vds)          
--------------------------------------------------------------------------------
55	-2.75000e+00	3.078810e-06	
56	-2.80000e+00	3.080619e-06	
57	-2.85000e+00	3.082450e-06	
58	-2.90000e+00	3.084313e-06	
59	-2.95000e+00	3.086218e-06	
60	-3.00000e+00	3.088174e-06	
61	-3.05000e+00	3.090195e-06	
62	-3.10000e+00	3.092296e-06	
63	-3.15000e+00	3.094491e-06	
64	-3.20000e+00	3.096800e-06	
65	-3.25000e+00	3.099242e-06	
66	-3.30000e+00	3.101840e-06	
67	-0.000000e+00	0.000000e+00	
68	-5.00000e-02	8.054503e-06	
69	-1.00000e-01	1.518564e-05	
70	-1.50000e-01	2.145283e-05	
71	-2.00000e-01	2.687393e-05	
72	-2.50000e-01	3.145815e-05	
73	-3.00000e-01	3.521500e-05	
74	-3.50000e-01	3.815954e-05	
75	-4.00000e-01	4.032163e-05	
76	-4.50000e-01	4.176651e-05	
77	-5.00000e-01	4.262576e-05	
78	-5.50000e-01	4.309482e-05	
79	-6.00000e-01	4.335667e-05	
80	-6.50000e-01	4.352153e-05	
81	-7.00000e-01	4.364028e-05	
82	-7.50000e-01	4.373484e-05	
83	-8.00000e-01	4.381509e-05	
84	-8.50000e-01	4.388593e-05	
85	-9.00000e-01	4.395004e-05	
86	-9.50000e-01	4.400900e-05	
87	-1.00000e+00	4.406384e-05	
88	-1.05000e+00	4.411526e-05	
89	-1.10000e+00	4.416379e-05	
90	-1.15000e+00	4.420980e-05	
91	-1.20000e+00	4.425361e-05	
92	-1.25000e+00	4.429544e-05	
93	-1.30000e+00	4.433551e-05	
94	-1.35000e+00	4.437399e-05	
95	-1.40000e+00	4.441101e-05	
96	-1.45000e+00	4.444670e-05	
97	-1.50000e+00	4.448116e-05	
98	-1.55000e+00	4.451449e-05	
99	-1.60000e+00	4.454677e-05	
100	-1.65000e+00	4.457808e-05	
101	-1.70000e+00	4.460848e-05	
102	-1.75000e+00	4.463802e-05	
103	-1.80000e+00	4.466677e-05	
104	-1.85000e+00	4.469477e-05	
105	-1.90000e+00	4.472206e-05	
106	-1.95000e+00	4.474869e-05	
107	-2.00000e+00	4.477469e-05	
108	-2.05000e+00	4.480009e-05	
109	-2.10000e+00	4.482493e-05	
110	-2.15000e+00	4.484923e-05	
111	-2.20000e+00	4.487302e-05	
112	-2.25000e+00	4.489633e-05	

Index   v-sweep         i(vds)          
--------------------------------------------------------------------------------
113	-2.30000e+00	4.491918e-05	
114	-2.35000e+00	4.494159e-05	
115	-2.40000e+00	4.496359e-05	
116	-2.45000e+00	4.498519e-05	
117	-2.50000e+00	4.500642e-05	
118	-2.55000e+00	4.502729e-05	
119	-2.60000e+00	4.504783e-05	
120	-2.65000e+00	4.506807e-05	
121	-2.70000e+00	4.508803e-05	
122	-2.75000e+00	4.510774e-05	
123	-2.80000e+00	4.512722e-05	
124	-2.85000e+00	4.514653e-05	
125	-2.90000e+00	4.516571e-05	
126	-2.95000e+00	4.518480e-05	
127	-3.00000e+00	4.520386e-05	
128	-3.05000e+00	4.522297e-05	
129	-3.10000e+00	4.524221e-05	
130	-3.15000e+00	4.526167e-05	
131	-3.20000e+00	4.528146e-05	
132	-3.25000e+00	4.530170e-05	
133	-3.30000e+00	4.532255e-05	
134	-0.000000e+00	0.000000e+00	
135	-5.00000e-02	1.398899e-05	
136	-1.00000e-01	2.707816e-05	
137	-1.50000e-01	3.932588e-05	
138	-2.00000e-01	5.074841e-05	
139	-2.50000e-01	6.135220e-05	
140	-3.00000e-01	7.114148e-05	
141	-3.50000e-01	8.012006e-05	
142	-4.00000e-01	8.829177e-05	
143	-4.50000e-01	9.566071e-05	
144	-5.00000e-01	1.022315e-04	
145	-5.50000e-01	1.080094e-04	
146	-6.00000e-01	1.130016e-04	
147	-6.50000e-01	1.172181e-04	
148	-7.00000e-01	1.206748e-04	
149	-7.50000e-01	1.233993e-04	
150	-8.00000e-01	1.254417e-04	
151	-8.50000e-01	1.268883e-04	
152	-9.00000e-01	1.278670e-04	
153	-9.50000e-01	1.285241e-04	
154	-1.00000e+00	1.289842e-04	
155	-1.05000e+00	1.293298e-04	
156	-1.10000e+00	1.296078e-04	
157	-1.15000e+00	1.298435e-04	
158	-1.20000e+00	1.300507e-04	
159	-1.25000e+00	1.302373e-04	
160	-1.30000e+00	1.304082e-04	
161	-1.35000e+00	1.305667e-04	
162	-1.40000e+00	1.307148e-04	
163	-1.45000e+00	1.308542e-04	
164	-1.50000e+00	1.309861e-04	
165	-1.55000e+00	1.311114e-04	
166	-1.60000e+00	1.312308e-04	
167	-1.65000e+00	1.313449e-04	
168	-1.70000e+00	1.314543e-04	
169	-1.75000e+00	1.315594e-04	
170	-1.80000e+00	1.316605e-04	

Index   v-sweep         i(vds)          
--------------------------------------------------------------------------------
171	-1.85000e+00	1.317580e-04	
172	-1.90000e+00	1.318521e-04	
173	-1.95000e+00	1.319432e-04	
174	-2.00000e+00	1.320313e-04	
175	-2.05000e+00	1.321168e-04	
176	-2.10000e+00	1.321997e-04	
177	-2.15000e+00	1.322803e-04	
178	-2.20000e+00	1.323586e-04	
179	-2.25000e+00	1.324349e-04	
180	-2.30000e+00	1.325092e-04	
181	-2.35000e+00	1.325817e-04	
182	-2.40000e+00	1.326524e-04	
183	-2.45000e+00	1.327214e-04	
184	-2.50000e+00	1.327888e-04	
185	-2.55000e+00	1.328548e-04	
186	-2.60000e+00	1.329193e-04	
187	-2.65000e+00	1.329824e-04	
188	-2.70000e+00	1.330443e-04	
189	-2.75000e+00	1.331049e-04	
190	-2.80000e+00	1.331644e-04	
191	-2.85000e+00	1.332227e-04	
192	-2.90000e+00	1.332800e-04	
193	-2.95000e+00	1.333363e-04	
194	-3.00000e+00	1.333917e-04	
195	-3.05000e+00	1.334462e-04	
196	-3.10000e+00	1.335000e-04	
197	-3.15000e+00	1.335531e-04	
198	-3.20000e+00	1.336056e-04	
199	-3.25000e+00	1.336577e-04	
200	-3.30000e+00	1.337094e-04	
201	-0.000000e+00	0.000000e+00	
202	-5.00000e-02	1.916298e-05	
203	-1.00000e-01	3.747167e-05	
204	-1.50000e-01	5.498402e-05	
205	-2.00000e-01	7.171577e-05	
206	-2.50000e-01	8.767286e-05	
207	-3.00000e-01	1.028590e-04	
208	-3.50000e-01	1.172772e-04	
209	-4.00000e-01	1.309305e-04	
210	-4.50000e-01	1.438219e-04	
211	-5.00000e-01	1.559544e-04	
212	-5.50000e-01	1.673310e-04	
213	-6.00000e-01	1.779548e-04	
214	-6.50000e-01	1.878289e-04	
215	-7.00000e-01	1.969565e-04	
216	-7.50000e-01	2.053412e-04	
217	-8.00000e-01	2.129867e-04	
218	-8.50000e-01	2.198973e-04	
219	-9.00000e-01	2.260781e-04	
220	-9.50000e-01	2.315354e-04	
221	-1.00000e+00	2.362781e-04	
222	-1.05000e+00	2.403192e-04	
223	-1.10000e+00	2.436793e-04	
224	-1.15000e+00	2.463915e-04	
225	-1.20000e+00	2.485096e-04	
226	-1.25000e+00	2.501140e-04	
227	-1.30000e+00	2.513091e-04	
228	-1.35000e+00	2.522062e-04	

Index   v-sweep         i(vds)          
--------------------------------------------------------------------------------
229	-1.40000e+00	2.529013e-04	
230	-1.45000e+00	2.534638e-04	
231	-1.50000e+00	2.539386e-04	
232	-1.55000e+00	2.543529e-04	
233	-1.60000e+00	2.547237e-04	
234	-1.65000e+00	2.550613e-04	
235	-1.70000e+00	2.553729e-04	
236	-1.75000e+00	2.556631e-04	
237	-1.80000e+00	2.559354e-04	
238	-1.85000e+00	2.561923e-04	
239	-1.90000e+00	2.564358e-04	
240	-1.95000e+00	2.566675e-04	
241	-2.00000e+00	2.568886e-04	
242	-2.05000e+00	2.571002e-04	
243	-2.10000e+00	2.573031e-04	
244	-2.15000e+00	2.574982e-04	
245	-2.20000e+00	2.576860e-04	
246	-2.25000e+00	2.578671e-04	
247	-2.30000e+00	2.580421e-04	
248	-2.35000e+00	2.582114e-04	
249	-2.40000e+00	2.583753e-04	
250	-2.45000e+00	2.585342e-04	
251	-2.50000e+00	2.586885e-04	
252	-2.55000e+00	2.588384e-04	
253	-2.60000e+00	2.589842e-04	
254	-2.65000e+00	2.591261e-04	
255	-2.70000e+00	2.592643e-04	
256	-2.75000e+00	2.593991e-04	
257	-2.80000e+00	2.595305e-04	
258	-2.85000e+00	2.596589e-04	
259	-2.90000e+00	2.597843e-04	
260	-2.95000e+00	2.599069e-04	
261	-3.00000e+00	2.600268e-04	
262	-3.05000e+00	2.601441e-04	
263	-3.10000e+00	2.602591e-04	
264	-3.15000e+00	2.603717e-04	
265	-3.20000e+00	2.604821e-04	
266	-3.25000e+00	2.605904e-04	
267	-3.30000e+00	2.606968e-04	
268	-0.000000e+00	0.000000e+00	
269	-5.00000e-02	2.369409e-05	
270	-1.00000e-01	4.658230e-05	
271	-1.50000e-01	6.872220e-05	
272	-2.00000e-01	9.012921e-05	
273	-2.50000e-01	1.108089e-04	
274	-3.00000e-01	1.307646e-04	
275	-3.50000e-01	1.499990e-04	
276	-4.00000e-01	1.685147e-04	
277	-4.50000e-01	1.863143e-04	
278	-5.00000e-01	2.034004e-04	
279	-5.50000e-01	2.197755e-04	
280	-6.00000e-01	2.354422e-04	
281	-6.50000e-01	2.504030e-04	
282	-7.00000e-01	2.646605e-04	
283	-7.50000e-01	2.782173e-04	
284	-8.00000e-01	2.910759e-04	
285	-8.50000e-01	3.032389e-04	
286	-9.00000e-01	3.147089e-04	

Index   v-sweep         i(vds)          
--------------------------------------------------------------------------------
287	-9.50000e-01	3.254887e-04	
288	-1.00000e+00	3.355810e-04	
289	-1.05000e+00	3.449887e-04	
290	-1.10000e+00	3.537148e-04	
291	-1.15000e+00	3.617626e-04	
292	-1.20000e+00	3.691358e-04	
293	-1.25000e+00	3.758387e-04	
294	-1.30000e+00	3.818765e-04	
295	-1.35000e+00	3.872562e-04	
296	-1.40000e+00	3.919869e-04	
297	-1.45000e+00	3.960825e-04	
298	-1.50000e+00	3.995633e-04	
299	-1.55000e+00	4.024608e-04	
300	-1.60000e+00	4.048219e-04	
301	-1.65000e+00	4.067122e-04	
302	-1.70000e+00	4.082139e-04	
303	-1.75000e+00	4.094149e-04	
304	-1.80000e+00	4.103955e-04	
305	-1.85000e+00	4.112192e-04	
306	-1.90000e+00	4.119311e-04	
307	-1.95000e+00	4.125615e-04	
308	-2.00000e+00	4.131306e-04	
309	-2.05000e+00	4.136520e-04	
310	-2.10000e+00	4.141348e-04	
311	-2.15000e+00	4.145857e-04	
312	-2.20000e+00	4.150096e-04	
313	-2.25000e+00	4.154101e-04	
314	-2.30000e+00	4.157902e-04	
315	-2.35000e+00	4.161520e-04	
316	-2.40000e+00	4.164976e-04	
317	-2.45000e+00	4.168285e-04	
318	-2.50000e+00	4.171461e-04	
319	-2.55000e+00	4.174514e-04	
320	-2.60000e+00	4.177455e-04	
321	-2.65000e+00	4.180292e-04	
322	-2.70000e+00	4.183033e-04	
323	-2.75000e+00	4.185685e-04	
324	-2.80000e+00	4.188254e-04	
325	-2.85000e+00	4.190745e-04	
326	-2.90000e+00	4.193163e-04	
327	-2.95000e+00	4.195513e-04	
328	-3.00000e+00	4.197798e-04	
329	-3.05000e+00	4.200022e-04	
330	-3.10000e+00	4.202189e-04	
331	-3.15000e+00	4.204302e-04	
332	-3.20000e+00	4.206363e-04	
333	-3.25000e+00	4.208374e-04	
334	-3.30000e+00	4.210340e-04	
335	-0.000000e+00	0.000000e+00	
336	-5.00000e-02	2.768619e-05	
337	-1.00000e-01	5.461339e-05	
338	-1.50000e-01	8.083889e-05	
339	-2.00000e-01	1.063778e-04	
340	-2.50000e-01	1.312354e-04	
341	-3.00000e-01	1.554147e-04	
342	-3.50000e-01	1.789181e-04	
343	-4.00000e-01	2.017480e-04	
344	-4.50000e-01	2.239066e-04	

Index   v-sweep         i(vds)          
--------------------------------------------------------------------------------
345	-5.00000e-01	2.453962e-04	
346	-5.50000e-01	2.662190e-04	
347	-6.00000e-01	2.863773e-04	
348	-6.50000e-01	3.058734e-04	
349	-7.00000e-01	3.247094e-04	
350	-7.50000e-01	3.428876e-04	
351	-8.00000e-01	3.604102e-04	
352	-8.50000e-01	3.772795e-04	
353	-9.00000e-01	3.934975e-04	
354	-9.50000e-01	4.090666e-04	
355	-1.00000e+00	4.239890e-04	
356	-1.05000e+00	4.382668e-04	
357	-1.10000e+00	4.519024e-04	
358	-1.15000e+00	4.648978e-04	
359	-1.20000e+00	4.772555e-04	
360	-1.25000e+00	4.889776e-04	
361	-1.30000e+00	5.000665e-04	
362	-1.35000e+00	5.105246e-04	
363	-1.40000e+00	5.203544e-04	
364	-1.45000e+00	5.295584e-04	
365	-1.50000e+00	5.381395e-04	
366	-1.55000e+00	5.461007e-04	
367	-1.60000e+00	5.534454e-04	
368	-1.65000e+00	5.601777e-04	
369	-1.70000e+00	5.663024e-04	
370	-1.75000e+00	5.718260e-04	
371	-1.80000e+00	5.767570e-04	
372	-1.85000e+00	5.811074e-04	
373	-1.90000e+00	5.848944e-04	
374	-1.95000e+00	5.881434e-04	
375	-2.00000e+00	5.908905e-04	
376	-2.05000e+00	5.931855e-04	
377	-2.10000e+00	5.950909e-04	
378	-2.15000e+00	5.966766e-04	
379	-2.20000e+00	5.980119e-04	
380	-2.25000e+00	5.991568e-04	
381	-2.30000e+00	6.001586e-04	
382	-2.35000e+00	6.010519e-04	
383	-2.40000e+00	6.018613e-04	
384	-2.45000e+00	6.026043e-04	
385	-2.50000e+00	6.032931e-04	
386	-2.55000e+00	6.039367e-04	
387	-2.60000e+00	6.045420e-04	
388	-2.65000e+00	6.051140e-04	
389	-2.70000e+00	6.056568e-04	
390	-2.75000e+00	6.061736e-04	
391	-2.80000e+00	6.066673e-04	
392	-2.85000e+00	6.071399e-04	
393	-2.90000e+00	6.075935e-04	
394	-2.95000e+00	6.080296e-04	
395	-3.00000e+00	6.084496e-04	
396	-3.05000e+00	6.088548e-04	
397	-3.10000e+00	6.092463e-04	
398	-3.15000e+00	6.096250e-04	
399	-3.20000e+00	6.099918e-04	
400	-3.25000e+00	6.103474e-04	
401	-3.30000e+00	6.106926e-04	
Note: No ".plot", ".print", or ".fourier" lines; no simulations run
