
Note: Compatibility modes selected: hs

Warning: m=xx on .subckt line will override multiplier m hierarchy!


Circuit: ***************************

Doing analysis at TEMP = 25.000000 and TNOM = 25.000000


No. of Data Rows : 402
                          ***************************
                          DC transfer characteristic  Mon Jan  9 13:57:29  2023
--------------------------------------------------------------------------------
Index   v-sweep         i(vds)          
--------------------------------------------------------------------------------
0	-0.000000e+00	0.000000e+00	
1	-5.00000e-02	4.453131e-07	
2	-1.00000e-01	6.712948e-07	
3	-1.50000e-01	7.506258e-07	
4	-2.00000e-01	7.803736e-07	
5	-2.50000e-01	7.995257e-07	
6	-3.00000e-01	8.158582e-07	
7	-3.50000e-01	8.310802e-07	
8	-4.00000e-01	8.457165e-07	
9	-4.50000e-01	8.599822e-07	
10	-5.00000e-01	8.739873e-07	
11	-5.50000e-01	8.877980e-07	
12	-6.00000e-01	9.014591e-07	
13	-6.50000e-01	9.150031e-07	
14	-7.00000e-01	9.284551e-07	
15	-7.50000e-01	9.418353e-07	
16	-8.00000e-01	9.551603e-07	
17	-8.50000e-01	9.684437e-07	
18	-9.00000e-01	9.816976e-07	
19	-9.50000e-01	9.949319e-07	
20	-1.00000e+00	1.008156e-06	
21	-1.05000e+00	1.021377e-06	
22	-1.10000e+00	1.034602e-06	
23	-1.15000e+00	1.047837e-06	
24	-1.20000e+00	1.061087e-06	
25	-1.25000e+00	1.074359e-06	
26	-1.30000e+00	1.087655e-06	
27	-1.35000e+00	1.100980e-06	
28	-1.40000e+00	1.114338e-06	
29	-1.45000e+00	1.127732e-06	
30	-1.50000e+00	1.141164e-06	
31	-1.55000e+00	1.154639e-06	
32	-1.60000e+00	1.168158e-06	
33	-1.65000e+00	1.181724e-06	
34	-1.70000e+00	1.195339e-06	
35	-1.75000e+00	1.209004e-06	
36	-1.80000e+00	1.222723e-06	
37	-1.85000e+00	1.236497e-06	
38	-1.90000e+00	1.250328e-06	
39	-1.95000e+00	1.264216e-06	
40	-2.00000e+00	1.278165e-06	
41	-2.05000e+00	1.292175e-06	
42	-2.10000e+00	1.306249e-06	
43	-2.15000e+00	1.320387e-06	
44	-2.20000e+00	1.334592e-06	
45	-2.25000e+00	1.348866e-06	
46	-2.30000e+00	1.363211e-06	
47	-2.35000e+00	1.377629e-06	
48	-2.40000e+00	1.392123e-06	
49	-2.45000e+00	1.406696e-06	
50	-2.50000e+00	1.421352e-06	
51	-2.55000e+00	1.436094e-06	
52	-2.60000e+00	1.450927e-06	
53	-2.65000e+00	1.465857e-06	
54	-2.70000e+00	1.480890e-06	

Index   v-sweep         i(vds)          
--------------------------------------------------------------------------------
55	-2.75000e+00	1.496032e-06	
56	-2.80000e+00	1.511293e-06	
57	-2.85000e+00	1.526681e-06	
58	-2.90000e+00	1.542207e-06	
59	-2.95000e+00	1.557882e-06	
60	-3.00000e+00	1.573721e-06	
61	-3.05000e+00	1.589738e-06	
62	-3.10000e+00	1.605951e-06	
63	-3.15000e+00	1.622377e-06	
64	-3.20000e+00	1.639038e-06	
65	-3.25000e+00	1.655956e-06	
66	-3.30000e+00	1.673158e-06	
67	-0.000000e+00	0.000000e+00	
68	-5.00000e-02	3.435255e-06	
69	-1.00000e-01	6.520091e-06	
70	-1.50000e-01	9.261399e-06	
71	-2.00000e-01	1.166607e-05	
72	-2.50000e-01	1.374116e-05	
73	-3.00000e-01	1.549421e-05	
74	-3.50000e-01	1.693410e-05	
75	-4.00000e-01	1.807293e-05	
76	-4.50000e-01	1.893067e-05	
77	-5.00000e-01	1.954390e-05	
78	-5.50000e-01	1.997246e-05	
79	-6.00000e-01	2.028608e-05	
80	-6.50000e-01	2.053760e-05	
81	-7.00000e-01	2.075562e-05	
82	-7.50000e-01	2.095356e-05	
83	-8.00000e-01	2.113786e-05	
84	-8.50000e-01	2.131193e-05	
85	-9.00000e-01	2.147784e-05	
86	-9.50000e-01	2.163692e-05	
87	-1.00000e+00	2.179017e-05	
88	-1.05000e+00	2.193832e-05	
89	-1.10000e+00	2.208196e-05	
90	-1.15000e+00	2.222157e-05	
91	-1.20000e+00	2.235756e-05	
92	-1.25000e+00	2.249026e-05	
93	-1.30000e+00	2.261998e-05	
94	-1.35000e+00	2.274696e-05	
95	-1.40000e+00	2.287143e-05	
96	-1.45000e+00	2.299358e-05	
97	-1.50000e+00	2.311360e-05	
98	-1.55000e+00	2.323164e-05	
99	-1.60000e+00	2.334784e-05	
100	-1.65000e+00	2.346232e-05	
101	-1.70000e+00	2.357521e-05	
102	-1.75000e+00	2.368660e-05	
103	-1.80000e+00	2.379659e-05	
104	-1.85000e+00	2.390526e-05	
105	-1.90000e+00	2.401270e-05	
106	-1.95000e+00	2.411898e-05	
107	-2.00000e+00	2.422416e-05	
108	-2.05000e+00	2.432831e-05	
109	-2.10000e+00	2.443149e-05	
110	-2.15000e+00	2.453374e-05	
111	-2.20000e+00	2.463511e-05	
112	-2.25000e+00	2.473566e-05	

Index   v-sweep         i(vds)          
--------------------------------------------------------------------------------
113	-2.30000e+00	2.483543e-05	
114	-2.35000e+00	2.493446e-05	
115	-2.40000e+00	2.503279e-05	
116	-2.45000e+00	2.513046e-05	
117	-2.50000e+00	2.522750e-05	
118	-2.55000e+00	2.532397e-05	
119	-2.60000e+00	2.541989e-05	
120	-2.65000e+00	2.551531e-05	
121	-2.70000e+00	2.561027e-05	
122	-2.75000e+00	2.570483e-05	
123	-2.80000e+00	2.579903e-05	
124	-2.85000e+00	2.589293e-05	
125	-2.90000e+00	2.598660e-05	
126	-2.95000e+00	2.608010e-05	
127	-3.00000e+00	2.617353e-05	
128	-3.05000e+00	2.626697e-05	
129	-3.10000e+00	2.636052e-05	
130	-3.15000e+00	2.645430e-05	
131	-3.20000e+00	2.654845e-05	
132	-3.25000e+00	2.664311e-05	
133	-3.30000e+00	2.673845e-05	
134	-0.000000e+00	0.000000e+00	
135	-5.00000e-02	5.900249e-06	
136	-1.00000e-01	1.145084e-05	
137	-1.50000e-01	1.665769e-05	
138	-2.00000e-01	2.152659e-05	
139	-2.50000e-01	2.606321e-05	
140	-3.00000e-01	3.027313e-05	
141	-3.50000e-01	3.416184e-05	
142	-4.00000e-01	3.773476e-05	
143	-4.50000e-01	4.099728e-05	
144	-5.00000e-01	4.395481e-05	
145	-5.50000e-01	4.661286e-05	
146	-6.00000e-01	4.897725e-05	
147	-6.50000e-01	5.105437e-05	
148	-7.00000e-01	5.285188e-05	
149	-7.50000e-01	5.437991e-05	
150	-8.00000e-01	5.565345e-05	
151	-8.50000e-01	5.669601e-05	
152	-9.00000e-01	5.754301e-05	
153	-9.50000e-01	5.823968e-05	
154	-1.00000e+00	5.883103e-05	
155	-1.05000e+00	5.935173e-05	
156	-1.10000e+00	5.982407e-05	
157	-1.15000e+00	6.026132e-05	
158	-1.20000e+00	6.067148e-05	
159	-1.25000e+00	6.105967e-05	
160	-1.30000e+00	6.142937e-05	
161	-1.35000e+00	6.178315e-05	
162	-1.40000e+00	6.212295e-05	
163	-1.45000e+00	6.245034e-05	
164	-1.50000e+00	6.276660e-05	
165	-1.55000e+00	6.307280e-05	
166	-1.60000e+00	6.336986e-05	
167	-1.65000e+00	6.365855e-05	
168	-1.70000e+00	6.393957e-05	
169	-1.75000e+00	6.421352e-05	
170	-1.80000e+00	6.448093e-05	

Index   v-sweep         i(vds)          
--------------------------------------------------------------------------------
171	-1.85000e+00	6.474227e-05	
172	-1.90000e+00	6.499798e-05	
173	-1.95000e+00	6.524842e-05	
174	-2.00000e+00	6.549394e-05	
175	-2.05000e+00	6.573486e-05	
176	-2.10000e+00	6.597145e-05	
177	-2.15000e+00	6.620398e-05	
178	-2.20000e+00	6.643268e-05	
179	-2.25000e+00	6.665777e-05	
180	-2.30000e+00	6.687945e-05	
181	-2.35000e+00	6.709789e-05	
182	-2.40000e+00	6.731328e-05	
183	-2.45000e+00	6.752576e-05	
184	-2.50000e+00	6.773549e-05	
185	-2.55000e+00	6.794259e-05	
186	-2.60000e+00	6.814721e-05	
187	-2.65000e+00	6.834945e-05	
188	-2.70000e+00	6.854943e-05	
189	-2.75000e+00	6.874727e-05	
190	-2.80000e+00	6.894307e-05	
191	-2.85000e+00	6.913694e-05	
192	-2.90000e+00	6.932897e-05	
193	-2.95000e+00	6.951928e-05	
194	-3.00000e+00	6.970798e-05	
195	-3.05000e+00	6.989518e-05	
196	-3.10000e+00	7.008101e-05	
197	-3.15000e+00	7.026560e-05	
198	-3.20000e+00	7.044909e-05	
199	-3.25000e+00	7.063166e-05	
200	-3.30000e+00	7.081348e-05	
201	-0.000000e+00	0.000000e+00	
202	-5.00000e-02	7.854750e-06	
203	-1.00000e-01	1.537294e-05	
204	-1.50000e-01	2.255965e-05	
205	-2.00000e-01	2.941986e-05	
206	-2.50000e-01	3.595848e-05	
207	-3.00000e-01	4.218028e-05	
208	-3.50000e-01	4.808997e-05	
209	-4.00000e-01	5.369218e-05	
210	-4.50000e-01	5.899144e-05	
211	-5.00000e-01	6.399222e-05	
212	-5.50000e-01	6.869890e-05	
213	-6.00000e-01	7.311582e-05	
214	-6.50000e-01	7.724724e-05	
215	-7.00000e-01	8.109743e-05	
216	-7.50000e-01	8.467060e-05	
217	-8.00000e-01	8.797103e-05	
218	-8.50000e-01	9.100305e-05	
219	-9.00000e-01	9.377121e-05	
220	-9.50000e-01	9.628041e-05	
221	-1.00000e+00	9.853623e-05	
222	-1.05000e+00	1.005455e-04	
223	-1.10000e+00	1.023172e-04	
224	-1.15000e+00	1.038641e-04	
225	-1.20000e+00	1.052050e-04	
226	-1.25000e+00	1.063658e-04	
227	-1.30000e+00	1.073785e-04	
228	-1.35000e+00	1.082764e-04	

Index   v-sweep         i(vds)          
--------------------------------------------------------------------------------
229	-1.40000e+00	1.090878e-04	
230	-1.45000e+00	1.098339e-04	
231	-1.50000e+00	1.105290e-04	
232	-1.55000e+00	1.111830e-04	
233	-1.60000e+00	1.118026e-04	
234	-1.65000e+00	1.123927e-04	
235	-1.70000e+00	1.129571e-04	
236	-1.75000e+00	1.134987e-04	
237	-1.80000e+00	1.140200e-04	
238	-1.85000e+00	1.145228e-04	
239	-1.90000e+00	1.150089e-04	
240	-1.95000e+00	1.154798e-04	
241	-2.00000e+00	1.159366e-04	
242	-2.05000e+00	1.163805e-04	
243	-2.10000e+00	1.168125e-04	
244	-2.15000e+00	1.172334e-04	
245	-2.20000e+00	1.176440e-04	
246	-2.25000e+00	1.180450e-04	
247	-2.30000e+00	1.184370e-04	
248	-2.35000e+00	1.188205e-04	
249	-2.40000e+00	1.191962e-04	
250	-2.45000e+00	1.195644e-04	
251	-2.50000e+00	1.199256e-04	
252	-2.55000e+00	1.202802e-04	
253	-2.60000e+00	1.206285e-04	
254	-2.65000e+00	1.209709e-04	
255	-2.70000e+00	1.213076e-04	
256	-2.75000e+00	1.216391e-04	
257	-2.80000e+00	1.219654e-04	
258	-2.85000e+00	1.222869e-04	
259	-2.90000e+00	1.226039e-04	
260	-2.95000e+00	1.229164e-04	
261	-3.00000e+00	1.232248e-04	
262	-3.05000e+00	1.235292e-04	
263	-3.10000e+00	1.238298e-04	
264	-3.15000e+00	1.241268e-04	
265	-3.20000e+00	1.244204e-04	
266	-3.25000e+00	1.247107e-04	
267	-3.30000e+00	1.249979e-04	
268	-0.000000e+00	0.000000e+00	
269	-5.00000e-02	9.430098e-06	
270	-1.00000e-01	1.853990e-05	
271	-1.50000e-01	2.733378e-05	
272	-2.00000e-01	3.581605e-05	
273	-2.50000e-01	4.399094e-05	
274	-3.00000e-01	5.186259e-05	
275	-3.50000e-01	5.943507e-05	
276	-4.00000e-01	6.671241e-05	
277	-4.50000e-01	7.369853e-05	
278	-5.00000e-01	8.039731e-05	
279	-5.50000e-01	8.681256e-05	
280	-6.00000e-01	9.294801e-05	
281	-6.50000e-01	9.880735e-05	
282	-7.00000e-01	1.043942e-04	
283	-7.50000e-01	1.097121e-04	
284	-8.00000e-01	1.147647e-04	
285	-8.50000e-01	1.195553e-04	
286	-9.00000e-01	1.240875e-04	

Index   v-sweep         i(vds)          
--------------------------------------------------------------------------------
287	-9.50000e-01	1.283646e-04	
288	-1.00000e+00	1.323900e-04	
289	-1.05000e+00	1.361671e-04	
290	-1.10000e+00	1.396994e-04	
291	-1.15000e+00	1.429902e-04	
292	-1.20000e+00	1.460434e-04	
293	-1.25000e+00	1.488627e-04	
294	-1.30000e+00	1.514525e-04	
295	-1.35000e+00	1.538178e-04	
296	-1.40000e+00	1.559651e-04	
297	-1.45000e+00	1.579027e-04	
298	-1.50000e+00	1.596422e-04	
299	-1.55000e+00	1.611997e-04	
300	-1.60000e+00	1.625961e-04	
301	-1.65000e+00	1.638559e-04	
302	-1.70000e+00	1.650040e-04	
303	-1.75000e+00	1.660621e-04	
304	-1.80000e+00	1.670477e-04	
305	-1.85000e+00	1.679738e-04	
306	-1.90000e+00	1.688496e-04	
307	-1.95000e+00	1.696825e-04	
308	-2.00000e+00	1.704776e-04	
309	-2.05000e+00	1.712394e-04	
310	-2.10000e+00	1.719714e-04	
311	-2.15000e+00	1.726763e-04	
312	-2.20000e+00	1.733567e-04	
313	-2.25000e+00	1.740147e-04	
314	-2.30000e+00	1.746522e-04	
315	-2.35000e+00	1.752706e-04	
316	-2.40000e+00	1.758715e-04	
317	-2.45000e+00	1.764560e-04	
318	-2.50000e+00	1.770254e-04	
319	-2.55000e+00	1.775805e-04	
320	-2.60000e+00	1.781224e-04	
321	-2.65000e+00	1.786519e-04	
322	-2.70000e+00	1.791697e-04	
323	-2.75000e+00	1.796765e-04	
324	-2.80000e+00	1.801729e-04	
325	-2.85000e+00	1.806595e-04	
326	-2.90000e+00	1.811368e-04	
327	-2.95000e+00	1.816054e-04	
328	-3.00000e+00	1.820656e-04	
329	-3.05000e+00	1.825179e-04	
330	-3.10000e+00	1.829626e-04	
331	-3.15000e+00	1.834002e-04	
332	-3.20000e+00	1.838309e-04	
333	-3.25000e+00	1.842552e-04	
334	-3.30000e+00	1.846732e-04	
335	-0.000000e+00	0.000000e+00	
336	-5.00000e-02	1.071897e-05	
337	-1.00000e-01	2.113444e-05	
338	-1.50000e-01	3.125022e-05	
339	-2.00000e-01	4.107003e-05	
340	-2.50000e-01	5.059755e-05	
341	-3.00000e-01	5.983639e-05	
342	-3.50000e-01	6.879010e-05	
343	-4.00000e-01	7.746218e-05	
344	-4.50000e-01	8.585606e-05	

Index   v-sweep         i(vds)          
--------------------------------------------------------------------------------
345	-5.00000e-01	9.397513e-05	
346	-5.50000e-01	1.018227e-04	
347	-6.00000e-01	1.094021e-04	
348	-6.50000e-01	1.167165e-04	
349	-7.00000e-01	1.237692e-04	
350	-7.50000e-01	1.305631e-04	
351	-8.00000e-01	1.371015e-04	
352	-8.50000e-01	1.433873e-04	
353	-9.00000e-01	1.494236e-04	
354	-9.50000e-01	1.552133e-04	
355	-1.00000e+00	1.607592e-04	
356	-1.05000e+00	1.660644e-04	
357	-1.10000e+00	1.711316e-04	
358	-1.15000e+00	1.759636e-04	
359	-1.20000e+00	1.805632e-04	
360	-1.25000e+00	1.849333e-04	
361	-1.30000e+00	1.890765e-04	
362	-1.35000e+00	1.929956e-04	
363	-1.40000e+00	1.966934e-04	
364	-1.45000e+00	2.001728e-04	
365	-1.50000e+00	2.034368e-04	
366	-1.55000e+00	2.064885e-04	
367	-1.60000e+00	2.093315e-04	
368	-1.65000e+00	2.119695e-04	
369	-1.70000e+00	2.144076e-04	
370	-1.75000e+00	2.166517e-04	
371	-1.80000e+00	2.187100e-04	
372	-1.85000e+00	2.205932e-04	
373	-1.90000e+00	2.223156e-04	
374	-1.95000e+00	2.238945e-04	
375	-2.00000e+00	2.253492e-04	
376	-2.05000e+00	2.266987e-04	
377	-2.10000e+00	2.279600e-04	
378	-2.15000e+00	2.291468e-04	
379	-2.20000e+00	2.302701e-04	
380	-2.25000e+00	2.313382e-04	
381	-2.30000e+00	2.323579e-04	
382	-2.35000e+00	2.333345e-04	
383	-2.40000e+00	2.342725e-04	
384	-2.45000e+00	2.351754e-04	
385	-2.50000e+00	2.360464e-04	
386	-2.55000e+00	2.368882e-04	
387	-2.60000e+00	2.377031e-04	
388	-2.65000e+00	2.384933e-04	
389	-2.70000e+00	2.392604e-04	
390	-2.75000e+00	2.400062e-04	
391	-2.80000e+00	2.407321e-04	
392	-2.85000e+00	2.414393e-04	
393	-2.90000e+00	2.421291e-04	
394	-2.95000e+00	2.428026e-04	
395	-3.00000e+00	2.434606e-04	
396	-3.05000e+00	2.441042e-04	
397	-3.10000e+00	2.447341e-04	
398	-3.15000e+00	2.453510e-04	
399	-3.20000e+00	2.459557e-04	
400	-3.25000e+00	2.465488e-04	
401	-3.30000e+00	2.471309e-04	
Note: No ".plot", ".print", or ".fourier" lines; no simulations run
