
Note: Compatibility modes selected: hs

Warning: m=xx on .subckt line will override multiplier m hierarchy!


Circuit: ***************************

Doing analysis at TEMP = 25.000000 and TNOM = 25.000000


No. of Data Rows : 402
                          ***************************
                          DC transfer characteristic  Mon Jan  9 13:57:29  2023
--------------------------------------------------------------------------------
Index   v-sweep         i(vds)          
--------------------------------------------------------------------------------
0	-0.000000e+00	0.000000e+00	
1	-5.00000e-02	5.505709e-07	
2	-1.00000e-01	6.974895e-07	
3	-1.50000e-01	7.248404e-07	
4	-2.00000e-01	7.347920e-07	
5	-2.50000e-01	7.411545e-07	
6	-3.00000e-01	7.462601e-07	
7	-3.50000e-01	7.507373e-07	
8	-4.00000e-01	7.548238e-07	
9	-4.50000e-01	7.586332e-07	
10	-5.00000e-01	7.622301e-07	
11	-5.50000e-01	7.656557e-07	
12	-6.00000e-01	7.689388e-07	
13	-6.50000e-01	7.721004e-07	
14	-7.00000e-01	7.751569e-07	
15	-7.50000e-01	7.781211e-07	
16	-8.00000e-01	7.810038e-07	
17	-8.50000e-01	7.838136e-07	
18	-9.00000e-01	7.865578e-07	
19	-9.50000e-01	7.892429e-07	
20	-1.00000e+00	7.918741e-07	
21	-1.05000e+00	7.944562e-07	
22	-1.10000e+00	7.969933e-07	
23	-1.15000e+00	7.994890e-07	
24	-1.20000e+00	8.019466e-07	
25	-1.25000e+00	8.043688e-07	
26	-1.30000e+00	8.067583e-07	
27	-1.35000e+00	8.091173e-07	
28	-1.40000e+00	8.114480e-07	
29	-1.45000e+00	8.137521e-07	
30	-1.50000e+00	8.160315e-07	
31	-1.55000e+00	8.182877e-07	
32	-1.60000e+00	8.205220e-07	
33	-1.65000e+00	8.227359e-07	
34	-1.70000e+00	8.249304e-07	
35	-1.75000e+00	8.271068e-07	
36	-1.80000e+00	8.292661e-07	
37	-1.85000e+00	8.314092e-07	
38	-1.90000e+00	8.335370e-07	
39	-1.95000e+00	8.356505e-07	
40	-2.00000e+00	8.377504e-07	
41	-2.05000e+00	8.398376e-07	
42	-2.10000e+00	8.419129e-07	
43	-2.15000e+00	8.439771e-07	
44	-2.20000e+00	8.460310e-07	
45	-2.25000e+00	8.480756e-07	
46	-2.30000e+00	8.501119e-07	
47	-2.35000e+00	8.521409e-07	
48	-2.40000e+00	8.541637e-07	
49	-2.45000e+00	8.561817e-07	
50	-2.50000e+00	8.581963e-07	
51	-2.55000e+00	8.602093e-07	
52	-2.60000e+00	8.622225e-07	
53	-2.65000e+00	8.642380e-07	
54	-2.70000e+00	8.662584e-07	

Index   v-sweep         i(vds)          
--------------------------------------------------------------------------------
55	-2.75000e+00	8.682865e-07	
56	-2.80000e+00	8.703252e-07	
57	-2.85000e+00	8.723783e-07	
58	-2.90000e+00	8.744496e-07	
59	-2.95000e+00	8.765436e-07	
60	-3.00000e+00	8.786652e-07	
61	-3.05000e+00	8.808199e-07	
62	-3.10000e+00	8.830137e-07	
63	-3.15000e+00	8.852533e-07	
64	-3.20000e+00	8.875459e-07	
65	-3.25000e+00	8.898994e-07	
66	-3.30000e+00	8.923225e-07	
67	-0.000000e+00	0.000000e+00	
68	-5.00000e-02	9.216378e-06	
69	-1.00000e-01	1.730725e-05	
70	-1.50000e-01	2.428746e-05	
71	-2.00000e-01	3.017305e-05	
72	-2.50000e-01	3.498290e-05	
73	-3.00000e-01	3.874314e-05	
74	-3.50000e-01	4.149884e-05	
75	-4.00000e-01	4.334252e-05	
76	-4.50000e-01	4.445735e-05	
77	-5.00000e-01	4.510560e-05	
78	-5.50000e-01	4.551512e-05	
79	-6.00000e-01	4.581184e-05	
80	-6.50000e-01	4.605090e-05	
81	-7.00000e-01	4.625604e-05	
82	-7.50000e-01	4.643856e-05	
83	-8.00000e-01	4.660451e-05	
84	-8.50000e-01	4.675755e-05	
85	-9.00000e-01	4.690008e-05	
86	-9.50000e-01	4.703380e-05	
87	-1.00000e+00	4.716000e-05	
88	-1.05000e+00	4.727964e-05	
89	-1.10000e+00	4.739352e-05	
90	-1.15000e+00	4.750227e-05	
91	-1.20000e+00	4.760643e-05	
92	-1.25000e+00	4.770645e-05	
93	-1.30000e+00	4.780272e-05	
94	-1.35000e+00	4.789555e-05	
95	-1.40000e+00	4.798525e-05	
96	-1.45000e+00	4.807206e-05	
97	-1.50000e+00	4.815621e-05	
98	-1.55000e+00	4.823789e-05	
99	-1.60000e+00	4.831727e-05	
100	-1.65000e+00	4.839452e-05	
101	-1.70000e+00	4.846978e-05	
102	-1.75000e+00	4.854316e-05	
103	-1.80000e+00	4.861480e-05	
104	-1.85000e+00	4.868480e-05	
105	-1.90000e+00	4.875324e-05	
106	-1.95000e+00	4.882023e-05	
107	-2.00000e+00	4.888583e-05	
108	-2.05000e+00	4.895013e-05	
109	-2.10000e+00	4.901319e-05	
110	-2.15000e+00	4.907508e-05	
111	-2.20000e+00	4.913585e-05	
112	-2.25000e+00	4.919557e-05	

Index   v-sweep         i(vds)          
--------------------------------------------------------------------------------
113	-2.30000e+00	4.925428e-05	
114	-2.35000e+00	4.931203e-05	
115	-2.40000e+00	4.936889e-05	
116	-2.45000e+00	4.942489e-05	
117	-2.50000e+00	4.948008e-05	
118	-2.55000e+00	4.953452e-05	
119	-2.60000e+00	4.958825e-05	
120	-2.65000e+00	4.964134e-05	
121	-2.70000e+00	4.969384e-05	
122	-2.75000e+00	4.974582e-05	
123	-2.80000e+00	4.979735e-05	
124	-2.85000e+00	4.984852e-05	
125	-2.90000e+00	4.989941e-05	
126	-2.95000e+00	4.995013e-05	
127	-3.00000e+00	5.000081e-05	
128	-3.05000e+00	5.005157e-05	
129	-3.10000e+00	5.010256e-05	
130	-3.15000e+00	5.015396e-05	
131	-3.20000e+00	5.020596e-05	
132	-3.25000e+00	5.025877e-05	
133	-3.30000e+00	5.031263e-05	
134	-0.000000e+00	0.000000e+00	
135	-5.00000e-02	1.721902e-05	
136	-1.00000e-01	3.332664e-05	
137	-1.50000e-01	4.833482e-05	
138	-2.00000e-01	6.225541e-05	
139	-2.50000e-01	7.510016e-05	
140	-3.00000e-01	8.688081e-05	
141	-3.50000e-01	9.760912e-05	
142	-4.00000e-01	1.072970e-04	
143	-4.50000e-01	1.159569e-04	
144	-5.00000e-01	1.236018e-04	
145	-5.50000e-01	1.302466e-04	
146	-6.00000e-01	1.359092e-04	
147	-6.50000e-01	1.406143e-04	
148	-7.00000e-01	1.443998e-04	
149	-7.50000e-01	1.473301e-04	
150	-8.00000e-01	1.495130e-04	
151	-8.50000e-01	1.511064e-04	
152	-9.00000e-01	1.522886e-04	
153	-9.50000e-01	1.532095e-04	
154	-1.00000e+00	1.539674e-04	
155	-1.05000e+00	1.546195e-04	
156	-1.10000e+00	1.551977e-04	
157	-1.15000e+00	1.557209e-04	
158	-1.20000e+00	1.562012e-04	
159	-1.25000e+00	1.566464e-04	
160	-1.30000e+00	1.570622e-04	
161	-1.35000e+00	1.574530e-04	
162	-1.40000e+00	1.578220e-04	
163	-1.45000e+00	1.581719e-04	
164	-1.50000e+00	1.585048e-04	
165	-1.55000e+00	1.588224e-04	
166	-1.60000e+00	1.591263e-04	
167	-1.65000e+00	1.594178e-04	
168	-1.70000e+00	1.596980e-04	
169	-1.75000e+00	1.599678e-04	
170	-1.80000e+00	1.602280e-04	

Index   v-sweep         i(vds)          
--------------------------------------------------------------------------------
171	-1.85000e+00	1.604794e-04	
172	-1.90000e+00	1.607227e-04	
173	-1.95000e+00	1.609584e-04	
174	-2.00000e+00	1.611871e-04	
175	-2.05000e+00	1.614091e-04	
176	-2.10000e+00	1.616250e-04	
177	-2.15000e+00	1.618352e-04	
178	-2.20000e+00	1.620399e-04	
179	-2.25000e+00	1.622395e-04	
180	-2.30000e+00	1.624343e-04	
181	-2.35000e+00	1.626245e-04	
182	-2.40000e+00	1.628104e-04	
183	-2.45000e+00	1.629923e-04	
184	-2.50000e+00	1.631702e-04	
185	-2.55000e+00	1.633445e-04	
186	-2.60000e+00	1.635153e-04	
187	-2.65000e+00	1.636828e-04	
188	-2.70000e+00	1.638472e-04	
189	-2.75000e+00	1.640085e-04	
190	-2.80000e+00	1.641670e-04	
191	-2.85000e+00	1.643228e-04	
192	-2.90000e+00	1.644761e-04	
193	-2.95000e+00	1.646271e-04	
194	-3.00000e+00	1.647758e-04	
195	-3.05000e+00	1.649226e-04	
196	-3.10000e+00	1.650676e-04	
197	-3.15000e+00	1.652109e-04	
198	-3.20000e+00	1.653530e-04	
199	-3.25000e+00	1.654940e-04	
200	-3.30000e+00	1.656343e-04	
201	-0.000000e+00	0.000000e+00	
202	-5.00000e-02	2.374916e-05	
203	-1.00000e-01	4.644232e-05	
204	-1.50000e-01	6.808971e-05	
205	-2.00000e-01	8.870144e-05	
206	-2.50000e-01	1.082875e-04	
207	-3.00000e-01	1.268578e-04	
208	-3.50000e-01	1.444221e-04	
209	-4.00000e-01	1.609902e-04	
210	-4.50000e-01	1.765715e-04	
211	-5.00000e-01	1.911756e-04	
212	-5.50000e-01	2.048121e-04	
213	-6.00000e-01	2.174903e-04	
214	-6.50000e-01	2.292200e-04	
215	-7.00000e-01	2.400106e-04	
216	-7.50000e-01	2.498721e-04	
217	-8.00000e-01	2.588149e-04	
218	-8.50000e-01	2.668504e-04	
219	-9.00000e-01	2.739914e-04	
220	-9.50000e-01	2.802537e-04	
221	-1.00000e+00	2.856584e-04	
222	-1.05000e+00	2.902360e-04	
223	-1.10000e+00	2.940335e-04	
224	-1.15000e+00	2.971233e-04	
225	-1.20000e+00	2.996086e-04	
226	-1.25000e+00	3.016151e-04	
227	-1.30000e+00	3.032678e-04	
228	-1.35000e+00	3.046687e-04	

Index   v-sweep         i(vds)          
--------------------------------------------------------------------------------
229	-1.40000e+00	3.058897e-04	
230	-1.45000e+00	3.069783e-04	
231	-1.50000e+00	3.079653e-04	
232	-1.55000e+00	3.088715e-04	
233	-1.60000e+00	3.097113e-04	
234	-1.65000e+00	3.104953e-04	
235	-1.70000e+00	3.112313e-04	
236	-1.75000e+00	3.119257e-04	
237	-1.80000e+00	3.125834e-04	
238	-1.85000e+00	3.132085e-04	
239	-1.90000e+00	3.138043e-04	
240	-1.95000e+00	3.143738e-04	
241	-2.00000e+00	3.149194e-04	
242	-2.05000e+00	3.154432e-04	
243	-2.10000e+00	3.159470e-04	
244	-2.15000e+00	3.164325e-04	
245	-2.20000e+00	3.169010e-04	
246	-2.25000e+00	3.173538e-04	
247	-2.30000e+00	3.177920e-04	
248	-2.35000e+00	3.182166e-04	
249	-2.40000e+00	3.186286e-04	
250	-2.45000e+00	3.190287e-04	
251	-2.50000e+00	3.194177e-04	
252	-2.55000e+00	3.197962e-04	
253	-2.60000e+00	3.201648e-04	
254	-2.65000e+00	3.205242e-04	
255	-2.70000e+00	3.208748e-04	
256	-2.75000e+00	3.212170e-04	
257	-2.80000e+00	3.215514e-04	
258	-2.85000e+00	3.218783e-04	
259	-2.90000e+00	3.221982e-04	
260	-2.95000e+00	3.225113e-04	
261	-3.00000e+00	3.228179e-04	
262	-3.05000e+00	3.231185e-04	
263	-3.10000e+00	3.234133e-04	
264	-3.15000e+00	3.237026e-04	
265	-3.20000e+00	3.239867e-04	
266	-3.25000e+00	3.242659e-04	
267	-3.30000e+00	3.245405e-04	
268	-0.000000e+00	0.000000e+00	
269	-5.00000e-02	2.908266e-05	
270	-1.00000e-01	5.717331e-05	
271	-1.50000e-01	8.428073e-05	
272	-2.00000e-01	1.104136e-04	
273	-2.50000e-01	1.355806e-04	
274	-3.00000e-01	1.597901e-04	
275	-3.50000e-01	1.830505e-04	
276	-4.00000e-01	2.053703e-04	
277	-4.50000e-01	2.267575e-04	
278	-5.00000e-01	2.472203e-04	
279	-5.50000e-01	2.667668e-04	
280	-6.00000e-01	2.854050e-04	
281	-6.50000e-01	3.031427e-04	
282	-7.00000e-01	3.199878e-04	
283	-7.50000e-01	3.359480e-04	
284	-8.00000e-01	3.510312e-04	
285	-8.50000e-01	3.652449e-04	
286	-9.00000e-01	3.785970e-04	

Index   v-sweep         i(vds)          
--------------------------------------------------------------------------------
287	-9.50000e-01	3.910951e-04	
288	-1.00000e+00	4.027470e-04	
289	-1.05000e+00	4.135608e-04	
290	-1.10000e+00	4.235447e-04	
291	-1.15000e+00	4.327074e-04	
292	-1.20000e+00	4.410587e-04	
293	-1.25000e+00	4.486094e-04	
294	-1.30000e+00	4.553731e-04	
295	-1.35000e+00	4.613670e-04	
296	-1.40000e+00	4.666152e-04	
297	-1.45000e+00	4.711529e-04	
298	-1.50000e+00	4.750310e-04	
299	-1.55000e+00	4.783206e-04	
300	-1.60000e+00	4.811108e-04	
301	-1.65000e+00	4.834984e-04	
302	-1.70000e+00	4.855729e-04	
303	-1.75000e+00	4.874071e-04	
304	-1.80000e+00	4.890553e-04	
305	-1.85000e+00	4.905560e-04	
306	-1.90000e+00	4.919371e-04	
307	-1.95000e+00	4.932187e-04	
308	-2.00000e+00	4.944160e-04	
309	-2.05000e+00	4.955405e-04	
310	-2.10000e+00	4.966016e-04	
311	-2.15000e+00	4.976067e-04	
312	-2.20000e+00	4.985618e-04	
313	-2.25000e+00	4.994721e-04	
314	-2.30000e+00	5.003420e-04	
315	-2.35000e+00	5.011751e-04	
316	-2.40000e+00	5.019746e-04	
317	-2.45000e+00	5.027435e-04	
318	-2.50000e+00	5.034840e-04	
319	-2.55000e+00	5.041984e-04	
320	-2.60000e+00	5.048885e-04	
321	-2.65000e+00	5.055562e-04	
322	-2.70000e+00	5.062028e-04	
323	-2.75000e+00	5.068299e-04	
324	-2.80000e+00	5.074386e-04	
325	-2.85000e+00	5.080301e-04	
326	-2.90000e+00	5.086055e-04	
327	-2.95000e+00	5.091656e-04	
328	-3.00000e+00	5.097112e-04	
329	-3.05000e+00	5.102433e-04	
330	-3.10000e+00	5.107626e-04	
331	-3.15000e+00	5.112696e-04	
332	-3.20000e+00	5.117650e-04	
333	-3.25000e+00	5.122495e-04	
334	-3.30000e+00	5.127234e-04	
335	-0.000000e+00	0.000000e+00	
336	-5.00000e-02	3.345137e-05	
337	-1.00000e-01	6.597527e-05	
338	-1.50000e-01	9.757926e-05	
339	-2.00000e-01	1.282708e-04	
340	-2.50000e-01	1.580574e-04	
341	-3.00000e-01	1.869463e-04	
342	-3.50000e-01	2.149448e-04	
343	-4.00000e-01	2.420601e-04	
344	-4.50000e-01	2.682991e-04	

Index   v-sweep         i(vds)          
--------------------------------------------------------------------------------
345	-5.00000e-01	2.936691e-04	
346	-5.50000e-01	3.181770e-04	
347	-6.00000e-01	3.418295e-04	
348	-6.50000e-01	3.646336e-04	
349	-7.00000e-01	3.865960e-04	
350	-7.50000e-01	4.077234e-04	
351	-8.00000e-01	4.280224e-04	
352	-8.50000e-01	4.474996e-04	
353	-9.00000e-01	4.661614e-04	
354	-9.50000e-01	4.840144e-04	
355	-1.00000e+00	5.010649e-04	
356	-1.05000e+00	5.173193e-04	
357	-1.10000e+00	5.327840e-04	
358	-1.15000e+00	5.474651e-04	
359	-1.20000e+00	5.613692e-04	
360	-1.25000e+00	5.745024e-04	
361	-1.30000e+00	5.868712e-04	
362	-1.35000e+00	5.984820e-04	
363	-1.40000e+00	6.093414e-04	
364	-1.45000e+00	6.194564e-04	
365	-1.50000e+00	6.288344e-04	
366	-1.55000e+00	6.374833e-04	
367	-1.60000e+00	6.454125e-04	
368	-1.65000e+00	6.526328e-04	
369	-1.70000e+00	6.591585e-04	
370	-1.75000e+00	6.650080e-04	
371	-1.80000e+00	6.702076e-04	
372	-1.85000e+00	6.747937e-04	
373	-1.90000e+00	6.788162e-04	
374	-1.95000e+00	6.823388e-04	
375	-2.00000e+00	6.854345e-04	
376	-2.05000e+00	6.881771e-04	
377	-2.10000e+00	6.906332e-04	
378	-2.15000e+00	6.928577e-04	
379	-2.20000e+00	6.948930e-04	
380	-2.25000e+00	6.967717e-04	
381	-2.30000e+00	6.985185e-04	
382	-2.35000e+00	7.001524e-04	
383	-2.40000e+00	7.016885e-04	
384	-2.45000e+00	7.031387e-04	
385	-2.50000e+00	7.045130e-04	
386	-2.55000e+00	7.058193e-04	
387	-2.60000e+00	7.070647e-04	
388	-2.65000e+00	7.082549e-04	
389	-2.70000e+00	7.093948e-04	
390	-2.75000e+00	7.104889e-04	
391	-2.80000e+00	7.115408e-04	
392	-2.85000e+00	7.125539e-04	
393	-2.90000e+00	7.135312e-04	
394	-2.95000e+00	7.144753e-04	
395	-3.00000e+00	7.153884e-04	
396	-3.05000e+00	7.162727e-04	
397	-3.10000e+00	7.171300e-04	
398	-3.15000e+00	7.179621e-04	
399	-3.20000e+00	7.187705e-04	
400	-3.25000e+00	7.195565e-04	
401	-3.30000e+00	7.203216e-04	
Note: No ".plot", ".print", or ".fourier" lines; no simulations run
