
Note: Compatibility modes selected: hs

Warning: m=xx on .subckt line will override multiplier m hierarchy!


Circuit: ***************************

Doing analysis at TEMP = 125.000000 and TNOM = 125.000000


No. of Data Rows : 402
                          ***************************
                          DC transfer characteristic  Mon Jan  9 13:57:29  2023
--------------------------------------------------------------------------------
Index   v-sweep         i(vds)          
--------------------------------------------------------------------------------
0	-0.000000e+00	0.000000e+00	
1	-5.00000e-02	2.419698e-07	
2	-1.00000e-01	3.439750e-07	
3	-1.50000e-01	3.775737e-07	
4	-2.00000e-01	3.856772e-07	
5	-2.50000e-01	3.878519e-07	
6	-3.00000e-01	3.886413e-07	
7	-3.50000e-01	3.890161e-07	
8	-4.00000e-01	3.892343e-07	
9	-4.50000e-01	3.893813e-07	
10	-5.00000e-01	3.894907e-07	
11	-5.50000e-01	3.895782e-07	
12	-6.00000e-01	3.896517e-07	
13	-6.50000e-01	3.897157e-07	
14	-7.00000e-01	3.897730e-07	
15	-7.50000e-01	3.898253e-07	
16	-8.00000e-01	3.898738e-07	
17	-8.50000e-01	3.899193e-07	
18	-9.00000e-01	3.899623e-07	
19	-9.50000e-01	3.900033e-07	
20	-1.00000e+00	3.900425e-07	
21	-1.05000e+00	3.900803e-07	
22	-1.10000e+00	3.901169e-07	
23	-1.15000e+00	3.901523e-07	
24	-1.20000e+00	3.901868e-07	
25	-1.25000e+00	3.902203e-07	
26	-1.30000e+00	3.902531e-07	
27	-1.35000e+00	3.902852e-07	
28	-1.40000e+00	3.903166e-07	
29	-1.45000e+00	3.903475e-07	
30	-1.50000e+00	3.903778e-07	
31	-1.55000e+00	3.904076e-07	
32	-1.60000e+00	3.904369e-07	
33	-1.65000e+00	3.904658e-07	
34	-1.70000e+00	3.904943e-07	
35	-1.75000e+00	3.905225e-07	
36	-1.80000e+00	3.905502e-07	
37	-1.85000e+00	3.905777e-07	
38	-1.90000e+00	3.906048e-07	
39	-1.95000e+00	3.906316e-07	
40	-2.00000e+00	3.906582e-07	
41	-2.05000e+00	3.906845e-07	
42	-2.10000e+00	3.907105e-07	
43	-2.15000e+00	3.907363e-07	
44	-2.20000e+00	3.907619e-07	
45	-2.25000e+00	3.907874e-07	
46	-2.30000e+00	3.908126e-07	
47	-2.35000e+00	3.908378e-07	
48	-2.40000e+00	3.908628e-07	
49	-2.45000e+00	3.908877e-07	
50	-2.50000e+00	3.909127e-07	
51	-2.55000e+00	3.909377e-07	
52	-2.60000e+00	3.909629e-07	
53	-2.65000e+00	3.909884e-07	
54	-2.70000e+00	3.910142e-07	

Index   v-sweep         i(vds)          
--------------------------------------------------------------------------------
55	-2.75000e+00	3.910406e-07	
56	-2.80000e+00	3.910679e-07	
57	-2.85000e+00	3.910961e-07	
58	-2.90000e+00	3.911258e-07	
59	-2.95000e+00	3.911572e-07	
60	-3.00000e+00	3.911908e-07	
61	-3.05000e+00	3.912271e-07	
62	-3.10000e+00	3.912669e-07	
63	-3.15000e+00	3.913109e-07	
64	-3.20000e+00	3.913598e-07	
65	-3.25000e+00	3.914149e-07	
66	-3.30000e+00	3.914773e-07	
67	-0.000000e+00	0.000000e+00	
68	-5.00000e-02	8.648574e-07	
69	-1.00000e-01	1.567309e-06	
70	-1.50000e-01	2.162464e-06	
71	-2.00000e-01	2.663384e-06	
72	-2.50000e-01	3.073550e-06	
73	-3.00000e-01	3.394718e-06	
74	-3.50000e-01	3.629532e-06	
75	-4.00000e-01	3.784097e-06	
76	-4.50000e-01	3.871915e-06	
77	-5.00000e-01	3.914856e-06	
78	-5.50000e-01	3.934530e-06	
79	-6.00000e-01	3.944013e-06	
80	-6.50000e-01	3.949116e-06	
81	-7.00000e-01	3.952201e-06	
82	-7.50000e-01	3.954264e-06	
83	-8.00000e-01	3.955760e-06	
84	-8.50000e-01	3.956917e-06	
85	-9.00000e-01	3.957856e-06	
86	-9.50000e-01	3.958648e-06	
87	-1.00000e+00	3.959335e-06	
88	-1.05000e+00	3.959945e-06	
89	-1.10000e+00	3.960497e-06	
90	-1.15000e+00	3.961002e-06	
91	-1.20000e+00	3.961470e-06	
92	-1.25000e+00	3.961908e-06	
93	-1.30000e+00	3.962319e-06	
94	-1.35000e+00	3.962709e-06	
95	-1.40000e+00	3.963080e-06	
96	-1.45000e+00	3.963435e-06	
97	-1.50000e+00	3.963775e-06	
98	-1.55000e+00	3.964102e-06	
99	-1.60000e+00	3.964417e-06	
100	-1.65000e+00	3.964722e-06	
101	-1.70000e+00	3.965018e-06	
102	-1.75000e+00	3.965305e-06	
103	-1.80000e+00	3.965584e-06	
104	-1.85000e+00	3.965855e-06	
105	-1.90000e+00	3.966120e-06	
106	-1.95000e+00	3.966378e-06	
107	-2.00000e+00	3.966631e-06	
108	-2.05000e+00	3.966878e-06	
109	-2.10000e+00	3.967120e-06	
110	-2.15000e+00	3.967357e-06	
111	-2.20000e+00	3.967589e-06	
112	-2.25000e+00	3.967818e-06	

Index   v-sweep         i(vds)          
--------------------------------------------------------------------------------
113	-2.30000e+00	3.968042e-06	
114	-2.35000e+00	3.968262e-06	
115	-2.40000e+00	3.968479e-06	
116	-2.45000e+00	3.968693e-06	
117	-2.50000e+00	3.968903e-06	
118	-2.55000e+00	3.969111e-06	
119	-2.60000e+00	3.969316e-06	
120	-2.65000e+00	3.969519e-06	
121	-2.70000e+00	3.969720e-06	
122	-2.75000e+00	3.969921e-06	
123	-2.80000e+00	3.970120e-06	
124	-2.85000e+00	3.970321e-06	
125	-2.90000e+00	3.970523e-06	
126	-2.95000e+00	3.970728e-06	
127	-3.00000e+00	3.970938e-06	
128	-3.05000e+00	3.971154e-06	
129	-3.10000e+00	3.971381e-06	
130	-3.15000e+00	3.971621e-06	
131	-3.20000e+00	3.971878e-06	
132	-3.25000e+00	3.972158e-06	
133	-3.30000e+00	3.972466e-06	
134	-0.000000e+00	0.000000e+00	
135	-5.00000e-02	1.451597e-06	
136	-1.00000e-01	2.743852e-06	
137	-1.50000e-01	3.931765e-06	
138	-2.00000e-01	5.028186e-06	
139	-2.50000e-01	6.036158e-06	
140	-3.00000e-01	6.956452e-06	
141	-3.50000e-01	7.789329e-06	
142	-4.00000e-01	8.534966e-06	
143	-4.50000e-01	9.193574e-06	
144	-5.00000e-01	9.765479e-06	
145	-5.50000e-01	1.025123e-05	
146	-6.00000e-01	1.065180e-05	
147	-6.50000e-01	1.096909e-05	
148	-7.00000e-01	1.120679e-05	
149	-7.50000e-01	1.137203e-05	
150	-8.00000e-01	1.147707e-05	
151	-8.50000e-01	1.153859e-05	
152	-9.00000e-01	1.157320e-05	
153	-9.50000e-01	1.159299e-05	
154	-1.00000e+00	1.160498e-05	
155	-1.05000e+00	1.161278e-05	
156	-1.10000e+00	1.161824e-05	
157	-1.15000e+00	1.162231e-05	
158	-1.20000e+00	1.162550e-05	
159	-1.25000e+00	1.162812e-05	
160	-1.30000e+00	1.163033e-05	
161	-1.35000e+00	1.163225e-05	
162	-1.40000e+00	1.163395e-05	
163	-1.45000e+00	1.163549e-05	
164	-1.50000e+00	1.163689e-05	
165	-1.55000e+00	1.163819e-05	
166	-1.60000e+00	1.163940e-05	
167	-1.65000e+00	1.164053e-05	
168	-1.70000e+00	1.164160e-05	
169	-1.75000e+00	1.164262e-05	
170	-1.80000e+00	1.164359e-05	

Index   v-sweep         i(vds)          
--------------------------------------------------------------------------------
171	-1.85000e+00	1.164451e-05	
172	-1.90000e+00	1.164540e-05	
173	-1.95000e+00	1.164625e-05	
174	-2.00000e+00	1.164707e-05	
175	-2.05000e+00	1.164787e-05	
176	-2.10000e+00	1.164864e-05	
177	-2.15000e+00	1.164938e-05	
178	-2.20000e+00	1.165011e-05	
179	-2.25000e+00	1.165081e-05	
180	-2.30000e+00	1.165149e-05	
181	-2.35000e+00	1.165216e-05	
182	-2.40000e+00	1.165281e-05	
183	-2.45000e+00	1.165345e-05	
184	-2.50000e+00	1.165407e-05	
185	-2.55000e+00	1.165468e-05	
186	-2.60000e+00	1.165528e-05	
187	-2.65000e+00	1.165586e-05	
188	-2.70000e+00	1.165643e-05	
189	-2.75000e+00	1.165700e-05	
190	-2.80000e+00	1.165755e-05	
191	-2.85000e+00	1.165809e-05	
192	-2.90000e+00	1.165863e-05	
193	-2.95000e+00	1.165916e-05	
194	-3.00000e+00	1.165968e-05	
195	-3.05000e+00	1.166019e-05	
196	-3.10000e+00	1.166071e-05	
197	-3.15000e+00	1.166122e-05	
198	-3.20000e+00	1.166173e-05	
199	-3.25000e+00	1.166225e-05	
200	-3.30000e+00	1.166278e-05	
201	-0.000000e+00	0.000000e+00	
202	-5.00000e-02	1.978104e-06	
203	-1.00000e-01	3.802193e-06	
204	-1.50000e-01	5.527252e-06	
205	-2.00000e-01	7.166111e-06	
206	-2.50000e-01	8.721786e-06	
207	-3.00000e-01	1.019501e-05	
208	-3.50000e-01	1.158598e-05	
209	-4.00000e-01	1.289477e-05	
210	-4.50000e-01	1.412146e-05	
211	-5.00000e-01	1.526608e-05	
212	-5.50000e-01	1.632871e-05	
213	-6.00000e-01	1.730942e-05	
214	-6.50000e-01	1.820831e-05	
215	-7.00000e-01	1.902551e-05	
216	-7.50000e-01	1.976120e-05	
217	-8.00000e-01	2.041564e-05	
218	-8.50000e-01	2.098924e-05	
219	-9.00000e-01	2.148265e-05	
220	-9.50000e-01	2.189699e-05	
221	-1.00000e+00	2.223416e-05	
222	-1.05000e+00	2.249751e-05	
223	-1.10000e+00	2.269280e-05	
224	-1.15000e+00	2.282914e-05	
225	-1.20000e+00	2.291891e-05	
226	-1.25000e+00	2.297572e-05	
227	-1.30000e+00	2.301144e-05	
228	-1.35000e+00	2.303445e-05	

Index   v-sweep         i(vds)          
--------------------------------------------------------------------------------
229	-1.40000e+00	2.304998e-05	
230	-1.45000e+00	2.306102e-05	
231	-1.50000e+00	2.306929e-05	
232	-1.55000e+00	2.307577e-05	
233	-1.60000e+00	2.308106e-05	
234	-1.65000e+00	2.308552e-05	
235	-1.70000e+00	2.308937e-05	
236	-1.75000e+00	2.309277e-05	
237	-1.80000e+00	2.309582e-05	
238	-1.85000e+00	2.309859e-05	
239	-1.90000e+00	2.310114e-05	
240	-1.95000e+00	2.310351e-05	
241	-2.00000e+00	2.310573e-05	
242	-2.05000e+00	2.310781e-05	
243	-2.10000e+00	2.310979e-05	
244	-2.15000e+00	2.311166e-05	
245	-2.20000e+00	2.311345e-05	
246	-2.25000e+00	2.311516e-05	
247	-2.30000e+00	2.311680e-05	
248	-2.35000e+00	2.311838e-05	
249	-2.40000e+00	2.311990e-05	
250	-2.45000e+00	2.312137e-05	
251	-2.50000e+00	2.312279e-05	
252	-2.55000e+00	2.312417e-05	
253	-2.60000e+00	2.312551e-05	
254	-2.65000e+00	2.312681e-05	
255	-2.70000e+00	2.312808e-05	
256	-2.75000e+00	2.312931e-05	
257	-2.80000e+00	2.313051e-05	
258	-2.85000e+00	2.313169e-05	
259	-2.90000e+00	2.313283e-05	
260	-2.95000e+00	2.313396e-05	
261	-3.00000e+00	2.313505e-05	
262	-3.05000e+00	2.313613e-05	
263	-3.10000e+00	2.313718e-05	
264	-3.15000e+00	2.313822e-05	
265	-3.20000e+00	2.313923e-05	
266	-3.25000e+00	2.314023e-05	
267	-3.30000e+00	2.314121e-05	
268	-0.000000e+00	0.000000e+00	
269	-5.00000e-02	2.450872e-06	
270	-1.00000e-01	4.753341e-06	
271	-1.50000e-01	6.962388e-06	
272	-2.00000e-01	9.090837e-06	
273	-2.50000e-01	1.114170e-05	
274	-3.00000e-01	1.311569e-05	
275	-3.50000e-01	1.501300e-05	
276	-4.00000e-01	1.683370e-05	
277	-4.50000e-01	1.857783e-05	
278	-5.00000e-01	2.024543e-05	
279	-5.50000e-01	2.183652e-05	
280	-6.00000e-01	2.335114e-05	
281	-6.50000e-01	2.478932e-05	
282	-7.00000e-01	2.615112e-05	
283	-7.50000e-01	2.743656e-05	
284	-8.00000e-01	2.864570e-05	
285	-8.50000e-01	2.977859e-05	
286	-9.00000e-01	3.083530e-05	

Index   v-sweep         i(vds)          
--------------------------------------------------------------------------------
287	-9.50000e-01	3.181591e-05	
288	-1.00000e+00	3.272051e-05	
289	-1.05000e+00	3.354926e-05	
290	-1.10000e+00	3.430231e-05	
291	-1.15000e+00	3.497994e-05	
292	-1.20000e+00	3.558251e-05	
293	-1.25000e+00	3.611061e-05	
294	-1.30000e+00	3.656512e-05	
295	-1.35000e+00	3.694751e-05	
296	-1.40000e+00	3.726011e-05	
297	-1.45000e+00	3.750675e-05	
298	-1.50000e+00	3.769332e-05	
299	-1.55000e+00	3.782823e-05	
300	-1.60000e+00	3.792195e-05	
301	-1.65000e+00	3.798546e-05	
302	-1.70000e+00	3.802839e-05	
303	-1.75000e+00	3.805797e-05	
304	-1.80000e+00	3.807905e-05	
305	-1.85000e+00	3.809471e-05	
306	-1.90000e+00	3.810681e-05	
307	-1.95000e+00	3.811653e-05	
308	-2.00000e+00	3.812459e-05	
309	-2.05000e+00	3.813146e-05	
310	-2.10000e+00	3.813745e-05	
311	-2.15000e+00	3.814276e-05	
312	-2.20000e+00	3.814756e-05	
313	-2.25000e+00	3.815193e-05	
314	-2.30000e+00	3.815597e-05	
315	-2.35000e+00	3.815972e-05	
316	-2.40000e+00	3.816323e-05	
317	-2.45000e+00	3.816654e-05	
318	-2.50000e+00	3.816967e-05	
319	-2.55000e+00	3.817265e-05	
320	-2.60000e+00	3.817549e-05	
321	-2.65000e+00	3.817820e-05	
322	-2.70000e+00	3.818081e-05	
323	-2.75000e+00	3.818332e-05	
324	-2.80000e+00	3.818573e-05	
325	-2.85000e+00	3.818807e-05	
326	-2.90000e+00	3.819032e-05	
327	-2.95000e+00	3.819251e-05	
328	-3.00000e+00	3.819464e-05	
329	-3.05000e+00	3.819670e-05	
330	-3.10000e+00	3.819871e-05	
331	-3.15000e+00	3.820066e-05	
332	-3.20000e+00	3.820257e-05	
333	-3.25000e+00	3.820442e-05	
334	-3.30000e+00	3.820624e-05	
335	-0.000000e+00	0.000000e+00	
336	-5.00000e-02	2.876611e-06	
337	-1.00000e-01	5.610263e-06	
338	-1.50000e-01	8.255930e-06	
339	-2.00000e-01	1.082643e-05	
340	-2.50000e-01	1.332478e-05	
341	-3.00000e-01	1.575168e-05	
342	-3.50000e-01	1.810733e-05	
343	-4.00000e-01	2.039178e-05	
344	-4.50000e-01	2.260508e-05	

Index   v-sweep         i(vds)          
--------------------------------------------------------------------------------
345	-5.00000e-01	2.474724e-05	
346	-5.50000e-01	2.681830e-05	
347	-6.00000e-01	2.881827e-05	
348	-6.50000e-01	3.074719e-05	
349	-7.00000e-01	3.260509e-05	
350	-7.50000e-01	3.439198e-05	
351	-8.00000e-01	3.610790e-05	
352	-8.50000e-01	3.775287e-05	
353	-9.00000e-01	3.932693e-05	
354	-9.50000e-01	4.083011e-05	
355	-1.00000e+00	4.226245e-05	
356	-1.05000e+00	4.362397e-05	
357	-1.10000e+00	4.491472e-05	
358	-1.15000e+00	4.613475e-05	
359	-1.20000e+00	4.728410e-05	
360	-1.25000e+00	4.836284e-05	
361	-1.30000e+00	4.937104e-05	
362	-1.35000e+00	5.030879e-05	
363	-1.40000e+00	5.117620e-05	
364	-1.45000e+00	5.197343e-05	
365	-1.50000e+00	5.270067e-05	
366	-1.55000e+00	5.335820e-05	
367	-1.60000e+00	5.394645e-05	
368	-1.65000e+00	5.446599e-05	
369	-1.70000e+00	5.491775e-05	
370	-1.75000e+00	5.530309e-05	
371	-1.80000e+00	5.562417e-05	
372	-1.85000e+00	5.588424e-05	
373	-1.90000e+00	5.608815e-05	
374	-1.95000e+00	5.624256e-05	
375	-2.00000e+00	5.635579e-05	
376	-2.05000e+00	5.643697e-05	
377	-2.10000e+00	5.649470e-05	
378	-2.15000e+00	5.653613e-05	
379	-2.20000e+00	5.656651e-05	
380	-2.25000e+00	5.658948e-05	
381	-2.30000e+00	5.660743e-05	
382	-2.35000e+00	5.662191e-05	
383	-2.40000e+00	5.663395e-05	
384	-2.45000e+00	5.664421e-05	
385	-2.50000e+00	5.665314e-05	
386	-2.55000e+00	5.666106e-05	
387	-2.60000e+00	5.666819e-05	
388	-2.65000e+00	5.667469e-05	
389	-2.70000e+00	5.668066e-05	
390	-2.75000e+00	5.668621e-05	
391	-2.80000e+00	5.669140e-05	
392	-2.85000e+00	5.669628e-05	
393	-2.90000e+00	5.670089e-05	
394	-2.95000e+00	5.670527e-05	
395	-3.00000e+00	5.670945e-05	
396	-3.05000e+00	5.671343e-05	
397	-3.10000e+00	5.671726e-05	
398	-3.15000e+00	5.672093e-05	
399	-3.20000e+00	5.672447e-05	
400	-3.25000e+00	5.672789e-05	
401	-3.30000e+00	5.673119e-05	
Note: No ".plot", ".print", or ".fourier" lines; no simulations run
