
Note: Compatibility modes selected: hs

Warning: m=xx on .subckt line will override multiplier m hierarchy!


Circuit: ***************************

Doing analysis at TEMP = 125.000000 and TNOM = 125.000000


No. of Data Rows : 402
                          ***************************
                          DC transfer characteristic  Mon Jan  9 13:57:30  2023
--------------------------------------------------------------------------------
Index   v-sweep         i(vds)          
--------------------------------------------------------------------------------
0	-0.000000e+00	0.000000e+00	
1	-5.00000e-02	2.702663e-07	
2	-1.00000e-01	4.871158e-07	
3	-1.50000e-01	6.530067e-07	
4	-2.00000e-01	7.702789e-07	
5	-2.50000e-01	8.436288e-07	
6	-3.00000e-01	8.836527e-07	
7	-3.50000e-01	9.056420e-07	
8	-4.00000e-01	9.205733e-07	
9	-4.50000e-01	9.329143e-07	
10	-5.00000e-01	9.441416e-07	
11	-5.50000e-01	9.547756e-07	
12	-6.00000e-01	9.650300e-07	
13	-6.50000e-01	9.750080e-07	
14	-7.00000e-01	9.847671e-07	
15	-7.50000e-01	9.943436e-07	
16	-8.00000e-01	1.003763e-06	
17	-8.50000e-01	1.013043e-06	
18	-9.00000e-01	1.022200e-06	
19	-9.50000e-01	1.031245e-06	
20	-1.00000e+00	1.040189e-06	
21	-1.05000e+00	1.049040e-06	
22	-1.10000e+00	1.057807e-06	
23	-1.15000e+00	1.066496e-06	
24	-1.20000e+00	1.075113e-06	
25	-1.25000e+00	1.083665e-06	
26	-1.30000e+00	1.092155e-06	
27	-1.35000e+00	1.100589e-06	
28	-1.40000e+00	1.108971e-06	
29	-1.45000e+00	1.117304e-06	
30	-1.50000e+00	1.125592e-06	
31	-1.55000e+00	1.133838e-06	
32	-1.60000e+00	1.142046e-06	
33	-1.65000e+00	1.150218e-06	
34	-1.70000e+00	1.158356e-06	
35	-1.75000e+00	1.166463e-06	
36	-1.80000e+00	1.174541e-06	
37	-1.85000e+00	1.182593e-06	
38	-1.90000e+00	1.190620e-06	
39	-1.95000e+00	1.198624e-06	
40	-2.00000e+00	1.206606e-06	
41	-2.05000e+00	1.214570e-06	
42	-2.10000e+00	1.222515e-06	
43	-2.15000e+00	1.230444e-06	
44	-2.20000e+00	1.238358e-06	
45	-2.25000e+00	1.246259e-06	
46	-2.30000e+00	1.254148e-06	
47	-2.35000e+00	1.262027e-06	
48	-2.40000e+00	1.269898e-06	
49	-2.45000e+00	1.277762e-06	
50	-2.50000e+00	1.285622e-06	
51	-2.55000e+00	1.293479e-06	
52	-2.60000e+00	1.301336e-06	
53	-2.65000e+00	1.309196e-06	
54	-2.70000e+00	1.317062e-06	

Index   v-sweep         i(vds)          
--------------------------------------------------------------------------------
55	-2.75000e+00	1.324938e-06	
56	-2.80000e+00	1.332829e-06	
57	-2.85000e+00	1.340738e-06	
58	-2.90000e+00	1.348671e-06	
59	-2.95000e+00	1.356636e-06	
60	-3.00000e+00	1.364638e-06	
61	-3.05000e+00	1.372686e-06	
62	-3.10000e+00	1.380789e-06	
63	-3.15000e+00	1.388957e-06	
64	-3.20000e+00	1.397202e-06	
65	-3.25000e+00	1.405535e-06	
66	-3.30000e+00	1.413973e-06	
67	-0.000000e+00	0.000000e+00	
68	-5.00000e-02	8.135148e-07	
69	-1.00000e-01	1.563387e-06	
70	-1.50000e-01	2.251767e-06	
71	-2.00000e-01	2.879867e-06	
72	-2.50000e-01	3.448677e-06	
73	-3.00000e-01	3.959139e-06	
74	-3.50000e-01	4.412204e-06	
75	-4.00000e-01	4.808866e-06	
76	-4.50000e-01	5.150229e-06	
77	-5.00000e-01	5.437636e-06	
78	-5.50000e-01	5.672950e-06	
79	-6.00000e-01	5.859147e-06	
80	-6.50000e-01	6.001372e-06	
81	-7.00000e-01	6.107962e-06	
82	-7.50000e-01	6.189633e-06	
83	-8.00000e-01	6.256217e-06	
84	-8.50000e-01	6.314245e-06	
85	-9.00000e-01	6.367238e-06	
86	-9.50000e-01	6.416963e-06	
87	-1.00000e+00	6.464333e-06	
88	-1.05000e+00	6.509858e-06	
89	-1.10000e+00	6.553852e-06	
90	-1.15000e+00	6.596523e-06	
91	-1.20000e+00	6.638025e-06	
92	-1.25000e+00	6.678474e-06	
93	-1.30000e+00	6.717964e-06	
94	-1.35000e+00	6.756575e-06	
95	-1.40000e+00	6.794374e-06	
96	-1.45000e+00	6.831419e-06	
97	-1.50000e+00	6.867763e-06	
98	-1.55000e+00	6.903450e-06	
99	-1.60000e+00	6.938523e-06	
100	-1.65000e+00	6.973019e-06	
101	-1.70000e+00	7.006971e-06	
102	-1.75000e+00	7.040411e-06	
103	-1.80000e+00	7.073367e-06	
104	-1.85000e+00	7.105866e-06	
105	-1.90000e+00	7.137930e-06	
106	-1.95000e+00	7.169584e-06	
107	-2.00000e+00	7.200846e-06	
108	-2.05000e+00	7.231737e-06	
109	-2.10000e+00	7.262275e-06	
110	-2.15000e+00	7.292475e-06	
111	-2.20000e+00	7.322354e-06	
112	-2.25000e+00	7.351926e-06	

Index   v-sweep         i(vds)          
--------------------------------------------------------------------------------
113	-2.30000e+00	7.381205e-06	
114	-2.35000e+00	7.410203e-06	
115	-2.40000e+00	7.438934e-06	
116	-2.45000e+00	7.467408e-06	
117	-2.50000e+00	7.495637e-06	
118	-2.55000e+00	7.523631e-06	
119	-2.60000e+00	7.551402e-06	
120	-2.65000e+00	7.578959e-06	
121	-2.70000e+00	7.606314e-06	
122	-2.75000e+00	7.633477e-06	
123	-2.80000e+00	7.660458e-06	
124	-2.85000e+00	7.687271e-06	
125	-2.90000e+00	7.713927e-06	
126	-2.95000e+00	7.740441e-06	
127	-3.00000e+00	7.766828e-06	
128	-3.05000e+00	7.793105e-06	
129	-3.10000e+00	7.819292e-06	
130	-3.15000e+00	7.845410e-06	
131	-3.20000e+00	7.871484e-06	
132	-3.25000e+00	7.897542e-06	
133	-3.30000e+00	7.923615e-06	
134	-0.000000e+00	0.000000e+00	
135	-5.00000e-02	1.298530e-06	
136	-1.00000e-01	2.530757e-06	
137	-1.50000e-01	3.698800e-06	
138	-2.00000e-01	4.803834e-06	
139	-2.50000e-01	5.846805e-06	
140	-3.00000e-01	6.828592e-06	
141	-3.50000e-01	7.750049e-06	
142	-4.00000e-01	8.612018e-06	
143	-4.50000e-01	9.415328e-06	
144	-5.00000e-01	1.016080e-05	
145	-5.50000e-01	1.084926e-05	
146	-6.00000e-01	1.148151e-05	
147	-6.50000e-01	1.205841e-05	
148	-7.00000e-01	1.258082e-05	
149	-7.50000e-01	1.304966e-05	
150	-8.00000e-01	1.346600e-05	
151	-8.50000e-01	1.383111e-05	
152	-9.00000e-01	1.414671e-05	
153	-9.50000e-01	1.441531e-05	
154	-1.00000e+00	1.464078e-05	
155	-1.05000e+00	1.482888e-05	
156	-1.10000e+00	1.498718e-05	
157	-1.15000e+00	1.512381e-05	
158	-1.20000e+00	1.524562e-05	
159	-1.25000e+00	1.535739e-05	
160	-1.30000e+00	1.546207e-05	
161	-1.35000e+00	1.556141e-05	
162	-1.40000e+00	1.565646e-05	
163	-1.45000e+00	1.574794e-05	
164	-1.50000e+00	1.583630e-05	
165	-1.55000e+00	1.592189e-05	
166	-1.60000e+00	1.600499e-05	
167	-1.65000e+00	1.608582e-05	
168	-1.70000e+00	1.616455e-05	
169	-1.75000e+00	1.624135e-05	
170	-1.80000e+00	1.631635e-05	

Index   v-sweep         i(vds)          
--------------------------------------------------------------------------------
171	-1.85000e+00	1.638967e-05	
172	-1.90000e+00	1.646141e-05	
173	-1.95000e+00	1.653168e-05	
174	-2.00000e+00	1.660056e-05	
175	-2.05000e+00	1.666813e-05	
176	-2.10000e+00	1.673446e-05	
177	-2.15000e+00	1.679962e-05	
178	-2.20000e+00	1.686367e-05	
179	-2.25000e+00	1.692667e-05	
180	-2.30000e+00	1.698867e-05	
181	-2.35000e+00	1.704971e-05	
182	-2.40000e+00	1.710985e-05	
183	-2.45000e+00	1.716912e-05	
184	-2.50000e+00	1.722756e-05	
185	-2.55000e+00	1.728522e-05	
186	-2.60000e+00	1.734212e-05	
187	-2.65000e+00	1.739829e-05	
188	-2.70000e+00	1.745377e-05	
189	-2.75000e+00	1.750859e-05	
190	-2.80000e+00	1.756277e-05	
191	-2.85000e+00	1.761634e-05	
192	-2.90000e+00	1.766933e-05	
193	-2.95000e+00	1.772175e-05	
194	-3.00000e+00	1.777364e-05	
195	-3.05000e+00	1.782501e-05	
196	-3.10000e+00	1.787589e-05	
197	-3.15000e+00	1.792632e-05	
198	-3.20000e+00	1.797630e-05	
199	-3.25000e+00	1.802588e-05	
200	-3.30000e+00	1.807508e-05	
201	-0.000000e+00	0.000000e+00	
202	-5.00000e-02	1.734682e-06	
203	-1.00000e-01	3.401879e-06	
204	-1.50000e-01	5.003678e-06	
205	-2.00000e-01	6.541218e-06	
206	-2.50000e-01	8.015412e-06	
207	-3.00000e-01	9.427105e-06	
208	-3.50000e-01	1.077712e-05	
209	-4.00000e-01	1.206626e-05	
210	-4.50000e-01	1.329531e-05	
211	-5.00000e-01	1.446506e-05	
212	-5.50000e-01	1.557627e-05	
213	-6.00000e-01	1.662970e-05	
214	-6.50000e-01	1.762609e-05	
215	-7.00000e-01	1.856618e-05	
216	-7.50000e-01	1.945071e-05	
217	-8.00000e-01	2.028038e-05	
218	-8.50000e-01	2.105594e-05	
219	-9.00000e-01	2.177810e-05	
220	-9.50000e-01	2.244761e-05	
221	-1.00000e+00	2.306524e-05	
222	-1.05000e+00	2.363180e-05	
223	-1.10000e+00	2.414819e-05	
224	-1.15000e+00	2.461546e-05	
225	-1.20000e+00	2.503491e-05	
226	-1.25000e+00	2.540830e-05	
227	-1.30000e+00	2.573811e-05	
228	-1.35000e+00	2.602791e-05	

Index   v-sweep         i(vds)          
--------------------------------------------------------------------------------
229	-1.40000e+00	2.628265e-05	
230	-1.45000e+00	2.650840e-05	
231	-1.50000e+00	2.671159e-05	
232	-1.55000e+00	2.689785e-05	
233	-1.60000e+00	2.707145e-05	
234	-1.65000e+00	2.723532e-05	
235	-1.70000e+00	2.739139e-05	
236	-1.75000e+00	2.754097e-05	
237	-1.80000e+00	2.768495e-05	
238	-1.85000e+00	2.782398e-05	
239	-1.90000e+00	2.795857e-05	
240	-1.95000e+00	2.808913e-05	
241	-2.00000e+00	2.821597e-05	
242	-2.05000e+00	2.833939e-05	
243	-2.10000e+00	2.845963e-05	
244	-2.15000e+00	2.857691e-05	
245	-2.20000e+00	2.869140e-05	
246	-2.25000e+00	2.880330e-05	
247	-2.30000e+00	2.891274e-05	
248	-2.35000e+00	2.901988e-05	
249	-2.40000e+00	2.912483e-05	
250	-2.45000e+00	2.922772e-05	
251	-2.50000e+00	2.932866e-05	
252	-2.55000e+00	2.942773e-05	
253	-2.60000e+00	2.952504e-05	
254	-2.65000e+00	2.962067e-05	
255	-2.70000e+00	2.971470e-05	
256	-2.75000e+00	2.980720e-05	
257	-2.80000e+00	2.989825e-05	
258	-2.85000e+00	2.998790e-05	
259	-2.90000e+00	3.007621e-05	
260	-2.95000e+00	3.016325e-05	
261	-3.00000e+00	3.024906e-05	
262	-3.05000e+00	3.033370e-05	
263	-3.10000e+00	3.041721e-05	
264	-3.15000e+00	3.049964e-05	
265	-3.20000e+00	3.058103e-05	
266	-3.25000e+00	3.066142e-05	
267	-3.30000e+00	3.074086e-05	
268	-0.000000e+00	0.000000e+00	
269	-5.00000e-02	2.133664e-06	
270	-1.00000e-01	4.199174e-06	
271	-1.50000e-01	6.198580e-06	
272	-2.00000e-01	8.132993e-06	
273	-2.50000e-01	1.000330e-05	
274	-3.00000e-01	1.181030e-05	
275	-3.50000e-01	1.355481e-05	
276	-4.00000e-01	1.523758e-05	
277	-4.50000e-01	1.685940e-05	
278	-5.00000e-01	1.842100e-05	
279	-5.50000e-01	1.992314e-05	
280	-6.00000e-01	2.136653e-05	
281	-6.50000e-01	2.275189e-05	
282	-7.00000e-01	2.407993e-05	
283	-7.50000e-01	2.535134e-05	
284	-8.00000e-01	2.656682e-05	
285	-8.50000e-01	2.772703e-05	
286	-9.00000e-01	2.883265e-05	

Index   v-sweep         i(vds)          
--------------------------------------------------------------------------------
287	-9.50000e-01	2.988434e-05	
288	-1.00000e+00	3.088274e-05	
289	-1.05000e+00	3.182852e-05	
290	-1.10000e+00	3.272231e-05	
291	-1.15000e+00	3.356477e-05	
292	-1.20000e+00	3.435655e-05	
293	-1.25000e+00	3.509832e-05	
294	-1.30000e+00	3.579077e-05	
295	-1.35000e+00	3.643463e-05	
296	-1.40000e+00	3.703071e-05	
297	-1.45000e+00	3.757994e-05	
298	-1.50000e+00	3.808344e-05	
299	-1.55000e+00	3.854266e-05	
300	-1.60000e+00	3.895955e-05	
301	-1.65000e+00	3.933680e-05	
302	-1.70000e+00	3.967805e-05	
303	-1.75000e+00	3.998792e-05	
304	-1.80000e+00	4.027157e-05	
305	-1.85000e+00	4.053408e-05	
306	-1.90000e+00	4.077977e-05	
307	-1.95000e+00	4.101197e-05	
308	-2.00000e+00	4.123308e-05	
309	-2.05000e+00	4.144481e-05	
310	-2.10000e+00	4.164838e-05	
311	-2.15000e+00	4.184475e-05	
312	-2.20000e+00	4.203461e-05	
313	-2.25000e+00	4.221854e-05	
314	-2.30000e+00	4.239705e-05	
315	-2.35000e+00	4.257052e-05	
316	-2.40000e+00	4.273932e-05	
317	-2.45000e+00	4.290376e-05	
318	-2.50000e+00	4.306412e-05	
319	-2.55000e+00	4.322065e-05	
320	-2.60000e+00	4.337358e-05	
321	-2.65000e+00	4.352310e-05	
322	-2.70000e+00	4.366941e-05	
323	-2.75000e+00	4.381268e-05	
324	-2.80000e+00	4.395306e-05	
325	-2.85000e+00	4.409071e-05	
326	-2.90000e+00	4.422575e-05	
327	-2.95000e+00	4.435831e-05	
328	-3.00000e+00	4.448851e-05	
329	-3.05000e+00	4.461646e-05	
330	-3.10000e+00	4.474225e-05	
331	-3.15000e+00	4.486598e-05	
332	-3.20000e+00	4.498774e-05	
333	-3.25000e+00	4.510761e-05	
334	-3.30000e+00	4.522567e-05	
335	-0.000000e+00	0.000000e+00	
336	-5.00000e-02	2.504649e-06	
337	-1.00000e-01	4.940653e-06	
338	-1.50000e-01	7.310035e-06	
339	-2.00000e-01	9.613880e-06	
340	-2.50000e-01	1.185304e-05	
341	-3.00000e-01	1.402831e-05	
342	-3.50000e-01	1.614046e-05	
343	-4.00000e-01	1.819024e-05	
344	-4.50000e-01	2.017839e-05	

Index   v-sweep         i(vds)          
--------------------------------------------------------------------------------
345	-5.00000e-01	2.210564e-05	
346	-5.50000e-01	2.397271e-05	
347	-6.00000e-01	2.578030e-05	
348	-6.50000e-01	2.752912e-05	
349	-7.00000e-01	2.921984e-05	
350	-7.50000e-01	3.085315e-05	
351	-8.00000e-01	3.242970e-05	
352	-8.50000e-01	3.395016e-05	
353	-9.00000e-01	3.541516e-05	
354	-9.50000e-01	3.682535e-05	
355	-1.00000e+00	3.818136e-05	
356	-1.05000e+00	3.948380e-05	
357	-1.10000e+00	4.073329e-05	
358	-1.15000e+00	4.193043e-05	
359	-1.20000e+00	4.307582e-05	
360	-1.25000e+00	4.417006e-05	
361	-1.30000e+00	4.521373e-05	
362	-1.35000e+00	4.620741e-05	
363	-1.40000e+00	4.715171e-05	
364	-1.45000e+00	4.804719e-05	
365	-1.50000e+00	4.889447e-05	
366	-1.55000e+00	4.969415e-05	
367	-1.60000e+00	5.044687e-05	
368	-1.65000e+00	5.115331e-05	
369	-1.70000e+00	5.181423e-05	
370	-1.75000e+00	5.243048e-05	
371	-1.80000e+00	5.300311e-05	
372	-1.85000e+00	5.353342e-05	
373	-1.90000e+00	5.402314e-05	
374	-1.95000e+00	5.447458e-05	
375	-2.00000e+00	5.489075e-05	
376	-2.05000e+00	5.527541e-05	
377	-2.10000e+00	5.563281e-05	
378	-2.15000e+00	5.596721e-05	
379	-2.20000e+00	5.628246e-05	
380	-2.25000e+00	5.658169e-05	
381	-2.30000e+00	5.686733e-05	
382	-2.35000e+00	5.714120e-05	
383	-2.40000e+00	5.740470e-05	
384	-2.45000e+00	5.765892e-05	
385	-2.50000e+00	5.790471e-05	
386	-2.55000e+00	5.814279e-05	
387	-2.60000e+00	5.837376e-05	
388	-2.65000e+00	5.859814e-05	
389	-2.70000e+00	5.881638e-05	
390	-2.75000e+00	5.902889e-05	
391	-2.80000e+00	5.923602e-05	
392	-2.85000e+00	5.943810e-05	
393	-2.90000e+00	5.963541e-05	
394	-2.95000e+00	5.982823e-05	
395	-3.00000e+00	6.001680e-05	
396	-3.05000e+00	6.020134e-05	
397	-3.10000e+00	6.038206e-05	
398	-3.15000e+00	6.055915e-05	
399	-3.20000e+00	6.073278e-05	
400	-3.25000e+00	6.090312e-05	
401	-3.30000e+00	6.107033e-05	
Note: No ".plot", ".print", or ".fourier" lines; no simulations run
