
Note: Compatibility modes selected: hs

Warning: m=xx on .subckt line will override multiplier m hierarchy!


Circuit: ***************************

Doing analysis at TEMP = -40.000000 and TNOM = -40.000000


No. of Data Rows : 402
                          ***************************
                          DC transfer characteristic  Mon Jan  9 13:57:29  2023
--------------------------------------------------------------------------------
Index   v-sweep         i(vds)          
--------------------------------------------------------------------------------
0	-0.000000e+00	0.000000e+00	
1	-5.00000e-02	1.235940e-06	
2	-1.00000e-01	1.470943e-06	
3	-1.50000e-01	1.543262e-06	
4	-2.00000e-01	1.595338e-06	
5	-2.50000e-01	1.642429e-06	
6	-3.00000e-01	1.687566e-06	
7	-3.50000e-01	1.731743e-06	
8	-4.00000e-01	1.775412e-06	
9	-4.50000e-01	1.818829e-06	
10	-5.00000e-01	1.862160e-06	
11	-5.50000e-01	1.905522e-06	
12	-6.00000e-01	1.949003e-06	
13	-6.50000e-01	1.992673e-06	
14	-7.00000e-01	2.036587e-06	
15	-7.50000e-01	2.080792e-06	
16	-8.00000e-01	2.125327e-06	
17	-8.50000e-01	2.170226e-06	
18	-9.00000e-01	2.215518e-06	
19	-9.50000e-01	2.261230e-06	
20	-1.00000e+00	2.307385e-06	
21	-1.05000e+00	2.354003e-06	
22	-1.10000e+00	2.401104e-06	
23	-1.15000e+00	2.448704e-06	
24	-1.20000e+00	2.496820e-06	
25	-1.25000e+00	2.545467e-06	
26	-1.30000e+00	2.594658e-06	
27	-1.35000e+00	2.644406e-06	
28	-1.40000e+00	2.694723e-06	
29	-1.45000e+00	2.745622e-06	
30	-1.50000e+00	2.797113e-06	
31	-1.55000e+00	2.849206e-06	
32	-1.60000e+00	2.901912e-06	
33	-1.65000e+00	2.955241e-06	
34	-1.70000e+00	3.009201e-06	
35	-1.75000e+00	3.063803e-06	
36	-1.80000e+00	3.119054e-06	
37	-1.85000e+00	3.174964e-06	
38	-1.90000e+00	3.231541e-06	
39	-1.95000e+00	3.288795e-06	
40	-2.00000e+00	3.346733e-06	
41	-2.05000e+00	3.405365e-06	
42	-2.10000e+00	3.464699e-06	
43	-2.15000e+00	3.524746e-06	
44	-2.20000e+00	3.585514e-06	
45	-2.25000e+00	3.647016e-06	
46	-2.30000e+00	3.709261e-06	
47	-2.35000e+00	3.772263e-06	
48	-2.40000e+00	3.836036e-06	
49	-2.45000e+00	3.900594e-06	
50	-2.50000e+00	3.965955e-06	
51	-2.55000e+00	4.032139e-06	
52	-2.60000e+00	4.099168e-06	
53	-2.65000e+00	4.167065e-06	
54	-2.70000e+00	4.235859e-06	

Index   v-sweep         i(vds)          
--------------------------------------------------------------------------------
55	-2.75000e+00	4.305581e-06	
56	-2.80000e+00	4.376268e-06	
57	-2.85000e+00	4.447959e-06	
58	-2.90000e+00	4.520701e-06	
59	-2.95000e+00	4.594543e-06	
60	-3.00000e+00	4.669544e-06	
61	-3.05000e+00	4.745767e-06	
62	-3.10000e+00	4.823283e-06	
63	-3.15000e+00	4.902172e-06	
64	-3.20000e+00	4.982521e-06	
65	-3.25000e+00	5.064427e-06	
66	-3.30000e+00	5.147997e-06	
67	-0.000000e+00	0.000000e+00	
68	-5.00000e-02	4.044197e-05	
69	-1.00000e-01	7.580886e-05	
70	-1.50000e-01	1.062402e-04	
71	-2.00000e-01	1.318772e-04	
72	-2.50000e-01	1.528714e-04	
73	-3.00000e-01	1.694055e-04	
74	-3.50000e-01	1.817502e-04	
75	-4.00000e-01	1.903930e-04	
76	-4.50000e-01	1.961921e-04	
77	-5.00000e-01	2.002271e-04	
78	-5.50000e-01	2.033335e-04	
79	-6.00000e-01	2.059484e-04	
80	-6.50000e-01	2.082697e-04	
81	-7.00000e-01	2.103918e-04	
82	-7.50000e-01	2.123660e-04	
83	-8.00000e-01	2.142238e-04	
84	-8.50000e-01	2.159865e-04	
85	-9.00000e-01	2.176696e-04	
86	-9.50000e-01	2.192845e-04	
87	-1.00000e+00	2.208406e-04	
88	-1.05000e+00	2.223452e-04	
89	-1.10000e+00	2.238042e-04	
90	-1.15000e+00	2.252228e-04	
91	-1.20000e+00	2.266051e-04	
92	-1.25000e+00	2.279549e-04	
93	-1.30000e+00	2.292751e-04	
94	-1.35000e+00	2.305685e-04	
95	-1.40000e+00	2.318374e-04	
96	-1.45000e+00	2.330839e-04	
97	-1.50000e+00	2.343098e-04	
98	-1.55000e+00	2.355168e-04	
99	-1.60000e+00	2.367063e-04	
100	-1.65000e+00	2.378796e-04	
101	-1.70000e+00	2.390378e-04	
102	-1.75000e+00	2.401820e-04	
103	-1.80000e+00	2.413132e-04	
104	-1.85000e+00	2.424322e-04	
105	-1.90000e+00	2.435399e-04	
106	-1.95000e+00	2.446369e-04	
107	-2.00000e+00	2.457239e-04	
108	-2.05000e+00	2.468015e-04	
109	-2.10000e+00	2.478703e-04	
110	-2.15000e+00	2.489308e-04	
111	-2.20000e+00	2.499835e-04	
112	-2.25000e+00	2.510289e-04	

Index   v-sweep         i(vds)          
--------------------------------------------------------------------------------
113	-2.30000e+00	2.520674e-04	
114	-2.35000e+00	2.530994e-04	
115	-2.40000e+00	2.541254e-04	
116	-2.45000e+00	2.551458e-04	
117	-2.50000e+00	2.561609e-04	
118	-2.55000e+00	2.571713e-04	
119	-2.60000e+00	2.581774e-04	
120	-2.65000e+00	2.591796e-04	
121	-2.70000e+00	2.601785e-04	
122	-2.75000e+00	2.611747e-04	
123	-2.80000e+00	2.621688e-04	
124	-2.85000e+00	2.631616e-04	
125	-2.90000e+00	2.641538e-04	
126	-2.95000e+00	2.651465e-04	
127	-3.00000e+00	2.661407e-04	
128	-3.05000e+00	2.671374e-04	
129	-3.10000e+00	2.681382e-04	
130	-3.15000e+00	2.691445e-04	
131	-3.20000e+00	2.701579e-04	
132	-3.25000e+00	2.711804e-04	
133	-3.30000e+00	2.722141e-04	
134	-0.000000e+00	0.000000e+00	
135	-5.00000e-02	7.389211e-05	
136	-1.00000e-01	1.427181e-04	
137	-1.50000e-01	2.065929e-04	
138	-2.00000e-01	2.656280e-04	
139	-2.50000e-01	3.199324e-04	
140	-3.00000e-01	3.696123e-04	
141	-3.50000e-01	4.147717e-04	
142	-4.00000e-01	4.555136e-04	
143	-4.50000e-01	4.919406e-04	
144	-5.00000e-01	5.241578e-04	
145	-5.50000e-01	5.522770e-04	
146	-6.00000e-01	5.764258e-04	
147	-6.50000e-01	5.967671e-04	
148	-7.00000e-01	6.135360e-04	
149	-7.50000e-01	6.270986e-04	
150	-8.00000e-01	6.379971e-04	
151	-8.50000e-01	6.468916e-04	
152	-9.00000e-01	6.543920e-04	
153	-9.50000e-01	6.609385e-04	
154	-1.00000e+00	6.668081e-04	
155	-1.05000e+00	6.721708e-04	
156	-1.10000e+00	6.771357e-04	
157	-1.15000e+00	6.817768e-04	
158	-1.20000e+00	6.861476e-04	
159	-1.25000e+00	6.902884e-04	
160	-1.30000e+00	6.942304e-04	
161	-1.35000e+00	6.979988e-04	
162	-1.40000e+00	7.016140e-04	
163	-1.45000e+00	7.050929e-04	
164	-1.50000e+00	7.084497e-04	
165	-1.55000e+00	7.116966e-04	
166	-1.60000e+00	7.148440e-04	
167	-1.65000e+00	7.179007e-04	
168	-1.70000e+00	7.208746e-04	
169	-1.75000e+00	7.237726e-04	
170	-1.80000e+00	7.266007e-04	

Index   v-sweep         i(vds)          
--------------------------------------------------------------------------------
171	-1.85000e+00	7.293643e-04	
172	-1.90000e+00	7.320680e-04	
173	-1.95000e+00	7.347163e-04	
174	-2.00000e+00	7.373129e-04	
175	-2.05000e+00	7.398612e-04	
176	-2.10000e+00	7.423645e-04	
177	-2.15000e+00	7.448255e-04	
178	-2.20000e+00	7.472469e-04	
179	-2.25000e+00	7.496310e-04	
180	-2.30000e+00	7.519799e-04	
181	-2.35000e+00	7.542957e-04	
182	-2.40000e+00	7.565802e-04	
183	-2.45000e+00	7.588351e-04	
184	-2.50000e+00	7.610619e-04	
185	-2.55000e+00	7.632623e-04	
186	-2.60000e+00	7.654375e-04	
187	-2.65000e+00	7.675889e-04	
188	-2.70000e+00	7.697179e-04	
189	-2.75000e+00	7.718256e-04	
190	-2.80000e+00	7.739133e-04	
191	-2.85000e+00	7.759823e-04	
192	-2.90000e+00	7.780338e-04	
193	-2.95000e+00	7.800693e-04	
194	-3.00000e+00	7.820902e-04	
195	-3.05000e+00	7.840981e-04	
196	-3.10000e+00	7.860948e-04	
197	-3.15000e+00	7.880821e-04	
198	-3.20000e+00	7.900622e-04	
199	-3.25000e+00	7.920375e-04	
200	-3.30000e+00	7.940109e-04	
201	-0.000000e+00	0.000000e+00	
202	-5.00000e-02	9.897786e-05	
203	-1.00000e-01	1.931357e-04	
204	-1.50000e-01	2.825687e-04	
205	-2.00000e-01	3.673701e-04	
206	-2.50000e-01	4.476302e-04	
207	-3.00000e-01	5.234375e-04	
208	-3.50000e-01	5.948780e-04	
209	-4.00000e-01	6.620360e-04	
210	-4.50000e-01	7.249936e-04	
211	-5.00000e-01	7.838311e-04	
212	-5.50000e-01	8.386276e-04	
213	-6.00000e-01	8.894604e-04	
214	-6.50000e-01	9.364062e-04	
215	-7.00000e-01	9.795411e-04	
216	-7.50000e-01	1.018942e-03	
217	-8.00000e-01	1.054688e-03	
218	-8.50000e-01	1.086863e-03	
219	-9.00000e-01	1.115563e-03	
220	-9.50000e-01	1.140903e-03	
221	-1.00000e+00	1.163036e-03	
222	-1.05000e+00	1.182182e-03	
223	-1.10000e+00	1.198654e-03	
224	-1.15000e+00	1.212858e-03	
225	-1.20000e+00	1.225244e-03	
226	-1.25000e+00	1.236222e-03	
227	-1.30000e+00	1.246112e-03	
228	-1.35000e+00	1.255149e-03	

Index   v-sweep         i(vds)          
--------------------------------------------------------------------------------
229	-1.40000e+00	1.263497e-03	
230	-1.45000e+00	1.271277e-03	
231	-1.50000e+00	1.278579e-03	
232	-1.55000e+00	1.285470e-03	
233	-1.60000e+00	1.292005e-03	
234	-1.65000e+00	1.298229e-03	
235	-1.70000e+00	1.304177e-03	
236	-1.75000e+00	1.309879e-03	
237	-1.80000e+00	1.315361e-03	
238	-1.85000e+00	1.320644e-03	
239	-1.90000e+00	1.325746e-03	
240	-1.95000e+00	1.330683e-03	
241	-2.00000e+00	1.335471e-03	
242	-2.05000e+00	1.340120e-03	
243	-2.10000e+00	1.344642e-03	
244	-2.15000e+00	1.349046e-03	
245	-2.20000e+00	1.353341e-03	
246	-2.25000e+00	1.357534e-03	
247	-2.30000e+00	1.361633e-03	
248	-2.35000e+00	1.365643e-03	
249	-2.40000e+00	1.369571e-03	
250	-2.45000e+00	1.373421e-03	
251	-2.50000e+00	1.377199e-03	
252	-2.55000e+00	1.380907e-03	
253	-2.60000e+00	1.384551e-03	
254	-2.65000e+00	1.388134e-03	
255	-2.70000e+00	1.391659e-03	
256	-2.75000e+00	1.395129e-03	
257	-2.80000e+00	1.398548e-03	
258	-2.85000e+00	1.401917e-03	
259	-2.90000e+00	1.405239e-03	
260	-2.95000e+00	1.408517e-03	
261	-3.00000e+00	1.411753e-03	
262	-3.05000e+00	1.414950e-03	
263	-3.10000e+00	1.418108e-03	
264	-3.15000e+00	1.421232e-03	
265	-3.20000e+00	1.424322e-03	
266	-3.25000e+00	1.427381e-03	
267	-3.30000e+00	1.430413e-03	
268	-0.000000e+00	0.000000e+00	
269	-5.00000e-02	1.180246e-04	
270	-1.00000e-01	2.315357e-04	
271	-1.50000e-01	3.406126e-04	
272	-2.00000e-01	4.453326e-04	
273	-2.50000e-01	5.457713e-04	
274	-3.00000e-01	6.420026e-04	
275	-3.50000e-01	7.340985e-04	
276	-4.00000e-01	8.221298e-04	
277	-4.50000e-01	9.061655e-04	
278	-5.00000e-01	9.862731e-04	
279	-5.50000e-01	1.062519e-03	
280	-6.00000e-01	1.134967e-03	
281	-6.50000e-01	1.203681e-03	
282	-7.00000e-01	1.268724e-03	
283	-7.50000e-01	1.330156e-03	
284	-8.00000e-01	1.388037e-03	
285	-8.50000e-01	1.442427e-03	
286	-9.00000e-01	1.493384e-03	

Index   v-sweep         i(vds)          
--------------------------------------------------------------------------------
287	-9.50000e-01	1.540965e-03	
288	-1.00000e+00	1.585229e-03	
289	-1.05000e+00	1.626236e-03	
290	-1.10000e+00	1.664045e-03	
291	-1.15000e+00	1.698724e-03	
292	-1.20000e+00	1.730344e-03	
293	-1.25000e+00	1.758992e-03	
294	-1.30000e+00	1.784781e-03	
295	-1.35000e+00	1.807861e-03	
296	-1.40000e+00	1.828438e-03	
297	-1.45000e+00	1.846780e-03	
298	-1.50000e+00	1.863199e-03	
299	-1.55000e+00	1.878014e-03	
300	-1.60000e+00	1.891509e-03	
301	-1.65000e+00	1.903917e-03	
302	-1.70000e+00	1.915419e-03	
303	-1.75000e+00	1.926157e-03	
304	-1.80000e+00	1.936242e-03	
305	-1.85000e+00	1.945761e-03	
306	-1.90000e+00	1.954785e-03	
307	-1.95000e+00	1.963374e-03	
308	-2.00000e+00	1.971575e-03	
309	-2.05000e+00	1.979429e-03	
310	-2.10000e+00	1.986970e-03	
311	-2.15000e+00	1.994229e-03	
312	-2.20000e+00	2.001230e-03	
313	-2.25000e+00	2.007996e-03	
314	-2.30000e+00	2.014547e-03	
315	-2.35000e+00	2.020900e-03	
316	-2.40000e+00	2.027070e-03	
317	-2.45000e+00	2.033070e-03	
318	-2.50000e+00	2.038913e-03	
319	-2.55000e+00	2.044610e-03	
320	-2.60000e+00	2.050169e-03	
321	-2.65000e+00	2.055601e-03	
322	-2.70000e+00	2.060913e-03	
323	-2.75000e+00	2.066112e-03	
324	-2.80000e+00	2.071205e-03	
325	-2.85000e+00	2.076199e-03	
326	-2.90000e+00	2.081098e-03	
327	-2.95000e+00	2.085908e-03	
328	-3.00000e+00	2.090633e-03	
329	-3.05000e+00	2.095279e-03	
330	-3.10000e+00	2.099848e-03	
331	-3.15000e+00	2.104346e-03	
332	-3.20000e+00	2.108775e-03	
333	-3.25000e+00	2.113138e-03	
334	-3.30000e+00	2.117441e-03	
335	-0.000000e+00	0.000000e+00	
336	-5.00000e-02	1.326421e-04	
337	-1.00000e-01	2.610858e-04	
338	-1.50000e-01	3.853973e-04	
339	-2.00000e-01	5.056411e-04	
340	-2.50000e-01	6.218804e-04	
341	-3.00000e-01	7.341772e-04	
342	-3.50000e-01	8.425924e-04	
343	-4.00000e-01	9.471852e-04	
344	-4.50000e-01	1.048014e-03	

Index   v-sweep         i(vds)          
--------------------------------------------------------------------------------
345	-5.00000e-01	1.145136e-03	
346	-5.50000e-01	1.238607e-03	
347	-6.00000e-01	1.328483e-03	
348	-6.50000e-01	1.414816e-03	
349	-7.00000e-01	1.497660e-03	
350	-7.50000e-01	1.577066e-03	
351	-8.00000e-01	1.653086e-03	
352	-8.50000e-01	1.725768e-03	
353	-9.00000e-01	1.795164e-03	
354	-9.50000e-01	1.861319e-03	
355	-1.00000e+00	1.924283e-03	
356	-1.05000e+00	1.984101e-03	
357	-1.10000e+00	2.040819e-03	
358	-1.15000e+00	2.094484e-03	
359	-1.20000e+00	2.145141e-03	
360	-1.25000e+00	2.192834e-03	
361	-1.30000e+00	2.237609e-03	
362	-1.35000e+00	2.279513e-03	
363	-1.40000e+00	2.318594e-03	
364	-1.45000e+00	2.354903e-03	
365	-1.50000e+00	2.388498e-03	
366	-1.55000e+00	2.419446e-03	
367	-1.60000e+00	2.447832e-03	
368	-1.65000e+00	2.473766e-03	
369	-1.70000e+00	2.497392e-03	
370	-1.75000e+00	2.518897e-03	
371	-1.80000e+00	2.538506e-03	
372	-1.85000e+00	2.556456e-03	
373	-1.90000e+00	2.572981e-03	
374	-1.95000e+00	2.588287e-03	
375	-2.00000e+00	2.602549e-03	
376	-2.05000e+00	2.615911e-03	
377	-2.10000e+00	2.628491e-03	
378	-2.15000e+00	2.640387e-03	
379	-2.20000e+00	2.651678e-03	
380	-2.25000e+00	2.662433e-03	
381	-2.30000e+00	2.672708e-03	
382	-2.35000e+00	2.682550e-03	
383	-2.40000e+00	2.692002e-03	
384	-2.45000e+00	2.701098e-03	
385	-2.50000e+00	2.709871e-03	
386	-2.55000e+00	2.718347e-03	
387	-2.60000e+00	2.726551e-03	
388	-2.65000e+00	2.734502e-03	
389	-2.70000e+00	2.742221e-03	
390	-2.75000e+00	2.749723e-03	
391	-2.80000e+00	2.757025e-03	
392	-2.85000e+00	2.764138e-03	
393	-2.90000e+00	2.771077e-03	
394	-2.95000e+00	2.777851e-03	
395	-3.00000e+00	2.784471e-03	
396	-3.05000e+00	2.790946e-03	
397	-3.10000e+00	2.797284e-03	
398	-3.15000e+00	2.803493e-03	
399	-3.20000e+00	2.809580e-03	
400	-3.25000e+00	2.815552e-03	
401	-3.30000e+00	2.821415e-03	
Note: No ".plot", ".print", or ".fourier" lines; no simulations run
