
Note: Compatibility modes selected: hs

Warning: m=xx on .subckt line will override multiplier m hierarchy!


Circuit: ***************************

Doing analysis at TEMP = 25.000000 and TNOM = 25.000000


No. of Data Rows : 402
                          ***************************
                          DC transfer characteristic  Mon Jan  9 13:57:29  2023
--------------------------------------------------------------------------------
Index   v-sweep         i(vds)          
--------------------------------------------------------------------------------
0	-0.000000e+00	0.000000e+00	
1	-5.00000e-02	5.191337e-08	
2	-1.00000e-01	6.389305e-08	
3	-1.50000e-01	6.581955e-08	
4	-2.00000e-01	6.641336e-08	
5	-2.50000e-01	6.673740e-08	
6	-3.00000e-01	6.697238e-08	
7	-3.50000e-01	6.716662e-08	
8	-4.00000e-01	6.733765e-08	
9	-4.50000e-01	6.749337e-08	
10	-5.00000e-01	6.763793e-08	
11	-5.50000e-01	6.777382e-08	
12	-6.00000e-01	6.790264e-08	
13	-6.50000e-01	6.802552e-08	
14	-7.00000e-01	6.814331e-08	
15	-7.50000e-01	6.825664e-08	
16	-8.00000e-01	6.836602e-08	
17	-8.50000e-01	6.847188e-08	
18	-9.00000e-01	6.857456e-08	
19	-9.50000e-01	6.867436e-08	
20	-1.00000e+00	6.877152e-08	
21	-1.05000e+00	6.886626e-08	
22	-1.10000e+00	6.895878e-08	
23	-1.15000e+00	6.904925e-08	
24	-1.20000e+00	6.913780e-08	
25	-1.25000e+00	6.922458e-08	
26	-1.30000e+00	6.930970e-08	
27	-1.35000e+00	6.939326e-08	
28	-1.40000e+00	6.947538e-08	
29	-1.45000e+00	6.955612e-08	
30	-1.50000e+00	6.963558e-08	
31	-1.55000e+00	6.971382e-08	
32	-1.60000e+00	6.979091e-08	
33	-1.65000e+00	6.986692e-08	
34	-1.70000e+00	6.994190e-08	
35	-1.75000e+00	7.001590e-08	
36	-1.80000e+00	7.008898e-08	
37	-1.85000e+00	7.016117e-08	
38	-1.90000e+00	7.023252e-08	
39	-1.95000e+00	7.030308e-08	
40	-2.00000e+00	7.037287e-08	
41	-2.05000e+00	7.044195e-08	
42	-2.10000e+00	7.051035e-08	
43	-2.15000e+00	7.057811e-08	
44	-2.20000e+00	7.064527e-08	
45	-2.25000e+00	7.071188e-08	
46	-2.30000e+00	7.077797e-08	
47	-2.35000e+00	7.084361e-08	
48	-2.40000e+00	7.090886e-08	
49	-2.45000e+00	7.097378e-08	
50	-2.50000e+00	7.103845e-08	
51	-2.55000e+00	7.110296e-08	
52	-2.60000e+00	7.116741e-08	
53	-2.65000e+00	7.123193e-08	
54	-2.70000e+00	7.129666e-08	

Index   v-sweep         i(vds)          
--------------------------------------------------------------------------------
55	-2.75000e+00	7.136175e-08	
56	-2.80000e+00	7.142740e-08	
57	-2.85000e+00	7.149382e-08	
58	-2.90000e+00	7.156126e-08	
59	-2.95000e+00	7.162998e-08	
60	-3.00000e+00	7.170032e-08	
61	-3.05000e+00	7.177262e-08	
62	-3.10000e+00	7.184728e-08	
63	-3.15000e+00	7.192475e-08	
64	-3.20000e+00	7.200552e-08	
65	-3.25000e+00	7.209015e-08	
66	-3.30000e+00	7.217924e-08	
67	-0.000000e+00	0.000000e+00	
68	-5.00000e-02	8.412104e-07	
69	-1.00000e-01	1.569620e-06	
70	-1.50000e-01	2.186046e-06	
71	-2.00000e-01	2.691543e-06	
72	-2.50000e-01	3.087765e-06	
73	-3.00000e-01	3.377944e-06	
74	-3.50000e-01	3.569555e-06	
75	-4.00000e-01	3.679464e-06	
76	-4.50000e-01	3.735488e-06	
77	-5.00000e-01	3.764564e-06	
78	-5.50000e-01	3.782098e-06	
79	-6.00000e-01	3.794541e-06	
80	-6.50000e-01	3.804430e-06	
81	-7.00000e-01	3.812841e-06	
82	-7.50000e-01	3.820284e-06	
83	-8.00000e-01	3.827034e-06	
84	-8.50000e-01	3.833251e-06	
85	-9.00000e-01	3.839040e-06	
86	-9.50000e-01	3.844473e-06	
87	-1.00000e+00	3.849601e-06	
88	-1.05000e+00	3.854464e-06	
89	-1.10000e+00	3.859095e-06	
90	-1.15000e+00	3.863518e-06	
91	-1.20000e+00	3.867754e-06	
92	-1.25000e+00	3.871821e-06	
93	-1.30000e+00	3.875734e-06	
94	-1.35000e+00	3.879506e-06	
95	-1.40000e+00	3.883148e-06	
96	-1.45000e+00	3.886669e-06	
97	-1.50000e+00	3.890080e-06	
98	-1.55000e+00	3.893387e-06	
99	-1.60000e+00	3.896598e-06	
100	-1.65000e+00	3.899719e-06	
101	-1.70000e+00	3.902754e-06	
102	-1.75000e+00	3.905711e-06	
103	-1.80000e+00	3.908593e-06	
104	-1.85000e+00	3.911404e-06	
105	-1.90000e+00	3.914148e-06	
106	-1.95000e+00	3.916829e-06	
107	-2.00000e+00	3.919451e-06	
108	-2.05000e+00	3.922016e-06	
109	-2.10000e+00	3.924527e-06	
110	-2.15000e+00	3.926986e-06	
111	-2.20000e+00	3.929397e-06	
112	-2.25000e+00	3.931762e-06	

Index   v-sweep         i(vds)          
--------------------------------------------------------------------------------
113	-2.30000e+00	3.934082e-06	
114	-2.35000e+00	3.936361e-06	
115	-2.40000e+00	3.938599e-06	
116	-2.45000e+00	3.940800e-06	
117	-2.50000e+00	3.942966e-06	
118	-2.55000e+00	3.945098e-06	
119	-2.60000e+00	3.947200e-06	
120	-2.65000e+00	3.949274e-06	
121	-2.70000e+00	3.951323e-06	
122	-2.75000e+00	3.953351e-06	
123	-2.80000e+00	3.955361e-06	
124	-2.85000e+00	3.957358e-06	
125	-2.90000e+00	3.959347e-06	
126	-2.95000e+00	3.961335e-06	
127	-3.00000e+00	3.963328e-06	
128	-3.05000e+00	3.965335e-06	
129	-3.10000e+00	3.967364e-06	
130	-3.15000e+00	3.969427e-06	
131	-3.20000e+00	3.971535e-06	
132	-3.25000e+00	3.973704e-06	
133	-3.30000e+00	3.975949e-06	
134	-0.000000e+00	0.000000e+00	
135	-5.00000e-02	1.624452e-06	
136	-1.00000e-01	3.138545e-06	
137	-1.50000e-01	4.542826e-06	
138	-2.00000e-01	5.837850e-06	
139	-2.50000e-01	7.024179e-06	
140	-3.00000e-01	8.102394e-06	
141	-3.50000e-01	9.073107e-06	
142	-4.00000e-01	9.936984e-06	
143	-4.50000e-01	1.069479e-05	
144	-5.00000e-01	1.134748e-05	
145	-5.50000e-01	1.189639e-05	
146	-6.00000e-01	1.234359e-05	
147	-6.50000e-01	1.269275e-05	
148	-7.00000e-01	1.295069e-05	
149	-7.50000e-01	1.312955e-05	
150	-8.00000e-01	1.324762e-05	
151	-8.50000e-01	1.332547e-05	
152	-9.00000e-01	1.337977e-05	
153	-9.50000e-01	1.342083e-05	
154	-1.00000e+00	1.345422e-05	
155	-1.05000e+00	1.348279e-05	
156	-1.10000e+00	1.350809e-05	
157	-1.15000e+00	1.353100e-05	
158	-1.20000e+00	1.355207e-05	
159	-1.25000e+00	1.357165e-05	
160	-1.30000e+00	1.358999e-05	
161	-1.35000e+00	1.360726e-05	
162	-1.40000e+00	1.362362e-05	
163	-1.45000e+00	1.363916e-05	
164	-1.50000e+00	1.365399e-05	
165	-1.55000e+00	1.366816e-05	
166	-1.60000e+00	1.368174e-05	
167	-1.65000e+00	1.369479e-05	
168	-1.70000e+00	1.370735e-05	
169	-1.75000e+00	1.371945e-05	
170	-1.80000e+00	1.373114e-05	

Index   v-sweep         i(vds)          
--------------------------------------------------------------------------------
171	-1.85000e+00	1.374244e-05	
172	-1.90000e+00	1.375338e-05	
173	-1.95000e+00	1.376398e-05	
174	-2.00000e+00	1.377428e-05	
175	-2.05000e+00	1.378427e-05	
176	-2.10000e+00	1.379399e-05	
177	-2.15000e+00	1.380345e-05	
178	-2.20000e+00	1.381267e-05	
179	-2.25000e+00	1.382165e-05	
180	-2.30000e+00	1.383041e-05	
181	-2.35000e+00	1.383897e-05	
182	-2.40000e+00	1.384732e-05	
183	-2.45000e+00	1.385549e-05	
184	-2.50000e+00	1.386348e-05	
185	-2.55000e+00	1.387130e-05	
186	-2.60000e+00	1.387896e-05	
187	-2.65000e+00	1.388647e-05	
188	-2.70000e+00	1.389383e-05	
189	-2.75000e+00	1.390105e-05	
190	-2.80000e+00	1.390813e-05	
191	-2.85000e+00	1.391510e-05	
192	-2.90000e+00	1.392195e-05	
193	-2.95000e+00	1.392868e-05	
194	-3.00000e+00	1.393532e-05	
195	-3.05000e+00	1.394188e-05	
196	-3.10000e+00	1.394835e-05	
197	-3.15000e+00	1.395476e-05	
198	-3.20000e+00	1.396112e-05	
199	-3.25000e+00	1.396745e-05	
200	-3.30000e+00	1.397376e-05	
201	-0.000000e+00	0.000000e+00	
202	-5.00000e-02	2.299521e-06	
203	-1.00000e-01	4.494991e-06	
204	-1.50000e-01	6.586882e-06	
205	-2.00000e-01	8.575663e-06	
206	-2.50000e-01	1.046180e-05	
207	-3.00000e-01	1.224576e-05	
208	-3.50000e-01	1.392801e-05	
209	-4.00000e-01	1.550902e-05	
210	-4.50000e-01	1.698927e-05	
211	-5.00000e-01	1.836922e-05	
212	-5.50000e-01	1.964937e-05	
213	-6.00000e-01	2.083021e-05	
214	-6.50000e-01	2.191227e-05	
215	-7.00000e-01	2.289612e-05	
216	-7.50000e-01	2.378238e-05	
217	-8.00000e-01	2.457179e-05	
218	-8.50000e-01	2.526529e-05	
219	-9.00000e-01	2.586415e-05	
220	-9.50000e-01	2.637025e-05	
221	-1.00000e+00	2.678661e-05	
222	-1.05000e+00	2.711823e-05	
223	-1.10000e+00	2.737323e-05	
224	-1.15000e+00	2.756364e-05	
225	-1.20000e+00	2.770447e-05	
226	-1.25000e+00	2.781065e-05	
227	-1.30000e+00	2.789411e-05	
228	-1.35000e+00	2.796288e-05	

Index   v-sweep         i(vds)          
--------------------------------------------------------------------------------
229	-1.40000e+00	2.802188e-05	
230	-1.45000e+00	2.807405e-05	
231	-1.50000e+00	2.812118e-05	
232	-1.55000e+00	2.816441e-05	
233	-1.60000e+00	2.820450e-05	
234	-1.65000e+00	2.824198e-05	
235	-1.70000e+00	2.827724e-05	
236	-1.75000e+00	2.831058e-05	
237	-1.80000e+00	2.834222e-05	
238	-1.85000e+00	2.837236e-05	
239	-1.90000e+00	2.840115e-05	
240	-1.95000e+00	2.842871e-05	
241	-2.00000e+00	2.845517e-05	
242	-2.05000e+00	2.848060e-05	
243	-2.10000e+00	2.850511e-05	
244	-2.15000e+00	2.852874e-05	
245	-2.20000e+00	2.855158e-05	
246	-2.25000e+00	2.857367e-05	
247	-2.30000e+00	2.859507e-05	
248	-2.35000e+00	2.861582e-05	
249	-2.40000e+00	2.863596e-05	
250	-2.45000e+00	2.865553e-05	
251	-2.50000e+00	2.867456e-05	
252	-2.55000e+00	2.869309e-05	
253	-2.60000e+00	2.871113e-05	
254	-2.65000e+00	2.872873e-05	
255	-2.70000e+00	2.874589e-05	
256	-2.75000e+00	2.876265e-05	
257	-2.80000e+00	2.877902e-05	
258	-2.85000e+00	2.879502e-05	
259	-2.90000e+00	2.881067e-05	
260	-2.95000e+00	2.882599e-05	
261	-3.00000e+00	2.884098e-05	
262	-3.05000e+00	2.885568e-05	
263	-3.10000e+00	2.887009e-05	
264	-3.15000e+00	2.888422e-05	
265	-3.20000e+00	2.889810e-05	
266	-3.25000e+00	2.891173e-05	
267	-3.30000e+00	2.892514e-05	
268	-0.000000e+00	0.000000e+00	
269	-5.00000e-02	2.876039e-06	
270	-1.00000e-01	5.655055e-06	
271	-1.50000e-01	8.337457e-06	
272	-2.00000e-01	1.092365e-05	
273	-2.50000e-01	1.341405e-05	
274	-3.00000e-01	1.580904e-05	
275	-3.50000e-01	1.810904e-05	
276	-4.00000e-01	2.031445e-05	
277	-4.50000e-01	2.242566e-05	
278	-5.00000e-01	2.444307e-05	
279	-5.50000e-01	2.636708e-05	
280	-6.00000e-01	2.819808e-05	
281	-6.50000e-01	2.993648e-05	
282	-7.00000e-01	3.158266e-05	
283	-7.50000e-01	3.313705e-05	
284	-8.00000e-01	3.460002e-05	
285	-8.50000e-01	3.597201e-05	
286	-9.00000e-01	3.725343e-05	

Index   v-sweep         i(vds)          
--------------------------------------------------------------------------------
287	-9.50000e-01	3.844472e-05	
288	-1.00000e+00	3.954633e-05	
289	-1.05000e+00	4.055877e-05	
290	-1.10000e+00	4.148259e-05	
291	-1.15000e+00	4.231844e-05	
292	-1.20000e+00	4.306711e-05	
293	-1.25000e+00	4.372964e-05	
294	-1.30000e+00	4.430750e-05	
295	-1.35000e+00	4.480282e-05	
296	-1.40000e+00	4.521891e-05	
297	-1.45000e+00	4.556087e-05	
298	-1.50000e+00	4.583620e-05	
299	-1.55000e+00	4.605503e-05	
300	-1.60000e+00	4.622912e-05	
301	-1.65000e+00	4.636998e-05	
302	-1.70000e+00	4.648718e-05	
303	-1.75000e+00	4.658766e-05	
304	-1.80000e+00	4.667612e-05	
305	-1.85000e+00	4.675564e-05	
306	-1.90000e+00	4.682827e-05	
307	-1.95000e+00	4.689537e-05	
308	-2.00000e+00	4.695792e-05	
309	-2.05000e+00	4.701662e-05	
310	-2.10000e+00	4.707200e-05	
311	-2.15000e+00	4.712448e-05	
312	-2.20000e+00	4.717440e-05	
313	-2.25000e+00	4.722201e-05	
314	-2.30000e+00	4.726756e-05	
315	-2.35000e+00	4.731122e-05	
316	-2.40000e+00	4.735316e-05	
317	-2.45000e+00	4.739352e-05	
318	-2.50000e+00	4.743243e-05	
319	-2.55000e+00	4.746999e-05	
320	-2.60000e+00	4.750630e-05	
321	-2.65000e+00	4.754144e-05	
322	-2.70000e+00	4.757550e-05	
323	-2.75000e+00	4.760854e-05	
324	-2.80000e+00	4.764062e-05	
325	-2.85000e+00	4.767180e-05	
326	-2.90000e+00	4.770213e-05	
327	-2.95000e+00	4.773167e-05	
328	-3.00000e+00	4.776044e-05	
329	-3.05000e+00	4.778850e-05	
330	-3.10000e+00	4.781588e-05	
331	-3.15000e+00	4.784261e-05	
332	-3.20000e+00	4.786872e-05	
333	-3.25000e+00	4.789426e-05	
334	-3.30000e+00	4.791923e-05	
335	-0.000000e+00	0.000000e+00	
336	-5.00000e-02	3.365779e-06	
337	-1.00000e-01	6.641549e-06	
338	-1.50000e-01	9.827668e-06	
339	-2.00000e-01	1.292449e-05	
340	-2.50000e-01	1.593237e-05	
341	-3.00000e-01	1.885165e-05	
342	-3.50000e-01	2.168270e-05	
343	-4.00000e-01	2.442584e-05	
344	-4.50000e-01	2.708144e-05	

Index   v-sweep         i(vds)          
--------------------------------------------------------------------------------
345	-5.00000e-01	2.964984e-05	
346	-5.50000e-01	3.213137e-05	
347	-6.00000e-01	3.452639e-05	
348	-6.50000e-01	3.683523e-05	
349	-7.00000e-01	3.905823e-05	
350	-7.50000e-01	4.119573e-05	
351	-8.00000e-01	4.324807e-05	
352	-8.50000e-01	4.521558e-05	
353	-9.00000e-01	4.709861e-05	
354	-9.50000e-01	4.889748e-05	
355	-1.00000e+00	5.061254e-05	
356	-1.05000e+00	5.224413e-05	
357	-1.10000e+00	5.379259e-05	
358	-1.15000e+00	5.525826e-05	
359	-1.20000e+00	5.664149e-05	
360	-1.25000e+00	5.794265e-05	
361	-1.30000e+00	5.916211e-05	
362	-1.35000e+00	6.030026e-05	
363	-1.40000e+00	6.135752e-05	
364	-1.45000e+00	6.233435e-05	
365	-1.50000e+00	6.323128e-05	
366	-1.55000e+00	6.404893e-05	
367	-1.60000e+00	6.478808e-05	
368	-1.65000e+00	6.544975e-05	
369	-1.70000e+00	6.603534e-05	
370	-1.75000e+00	6.654689e-05	
371	-1.80000e+00	6.698735e-05	
372	-1.85000e+00	6.736106e-05	
373	-1.90000e+00	6.767413e-05	
374	-1.95000e+00	6.793446e-05	
375	-2.00000e+00	6.815125e-05	
376	-2.05000e+00	6.833379e-05	
377	-2.10000e+00	6.849030e-05	
378	-2.15000e+00	6.862727e-05	
379	-2.20000e+00	6.874948e-05	
380	-2.25000e+00	6.886027e-05	
381	-2.30000e+00	6.896202e-05	
382	-2.35000e+00	6.905639e-05	
383	-2.40000e+00	6.914460e-05	
384	-2.45000e+00	6.922755e-05	
385	-2.50000e+00	6.930594e-05	
386	-2.55000e+00	6.938032e-05	
387	-2.60000e+00	6.945114e-05	
388	-2.65000e+00	6.951876e-05	
389	-2.70000e+00	6.958349e-05	
390	-2.75000e+00	6.964558e-05	
391	-2.80000e+00	6.970526e-05	
392	-2.85000e+00	6.976273e-05	
393	-2.90000e+00	6.981815e-05	
394	-2.95000e+00	6.987167e-05	
395	-3.00000e+00	6.992343e-05	
396	-3.05000e+00	6.997355e-05	
397	-3.10000e+00	7.002213e-05	
398	-3.15000e+00	7.006927e-05	
399	-3.20000e+00	7.011505e-05	
400	-3.25000e+00	7.015956e-05	
401	-3.30000e+00	7.020286e-05	
Note: No ".plot", ".print", or ".fourier" lines; no simulations run
