
Note: Compatibility modes selected: hs

Warning: m=xx on .subckt line will override multiplier m hierarchy!


Circuit: ***************************

Doing analysis at TEMP = 25.000000 and TNOM = 25.000000


No. of Data Rows : 402
                          ***************************
                          DC transfer characteristic  Mon Jan  9 13:57:28  2023
--------------------------------------------------------------------------------
Index   v-sweep         i(vds)          
--------------------------------------------------------------------------------
0	-0.000000e+00	0.000000e+00	
1	-5.00000e-02	2.907552e-08	
2	-1.00000e-01	3.516375e-08	
3	-1.50000e-01	3.603824e-08	
4	-2.00000e-01	3.625502e-08	
5	-2.50000e-01	3.634099e-08	
6	-3.00000e-01	3.638646e-08	
7	-3.50000e-01	3.641546e-08	
8	-4.00000e-01	3.643644e-08	
9	-4.50000e-01	3.645299e-08	
10	-5.00000e-01	3.646685e-08	
11	-5.50000e-01	3.647896e-08	
12	-6.00000e-01	3.648986e-08	
13	-6.50000e-01	3.649987e-08	
14	-7.00000e-01	3.650922e-08	
15	-7.50000e-01	3.651806e-08	
16	-8.00000e-01	3.652648e-08	
17	-8.50000e-01	3.653456e-08	
18	-9.00000e-01	3.654237e-08	
19	-9.50000e-01	3.654993e-08	
20	-1.00000e+00	3.655729e-08	
21	-1.05000e+00	3.656447e-08	
22	-1.10000e+00	3.657149e-08	
23	-1.15000e+00	3.657837e-08	
24	-1.20000e+00	3.658513e-08	
25	-1.25000e+00	3.659178e-08	
26	-1.30000e+00	3.659832e-08	
27	-1.35000e+00	3.660478e-08	
28	-1.40000e+00	3.661114e-08	
29	-1.45000e+00	3.661743e-08	
30	-1.50000e+00	3.662365e-08	
31	-1.55000e+00	3.662980e-08	
32	-1.60000e+00	3.663589e-08	
33	-1.65000e+00	3.664193e-08	
34	-1.70000e+00	3.664790e-08	
35	-1.75000e+00	3.665383e-08	
36	-1.80000e+00	3.665971e-08	
37	-1.85000e+00	3.666555e-08	
38	-1.90000e+00	3.667134e-08	
39	-1.95000e+00	3.667709e-08	
40	-2.00000e+00	3.668281e-08	
41	-2.05000e+00	3.668849e-08	
42	-2.10000e+00	3.669414e-08	
43	-2.15000e+00	3.669976e-08	
44	-2.20000e+00	3.670535e-08	
45	-2.25000e+00	3.671092e-08	
46	-2.30000e+00	3.671648e-08	
47	-2.35000e+00	3.672201e-08	
48	-2.40000e+00	3.672754e-08	
49	-2.45000e+00	3.673308e-08	
50	-2.50000e+00	3.673862e-08	
51	-2.55000e+00	3.674419e-08	
52	-2.60000e+00	3.674979e-08	
53	-2.65000e+00	3.675546e-08	
54	-2.70000e+00	3.676121e-08	

Index   v-sweep         i(vds)          
--------------------------------------------------------------------------------
55	-2.75000e+00	3.676707e-08	
56	-2.80000e+00	3.677309e-08	
57	-2.85000e+00	3.677931e-08	
58	-2.90000e+00	3.678579e-08	
59	-2.95000e+00	3.679258e-08	
60	-3.00000e+00	3.679977e-08	
61	-3.05000e+00	3.680744e-08	
62	-3.10000e+00	3.681572e-08	
63	-3.15000e+00	3.682472e-08	
64	-3.20000e+00	3.683458e-08	
65	-3.25000e+00	3.684548e-08	
66	-3.30000e+00	3.685761e-08	
67	-0.000000e+00	0.000000e+00	
68	-5.00000e-02	4.377642e-07	
69	-1.00000e-01	8.120949e-07	
70	-1.50000e-01	1.123205e-06	
71	-2.00000e-01	1.371525e-06	
72	-2.50000e-01	1.558053e-06	
73	-3.00000e-01	1.685384e-06	
74	-3.50000e-01	1.760286e-06	
75	-4.00000e-01	1.796772e-06	
76	-4.50000e-01	1.812392e-06	
77	-5.00000e-01	1.819225e-06	
78	-5.50000e-01	1.822602e-06	
79	-6.00000e-01	1.824520e-06	
80	-6.50000e-01	1.825748e-06	
81	-7.00000e-01	1.826612e-06	
82	-7.50000e-01	1.827266e-06	
83	-8.00000e-01	1.827789e-06	
84	-8.50000e-01	1.828225e-06	
85	-9.00000e-01	1.828601e-06	
86	-9.50000e-01	1.828932e-06	
87	-1.00000e+00	1.829230e-06	
88	-1.05000e+00	1.829501e-06	
89	-1.10000e+00	1.829752e-06	
90	-1.15000e+00	1.829985e-06	
91	-1.20000e+00	1.830205e-06	
92	-1.25000e+00	1.830412e-06	
93	-1.30000e+00	1.830608e-06	
94	-1.35000e+00	1.830796e-06	
95	-1.40000e+00	1.830976e-06	
96	-1.45000e+00	1.831148e-06	
97	-1.50000e+00	1.831315e-06	
98	-1.55000e+00	1.831475e-06	
99	-1.60000e+00	1.831631e-06	
100	-1.65000e+00	1.831781e-06	
101	-1.70000e+00	1.831928e-06	
102	-1.75000e+00	1.832070e-06	
103	-1.80000e+00	1.832209e-06	
104	-1.85000e+00	1.832345e-06	
105	-1.90000e+00	1.832477e-06	
106	-1.95000e+00	1.832607e-06	
107	-2.00000e+00	1.832734e-06	
108	-2.05000e+00	1.832858e-06	
109	-2.10000e+00	1.832980e-06	
110	-2.15000e+00	1.833099e-06	
111	-2.20000e+00	1.833216e-06	
112	-2.25000e+00	1.833332e-06	

Index   v-sweep         i(vds)          
--------------------------------------------------------------------------------
113	-2.30000e+00	1.833445e-06	
114	-2.35000e+00	1.833557e-06	
115	-2.40000e+00	1.833667e-06	
116	-2.45000e+00	1.833776e-06	
117	-2.50000e+00	1.833883e-06	
118	-2.55000e+00	1.833989e-06	
119	-2.60000e+00	1.834094e-06	
120	-2.65000e+00	1.834199e-06	
121	-2.70000e+00	1.834303e-06	
122	-2.75000e+00	1.834406e-06	
123	-2.80000e+00	1.834511e-06	
124	-2.85000e+00	1.834616e-06	
125	-2.90000e+00	1.834723e-06	
126	-2.95000e+00	1.834833e-06	
127	-3.00000e+00	1.834947e-06	
128	-3.05000e+00	1.835066e-06	
129	-3.10000e+00	1.835193e-06	
130	-3.15000e+00	1.835329e-06	
131	-3.20000e+00	1.835477e-06	
132	-3.25000e+00	1.835641e-06	
133	-3.30000e+00	1.835823e-06	
134	-0.000000e+00	0.000000e+00	
135	-5.00000e-02	8.433848e-07	
136	-1.00000e-01	1.625536e-06	
137	-1.50000e-01	2.346498e-06	
138	-2.00000e-01	3.006324e-06	
139	-2.50000e-01	3.605076e-06	
140	-3.00000e-01	4.142839e-06	
141	-3.50000e-01	4.619726e-06	
142	-4.00000e-01	5.035912e-06	
143	-4.50000e-01	5.391685e-06	
144	-5.00000e-01	5.687552e-06	
145	-5.50000e-01	5.924486e-06	
146	-6.00000e-01	6.104447e-06	
147	-6.50000e-01	6.231422e-06	
148	-7.00000e-01	6.312905e-06	
149	-7.50000e-01	6.360334e-06	
150	-8.00000e-01	6.386327e-06	
151	-8.50000e-01	6.400644e-06	
152	-9.00000e-01	6.408999e-06	
153	-9.50000e-01	6.414277e-06	
154	-1.00000e+00	6.417887e-06	
155	-1.05000e+00	6.420531e-06	
156	-1.10000e+00	6.422580e-06	
157	-1.15000e+00	6.424242e-06	
158	-1.20000e+00	6.425638e-06	
159	-1.25000e+00	6.426844e-06	
160	-1.30000e+00	6.427907e-06	
161	-1.35000e+00	6.428862e-06	
162	-1.40000e+00	6.429732e-06	
163	-1.45000e+00	6.430532e-06	
164	-1.50000e+00	6.431274e-06	
165	-1.55000e+00	6.431969e-06	
166	-1.60000e+00	6.432623e-06	
167	-1.65000e+00	6.433242e-06	
168	-1.70000e+00	6.433830e-06	
169	-1.75000e+00	6.434392e-06	
170	-1.80000e+00	6.434929e-06	

Index   v-sweep         i(vds)          
--------------------------------------------------------------------------------
171	-1.85000e+00	6.435444e-06	
172	-1.90000e+00	6.435940e-06	
173	-1.95000e+00	6.436418e-06	
174	-2.00000e+00	6.436881e-06	
175	-2.05000e+00	6.437328e-06	
176	-2.10000e+00	6.437762e-06	
177	-2.15000e+00	6.438184e-06	
178	-2.20000e+00	6.438594e-06	
179	-2.25000e+00	6.438993e-06	
180	-2.30000e+00	6.439382e-06	
181	-2.35000e+00	6.439761e-06	
182	-2.40000e+00	6.440132e-06	
183	-2.45000e+00	6.440494e-06	
184	-2.50000e+00	6.440849e-06	
185	-2.55000e+00	6.441196e-06	
186	-2.60000e+00	6.441536e-06	
187	-2.65000e+00	6.441870e-06	
188	-2.70000e+00	6.442198e-06	
189	-2.75000e+00	6.442520e-06	
190	-2.80000e+00	6.442837e-06	
191	-2.85000e+00	6.443149e-06	
192	-2.90000e+00	6.443457e-06	
193	-2.95000e+00	6.443762e-06	
194	-3.00000e+00	6.444064e-06	
195	-3.05000e+00	6.444365e-06	
196	-3.10000e+00	6.444666e-06	
197	-3.15000e+00	6.444969e-06	
198	-3.20000e+00	6.445276e-06	
199	-3.25000e+00	6.445590e-06	
200	-3.30000e+00	6.445913e-06	
201	-0.000000e+00	0.000000e+00	
202	-5.00000e-02	1.199690e-06	
203	-1.00000e-01	2.342359e-06	
204	-1.50000e-01	3.428037e-06	
205	-2.00000e-01	4.456754e-06	
206	-2.50000e-01	5.428541e-06	
207	-3.00000e-01	6.343433e-06	
208	-3.50000e-01	7.201466e-06	
209	-4.00000e-01	8.002679e-06	
210	-4.50000e-01	8.747118e-06	
211	-5.00000e-01	9.434835e-06	
212	-5.50000e-01	1.006589e-05	
213	-6.00000e-01	1.064038e-05	
214	-6.50000e-01	1.115840e-05	
215	-7.00000e-01	1.162012e-05	
216	-7.50000e-01	1.202577e-05	
217	-8.00000e-01	1.237574e-05	
218	-8.50000e-01	1.267067e-05	
219	-9.00000e-01	1.291169e-05	
220	-9.50000e-01	1.310081e-05	
221	-1.00000e+00	1.324160e-05	
222	-1.05000e+00	1.333998e-05	
223	-1.10000e+00	1.340443e-05	
224	-1.15000e+00	1.344473e-05	
225	-1.20000e+00	1.346963e-05	
226	-1.25000e+00	1.348541e-05	
227	-1.30000e+00	1.349589e-05	
228	-1.35000e+00	1.350327e-05	

Index   v-sweep         i(vds)          
--------------------------------------------------------------------------------
229	-1.40000e+00	1.350875e-05	
230	-1.45000e+00	1.351303e-05	
231	-1.50000e+00	1.351650e-05	
232	-1.55000e+00	1.351941e-05	
233	-1.60000e+00	1.352192e-05	
234	-1.65000e+00	1.352413e-05	
235	-1.70000e+00	1.352611e-05	
236	-1.75000e+00	1.352790e-05	
237	-1.80000e+00	1.352955e-05	
238	-1.85000e+00	1.353107e-05	
239	-1.90000e+00	1.353249e-05	
240	-1.95000e+00	1.353382e-05	
241	-2.00000e+00	1.353508e-05	
242	-2.05000e+00	1.353628e-05	
243	-2.10000e+00	1.353741e-05	
244	-2.15000e+00	1.353850e-05	
245	-2.20000e+00	1.353954e-05	
246	-2.25000e+00	1.354053e-05	
247	-2.30000e+00	1.354149e-05	
248	-2.35000e+00	1.354242e-05	
249	-2.40000e+00	1.354331e-05	
250	-2.45000e+00	1.354418e-05	
251	-2.50000e+00	1.354502e-05	
252	-2.55000e+00	1.354583e-05	
253	-2.60000e+00	1.354662e-05	
254	-2.65000e+00	1.354739e-05	
255	-2.70000e+00	1.354815e-05	
256	-2.75000e+00	1.354888e-05	
257	-2.80000e+00	1.354959e-05	
258	-2.85000e+00	1.355029e-05	
259	-2.90000e+00	1.355097e-05	
260	-2.95000e+00	1.355164e-05	
261	-3.00000e+00	1.355229e-05	
262	-3.05000e+00	1.355293e-05	
263	-3.10000e+00	1.355356e-05	
264	-3.15000e+00	1.355418e-05	
265	-3.20000e+00	1.355479e-05	
266	-3.25000e+00	1.355539e-05	
267	-3.30000e+00	1.355598e-05	
268	-0.000000e+00	0.000000e+00	
269	-5.00000e-02	1.508217e-06	
270	-1.00000e-01	2.963936e-06	
271	-1.50000e-01	4.367180e-06	
272	-2.00000e-01	5.717974e-06	
273	-2.50000e-01	7.016342e-06	
274	-3.00000e-01	8.262308e-06	
275	-3.50000e-01	9.455897e-06	
276	-4.00000e-01	1.059714e-05	
277	-4.50000e-01	1.168605e-05	
278	-5.00000e-01	1.272267e-05	
279	-5.50000e-01	1.370702e-05	
280	-6.00000e-01	1.463913e-05	
281	-6.50000e-01	1.551904e-05	
282	-7.00000e-01	1.634678e-05	
283	-7.50000e-01	1.712239e-05	
284	-8.00000e-01	1.784592e-05	
285	-8.50000e-01	1.851742e-05	
286	-9.00000e-01	1.913696e-05	

Index   v-sweep         i(vds)          
--------------------------------------------------------------------------------
287	-9.50000e-01	1.970463e-05	
288	-1.00000e+00	2.022054e-05	
289	-1.05000e+00	2.068487e-05	
290	-1.10000e+00	2.109784e-05	
291	-1.15000e+00	2.145982e-05	
292	-1.20000e+00	2.177137e-05	
293	-1.25000e+00	2.203343e-05	
294	-1.30000e+00	2.224751e-05	
295	-1.35000e+00	2.241613e-05	
296	-1.40000e+00	2.254324e-05	
297	-1.45000e+00	2.263462e-05	
298	-1.50000e+00	2.269757e-05	
299	-1.55000e+00	2.273983e-05	
300	-1.60000e+00	2.276814e-05	
301	-1.65000e+00	2.278753e-05	
302	-1.70000e+00	2.280130e-05	
303	-1.75000e+00	2.281151e-05	
304	-1.80000e+00	2.281941e-05	
305	-1.85000e+00	2.282575e-05	
306	-1.90000e+00	2.283101e-05	
307	-1.95000e+00	2.283550e-05	
308	-2.00000e+00	2.283941e-05	
309	-2.05000e+00	2.284288e-05	
310	-2.10000e+00	2.284601e-05	
311	-2.15000e+00	2.284886e-05	
312	-2.20000e+00	2.285148e-05	
313	-2.25000e+00	2.285392e-05	
314	-2.30000e+00	2.285620e-05	
315	-2.35000e+00	2.285834e-05	
316	-2.40000e+00	2.286036e-05	
317	-2.45000e+00	2.286228e-05	
318	-2.50000e+00	2.286411e-05	
319	-2.55000e+00	2.286585e-05	
320	-2.60000e+00	2.286752e-05	
321	-2.65000e+00	2.286913e-05	
322	-2.70000e+00	2.287068e-05	
323	-2.75000e+00	2.287217e-05	
324	-2.80000e+00	2.287361e-05	
325	-2.85000e+00	2.287500e-05	
326	-2.90000e+00	2.287635e-05	
327	-2.95000e+00	2.287766e-05	
328	-3.00000e+00	2.287894e-05	
329	-3.05000e+00	2.288018e-05	
330	-3.10000e+00	2.288138e-05	
331	-3.15000e+00	2.288256e-05	
332	-3.20000e+00	2.288371e-05	
333	-3.25000e+00	2.288483e-05	
334	-3.30000e+00	2.288592e-05	
335	-0.000000e+00	0.000000e+00	
336	-5.00000e-02	1.772705e-06	
337	-1.00000e-01	3.497347e-06	
338	-1.50000e-01	5.173945e-06	
339	-2.00000e-01	6.802520e-06	
340	-2.50000e-01	8.383092e-06	
341	-3.00000e-01	9.915682e-06	
342	-3.50000e-01	1.140031e-05	
343	-4.00000e-01	1.283700e-05	
344	-4.50000e-01	1.422576e-05	

Index   v-sweep         i(vds)          
--------------------------------------------------------------------------------
345	-5.00000e-01	1.556663e-05	
346	-5.50000e-01	1.685962e-05	
347	-6.00000e-01	1.810475e-05	
348	-6.50000e-01	1.930205e-05	
349	-7.00000e-01	2.045153e-05	
350	-7.50000e-01	2.155323e-05	
351	-8.00000e-01	2.260716e-05	
352	-8.50000e-01	2.361335e-05	
353	-9.00000e-01	2.457183e-05	
354	-9.50000e-01	2.548262e-05	
355	-1.00000e+00	2.634575e-05	
356	-1.05000e+00	2.716127e-05	
357	-1.10000e+00	2.792919e-05	
358	-1.15000e+00	2.864958e-05	
359	-1.20000e+00	2.932247e-05	
360	-1.25000e+00	2.994793e-05	
361	-1.30000e+00	3.052604e-05	
362	-1.35000e+00	3.105689e-05	
363	-1.40000e+00	3.154063e-05	
364	-1.45000e+00	3.197744e-05	
365	-1.50000e+00	3.236760e-05	
366	-1.55000e+00	3.271149e-05	
367	-1.60000e+00	3.300975e-05	
368	-1.65000e+00	3.326329e-05	
369	-1.70000e+00	3.347361e-05	
370	-1.75000e+00	3.364297e-05	
371	-1.80000e+00	3.377476e-05	
372	-1.85000e+00	3.387368e-05	
373	-1.90000e+00	3.394555e-05	
374	-1.95000e+00	3.399665e-05	
375	-2.00000e+00	3.403282e-05	
376	-2.05000e+00	3.405873e-05	
377	-2.10000e+00	3.407777e-05	
378	-2.15000e+00	3.409222e-05	
379	-2.20000e+00	3.410357e-05	
380	-2.25000e+00	3.411279e-05	
381	-2.30000e+00	3.412047e-05	
382	-2.35000e+00	3.412705e-05	
383	-2.40000e+00	3.413280e-05	
384	-2.45000e+00	3.413790e-05	
385	-2.50000e+00	3.414250e-05	
386	-2.55000e+00	3.414670e-05	
387	-2.60000e+00	3.415056e-05	
388	-2.65000e+00	3.415414e-05	
389	-2.70000e+00	3.415749e-05	
390	-2.75000e+00	3.416063e-05	
391	-2.80000e+00	3.416360e-05	
392	-2.85000e+00	3.416642e-05	
393	-2.90000e+00	3.416910e-05	
394	-2.95000e+00	3.417165e-05	
395	-3.00000e+00	3.417410e-05	
396	-3.05000e+00	3.417645e-05	
397	-3.10000e+00	3.417872e-05	
398	-3.15000e+00	3.418090e-05	
399	-3.20000e+00	3.418300e-05	
400	-3.25000e+00	3.418504e-05	
401	-3.30000e+00	3.418701e-05	
Note: No ".plot", ".print", or ".fourier" lines; no simulations run
