
Note: Compatibility modes selected: hs

Warning: m=xx on .subckt line will override multiplier m hierarchy!


Circuit: ***************************

Doing analysis at TEMP = 25.000000 and TNOM = 25.000000


No. of Data Rows : 402
                          ***************************
                          DC transfer characteristic  Mon Jan  9 13:57:29  2023
--------------------------------------------------------------------------------
Index   v-sweep         i(vds)          
--------------------------------------------------------------------------------
0	-0.000000e+00	0.000000e+00	
1	-5.00000e-02	3.651989e-09	
2	-1.00000e-01	4.581259e-09	
3	-1.50000e-01	4.726263e-09	
4	-2.00000e-01	4.761270e-09	
5	-2.50000e-01	4.775252e-09	
6	-3.00000e-01	4.782935e-09	
7	-3.50000e-01	4.788086e-09	
8	-4.00000e-01	4.791998e-09	
9	-4.50000e-01	4.795215e-09	
10	-5.00000e-01	4.797998e-09	
11	-5.50000e-01	4.800487e-09	
12	-6.00000e-01	4.802767e-09	
13	-6.50000e-01	4.804888e-09	
14	-7.00000e-01	4.806885e-09	
15	-7.50000e-01	4.808781e-09	
16	-8.00000e-01	4.810594e-09	
17	-8.50000e-01	4.812337e-09	
18	-9.00000e-01	4.814019e-09	
19	-9.50000e-01	4.815649e-09	
20	-1.00000e+00	4.817232e-09	
21	-1.05000e+00	4.818774e-09	
22	-1.10000e+00	4.820279e-09	
23	-1.15000e+00	4.821750e-09	
24	-1.20000e+00	4.823191e-09	
25	-1.25000e+00	4.824604e-09	
26	-1.30000e+00	4.825991e-09	
27	-1.35000e+00	4.827354e-09	
28	-1.40000e+00	4.828696e-09	
29	-1.45000e+00	4.830017e-09	
30	-1.50000e+00	4.831319e-09	
31	-1.55000e+00	4.832603e-09	
32	-1.60000e+00	4.833871e-09	
33	-1.65000e+00	4.835123e-09	
34	-1.70000e+00	4.836361e-09	
35	-1.75000e+00	4.837584e-09	
36	-1.80000e+00	4.838794e-09	
37	-1.85000e+00	4.839992e-09	
38	-1.90000e+00	4.841179e-09	
39	-1.95000e+00	4.842354e-09	
40	-2.00000e+00	4.843518e-09	
41	-2.05000e+00	4.844673e-09	
42	-2.10000e+00	4.845818e-09	
43	-2.15000e+00	4.846955e-09	
44	-2.20000e+00	4.848084e-09	
45	-2.25000e+00	4.849205e-09	
46	-2.30000e+00	4.850320e-09	
47	-2.35000e+00	4.851429e-09	
48	-2.40000e+00	4.852535e-09	
49	-2.45000e+00	4.853637e-09	
50	-2.50000e+00	4.854739e-09	
51	-2.55000e+00	4.855843e-09	
52	-2.60000e+00	4.856950e-09	
53	-2.65000e+00	4.858066e-09	
54	-2.70000e+00	4.859195e-09	

Index   v-sweep         i(vds)          
--------------------------------------------------------------------------------
55	-2.75000e+00	4.860341e-09	
56	-2.80000e+00	4.861512e-09	
57	-2.85000e+00	4.862716e-09	
58	-2.90000e+00	4.863963e-09	
59	-2.95000e+00	4.865265e-09	
60	-3.00000e+00	4.866635e-09	
61	-3.05000e+00	4.868091e-09	
62	-3.10000e+00	4.869651e-09	
63	-3.15000e+00	4.871339e-09	
64	-3.20000e+00	4.873182e-09	
65	-3.25000e+00	4.875209e-09	
66	-3.30000e+00	4.877457e-09	
67	-0.000000e+00	0.000000e+00	
68	-5.00000e-02	4.450590e-08	
69	-1.00000e-01	8.276340e-08	
70	-1.50000e-01	1.147946e-07	
71	-2.00000e-01	1.406397e-07	
72	-2.50000e-01	1.603848e-07	
73	-3.00000e-01	1.742429e-07	
74	-3.50000e-01	1.827637e-07	
75	-4.00000e-01	1.871543e-07	
76	-4.50000e-01	1.891202e-07	
77	-5.00000e-01	1.900032e-07	
78	-5.50000e-01	1.904522e-07	
79	-6.00000e-01	1.907180e-07	
80	-6.50000e-01	1.908972e-07	
81	-7.00000e-01	1.910305e-07	
82	-7.50000e-01	1.911368e-07	
83	-8.00000e-01	1.912258e-07	
84	-8.50000e-01	1.913030e-07	
85	-9.00000e-01	1.913717e-07	
86	-9.50000e-01	1.914339e-07	
87	-1.00000e+00	1.914911e-07	
88	-1.05000e+00	1.915441e-07	
89	-1.10000e+00	1.915937e-07	
90	-1.15000e+00	1.916404e-07	
91	-1.20000e+00	1.916847e-07	
92	-1.25000e+00	1.917268e-07	
93	-1.30000e+00	1.917671e-07	
94	-1.35000e+00	1.918056e-07	
95	-1.40000e+00	1.918426e-07	
96	-1.45000e+00	1.918783e-07	
97	-1.50000e+00	1.919127e-07	
98	-1.55000e+00	1.919460e-07	
99	-1.60000e+00	1.919782e-07	
100	-1.65000e+00	1.920095e-07	
101	-1.70000e+00	1.920399e-07	
102	-1.75000e+00	1.920694e-07	
103	-1.80000e+00	1.920982e-07	
104	-1.85000e+00	1.921263e-07	
105	-1.90000e+00	1.921537e-07	
106	-1.95000e+00	1.921804e-07	
107	-2.00000e+00	1.922066e-07	
108	-2.05000e+00	1.922322e-07	
109	-2.10000e+00	1.922572e-07	
110	-2.15000e+00	1.922818e-07	
111	-2.20000e+00	1.923058e-07	
112	-2.25000e+00	1.923295e-07	

Index   v-sweep         i(vds)          
--------------------------------------------------------------------------------
113	-2.30000e+00	1.923527e-07	
114	-2.35000e+00	1.923755e-07	
115	-2.40000e+00	1.923979e-07	
116	-2.45000e+00	1.924200e-07	
117	-2.50000e+00	1.924417e-07	
118	-2.55000e+00	1.924632e-07	
119	-2.60000e+00	1.924843e-07	
120	-2.65000e+00	1.925053e-07	
121	-2.70000e+00	1.925260e-07	
122	-2.75000e+00	1.925467e-07	
123	-2.80000e+00	1.925673e-07	
124	-2.85000e+00	1.925879e-07	
125	-2.90000e+00	1.926086e-07	
126	-2.95000e+00	1.926297e-07	
127	-3.00000e+00	1.926512e-07	
128	-3.05000e+00	1.926733e-07	
129	-3.10000e+00	1.926964e-07	
130	-3.15000e+00	1.927206e-07	
131	-3.20000e+00	1.927465e-07	
132	-3.25000e+00	1.927744e-07	
133	-3.30000e+00	1.928049e-07	
134	-0.000000e+00	0.000000e+00	
135	-5.00000e-02	8.688530e-08	
136	-1.00000e-01	1.675347e-07	
137	-1.50000e-01	2.419560e-07	
138	-2.00000e-01	3.101573e-07	
139	-2.50000e-01	3.721481e-07	
140	-3.00000e-01	4.279396e-07	
141	-3.50000e-01	4.775460e-07	
142	-4.00000e-01	5.209869e-07	
143	-4.50000e-01	5.582922e-07	
144	-5.00000e-01	5.895122e-07	
145	-5.50000e-01	6.147383e-07	
146	-6.00000e-01	6.341505e-07	
147	-6.50000e-01	6.481108e-07	
148	-7.00000e-01	6.573083e-07	
149	-7.50000e-01	6.628363e-07	
150	-8.00000e-01	6.659736e-07	
151	-8.50000e-01	6.677702e-07	
152	-9.00000e-01	6.688689e-07	
153	-9.50000e-01	6.696025e-07	
154	-1.00000e+00	6.701347e-07	
155	-1.05000e+00	6.705481e-07	
156	-1.10000e+00	6.708862e-07	
157	-1.15000e+00	6.711737e-07	
158	-1.20000e+00	6.714252e-07	
159	-1.25000e+00	6.716499e-07	
160	-1.30000e+00	6.718538e-07	
161	-1.35000e+00	6.720412e-07	
162	-1.40000e+00	6.722150e-07	
163	-1.45000e+00	6.723776e-07	
164	-1.50000e+00	6.725304e-07	
165	-1.55000e+00	6.726750e-07	
166	-1.60000e+00	6.728123e-07	
167	-1.65000e+00	6.729431e-07	
168	-1.70000e+00	6.730682e-07	
169	-1.75000e+00	6.731881e-07	
170	-1.80000e+00	6.733033e-07	

Index   v-sweep         i(vds)          
--------------------------------------------------------------------------------
171	-1.85000e+00	6.734143e-07	
172	-1.90000e+00	6.735214e-07	
173	-1.95000e+00	6.736248e-07	
174	-2.00000e+00	6.737250e-07	
175	-2.05000e+00	6.738221e-07	
176	-2.10000e+00	6.739163e-07	
177	-2.15000e+00	6.740079e-07	
178	-2.20000e+00	6.740970e-07	
179	-2.25000e+00	6.741838e-07	
180	-2.30000e+00	6.742683e-07	
181	-2.35000e+00	6.743508e-07	
182	-2.40000e+00	6.744313e-07	
183	-2.45000e+00	6.745100e-07	
184	-2.50000e+00	6.745870e-07	
185	-2.55000e+00	6.746623e-07	
186	-2.60000e+00	6.747361e-07	
187	-2.65000e+00	6.748083e-07	
188	-2.70000e+00	6.748792e-07	
189	-2.75000e+00	6.749488e-07	
190	-2.80000e+00	6.750171e-07	
191	-2.85000e+00	6.750843e-07	
192	-2.90000e+00	6.751505e-07	
193	-2.95000e+00	6.752158e-07	
194	-3.00000e+00	6.752803e-07	
195	-3.05000e+00	6.753442e-07	
196	-3.10000e+00	6.754077e-07	
197	-3.15000e+00	6.754711e-07	
198	-3.20000e+00	6.755346e-07	
199	-3.25000e+00	6.755988e-07	
200	-3.30000e+00	6.756640e-07	
201	-0.000000e+00	0.000000e+00	
202	-5.00000e-02	1.268812e-07	
203	-1.00000e-01	2.477458e-07	
204	-1.50000e-01	3.625998e-07	
205	-2.00000e-01	4.714496e-07	
206	-2.50000e-01	5.743014e-07	
207	-3.00000e-01	6.711618e-07	
208	-3.50000e-01	7.620377e-07	
209	-4.00000e-01	8.469362e-07	
210	-4.50000e-01	9.258649e-07	
211	-5.00000e-01	9.988324e-07	
212	-5.50000e-01	1.065848e-06	
213	-6.00000e-01	1.126924e-06	
214	-6.50000e-01	1.182074e-06	
215	-7.00000e-01	1.231317e-06	
216	-7.50000e-01	1.274680e-06	
217	-8.00000e-01	1.312206e-06	
218	-8.50000e-01	1.343960e-06	
219	-9.00000e-01	1.370058e-06	
220	-9.50000e-01	1.390703e-06	
221	-1.00000e+00	1.406252e-06	
222	-1.05000e+00	1.417301e-06	
223	-1.10000e+00	1.424711e-06	
224	-1.15000e+00	1.429496e-06	
225	-1.20000e+00	1.432580e-06	
226	-1.25000e+00	1.434639e-06	
227	-1.30000e+00	1.436093e-06	
228	-1.35000e+00	1.437183e-06	

Index   v-sweep         i(vds)          
--------------------------------------------------------------------------------
229	-1.40000e+00	1.438045e-06	
230	-1.45000e+00	1.438756e-06	
231	-1.50000e+00	1.439364e-06	
232	-1.55000e+00	1.439896e-06	
233	-1.60000e+00	1.440372e-06	
234	-1.65000e+00	1.440804e-06	
235	-1.70000e+00	1.441200e-06	
236	-1.75000e+00	1.441567e-06	
237	-1.80000e+00	1.441910e-06	
238	-1.85000e+00	1.442232e-06	
239	-1.90000e+00	1.442536e-06	
240	-1.95000e+00	1.442825e-06	
241	-2.00000e+00	1.443099e-06	
242	-2.05000e+00	1.443361e-06	
243	-2.10000e+00	1.443612e-06	
244	-2.15000e+00	1.443852e-06	
245	-2.20000e+00	1.444084e-06	
246	-2.25000e+00	1.444307e-06	
247	-2.30000e+00	1.444522e-06	
248	-2.35000e+00	1.444731e-06	
249	-2.40000e+00	1.444932e-06	
250	-2.45000e+00	1.445128e-06	
251	-2.50000e+00	1.445317e-06	
252	-2.55000e+00	1.445502e-06	
253	-2.60000e+00	1.445681e-06	
254	-2.65000e+00	1.445855e-06	
255	-2.70000e+00	1.446025e-06	
256	-2.75000e+00	1.446191e-06	
257	-2.80000e+00	1.446353e-06	
258	-2.85000e+00	1.446511e-06	
259	-2.90000e+00	1.446666e-06	
260	-2.95000e+00	1.446817e-06	
261	-3.00000e+00	1.446965e-06	
262	-3.05000e+00	1.447110e-06	
263	-3.10000e+00	1.447252e-06	
264	-3.15000e+00	1.447392e-06	
265	-3.20000e+00	1.447529e-06	
266	-3.25000e+00	1.447664e-06	
267	-3.30000e+00	1.447797e-06	
268	-0.000000e+00	0.000000e+00	
269	-5.00000e-02	1.642245e-07	
270	-1.00000e-01	3.227087e-07	
271	-1.50000e-01	4.754581e-07	
272	-2.00000e-01	6.224783e-07	
273	-2.50000e-01	7.637748e-07	
274	-3.00000e-01	8.993533e-07	
275	-3.50000e-01	1.029219e-06	
276	-4.00000e-01	1.153379e-06	
277	-4.50000e-01	1.271837e-06	
278	-5.00000e-01	1.384601e-06	
279	-5.50000e-01	1.491675e-06	
280	-6.00000e-01	1.593067e-06	
281	-6.50000e-01	1.688782e-06	
282	-7.00000e-01	1.778828e-06	
283	-7.50000e-01	1.863211e-06	
284	-8.00000e-01	1.941940e-06	
285	-8.50000e-01	2.015023e-06	
286	-9.00000e-01	2.082471e-06	

Index   v-sweep         i(vds)          
--------------------------------------------------------------------------------
287	-9.50000e-01	2.144296e-06	
288	-1.00000e+00	2.200513e-06	
289	-1.05000e+00	2.251143e-06	
290	-1.10000e+00	2.296215e-06	
291	-1.15000e+00	2.335771e-06	
292	-1.20000e+00	2.369876e-06	
293	-1.25000e+00	2.398634e-06	
294	-1.30000e+00	2.422214e-06	
295	-1.35000e+00	2.440893e-06	
296	-1.40000e+00	2.455105e-06	
297	-1.45000e+00	2.465480e-06	
298	-1.50000e+00	2.472806e-06	
299	-1.55000e+00	2.477906e-06	
300	-1.60000e+00	2.481498e-06	
301	-1.65000e+00	2.484110e-06	
302	-1.70000e+00	2.486092e-06	
303	-1.75000e+00	2.487661e-06	
304	-1.80000e+00	2.488953e-06	
305	-1.85000e+00	2.490051e-06	
306	-1.90000e+00	2.491008e-06	
307	-1.95000e+00	2.491858e-06	
308	-2.00000e+00	2.492627e-06	
309	-2.05000e+00	2.493329e-06	
310	-2.10000e+00	2.493977e-06	
311	-2.15000e+00	2.494581e-06	
312	-2.20000e+00	2.495146e-06	
313	-2.25000e+00	2.495678e-06	
314	-2.30000e+00	2.496182e-06	
315	-2.35000e+00	2.496660e-06	
316	-2.40000e+00	2.497116e-06	
317	-2.45000e+00	2.497552e-06	
318	-2.50000e+00	2.497969e-06	
319	-2.55000e+00	2.498370e-06	
320	-2.60000e+00	2.498756e-06	
321	-2.65000e+00	2.499127e-06	
322	-2.70000e+00	2.499486e-06	
323	-2.75000e+00	2.499833e-06	
324	-2.80000e+00	2.500169e-06	
325	-2.85000e+00	2.500495e-06	
326	-2.90000e+00	2.500811e-06	
327	-2.95000e+00	2.501119e-06	
328	-3.00000e+00	2.501418e-06	
329	-3.05000e+00	2.501709e-06	
330	-3.10000e+00	2.501992e-06	
331	-3.15000e+00	2.502268e-06	
332	-3.20000e+00	2.502538e-06	
333	-3.25000e+00	2.502802e-06	
334	-3.30000e+00	2.503059e-06	
335	-0.000000e+00	0.000000e+00	
336	-5.00000e-02	1.988426e-07	
337	-1.00000e-01	3.922415e-07	
338	-1.50000e-01	5.802018e-07	
339	-2.00000e-01	7.627287e-07	
340	-2.50000e-01	9.398271e-07	
341	-3.00000e-01	1.111502e-06	
342	-3.50000e-01	1.277759e-06	
343	-4.00000e-01	1.438603e-06	
344	-4.50000e-01	1.594039e-06	

Index   v-sweep         i(vds)          
--------------------------------------------------------------------------------
345	-5.00000e-01	1.744072e-06	
346	-5.50000e-01	1.888707e-06	
347	-6.00000e-01	2.027949e-06	
348	-6.50000e-01	2.161805e-06	
349	-7.00000e-01	2.290278e-06	
350	-7.50000e-01	2.413375e-06	
351	-8.00000e-01	2.531100e-06	
352	-8.50000e-01	2.643460e-06	
353	-9.00000e-01	2.750460e-06	
354	-9.50000e-01	2.852106e-06	
355	-1.00000e+00	2.948404e-06	
356	-1.05000e+00	3.039360e-06	
357	-1.10000e+00	3.124982e-06	
358	-1.15000e+00	3.205276e-06	
359	-1.20000e+00	3.280253e-06	
360	-1.25000e+00	3.349920e-06	
361	-1.30000e+00	3.414291e-06	
362	-1.35000e+00	3.473379e-06	
363	-1.40000e+00	3.527203e-06	
364	-1.45000e+00	3.575788e-06	
365	-1.50000e+00	3.619169e-06	
366	-1.55000e+00	3.657396e-06	
367	-1.60000e+00	3.690546e-06	
368	-1.65000e+00	3.718734e-06	
369	-1.70000e+00	3.742142e-06	
370	-1.75000e+00	3.761046e-06	
371	-1.80000e+00	3.775852e-06	
372	-1.85000e+00	3.787110e-06	
373	-1.90000e+00	3.795481e-06	
374	-1.95000e+00	3.801656e-06	
375	-2.00000e+00	3.806252e-06	
376	-2.05000e+00	3.809754e-06	
377	-2.10000e+00	3.812508e-06	
378	-2.15000e+00	3.814746e-06	
379	-2.20000e+00	3.816622e-06	
380	-2.25000e+00	3.818235e-06	
381	-2.30000e+00	3.819653e-06	
382	-2.35000e+00	3.820920e-06	
383	-2.40000e+00	3.822069e-06	
384	-2.45000e+00	3.823123e-06	
385	-2.50000e+00	3.824097e-06	
386	-2.55000e+00	3.825005e-06	
387	-2.60000e+00	3.825856e-06	
388	-2.65000e+00	3.826658e-06	
389	-2.70000e+00	3.827417e-06	
390	-2.75000e+00	3.828138e-06	
391	-2.80000e+00	3.828825e-06	
392	-2.85000e+00	3.829482e-06	
393	-2.90000e+00	3.830111e-06	
394	-2.95000e+00	3.830715e-06	
395	-3.00000e+00	3.831297e-06	
396	-3.05000e+00	3.831857e-06	
397	-3.10000e+00	3.832398e-06	
398	-3.15000e+00	3.832921e-06	
399	-3.20000e+00	3.833427e-06	
400	-3.25000e+00	3.833918e-06	
401	-3.30000e+00	3.834394e-06	
Note: No ".plot", ".print", or ".fourier" lines; no simulations run
