
Note: Compatibility modes selected: hs

Warning: m=xx on .subckt line will override multiplier m hierarchy!


Circuit: ***************************

Doing analysis at TEMP = 125.000000 and TNOM = 125.000000


No. of Data Rows : 402
                          ***************************
                          DC transfer characteristic  Mon Jan  9 13:57:29  2023
--------------------------------------------------------------------------------
Index   v-sweep         i(vds)          
--------------------------------------------------------------------------------
0	-0.000000e+00	0.000000e+00	
1	-5.00000e-02	3.796953e-08	
2	-1.00000e-01	5.595908e-08	
3	-1.50000e-01	6.233224e-08	
4	-2.00000e-01	6.392280e-08	
5	-2.50000e-01	6.435820e-08	
6	-3.00000e-01	6.452359e-08	
7	-3.50000e-01	6.460721e-08	
8	-4.00000e-01	6.465920e-08	
9	-4.50000e-01	6.469641e-08	
10	-5.00000e-01	6.472564e-08	
11	-5.50000e-01	6.475006e-08	
12	-6.00000e-01	6.477135e-08	
13	-6.50000e-01	6.479044e-08	
14	-7.00000e-01	6.480791e-08	
15	-7.50000e-01	6.482414e-08	
16	-8.00000e-01	6.483939e-08	
17	-8.50000e-01	6.485384e-08	
18	-9.00000e-01	6.486761e-08	
19	-9.50000e-01	6.488081e-08	
20	-1.00000e+00	6.489351e-08	
21	-1.05000e+00	6.490578e-08	
22	-1.10000e+00	6.491767e-08	
23	-1.15000e+00	6.492921e-08	
24	-1.20000e+00	6.494044e-08	
25	-1.25000e+00	6.495138e-08	
26	-1.30000e+00	6.496208e-08	
27	-1.35000e+00	6.497253e-08	
28	-1.40000e+00	6.498277e-08	
29	-1.45000e+00	6.499280e-08	
30	-1.50000e+00	6.500265e-08	
31	-1.55000e+00	6.501232e-08	
32	-1.60000e+00	6.502183e-08	
33	-1.65000e+00	6.503119e-08	
34	-1.70000e+00	6.504040e-08	
35	-1.75000e+00	6.504948e-08	
36	-1.80000e+00	6.505842e-08	
37	-1.85000e+00	6.506725e-08	
38	-1.90000e+00	6.507596e-08	
39	-1.95000e+00	6.508456e-08	
40	-2.00000e+00	6.509306e-08	
41	-2.05000e+00	6.510147e-08	
42	-2.10000e+00	6.510978e-08	
43	-2.15000e+00	6.511801e-08	
44	-2.20000e+00	6.512616e-08	
45	-2.25000e+00	6.513424e-08	
46	-2.30000e+00	6.514225e-08	
47	-2.35000e+00	6.515021e-08	
48	-2.40000e+00	6.515813e-08	
49	-2.45000e+00	6.516603e-08	
50	-2.50000e+00	6.517393e-08	
51	-2.55000e+00	6.518184e-08	
52	-2.60000e+00	6.518981e-08	
53	-2.65000e+00	6.519787e-08	
54	-2.70000e+00	6.520608e-08	

Index   v-sweep         i(vds)          
--------------------------------------------------------------------------------
55	-2.75000e+00	6.521449e-08	
56	-2.80000e+00	6.522319e-08	
57	-2.85000e+00	6.523226e-08	
58	-2.90000e+00	6.524183e-08	
59	-2.95000e+00	6.525202e-08	
60	-3.00000e+00	6.526302e-08	
61	-3.05000e+00	6.527500e-08	
62	-3.10000e+00	6.528821e-08	
63	-3.15000e+00	6.530292e-08	
64	-3.20000e+00	6.531945e-08	
65	-3.25000e+00	6.533816e-08	
66	-3.30000e+00	6.535947e-08	
67	-0.000000e+00	0.000000e+00	
68	-5.00000e-02	1.558232e-07	
69	-1.00000e-01	2.874858e-07	
70	-1.50000e-01	4.005173e-07	
71	-2.00000e-01	4.962499e-07	
72	-2.50000e-01	5.750752e-07	
73	-3.00000e-01	6.372509e-07	
74	-3.50000e-01	6.832206e-07	
75	-4.00000e-01	7.140177e-07	
76	-4.50000e-01	7.319616e-07	
77	-5.00000e-01	7.409796e-07	
78	-5.50000e-01	7.452063e-07	
79	-6.00000e-01	7.472908e-07	
80	-6.50000e-01	7.484493e-07	
81	-7.00000e-01	7.491803e-07	
82	-7.50000e-01	7.496937e-07	
83	-8.00000e-01	7.500854e-07	
84	-8.50000e-01	7.504029e-07	
85	-9.00000e-01	7.506718e-07	
86	-9.50000e-01	7.509070e-07	
87	-1.00000e+00	7.511175e-07	
88	-1.05000e+00	7.513092e-07	
89	-1.10000e+00	7.514862e-07	
90	-1.15000e+00	7.516511e-07	
91	-1.20000e+00	7.518060e-07	
92	-1.25000e+00	7.519526e-07	
93	-1.30000e+00	7.520918e-07	
94	-1.35000e+00	7.522247e-07	
95	-1.40000e+00	7.523520e-07	
96	-1.45000e+00	7.524743e-07	
97	-1.50000e+00	7.525921e-07	
98	-1.55000e+00	7.527058e-07	
99	-1.60000e+00	7.528158e-07	
100	-1.65000e+00	7.529224e-07	
101	-1.70000e+00	7.530259e-07	
102	-1.75000e+00	7.531265e-07	
103	-1.80000e+00	7.532244e-07	
104	-1.85000e+00	7.533198e-07	
105	-1.90000e+00	7.534128e-07	
106	-1.95000e+00	7.535037e-07	
107	-2.00000e+00	7.535925e-07	
108	-2.05000e+00	7.536794e-07	
109	-2.10000e+00	7.537644e-07	
110	-2.15000e+00	7.538477e-07	
111	-2.20000e+00	7.539293e-07	
112	-2.25000e+00	7.540095e-07	

Index   v-sweep         i(vds)          
--------------------------------------------------------------------------------
113	-2.30000e+00	7.540881e-07	
114	-2.35000e+00	7.541654e-07	
115	-2.40000e+00	7.542414e-07	
116	-2.45000e+00	7.543161e-07	
117	-2.50000e+00	7.543897e-07	
118	-2.55000e+00	7.544622e-07	
119	-2.60000e+00	7.545339e-07	
120	-2.65000e+00	7.546047e-07	
121	-2.70000e+00	7.546748e-07	
122	-2.75000e+00	7.547446e-07	
123	-2.80000e+00	7.548141e-07	
124	-2.85000e+00	7.548837e-07	
125	-2.90000e+00	7.549539e-07	
126	-2.95000e+00	7.550250e-07	
127	-3.00000e+00	7.550978e-07	
128	-3.05000e+00	7.551730e-07	
129	-3.10000e+00	7.552516e-07	
130	-3.15000e+00	7.553348e-07	
131	-3.20000e+00	7.554240e-07	
132	-3.25000e+00	7.555211e-07	
133	-3.30000e+00	7.556280e-07	
134	-0.000000e+00	0.000000e+00	
135	-5.00000e-02	2.687410e-07	
136	-1.00000e-01	5.137347e-07	
137	-1.50000e-01	7.404908e-07	
138	-2.00000e-01	9.503043e-07	
139	-2.50000e-01	1.143490e-06	
140	-3.00000e-01	1.320137e-06	
141	-3.50000e-01	1.480285e-06	
142	-4.00000e-01	1.623969e-06	
143	-4.50000e-01	1.751229e-06	
144	-5.00000e-01	1.862129e-06	
145	-5.50000e-01	1.956768e-06	
146	-6.00000e-01	2.035322e-06	
147	-6.50000e-01	2.098114e-06	
148	-7.00000e-01	2.145775e-06	
149	-7.50000e-01	2.179520e-06	
150	-8.00000e-01	2.201476e-06	
151	-8.50000e-01	2.214673e-06	
152	-9.00000e-01	2.222293e-06	
153	-9.50000e-01	2.226777e-06	
154	-1.00000e+00	2.229586e-06	
155	-1.05000e+00	2.231493e-06	
156	-1.10000e+00	2.232890e-06	
157	-1.15000e+00	2.233980e-06	
158	-1.20000e+00	2.234875e-06	
159	-1.25000e+00	2.235637e-06	
160	-1.30000e+00	2.236305e-06	
161	-1.35000e+00	2.236904e-06	
162	-1.40000e+00	2.237448e-06	
163	-1.45000e+00	2.237950e-06	
164	-1.50000e+00	2.238417e-06	
165	-1.55000e+00	2.238855e-06	
166	-1.60000e+00	2.239269e-06	
167	-1.65000e+00	2.239661e-06	
168	-1.70000e+00	2.240034e-06	
169	-1.75000e+00	2.240391e-06	
170	-1.80000e+00	2.240733e-06	

Index   v-sweep         i(vds)          
--------------------------------------------------------------------------------
171	-1.85000e+00	2.241062e-06	
172	-1.90000e+00	2.241379e-06	
173	-1.95000e+00	2.241685e-06	
174	-2.00000e+00	2.241981e-06	
175	-2.05000e+00	2.242267e-06	
176	-2.10000e+00	2.242545e-06	
177	-2.15000e+00	2.242816e-06	
178	-2.20000e+00	2.243078e-06	
179	-2.25000e+00	2.243334e-06	
180	-2.30000e+00	2.243583e-06	
181	-2.35000e+00	2.243826e-06	
182	-2.40000e+00	2.244064e-06	
183	-2.45000e+00	2.244296e-06	
184	-2.50000e+00	2.244523e-06	
185	-2.55000e+00	2.244745e-06	
186	-2.60000e+00	2.244962e-06	
187	-2.65000e+00	2.245175e-06	
188	-2.70000e+00	2.245384e-06	
189	-2.75000e+00	2.245589e-06	
190	-2.80000e+00	2.245790e-06	
191	-2.85000e+00	2.245988e-06	
192	-2.90000e+00	2.246183e-06	
193	-2.95000e+00	2.246375e-06	
194	-3.00000e+00	2.246565e-06	
195	-3.05000e+00	2.246753e-06	
196	-3.10000e+00	2.246939e-06	
197	-3.15000e+00	2.247125e-06	
198	-3.20000e+00	2.247312e-06	
199	-3.25000e+00	2.247499e-06	
200	-3.30000e+00	2.247690e-06	
201	-0.000000e+00	0.000000e+00	
202	-5.00000e-02	3.718391e-07	
203	-1.00000e-01	7.207882e-07	
204	-1.50000e-01	1.052354e-06	
205	-2.00000e-01	1.367827e-06	
206	-2.50000e-01	1.667517e-06	
207	-3.00000e-01	1.951506e-06	
208	-3.50000e-01	2.219822e-06	
209	-4.00000e-01	2.472481e-06	
210	-4.50000e-01	2.709500e-06	
211	-5.00000e-01	2.930892e-06	
212	-5.50000e-01	3.136674e-06	
213	-6.00000e-01	3.326866e-06	
214	-6.50000e-01	3.501489e-06	
215	-7.00000e-01	3.660573e-06	
216	-7.50000e-01	3.804154e-06	
217	-8.00000e-01	3.932283e-06	
218	-8.50000e-01	4.045038e-06	
219	-9.00000e-01	4.142535e-06	
220	-9.50000e-01	4.224969e-06	
221	-1.00000e+00	4.292669e-06	
222	-1.05000e+00	4.346210e-06	
223	-1.10000e+00	4.386577e-06	
224	-1.15000e+00	4.415357e-06	
225	-1.20000e+00	4.434782e-06	
226	-1.25000e+00	4.447416e-06	
227	-1.30000e+00	4.455596e-06	
228	-1.35000e+00	4.461051e-06	

Index   v-sweep         i(vds)          
--------------------------------------------------------------------------------
229	-1.40000e+00	4.464876e-06	
230	-1.45000e+00	4.467717e-06	
231	-1.50000e+00	4.469941e-06	
232	-1.55000e+00	4.471762e-06	
233	-1.60000e+00	4.473308e-06	
234	-1.65000e+00	4.474657e-06	
235	-1.70000e+00	4.475860e-06	
236	-1.75000e+00	4.476951e-06	
237	-1.80000e+00	4.477952e-06	
238	-1.85000e+00	4.478881e-06	
239	-1.90000e+00	4.479750e-06	
240	-1.95000e+00	4.480568e-06	
241	-2.00000e+00	4.481341e-06	
242	-2.05000e+00	4.482077e-06	
243	-2.10000e+00	4.482778e-06	
244	-2.15000e+00	4.483450e-06	
245	-2.20000e+00	4.484094e-06	
246	-2.25000e+00	4.484714e-06	
247	-2.30000e+00	4.485312e-06	
248	-2.35000e+00	4.485889e-06	
249	-2.40000e+00	4.486447e-06	
250	-2.45000e+00	4.486988e-06	
251	-2.50000e+00	4.487513e-06	
252	-2.55000e+00	4.488023e-06	
253	-2.60000e+00	4.488519e-06	
254	-2.65000e+00	4.489001e-06	
255	-2.70000e+00	4.489471e-06	
256	-2.75000e+00	4.489930e-06	
257	-2.80000e+00	4.490378e-06	
258	-2.85000e+00	4.490815e-06	
259	-2.90000e+00	4.491242e-06	
260	-2.95000e+00	4.491660e-06	
261	-3.00000e+00	4.492070e-06	
262	-3.05000e+00	4.492471e-06	
263	-3.10000e+00	4.492864e-06	
264	-3.15000e+00	4.493250e-06	
265	-3.20000e+00	4.493629e-06	
266	-3.25000e+00	4.494001e-06	
267	-3.30000e+00	4.494368e-06	
268	-0.000000e+00	0.000000e+00	
269	-5.00000e-02	4.660121e-07	
270	-1.00000e-01	9.100689e-07	
271	-1.50000e-01	1.337675e-06	
272	-2.00000e-01	1.750121e-06	
273	-2.50000e-01	2.147714e-06	
274	-3.00000e-01	2.530533e-06	
275	-3.50000e-01	2.898605e-06	
276	-4.00000e-01	3.251944e-06	
277	-4.50000e-01	3.590561e-06	
278	-5.00000e-01	3.914467e-06	
279	-5.50000e-01	4.223671e-06	
280	-6.00000e-01	4.518187e-06	
281	-6.50000e-01	4.798024e-06	
282	-7.00000e-01	5.063194e-06	
283	-7.50000e-01	5.313711e-06	
284	-8.00000e-01	5.549588e-06	
285	-8.50000e-01	5.770839e-06	
286	-9.00000e-01	5.977482e-06	

Index   v-sweep         i(vds)          
--------------------------------------------------------------------------------
287	-9.50000e-01	6.169535e-06	
288	-1.00000e+00	6.347021e-06	
289	-1.05000e+00	6.509968e-06	
290	-1.10000e+00	6.658414e-06	
291	-1.15000e+00	6.792409e-06	
292	-1.20000e+00	6.912022e-06	
293	-1.25000e+00	7.017359e-06	
294	-1.30000e+00	7.108579e-06	
295	-1.35000e+00	7.185935e-06	
296	-1.40000e+00	7.249836e-06	
297	-1.45000e+00	7.300939e-06	
298	-1.50000e+00	7.340273e-06	
299	-1.55000e+00	7.369330e-06	
300	-1.60000e+00	7.390028e-06	
301	-1.65000e+00	7.404460e-06	
302	-1.70000e+00	7.414534e-06	
303	-1.75000e+00	7.421732e-06	
304	-1.80000e+00	7.427072e-06	
305	-1.85000e+00	7.431208e-06	
306	-1.90000e+00	7.434546e-06	
307	-1.95000e+00	7.437337e-06	
308	-2.00000e+00	7.439740e-06	
309	-2.05000e+00	7.441858e-06	
310	-2.10000e+00	7.443760e-06	
311	-2.15000e+00	7.445493e-06	
312	-2.20000e+00	7.447090e-06	
313	-2.25000e+00	7.448575e-06	
314	-2.30000e+00	7.449966e-06	
315	-2.35000e+00	7.451277e-06	
316	-2.40000e+00	7.452519e-06	
317	-2.45000e+00	7.453700e-06	
318	-2.50000e+00	7.454828e-06	
319	-2.55000e+00	7.455908e-06	
320	-2.60000e+00	7.456944e-06	
321	-2.65000e+00	7.457942e-06	
322	-2.70000e+00	7.458903e-06	
323	-2.75000e+00	7.459832e-06	
324	-2.80000e+00	7.460730e-06	
325	-2.85000e+00	7.461600e-06	
326	-2.90000e+00	7.462445e-06	
327	-2.95000e+00	7.463265e-06	
328	-3.00000e+00	7.464062e-06	
329	-3.05000e+00	7.464838e-06	
330	-3.10000e+00	7.465594e-06	
331	-3.15000e+00	7.466331e-06	
332	-3.20000e+00	7.467050e-06	
333	-3.25000e+00	7.467753e-06	
334	-3.30000e+00	7.468439e-06	
335	-0.000000e+00	0.000000e+00	
336	-5.00000e-02	5.522672e-07	
337	-1.00000e-01	1.083503e-06	
338	-1.50000e-01	1.599211e-06	
339	-2.00000e-01	2.100681e-06	
340	-2.50000e-01	2.588218e-06	
341	-3.00000e-01	3.061902e-06	
342	-3.50000e-01	3.521756e-06	
343	-4.00000e-01	3.967794e-06	
344	-4.50000e-01	4.400026e-06	

Index   v-sweep         i(vds)          
--------------------------------------------------------------------------------
345	-5.00000e-01	4.818461e-06	
346	-5.50000e-01	5.223108e-06	
347	-6.00000e-01	5.613975e-06	
348	-6.50000e-01	5.991073e-06	
349	-7.00000e-01	6.354410e-06	
350	-7.50000e-01	6.703995e-06	
351	-8.00000e-01	7.039839e-06	
352	-8.50000e-01	7.361951e-06	
353	-9.00000e-01	7.670340e-06	
354	-9.50000e-01	7.965017e-06	
355	-1.00000e+00	8.245992e-06	
356	-1.05000e+00	8.513277e-06	
357	-1.10000e+00	8.766884e-06	
358	-1.15000e+00	9.006823e-06	
359	-1.20000e+00	9.233111e-06	
360	-1.25000e+00	9.445761e-06	
361	-1.30000e+00	9.644791e-06	
362	-1.35000e+00	9.830222e-06	
363	-1.40000e+00	1.000208e-05	
364	-1.45000e+00	1.016039e-05	
365	-1.50000e+00	1.030520e-05	
366	-1.55000e+00	1.043656e-05	
367	-1.60000e+00	1.055455e-05	
368	-1.65000e+00	1.065928e-05	
369	-1.70000e+00	1.075090e-05	
370	-1.75000e+00	1.082967e-05	
371	-1.80000e+00	1.089595e-05	
372	-1.85000e+00	1.095033e-05	
373	-1.90000e+00	1.099366e-05	
374	-1.95000e+00	1.102712e-05	
375	-2.00000e+00	1.105226e-05	
376	-2.05000e+00	1.107079e-05	
377	-2.10000e+00	1.108439e-05	
378	-2.15000e+00	1.109451e-05	
379	-2.20000e+00	1.110223e-05	
380	-2.25000e+00	1.110831e-05	
381	-2.30000e+00	1.111326e-05	
382	-2.35000e+00	1.111742e-05	
383	-2.40000e+00	1.112101e-05	
384	-2.45000e+00	1.112418e-05	
385	-2.50000e+00	1.112702e-05	
386	-2.55000e+00	1.112960e-05	
387	-2.60000e+00	1.113198e-05	
388	-2.65000e+00	1.113419e-05	
389	-2.70000e+00	1.113626e-05	
390	-2.75000e+00	1.113821e-05	
391	-2.80000e+00	1.114005e-05	
392	-2.85000e+00	1.114181e-05	
393	-2.90000e+00	1.114348e-05	
394	-2.95000e+00	1.114508e-05	
395	-3.00000e+00	1.114661e-05	
396	-3.05000e+00	1.114809e-05	
397	-3.10000e+00	1.114951e-05	
398	-3.15000e+00	1.115088e-05	
399	-3.20000e+00	1.115221e-05	
400	-3.25000e+00	1.115349e-05	
401	-3.30000e+00	1.115474e-05	
Note: No ".plot", ".print", or ".fourier" lines; no simulations run
