
Note: Compatibility modes selected: hs

Warning: m=xx on .subckt line will override multiplier m hierarchy!


Circuit: ***************************

Doing analysis at TEMP = 125.000000 and TNOM = 125.000000


No. of Data Rows : 402
                          ***************************
                          DC transfer characteristic  Mon Jan  9 13:57:30  2023
--------------------------------------------------------------------------------
Index   v-sweep         i(vds)          
--------------------------------------------------------------------------------
0	-0.000000e+00	0.000000e+00	
1	-5.00000e-02	5.878790e-09	
2	-1.00000e-01	8.511829e-09	
3	-1.50000e-01	9.452470e-09	
4	-2.00000e-01	9.691483e-09	
5	-2.50000e-01	9.755152e-09	
6	-3.00000e-01	9.777920e-09	
7	-3.50000e-01	9.788608e-09	
8	-4.00000e-01	9.794774e-09	
9	-4.50000e-01	9.798896e-09	
10	-5.00000e-01	9.801951e-09	
11	-5.50000e-01	9.804387e-09	
12	-6.00000e-01	9.806432e-09	
13	-6.50000e-01	9.808213e-09	
14	-7.00000e-01	9.809808e-09	
15	-7.50000e-01	9.811265e-09	
16	-8.00000e-01	9.812616e-09	
17	-8.50000e-01	9.813884e-09	
18	-9.00000e-01	9.815084e-09	
19	-9.50000e-01	9.816229e-09	
20	-1.00000e+00	9.817327e-09	
21	-1.05000e+00	9.818385e-09	
22	-1.10000e+00	9.819408e-09	
23	-1.15000e+00	9.820401e-09	
24	-1.20000e+00	9.821367e-09	
25	-1.25000e+00	9.822309e-09	
26	-1.30000e+00	9.823229e-09	
27	-1.35000e+00	9.824129e-09	
28	-1.40000e+00	9.825012e-09	
29	-1.45000e+00	9.825878e-09	
30	-1.50000e+00	9.826730e-09	
31	-1.55000e+00	9.827567e-09	
32	-1.60000e+00	9.828391e-09	
33	-1.65000e+00	9.829204e-09	
34	-1.70000e+00	9.830005e-09	
35	-1.75000e+00	9.830796e-09	
36	-1.80000e+00	9.831577e-09	
37	-1.85000e+00	9.832349e-09	
38	-1.90000e+00	9.833112e-09	
39	-1.95000e+00	9.833867e-09	
40	-2.00000e+00	9.834614e-09	
41	-2.05000e+00	9.835354e-09	
42	-2.10000e+00	9.836086e-09	
43	-2.15000e+00	9.836813e-09	
44	-2.20000e+00	9.837533e-09	
45	-2.25000e+00	9.838248e-09	
46	-2.30000e+00	9.838957e-09	
47	-2.35000e+00	9.839662e-09	
48	-2.40000e+00	9.840363e-09	
49	-2.45000e+00	9.841061e-09	
50	-2.50000e+00	9.841757e-09	
51	-2.55000e+00	9.842452e-09	
52	-2.60000e+00	9.843147e-09	
53	-2.65000e+00	9.843845e-09	
54	-2.70000e+00	9.844547e-09	

Index   v-sweep         i(vds)          
--------------------------------------------------------------------------------
55	-2.75000e+00	9.845257e-09	
56	-2.80000e+00	9.845978e-09	
57	-2.85000e+00	9.846714e-09	
58	-2.90000e+00	9.847471e-09	
59	-2.95000e+00	9.848254e-09	
60	-3.00000e+00	9.849073e-09	
61	-3.05000e+00	9.849935e-09	
62	-3.10000e+00	9.850852e-09	
63	-3.15000e+00	9.851837e-09	
64	-3.20000e+00	9.852905e-09	
65	-3.25000e+00	9.854074e-09	
66	-3.30000e+00	9.855364e-09	
67	-0.000000e+00	0.000000e+00	
68	-5.00000e-02	2.083477e-08	
69	-1.00000e-01	3.789803e-08	
70	-1.50000e-01	5.240246e-08	
71	-2.00000e-01	6.463579e-08	
72	-2.50000e-01	7.467532e-08	
73	-3.00000e-01	8.256103e-08	
74	-3.50000e-01	8.835401e-08	
75	-4.00000e-01	9.219538e-08	
76	-4.50000e-01	9.439976e-08	
77	-5.00000e-01	9.548742e-08	
78	-5.50000e-01	9.598736e-08	
79	-6.00000e-01	9.622784e-08	
80	-6.50000e-01	9.635684e-08	
81	-7.00000e-01	9.643462e-08	
82	-7.50000e-01	9.648655e-08	
83	-8.00000e-01	9.652422e-08	
84	-8.50000e-01	9.655336e-08	
85	-9.00000e-01	9.657706e-08	
86	-9.50000e-01	9.659708e-08	
87	-1.00000e+00	9.661448e-08	
88	-1.05000e+00	9.662996e-08	
89	-1.10000e+00	9.664397e-08	
90	-1.15000e+00	9.665682e-08	
91	-1.20000e+00	9.666874e-08	
92	-1.25000e+00	9.667989e-08	
93	-1.30000e+00	9.669040e-08	
94	-1.35000e+00	9.670035e-08	
95	-1.40000e+00	9.670984e-08	
96	-1.45000e+00	9.671890e-08	
97	-1.50000e+00	9.672760e-08	
98	-1.55000e+00	9.673597e-08	
99	-1.60000e+00	9.674405e-08	
100	-1.65000e+00	9.675187e-08	
101	-1.70000e+00	9.675944e-08	
102	-1.75000e+00	9.676680e-08	
103	-1.80000e+00	9.677394e-08	
104	-1.85000e+00	9.678091e-08	
105	-1.90000e+00	9.678770e-08	
106	-1.95000e+00	9.679432e-08	
107	-2.00000e+00	9.680080e-08	
108	-2.05000e+00	9.680714e-08	
109	-2.10000e+00	9.681334e-08	
110	-2.15000e+00	9.681942e-08	
111	-2.20000e+00	9.682539e-08	
112	-2.25000e+00	9.683124e-08	

Index   v-sweep         i(vds)          
--------------------------------------------------------------------------------
113	-2.30000e+00	9.683699e-08	
114	-2.35000e+00	9.684264e-08	
115	-2.40000e+00	9.684820e-08	
116	-2.45000e+00	9.685367e-08	
117	-2.50000e+00	9.685906e-08	
118	-2.55000e+00	9.686437e-08	
119	-2.60000e+00	9.686961e-08	
120	-2.65000e+00	9.687480e-08	
121	-2.70000e+00	9.687992e-08	
122	-2.75000e+00	9.688500e-08	
123	-2.80000e+00	9.689005e-08	
124	-2.85000e+00	9.689508e-08	
125	-2.90000e+00	9.690011e-08	
126	-2.95000e+00	9.690516e-08	
127	-3.00000e+00	9.691025e-08	
128	-3.05000e+00	9.691543e-08	
129	-3.10000e+00	9.692074e-08	
130	-3.15000e+00	9.692622e-08	
131	-3.20000e+00	9.693195e-08	
132	-3.25000e+00	9.693800e-08	
133	-3.30000e+00	9.694446e-08	
134	-0.000000e+00	0.000000e+00	
135	-5.00000e-02	3.566119e-08	
136	-1.00000e-01	6.756520e-08	
137	-1.50000e-01	9.692219e-08	
138	-2.00000e-01	1.240150e-07	
139	-2.50000e-01	1.489108e-07	
140	-3.00000e-01	1.716267e-07	
141	-3.50000e-01	1.921688e-07	
142	-4.00000e-01	2.105415e-07	
143	-4.50000e-01	2.267500e-07	
144	-5.00000e-01	2.408028e-07	
145	-5.50000e-01	2.527140e-07	
146	-6.00000e-01	2.625090e-07	
147	-6.50000e-01	2.702373e-07	
148	-7.00000e-01	2.759956e-07	
149	-7.50000e-01	2.799702e-07	
150	-8.00000e-01	2.824766e-07	
151	-8.50000e-01	2.839358e-07	
152	-9.00000e-01	2.847559e-07	
153	-9.50000e-01	2.852268e-07	
154	-1.00000e+00	2.855141e-07	
155	-1.05000e+00	2.857029e-07	
156	-1.10000e+00	2.858361e-07	
157	-1.15000e+00	2.859362e-07	
158	-1.20000e+00	2.860154e-07	
159	-1.25000e+00	2.860807e-07	
160	-1.30000e+00	2.861362e-07	
161	-1.35000e+00	2.861847e-07	
162	-1.40000e+00	2.862279e-07	
163	-1.45000e+00	2.862670e-07	
164	-1.50000e+00	2.863029e-07	
165	-1.55000e+00	2.863361e-07	
166	-1.60000e+00	2.863671e-07	
167	-1.65000e+00	2.863962e-07	
168	-1.70000e+00	2.864238e-07	
169	-1.75000e+00	2.864499e-07	
170	-1.80000e+00	2.864749e-07	

Index   v-sweep         i(vds)          
--------------------------------------------------------------------------------
171	-1.85000e+00	2.864988e-07	
172	-1.90000e+00	2.865217e-07	
173	-1.95000e+00	2.865438e-07	
174	-2.00000e+00	2.865650e-07	
175	-2.05000e+00	2.865856e-07	
176	-2.10000e+00	2.866055e-07	
177	-2.15000e+00	2.866249e-07	
178	-2.20000e+00	2.866436e-07	
179	-2.25000e+00	2.866619e-07	
180	-2.30000e+00	2.866796e-07	
181	-2.35000e+00	2.866970e-07	
182	-2.40000e+00	2.867139e-07	
183	-2.45000e+00	2.867304e-07	
184	-2.50000e+00	2.867465e-07	
185	-2.55000e+00	2.867623e-07	
186	-2.60000e+00	2.867778e-07	
187	-2.65000e+00	2.867930e-07	
188	-2.70000e+00	2.868078e-07	
189	-2.75000e+00	2.868224e-07	
190	-2.80000e+00	2.868368e-07	
191	-2.85000e+00	2.868509e-07	
192	-2.90000e+00	2.868647e-07	
193	-2.95000e+00	2.868784e-07	
194	-3.00000e+00	2.868919e-07	
195	-3.05000e+00	2.869052e-07	
196	-3.10000e+00	2.869184e-07	
197	-3.15000e+00	2.869315e-07	
198	-3.20000e+00	2.869445e-07	
199	-3.25000e+00	2.869576e-07	
200	-3.30000e+00	2.869707e-07	
201	-0.000000e+00	0.000000e+00	
202	-5.00000e-02	4.985162e-08	
203	-1.00000e-01	9.601684e-08	
204	-1.50000e-01	1.397055e-07	
205	-2.00000e-01	1.812000e-07	
206	-2.50000e-01	2.205668e-07	
207	-3.00000e-01	2.578221e-07	
208	-3.50000e-01	2.929706e-07	
209	-4.00000e-01	3.260142e-07	
210	-4.50000e-01	3.569543e-07	
211	-5.00000e-01	3.857924e-07	
212	-5.50000e-01	4.125302e-07	
213	-6.00000e-01	4.371698e-07	
214	-6.50000e-01	4.597137e-07	
215	-7.00000e-01	4.801655e-07	
216	-7.50000e-01	4.985302e-07	
217	-8.00000e-01	5.148152e-07	
218	-8.50000e-01	5.290319e-07	
219	-9.00000e-01	5.411990e-07	
220	-9.50000e-01	5.513482e-07	
221	-1.00000e+00	5.595350e-07	
222	-1.05000e+00	5.658567e-07	
223	-1.10000e+00	5.704788e-07	
224	-1.15000e+00	5.736565e-07	
225	-1.20000e+00	5.757224e-07	
226	-1.25000e+00	5.770227e-07	
227	-1.30000e+00	5.778428e-07	
228	-1.35000e+00	5.783770e-07	

Index   v-sweep         i(vds)          
--------------------------------------------------------------------------------
229	-1.40000e+00	5.787427e-07	
230	-1.45000e+00	5.790070e-07	
231	-1.50000e+00	5.792081e-07	
232	-1.55000e+00	5.793680e-07	
233	-1.60000e+00	5.795000e-07	
234	-1.65000e+00	5.796124e-07	
235	-1.70000e+00	5.797103e-07	
236	-1.75000e+00	5.797974e-07	
237	-1.80000e+00	5.798760e-07	
238	-1.85000e+00	5.799479e-07	
239	-1.90000e+00	5.800142e-07	
240	-1.95000e+00	5.800761e-07	
241	-2.00000e+00	5.801341e-07	
242	-2.05000e+00	5.801888e-07	
243	-2.10000e+00	5.802406e-07	
244	-2.15000e+00	5.802899e-07	
245	-2.20000e+00	5.803371e-07	
246	-2.25000e+00	5.803822e-07	
247	-2.30000e+00	5.804256e-07	
248	-2.35000e+00	5.804673e-07	
249	-2.40000e+00	5.805076e-07	
250	-2.45000e+00	5.805466e-07	
251	-2.50000e+00	5.805843e-07	
252	-2.55000e+00	5.806209e-07	
253	-2.60000e+00	5.806564e-07	
254	-2.65000e+00	5.806910e-07	
255	-2.70000e+00	5.807246e-07	
256	-2.75000e+00	5.807573e-07	
257	-2.80000e+00	5.807893e-07	
258	-2.85000e+00	5.808205e-07	
259	-2.90000e+00	5.808510e-07	
260	-2.95000e+00	5.808808e-07	
261	-3.00000e+00	5.809100e-07	
262	-3.05000e+00	5.809385e-07	
263	-3.10000e+00	5.809666e-07	
264	-3.15000e+00	5.809940e-07	
265	-3.20000e+00	5.810210e-07	
266	-3.25000e+00	5.810475e-07	
267	-3.30000e+00	5.810736e-07	
268	-0.000000e+00	0.000000e+00	
269	-5.00000e-02	6.349369e-08	
270	-1.00000e-01	1.233840e-07	
271	-1.50000e-01	1.808807e-07	
272	-2.00000e-01	2.362661e-07	
273	-2.50000e-01	2.896064e-07	
274	-3.00000e-01	3.409177e-07	
275	-3.50000e-01	3.902045e-07	
276	-4.00000e-01	4.374682e-07	
277	-4.50000e-01	4.827100e-07	
278	-5.00000e-01	5.259308e-07	
279	-5.50000e-01	5.671315e-07	
280	-6.00000e-01	6.063129e-07	
281	-6.50000e-01	6.434763e-07	
282	-7.00000e-01	6.786225e-07	
283	-7.50000e-01	7.117530e-07	
284	-8.00000e-01	7.428689e-07	
285	-8.50000e-01	7.719718e-07	
286	-9.00000e-01	7.990637e-07	

Index   v-sweep         i(vds)          
--------------------------------------------------------------------------------
287	-9.50000e-01	8.241469e-07	
288	-1.00000e+00	8.472243e-07	
289	-1.05000e+00	8.682998e-07	
290	-1.10000e+00	8.873788e-07	
291	-1.15000e+00	9.044693e-07	
292	-1.20000e+00	9.195826e-07	
293	-1.25000e+00	9.327368e-07	
294	-1.30000e+00	9.439602e-07	
295	-1.35000e+00	9.532990e-07	
296	-1.40000e+00	9.608285e-07	
297	-1.45000e+00	9.666695e-07	
298	-1.50000e+00	9.710046e-07	
299	-1.55000e+00	9.740822e-07	
300	-1.60000e+00	9.761918e-07	
301	-1.65000e+00	9.776157e-07	
302	-1.70000e+00	9.785845e-07	
303	-1.75000e+00	9.792621e-07	
304	-1.80000e+00	9.797548e-07	
305	-1.85000e+00	9.801283e-07	
306	-1.90000e+00	9.804230e-07	
307	-1.95000e+00	9.806640e-07	
308	-2.00000e+00	9.808670e-07	
309	-2.05000e+00	9.810425e-07	
310	-2.10000e+00	9.811971e-07	
311	-2.15000e+00	9.813358e-07	
312	-2.20000e+00	9.814617e-07	
313	-2.25000e+00	9.815774e-07	
314	-2.30000e+00	9.816846e-07	
315	-2.35000e+00	9.817847e-07	
316	-2.40000e+00	9.818788e-07	
317	-2.45000e+00	9.819677e-07	
318	-2.50000e+00	9.820521e-07	
319	-2.55000e+00	9.821324e-07	
320	-2.60000e+00	9.822091e-07	
321	-2.65000e+00	9.822827e-07	
322	-2.70000e+00	9.823534e-07	
323	-2.75000e+00	9.824215e-07	
324	-2.80000e+00	9.824872e-07	
325	-2.85000e+00	9.825506e-07	
326	-2.90000e+00	9.826121e-07	
327	-2.95000e+00	9.826717e-07	
328	-3.00000e+00	9.827296e-07	
329	-3.05000e+00	9.827858e-07	
330	-3.10000e+00	9.828406e-07	
331	-3.15000e+00	9.828939e-07	
332	-3.20000e+00	9.829459e-07	
333	-3.25000e+00	9.829966e-07	
334	-3.30000e+00	9.830461e-07	
335	-0.000000e+00	0.000000e+00	
336	-5.00000e-02	7.669295e-08	
337	-1.00000e-01	1.498669e-07	
338	-1.50000e-01	2.207315e-07	
339	-2.00000e-01	2.895691e-07	
340	-2.50000e-01	3.564457e-07	
341	-3.00000e-01	4.213775e-07	
342	-3.50000e-01	4.843687e-07	
343	-4.00000e-01	5.454209e-07	
344	-4.50000e-01	6.045348e-07	

Index   v-sweep         i(vds)          
--------------------------------------------------------------------------------
345	-5.00000e-01	6.617115e-07	
346	-5.50000e-01	7.169515e-07	
347	-6.00000e-01	7.702557e-07	
348	-6.50000e-01	8.216248e-07	
349	-7.00000e-01	8.710595e-07	
350	-7.50000e-01	9.185608e-07	
351	-8.00000e-01	9.641293e-07	
352	-8.50000e-01	1.007766e-06	
353	-9.00000e-01	1.049472e-06	
354	-9.50000e-01	1.089248e-06	
355	-1.00000e+00	1.127094e-06	
356	-1.05000e+00	1.163013e-06	
357	-1.10000e+00	1.197005e-06	
358	-1.15000e+00	1.229072e-06	
359	-1.20000e+00	1.259215e-06	
360	-1.25000e+00	1.287436e-06	
361	-1.30000e+00	1.313737e-06	
362	-1.35000e+00	1.338122e-06	
363	-1.40000e+00	1.360593e-06	
364	-1.45000e+00	1.381156e-06	
365	-1.50000e+00	1.399817e-06	
366	-1.55000e+00	1.416585e-06	
367	-1.60000e+00	1.431475e-06	
368	-1.65000e+00	1.444507e-06	
369	-1.70000e+00	1.455712e-06	
370	-1.75000e+00	1.465140e-06	
371	-1.80000e+00	1.472864e-06	
372	-1.85000e+00	1.479000e-06	
373	-1.90000e+00	1.483707e-06	
374	-1.95000e+00	1.487199e-06	
375	-2.00000e+00	1.489720e-06	
376	-2.05000e+00	1.491516e-06	
377	-2.10000e+00	1.492800e-06	
378	-2.15000e+00	1.493735e-06	
379	-2.20000e+00	1.494436e-06	
380	-2.25000e+00	1.494979e-06	
381	-2.30000e+00	1.495414e-06	
382	-2.35000e+00	1.495773e-06	
383	-2.40000e+00	1.496078e-06	
384	-2.45000e+00	1.496342e-06	
385	-2.50000e+00	1.496575e-06	
386	-2.55000e+00	1.496785e-06	
387	-2.60000e+00	1.496975e-06	
388	-2.65000e+00	1.497150e-06	
389	-2.70000e+00	1.497313e-06	
390	-2.75000e+00	1.497464e-06	
391	-2.80000e+00	1.497606e-06	
392	-2.85000e+00	1.497741e-06	
393	-2.90000e+00	1.497868e-06	
394	-2.95000e+00	1.497989e-06	
395	-3.00000e+00	1.498105e-06	
396	-3.05000e+00	1.498216e-06	
397	-3.10000e+00	1.498322e-06	
398	-3.15000e+00	1.498425e-06	
399	-3.20000e+00	1.498524e-06	
400	-3.25000e+00	1.498619e-06	
401	-3.30000e+00	1.498712e-06	
Note: No ".plot", ".print", or ".fourier" lines; no simulations run
