
Note: Compatibility modes selected: hs

Warning: m=xx on .subckt line will override multiplier m hierarchy!


Circuit: ***************************

Doing analysis at TEMP = 25.000000 and TNOM = 25.000000


No. of Data Rows : 402
                          ***************************
                          DC transfer characteristic  Mon Jan  9 13:57:28  2023
--------------------------------------------------------------------------------
Index   v-sweep         i(vds)          
--------------------------------------------------------------------------------
0	-0.000000e+00	0.000000e+00	
1	-5.00000e-02	5.818453e-08	
2	-1.00000e-01	7.030715e-08	
3	-1.50000e-01	7.204607e-08	
4	-2.00000e-01	7.247784e-08	
5	-2.50000e-01	7.264929e-08	
6	-3.00000e-01	7.274007e-08	
7	-3.50000e-01	7.279799e-08	
8	-4.00000e-01	7.283991e-08	
9	-4.50000e-01	7.287300e-08	
10	-5.00000e-01	7.290071e-08	
11	-5.50000e-01	7.292491e-08	
12	-6.00000e-01	7.294669e-08	
13	-6.50000e-01	7.296670e-08	
14	-7.00000e-01	7.298539e-08	
15	-7.50000e-01	7.300304e-08	
16	-8.00000e-01	7.301987e-08	
17	-8.50000e-01	7.303602e-08	
18	-9.00000e-01	7.305161e-08	
19	-9.50000e-01	7.306671e-08	
20	-1.00000e+00	7.308141e-08	
21	-1.05000e+00	7.309575e-08	
22	-1.10000e+00	7.310977e-08	
23	-1.15000e+00	7.312352e-08	
24	-1.20000e+00	7.313701e-08	
25	-1.25000e+00	7.315028e-08	
26	-1.30000e+00	7.316335e-08	
27	-1.35000e+00	7.317623e-08	
28	-1.40000e+00	7.318895e-08	
29	-1.45000e+00	7.320150e-08	
30	-1.50000e+00	7.321392e-08	
31	-1.55000e+00	7.322620e-08	
32	-1.60000e+00	7.323835e-08	
33	-1.65000e+00	7.325039e-08	
34	-1.70000e+00	7.326232e-08	
35	-1.75000e+00	7.327415e-08	
36	-1.80000e+00	7.328589e-08	
37	-1.85000e+00	7.329753e-08	
38	-1.90000e+00	7.330909e-08	
39	-1.95000e+00	7.332057e-08	
40	-2.00000e+00	7.333198e-08	
41	-2.05000e+00	7.334332e-08	
42	-2.10000e+00	7.335459e-08	
43	-2.15000e+00	7.336581e-08	
44	-2.20000e+00	7.337697e-08	
45	-2.25000e+00	7.338809e-08	
46	-2.30000e+00	7.339916e-08	
47	-2.35000e+00	7.341022e-08	
48	-2.40000e+00	7.342125e-08	
49	-2.45000e+00	7.343229e-08	
50	-2.50000e+00	7.344336e-08	
51	-2.55000e+00	7.345447e-08	
52	-2.60000e+00	7.346566e-08	
53	-2.65000e+00	7.347698e-08	
54	-2.70000e+00	7.348847e-08	

Index   v-sweep         i(vds)          
--------------------------------------------------------------------------------
55	-2.75000e+00	7.350020e-08	
56	-2.80000e+00	7.351224e-08	
57	-2.85000e+00	7.352468e-08	
58	-2.90000e+00	7.353764e-08	
59	-2.95000e+00	7.355125e-08	
60	-3.00000e+00	7.356567e-08	
61	-3.05000e+00	7.358108e-08	
62	-3.10000e+00	7.359771e-08	
63	-3.15000e+00	7.361581e-08	
64	-3.20000e+00	7.363567e-08	
65	-3.25000e+00	7.365763e-08	
66	-3.30000e+00	7.368208e-08	
67	-0.000000e+00	0.000000e+00	
68	-5.00000e-02	8.808093e-07	
69	-1.00000e-01	1.633902e-06	
70	-1.50000e-01	2.259709e-06	
71	-2.00000e-01	2.759098e-06	
72	-2.50000e-01	3.134088e-06	
73	-3.00000e-01	3.389925e-06	
74	-3.50000e-01	3.540290e-06	
75	-4.00000e-01	3.613462e-06	
76	-4.50000e-01	3.644775e-06	
77	-5.00000e-01	3.658477e-06	
78	-5.50000e-01	3.665255e-06	
79	-6.00000e-01	3.669107e-06	
80	-6.50000e-01	3.671575e-06	
81	-7.00000e-01	3.673312e-06	
82	-7.50000e-01	3.674628e-06	
83	-8.00000e-01	3.675681e-06	
84	-8.50000e-01	3.676559e-06	
85	-9.00000e-01	3.677315e-06	
86	-9.50000e-01	3.677982e-06	
87	-1.00000e+00	3.678582e-06	
88	-1.05000e+00	3.679129e-06	
89	-1.10000e+00	3.679633e-06	
90	-1.15000e+00	3.680103e-06	
91	-1.20000e+00	3.680545e-06	
92	-1.25000e+00	3.680962e-06	
93	-1.30000e+00	3.681358e-06	
94	-1.35000e+00	3.681736e-06	
95	-1.40000e+00	3.682097e-06	
96	-1.45000e+00	3.682445e-06	
97	-1.50000e+00	3.682780e-06	
98	-1.55000e+00	3.683103e-06	
99	-1.60000e+00	3.683416e-06	
100	-1.65000e+00	3.683720e-06	
101	-1.70000e+00	3.684015e-06	
102	-1.75000e+00	3.684301e-06	
103	-1.80000e+00	3.684581e-06	
104	-1.85000e+00	3.684854e-06	
105	-1.90000e+00	3.685120e-06	
106	-1.95000e+00	3.685381e-06	
107	-2.00000e+00	3.685636e-06	
108	-2.05000e+00	3.685886e-06	
109	-2.10000e+00	3.686131e-06	
110	-2.15000e+00	3.686372e-06	
111	-2.20000e+00	3.686608e-06	
112	-2.25000e+00	3.686840e-06	

Index   v-sweep         i(vds)          
--------------------------------------------------------------------------------
113	-2.30000e+00	3.687069e-06	
114	-2.35000e+00	3.687294e-06	
115	-2.40000e+00	3.687515e-06	
116	-2.45000e+00	3.687734e-06	
117	-2.50000e+00	3.687950e-06	
118	-2.55000e+00	3.688163e-06	
119	-2.60000e+00	3.688375e-06	
120	-2.65000e+00	3.688585e-06	
121	-2.70000e+00	3.688794e-06	
122	-2.75000e+00	3.689003e-06	
123	-2.80000e+00	3.689213e-06	
124	-2.85000e+00	3.689425e-06	
125	-2.90000e+00	3.689641e-06	
126	-2.95000e+00	3.689863e-06	
127	-3.00000e+00	3.690093e-06	
128	-3.05000e+00	3.690334e-06	
129	-3.10000e+00	3.690590e-06	
130	-3.15000e+00	3.690866e-06	
131	-3.20000e+00	3.691166e-06	
132	-3.25000e+00	3.691497e-06	
133	-3.30000e+00	3.691868e-06	
134	-0.000000e+00	0.000000e+00	
135	-5.00000e-02	1.695592e-06	
136	-1.00000e-01	3.268061e-06	
137	-1.50000e-01	4.717498e-06	
138	-2.00000e-01	6.044007e-06	
139	-2.50000e-01	7.247718e-06	
140	-3.00000e-01	8.328796e-06	
141	-3.50000e-01	9.287476e-06	
142	-4.00000e-01	1.012411e-05	
143	-4.50000e-01	1.083927e-05	
144	-5.00000e-01	1.143398e-05	
145	-5.50000e-01	1.191020e-05	
146	-6.00000e-01	1.227188e-05	
147	-6.50000e-01	1.252704e-05	
148	-7.00000e-01	1.269076e-05	
149	-7.50000e-01	1.278605e-05	
150	-8.00000e-01	1.283827e-05	
151	-8.50000e-01	1.286704e-05	
152	-9.00000e-01	1.288384e-05	
153	-9.50000e-01	1.289445e-05	
154	-1.00000e+00	1.290171e-05	
155	-1.05000e+00	1.290703e-05	
156	-1.10000e+00	1.291116e-05	
157	-1.15000e+00	1.291450e-05	
158	-1.20000e+00	1.291731e-05	
159	-1.25000e+00	1.291974e-05	
160	-1.30000e+00	1.292188e-05	
161	-1.35000e+00	1.292381e-05	
162	-1.40000e+00	1.292556e-05	
163	-1.45000e+00	1.292717e-05	
164	-1.50000e+00	1.292866e-05	
165	-1.55000e+00	1.293006e-05	
166	-1.60000e+00	1.293138e-05	
167	-1.65000e+00	1.293262e-05	
168	-1.70000e+00	1.293381e-05	
169	-1.75000e+00	1.293494e-05	
170	-1.80000e+00	1.293602e-05	

Index   v-sweep         i(vds)          
--------------------------------------------------------------------------------
171	-1.85000e+00	1.293705e-05	
172	-1.90000e+00	1.293805e-05	
173	-1.95000e+00	1.293902e-05	
174	-2.00000e+00	1.293995e-05	
175	-2.05000e+00	1.294085e-05	
176	-2.10000e+00	1.294172e-05	
177	-2.15000e+00	1.294257e-05	
178	-2.20000e+00	1.294339e-05	
179	-2.25000e+00	1.294420e-05	
180	-2.30000e+00	1.294498e-05	
181	-2.35000e+00	1.294574e-05	
182	-2.40000e+00	1.294649e-05	
183	-2.45000e+00	1.294722e-05	
184	-2.50000e+00	1.294793e-05	
185	-2.55000e+00	1.294863e-05	
186	-2.60000e+00	1.294931e-05	
187	-2.65000e+00	1.294999e-05	
188	-2.70000e+00	1.295064e-05	
189	-2.75000e+00	1.295129e-05	
190	-2.80000e+00	1.295193e-05	
191	-2.85000e+00	1.295256e-05	
192	-2.90000e+00	1.295318e-05	
193	-2.95000e+00	1.295379e-05	
194	-3.00000e+00	1.295440e-05	
195	-3.05000e+00	1.295501e-05	
196	-3.10000e+00	1.295561e-05	
197	-3.15000e+00	1.295622e-05	
198	-3.20000e+00	1.295684e-05	
199	-3.25000e+00	1.295747e-05	
200	-3.30000e+00	1.295813e-05	
201	-0.000000e+00	0.000000e+00	
202	-5.00000e-02	2.409587e-06	
203	-1.00000e-01	4.704658e-06	
204	-1.50000e-01	6.885275e-06	
205	-2.00000e-01	8.951500e-06	
206	-2.50000e-01	1.090339e-05	
207	-3.00000e-01	1.274103e-05	
208	-3.50000e-01	1.446448e-05	
209	-4.00000e-01	1.607382e-05	
210	-4.50000e-01	1.756914e-05	
211	-5.00000e-01	1.895055e-05	
212	-5.50000e-01	2.021818e-05	
213	-6.00000e-01	2.137220e-05	
214	-6.50000e-01	2.241282e-05	
215	-7.00000e-01	2.334037e-05	
216	-7.50000e-01	2.415534e-05	
217	-8.00000e-01	2.485848e-05	
218	-8.50000e-01	2.545109e-05	
219	-9.00000e-01	2.593542e-05	
220	-9.50000e-01	2.631552e-05	
221	-1.00000e+00	2.659855e-05	
222	-1.05000e+00	2.679637e-05	
223	-1.10000e+00	2.692600e-05	
224	-1.15000e+00	2.700707e-05	
225	-1.20000e+00	2.705717e-05	
226	-1.25000e+00	2.708892e-05	
227	-1.30000e+00	2.711002e-05	
228	-1.35000e+00	2.712487e-05	

Index   v-sweep         i(vds)          
--------------------------------------------------------------------------------
229	-1.40000e+00	2.713590e-05	
230	-1.45000e+00	2.714451e-05	
231	-1.50000e+00	2.715149e-05	
232	-1.55000e+00	2.715736e-05	
233	-1.60000e+00	2.716241e-05	
234	-1.65000e+00	2.716685e-05	
235	-1.70000e+00	2.717083e-05	
236	-1.75000e+00	2.717444e-05	
237	-1.80000e+00	2.717775e-05	
238	-1.85000e+00	2.718081e-05	
239	-1.90000e+00	2.718367e-05	
240	-1.95000e+00	2.718636e-05	
241	-2.00000e+00	2.718889e-05	
242	-2.05000e+00	2.719129e-05	
243	-2.10000e+00	2.719357e-05	
244	-2.15000e+00	2.719575e-05	
245	-2.20000e+00	2.719784e-05	
246	-2.25000e+00	2.719985e-05	
247	-2.30000e+00	2.720178e-05	
248	-2.35000e+00	2.720364e-05	
249	-2.40000e+00	2.720544e-05	
250	-2.45000e+00	2.720718e-05	
251	-2.50000e+00	2.720887e-05	
252	-2.55000e+00	2.721051e-05	
253	-2.60000e+00	2.721210e-05	
254	-2.65000e+00	2.721365e-05	
255	-2.70000e+00	2.721516e-05	
256	-2.75000e+00	2.721663e-05	
257	-2.80000e+00	2.721807e-05	
258	-2.85000e+00	2.721947e-05	
259	-2.90000e+00	2.722084e-05	
260	-2.95000e+00	2.722218e-05	
261	-3.00000e+00	2.722350e-05	
262	-3.05000e+00	2.722478e-05	
263	-3.10000e+00	2.722605e-05	
264	-3.15000e+00	2.722729e-05	
265	-3.20000e+00	2.722851e-05	
266	-3.25000e+00	2.722972e-05	
267	-3.30000e+00	2.723091e-05	
268	-0.000000e+00	0.000000e+00	
269	-5.00000e-02	3.026570e-06	
270	-1.00000e-01	5.947820e-06	
271	-1.50000e-01	8.763797e-06	
272	-2.00000e-01	1.147455e-05	
273	-2.50000e-01	1.408013e-05	
274	-3.00000e-01	1.658058e-05	
275	-3.50000e-01	1.897596e-05	
276	-4.00000e-01	2.126631e-05	
277	-4.50000e-01	2.345170e-05	
278	-5.00000e-01	2.553218e-05	
279	-5.50000e-01	2.750779e-05	
280	-6.00000e-01	2.937862e-05	
281	-6.50000e-01	3.114471e-05	
282	-7.00000e-01	3.280615e-05	
283	-7.50000e-01	3.436301e-05	
284	-8.00000e-01	3.581539e-05	
285	-8.50000e-01	3.716340e-05	
286	-9.00000e-01	3.840717e-05	

Index   v-sweep         i(vds)          
--------------------------------------------------------------------------------
287	-9.50000e-01	3.954688e-05	
288	-1.00000e+00	4.058277e-05	
289	-1.05000e+00	4.151516e-05	
290	-1.10000e+00	4.234453e-05	
291	-1.15000e+00	4.307160e-05	
292	-1.20000e+00	4.369751e-05	
293	-1.25000e+00	4.422411e-05	
294	-1.30000e+00	4.465444e-05	
295	-1.35000e+00	4.499349e-05	
296	-1.40000e+00	4.524922e-05	
297	-1.45000e+00	4.543315e-05	
298	-1.50000e+00	4.555992e-05	
299	-1.55000e+00	4.564504e-05	
300	-1.60000e+00	4.570209e-05	
301	-1.65000e+00	4.574114e-05	
302	-1.70000e+00	4.576889e-05	
303	-1.75000e+00	4.578945e-05	
304	-1.80000e+00	4.580534e-05	
305	-1.85000e+00	4.581811e-05	
306	-1.90000e+00	4.582870e-05	
307	-1.95000e+00	4.583773e-05	
308	-2.00000e+00	4.584560e-05	
309	-2.05000e+00	4.585258e-05	
310	-2.10000e+00	4.585887e-05	
311	-2.15000e+00	4.586461e-05	
312	-2.20000e+00	4.586989e-05	
313	-2.25000e+00	4.587478e-05	
314	-2.30000e+00	4.587936e-05	
315	-2.35000e+00	4.588367e-05	
316	-2.40000e+00	4.588774e-05	
317	-2.45000e+00	4.589160e-05	
318	-2.50000e+00	4.589527e-05	
319	-2.55000e+00	4.589878e-05	
320	-2.60000e+00	4.590214e-05	
321	-2.65000e+00	4.590537e-05	
322	-2.70000e+00	4.590848e-05	
323	-2.75000e+00	4.591147e-05	
324	-2.80000e+00	4.591437e-05	
325	-2.85000e+00	4.591717e-05	
326	-2.90000e+00	4.591989e-05	
327	-2.95000e+00	4.592252e-05	
328	-3.00000e+00	4.592508e-05	
329	-3.05000e+00	4.592757e-05	
330	-3.10000e+00	4.592999e-05	
331	-3.15000e+00	4.593236e-05	
332	-3.20000e+00	4.593466e-05	
333	-3.25000e+00	4.593691e-05	
334	-3.30000e+00	4.593911e-05	
335	-0.000000e+00	0.000000e+00	
336	-5.00000e-02	3.554581e-06	
337	-1.00000e-01	7.012826e-06	
338	-1.50000e-01	1.037478e-05	
339	-2.00000e-01	1.364047e-05	
340	-2.50000e-01	1.680995e-05	
341	-3.00000e-01	1.988326e-05	
342	-3.50000e-01	2.286044e-05	
343	-4.00000e-01	2.574153e-05	
344	-4.50000e-01	2.852657e-05	

Index   v-sweep         i(vds)          
--------------------------------------------------------------------------------
345	-5.00000e-01	3.121560e-05	
346	-5.50000e-01	3.380868e-05	
347	-6.00000e-01	3.630583e-05	
348	-6.50000e-01	3.870711e-05	
349	-7.00000e-01	4.101256e-05	
350	-7.50000e-01	4.322223e-05	
351	-8.00000e-01	4.533616e-05	
352	-8.50000e-01	4.735441e-05	
353	-9.00000e-01	4.927703e-05	
354	-9.50000e-01	5.110407e-05	
355	-1.00000e+00	5.283559e-05	
356	-1.05000e+00	5.447167e-05	
357	-1.10000e+00	5.601237e-05	
358	-1.15000e+00	5.745778e-05	
359	-1.20000e+00	5.880801e-05	
360	-1.25000e+00	6.006317e-05	
361	-1.30000e+00	6.122343e-05	
362	-1.35000e+00	6.228898e-05	
363	-1.40000e+00	6.326009e-05	
364	-1.45000e+00	6.413714e-05	
365	-1.50000e+00	6.492067e-05	
366	-1.55000e+00	6.561148e-05	
367	-1.60000e+00	6.621079e-05	
368	-1.65000e+00	6.672046e-05	
369	-1.70000e+00	6.714343e-05	
370	-1.75000e+00	6.748423e-05	
371	-1.80000e+00	6.774961e-05	
372	-1.85000e+00	6.794893e-05	
373	-1.90000e+00	6.809384e-05	
374	-1.95000e+00	6.819692e-05	
375	-2.00000e+00	6.826988e-05	
376	-2.05000e+00	6.832215e-05	
377	-2.10000e+00	6.836054e-05	
378	-2.15000e+00	6.838968e-05	
379	-2.20000e+00	6.841256e-05	
380	-2.25000e+00	6.843111e-05	
381	-2.30000e+00	6.844660e-05	
382	-2.35000e+00	6.845984e-05	
383	-2.40000e+00	6.847141e-05	
384	-2.45000e+00	6.848168e-05	
385	-2.50000e+00	6.849093e-05	
386	-2.55000e+00	6.849937e-05	
387	-2.60000e+00	6.850713e-05	
388	-2.65000e+00	6.851433e-05	
389	-2.70000e+00	6.852106e-05	
390	-2.75000e+00	6.852738e-05	
391	-2.80000e+00	6.853335e-05	
392	-2.85000e+00	6.853901e-05	
393	-2.90000e+00	6.854439e-05	
394	-2.95000e+00	6.854953e-05	
395	-3.00000e+00	6.855446e-05	
396	-3.05000e+00	6.855918e-05	
397	-3.10000e+00	6.856372e-05	
398	-3.15000e+00	6.856810e-05	
399	-3.20000e+00	6.857233e-05	
400	-3.25000e+00	6.857642e-05	
401	-3.30000e+00	6.858038e-05	
Note: No ".plot", ".print", or ".fourier" lines; no simulations run
