
Note: Compatibility modes selected: hs

Warning: m=xx on .subckt line will override multiplier m hierarchy!


Circuit: ***************************

Doing analysis at TEMP = 125.000000 and TNOM = 125.000000


No. of Data Rows : 402
                          ***************************
                          DC transfer characteristic  Mon Jan  9 13:57:29  2023
--------------------------------------------------------------------------------
Index   v-sweep         i(vds)          
--------------------------------------------------------------------------------
0	-0.000000e+00	0.000000e+00	
1	-5.00000e-02	7.986018e-07	
2	-1.00000e-01	1.246037e-06	
3	-1.50000e-01	1.427920e-06	
4	-2.00000e-01	1.479096e-06	
5	-2.50000e-01	1.494946e-06	
6	-3.00000e-01	1.502348e-06	
7	-3.50000e-01	1.507106e-06	
8	-4.00000e-01	1.510760e-06	
9	-4.50000e-01	1.513838e-06	
10	-5.00000e-01	1.516563e-06	
11	-5.50000e-01	1.519042e-06	
12	-6.00000e-01	1.521339e-06	
13	-6.50000e-01	1.523492e-06	
14	-7.00000e-01	1.525525e-06	
15	-7.50000e-01	1.527458e-06	
16	-8.00000e-01	1.529304e-06	
17	-8.50000e-01	1.531073e-06	
18	-9.00000e-01	1.532774e-06	
19	-9.50000e-01	1.534414e-06	
20	-1.00000e+00	1.536000e-06	
21	-1.05000e+00	1.537535e-06	
22	-1.10000e+00	1.539024e-06	
23	-1.15000e+00	1.540471e-06	
24	-1.20000e+00	1.541879e-06	
25	-1.25000e+00	1.543251e-06	
26	-1.30000e+00	1.544589e-06	
27	-1.35000e+00	1.545896e-06	
28	-1.40000e+00	1.547174e-06	
29	-1.45000e+00	1.548424e-06	
30	-1.50000e+00	1.549649e-06	
31	-1.55000e+00	1.550849e-06	
32	-1.60000e+00	1.552026e-06	
33	-1.65000e+00	1.553182e-06	
34	-1.70000e+00	1.554317e-06	
35	-1.75000e+00	1.555433e-06	
36	-1.80000e+00	1.556530e-06	
37	-1.85000e+00	1.557610e-06	
38	-1.90000e+00	1.558674e-06	
39	-1.95000e+00	1.559721e-06	
40	-2.00000e+00	1.560754e-06	
41	-2.05000e+00	1.561772e-06	
42	-2.10000e+00	1.562777e-06	
43	-2.15000e+00	1.563768e-06	
44	-2.20000e+00	1.564748e-06	
45	-2.25000e+00	1.565717e-06	
46	-2.30000e+00	1.566674e-06	
47	-2.35000e+00	1.567623e-06	
48	-2.40000e+00	1.568563e-06	
49	-2.45000e+00	1.569495e-06	
50	-2.50000e+00	1.570421e-06	
51	-2.55000e+00	1.571343e-06	
52	-2.60000e+00	1.572262e-06	
53	-2.65000e+00	1.573180e-06	
54	-2.70000e+00	1.574099e-06	

Index   v-sweep         i(vds)          
--------------------------------------------------------------------------------
55	-2.75000e+00	1.575023e-06	
56	-2.80000e+00	1.575955e-06	
57	-2.85000e+00	1.576898e-06	
58	-2.90000e+00	1.577856e-06	
59	-2.95000e+00	1.578836e-06	
60	-3.00000e+00	1.579841e-06	
61	-3.05000e+00	1.580880e-06	
62	-3.10000e+00	1.581958e-06	
63	-3.15000e+00	1.583085e-06	
64	-3.20000e+00	1.584269e-06	
65	-3.25000e+00	1.585521e-06	
66	-3.30000e+00	1.586851e-06	
67	-0.000000e+00	0.000000e+00	
68	-5.00000e-02	4.012050e-06	
69	-1.00000e-01	7.565306e-06	
70	-1.50000e-01	1.068945e-05	
71	-2.00000e-01	1.339335e-05	
72	-2.50000e-01	1.568156e-05	
73	-3.00000e-01	1.755874e-05	
74	-3.50000e-01	1.903226e-05	
75	-4.00000e-01	2.011666e-05	
76	-4.50000e-01	2.084366e-05	
77	-5.00000e-01	2.127759e-05	
78	-5.50000e-01	2.151492e-05	
79	-6.00000e-01	2.164725e-05	
80	-6.50000e-01	2.173034e-05	
81	-7.00000e-01	2.179008e-05	
82	-7.50000e-01	2.183761e-05	
83	-8.00000e-01	2.187796e-05	
84	-8.50000e-01	2.191360e-05	
85	-9.00000e-01	2.194588e-05	
86	-9.50000e-01	2.197559e-05	
87	-1.00000e+00	2.200324e-05	
88	-1.05000e+00	2.202920e-05	
89	-1.10000e+00	2.205370e-05	
90	-1.15000e+00	2.207695e-05	
91	-1.20000e+00	2.209909e-05	
92	-1.25000e+00	2.212026e-05	
93	-1.30000e+00	2.214053e-05	
94	-1.35000e+00	2.216001e-05	
95	-1.40000e+00	2.217876e-05	
96	-1.45000e+00	2.219684e-05	
97	-1.50000e+00	2.221430e-05	
98	-1.55000e+00	2.223120e-05	
99	-1.60000e+00	2.224757e-05	
100	-1.65000e+00	2.226344e-05	
101	-1.70000e+00	2.227886e-05	
102	-1.75000e+00	2.229385e-05	
103	-1.80000e+00	2.230844e-05	
104	-1.85000e+00	2.232265e-05	
105	-1.90000e+00	2.233651e-05	
106	-1.95000e+00	2.235002e-05	
107	-2.00000e+00	2.236322e-05	
108	-2.05000e+00	2.237612e-05	
109	-2.10000e+00	2.238874e-05	
110	-2.15000e+00	2.240108e-05	
111	-2.20000e+00	2.241317e-05	
112	-2.25000e+00	2.242501e-05	

Index   v-sweep         i(vds)          
--------------------------------------------------------------------------------
113	-2.30000e+00	2.243662e-05	
114	-2.35000e+00	2.244800e-05	
115	-2.40000e+00	2.245918e-05	
116	-2.45000e+00	2.247015e-05	
117	-2.50000e+00	2.248094e-05	
118	-2.55000e+00	2.249154e-05	
119	-2.60000e+00	2.250198e-05	
120	-2.65000e+00	2.251227e-05	
121	-2.70000e+00	2.252241e-05	
122	-2.75000e+00	2.253242e-05	
123	-2.80000e+00	2.254232e-05	
124	-2.85000e+00	2.255213e-05	
125	-2.90000e+00	2.256187e-05	
126	-2.95000e+00	2.257156e-05	
127	-3.00000e+00	2.258124e-05	
128	-3.05000e+00	2.259093e-05	
129	-3.10000e+00	2.260069e-05	
130	-3.15000e+00	2.261055e-05	
131	-3.20000e+00	2.262058e-05	
132	-3.25000e+00	2.263082e-05	
133	-3.30000e+00	2.264137e-05	
134	-0.000000e+00	0.000000e+00	
135	-5.00000e-02	6.960466e-06	
136	-1.00000e-01	1.347369e-05	
137	-1.50000e-01	1.956884e-05	
138	-2.00000e-01	2.525400e-05	
139	-2.50000e-01	3.053237e-05	
140	-3.00000e-01	3.540606e-05	
141	-3.50000e-01	3.987691e-05	
142	-4.00000e-01	4.394684e-05	
143	-4.50000e-01	4.761785e-05	
144	-5.00000e-01	5.089219e-05	
145	-5.50000e-01	5.377254e-05	
146	-6.00000e-01	5.626234e-05	
147	-6.50000e-01	5.836651e-05	
148	-7.00000e-01	6.009289e-05	
149	-7.50000e-01	6.145504e-05	
150	-8.00000e-01	6.247750e-05	
151	-8.50000e-01	6.320270e-05	
152	-9.00000e-01	6.369375e-05	
153	-9.50000e-01	6.402341e-05	
154	-1.00000e+00	6.425407e-05	
155	-1.05000e+00	6.442721e-05	
156	-1.10000e+00	6.456646e-05	
157	-1.15000e+00	6.468454e-05	
158	-1.20000e+00	6.478841e-05	
159	-1.25000e+00	6.488206e-05	
160	-1.30000e+00	6.496792e-05	
161	-1.35000e+00	6.504757e-05	
162	-1.40000e+00	6.512211e-05	
163	-1.45000e+00	6.519231e-05	
164	-1.50000e+00	6.525875e-05	
165	-1.55000e+00	6.532191e-05	
166	-1.60000e+00	6.538215e-05	
167	-1.65000e+00	6.543977e-05	
168	-1.70000e+00	6.549501e-05	
169	-1.75000e+00	6.554810e-05	
170	-1.80000e+00	6.559921e-05	

Index   v-sweep         i(vds)          
--------------------------------------------------------------------------------
171	-1.85000e+00	6.564850e-05	
172	-1.90000e+00	6.569612e-05	
173	-1.95000e+00	6.574218e-05	
174	-2.00000e+00	6.578679e-05	
175	-2.05000e+00	6.583005e-05	
176	-2.10000e+00	6.587205e-05	
177	-2.15000e+00	6.591286e-05	
178	-2.20000e+00	6.595256e-05	
179	-2.25000e+00	6.599121e-05	
180	-2.30000e+00	6.602887e-05	
181	-2.35000e+00	6.606560e-05	
182	-2.40000e+00	6.610144e-05	
183	-2.45000e+00	6.613644e-05	
184	-2.50000e+00	6.617064e-05	
185	-2.55000e+00	6.620408e-05	
186	-2.60000e+00	6.623681e-05	
187	-2.65000e+00	6.626885e-05	
188	-2.70000e+00	6.630023e-05	
189	-2.75000e+00	6.633099e-05	
190	-2.80000e+00	6.636117e-05	
191	-2.85000e+00	6.639078e-05	
192	-2.90000e+00	6.641986e-05	
193	-2.95000e+00	6.644844e-05	
194	-3.00000e+00	6.647655e-05	
195	-3.05000e+00	6.650424e-05	
196	-3.10000e+00	6.653153e-05	
197	-3.15000e+00	6.655848e-05	
198	-3.20000e+00	6.658514e-05	
199	-3.25000e+00	6.661156e-05	
200	-3.30000e+00	6.663782e-05	
201	-0.000000e+00	0.000000e+00	
202	-5.00000e-02	9.536038e-06	
203	-1.00000e-01	1.864723e-05	
204	-1.50000e-01	2.736252e-05	
205	-2.00000e-01	3.568977e-05	
206	-2.50000e-01	4.363192e-05	
207	-3.00000e-01	5.119079e-05	
208	-3.50000e-01	5.836790e-05	
209	-4.00000e-01	6.516473e-05	
210	-4.50000e-01	7.158276e-05	
211	-5.00000e-01	7.762344e-05	
212	-5.50000e-01	8.328828e-05	
213	-6.00000e-01	8.857879e-05	
214	-6.50000e-01	9.349650e-05	
215	-7.00000e-01	9.804305e-05	
216	-7.50000e-01	1.022201e-04	
217	-8.00000e-01	1.060296e-04	
218	-8.50000e-01	1.094736e-04	
219	-9.00000e-01	1.125546e-04	
220	-9.50000e-01	1.152757e-04	
221	-1.00000e+00	1.176414e-04	
222	-1.05000e+00	1.196580e-04	
223	-1.10000e+00	1.213356e-04	
224	-1.15000e+00	1.226907e-04	
225	-1.20000e+00	1.237497e-04	
226	-1.25000e+00	1.245522e-04	
227	-1.30000e+00	1.251502e-04	
228	-1.35000e+00	1.255990e-04	

Index   v-sweep         i(vds)          
--------------------------------------------------------------------------------
229	-1.40000e+00	1.259467e-04	
230	-1.45000e+00	1.262281e-04	
231	-1.50000e+00	1.264657e-04	
232	-1.55000e+00	1.266732e-04	
233	-1.60000e+00	1.268589e-04	
234	-1.65000e+00	1.270283e-04	
235	-1.70000e+00	1.271847e-04	
236	-1.75000e+00	1.273306e-04	
237	-1.80000e+00	1.274675e-04	
238	-1.85000e+00	1.275968e-04	
239	-1.90000e+00	1.277194e-04	
240	-1.95000e+00	1.278362e-04	
241	-2.00000e+00	1.279477e-04	
242	-2.05000e+00	1.280544e-04	
243	-2.10000e+00	1.281569e-04	
244	-2.15000e+00	1.282554e-04	
245	-2.20000e+00	1.283503e-04	
246	-2.25000e+00	1.284418e-04	
247	-2.30000e+00	1.285303e-04	
248	-2.35000e+00	1.286159e-04	
249	-2.40000e+00	1.286989e-04	
250	-2.45000e+00	1.287793e-04	
251	-2.50000e+00	1.288574e-04	
252	-2.55000e+00	1.289333e-04	
253	-2.60000e+00	1.290071e-04	
254	-2.65000e+00	1.290790e-04	
255	-2.70000e+00	1.291491e-04	
256	-2.75000e+00	1.292174e-04	
257	-2.80000e+00	1.292840e-04	
258	-2.85000e+00	1.293491e-04	
259	-2.90000e+00	1.294127e-04	
260	-2.95000e+00	1.294749e-04	
261	-3.00000e+00	1.295357e-04	
262	-3.05000e+00	1.295952e-04	
263	-3.10000e+00	1.296535e-04	
264	-3.15000e+00	1.297107e-04	
265	-3.20000e+00	1.297667e-04	
266	-3.25000e+00	1.298217e-04	
267	-3.30000e+00	1.298757e-04	
268	-0.000000e+00	0.000000e+00	
269	-5.00000e-02	1.179601e-05	
270	-1.00000e-01	2.319100e-05	
271	-1.50000e-01	3.421375e-05	
272	-2.00000e-01	4.487195e-05	
273	-2.50000e-01	5.516836e-05	
274	-3.00000e-01	6.510461e-05	
275	-3.50000e-01	7.468207e-05	
276	-4.00000e-01	8.390200e-05	
277	-4.50000e-01	9.276570e-05	
278	-5.00000e-01	1.012744e-04	
279	-5.50000e-01	1.094294e-04	
280	-6.00000e-01	1.172320e-04	
281	-6.50000e-01	1.246833e-04	
282	-7.00000e-01	1.317848e-04	
283	-7.50000e-01	1.385375e-04	
284	-8.00000e-01	1.449429e-04	
285	-8.50000e-01	1.510021e-04	
286	-9.00000e-01	1.567165e-04	

Index   v-sweep         i(vds)          
--------------------------------------------------------------------------------
287	-9.50000e-01	1.620875e-04	
288	-1.00000e+00	1.671163e-04	
289	-1.05000e+00	1.718044e-04	
290	-1.10000e+00	1.761533e-04	
291	-1.15000e+00	1.801646e-04	
292	-1.20000e+00	1.838402e-04	
293	-1.25000e+00	1.871821e-04	
294	-1.30000e+00	1.901931e-04	
295	-1.35000e+00	1.928763e-04	
296	-1.40000e+00	1.952366e-04	
297	-1.45000e+00	1.972806e-04	
298	-1.50000e+00	1.990184e-04	
299	-1.55000e+00	2.004656e-04	
300	-1.60000e+00	2.016453e-04	
301	-1.65000e+00	2.025901e-04	
302	-1.70000e+00	2.033408e-04	
303	-1.75000e+00	2.039412e-04	
304	-1.80000e+00	2.044315e-04	
305	-1.85000e+00	2.048434e-04	
306	-1.90000e+00	2.051996e-04	
307	-1.95000e+00	2.055153e-04	
308	-2.00000e+00	2.058005e-04	
309	-2.05000e+00	2.060620e-04	
310	-2.10000e+00	2.063044e-04	
311	-2.15000e+00	2.065310e-04	
312	-2.20000e+00	2.067441e-04	
313	-2.25000e+00	2.069457e-04	
314	-2.30000e+00	2.071371e-04	
315	-2.35000e+00	2.073194e-04	
316	-2.40000e+00	2.074937e-04	
317	-2.45000e+00	2.076606e-04	
318	-2.50000e+00	2.078209e-04	
319	-2.55000e+00	2.079751e-04	
320	-2.60000e+00	2.081237e-04	
321	-2.65000e+00	2.082671e-04	
322	-2.70000e+00	2.084058e-04	
323	-2.75000e+00	2.085399e-04	
324	-2.80000e+00	2.086699e-04	
325	-2.85000e+00	2.087960e-04	
326	-2.90000e+00	2.089184e-04	
327	-2.95000e+00	2.090374e-04	
328	-3.00000e+00	2.091532e-04	
329	-3.05000e+00	2.092659e-04	
330	-3.10000e+00	2.093757e-04	
331	-3.15000e+00	2.094828e-04	
332	-3.20000e+00	2.095873e-04	
333	-3.25000e+00	2.096893e-04	
334	-3.30000e+00	2.097890e-04	
335	-0.000000e+00	0.000000e+00	
336	-5.00000e-02	1.379112e-05	
337	-1.00000e-01	2.720432e-05	
338	-1.50000e-01	4.026824e-05	
339	-2.00000e-01	5.299043e-05	
340	-2.50000e-01	6.537350e-05	
341	-3.00000e-01	7.741894e-05	
342	-3.50000e-01	8.912796e-05	
343	-4.00000e-01	1.005017e-04	
344	-4.50000e-01	1.115413e-04	

Index   v-sweep         i(vds)          
--------------------------------------------------------------------------------
345	-5.00000e-01	1.222479e-04	
346	-5.50000e-01	1.326226e-04	
347	-6.00000e-01	1.426664e-04	
348	-6.50000e-01	1.523806e-04	
349	-7.00000e-01	1.617661e-04	
350	-7.50000e-01	1.708242e-04	
351	-8.00000e-01	1.795558e-04	
352	-8.50000e-01	1.879622e-04	
353	-9.00000e-01	1.960443e-04	
354	-9.50000e-01	2.038034e-04	
355	-1.00000e+00	2.112404e-04	
356	-1.05000e+00	2.183564e-04	
357	-1.10000e+00	2.251527e-04	
358	-1.15000e+00	2.316302e-04	
359	-1.20000e+00	2.377901e-04	
360	-1.25000e+00	2.436335e-04	
361	-1.30000e+00	2.491616e-04	
362	-1.35000e+00	2.543756e-04	
363	-1.40000e+00	2.592766e-04	
364	-1.45000e+00	2.638661e-04	
365	-1.50000e+00	2.681452e-04	
366	-1.55000e+00	2.721156e-04	
367	-1.60000e+00	2.757790e-04	
368	-1.65000e+00	2.791373e-04	
369	-1.70000e+00	2.821930e-04	
370	-1.75000e+00	2.849493e-04	
371	-1.80000e+00	2.874103e-04	
372	-1.85000e+00	2.895820e-04	
373	-1.90000e+00	2.914730e-04	
374	-1.95000e+00	2.930958e-04	
375	-2.00000e+00	2.944684e-04	
376	-2.05000e+00	2.956153e-04	
377	-2.10000e+00	2.965677e-04	
378	-2.15000e+00	2.973605e-04	
379	-2.20000e+00	2.980282e-04	
380	-2.25000e+00	2.986009e-04	
381	-2.30000e+00	2.991023e-04	
382	-2.35000e+00	2.995497e-04	
383	-2.40000e+00	2.999554e-04	
384	-2.45000e+00	3.003281e-04	
385	-2.50000e+00	3.006739e-04	
386	-2.55000e+00	3.009973e-04	
387	-2.60000e+00	3.013017e-04	
388	-2.65000e+00	3.015896e-04	
389	-2.70000e+00	3.018629e-04	
390	-2.75000e+00	3.021234e-04	
391	-2.80000e+00	3.023724e-04	
392	-2.85000e+00	3.026108e-04	
393	-2.90000e+00	3.028398e-04	
394	-2.95000e+00	3.030601e-04	
395	-3.00000e+00	3.032723e-04	
396	-3.05000e+00	3.034772e-04	
397	-3.10000e+00	3.036752e-04	
398	-3.15000e+00	3.038668e-04	
399	-3.20000e+00	3.040524e-04	
400	-3.25000e+00	3.042324e-04	
401	-3.30000e+00	3.044072e-04	
Note: No ".plot", ".print", or ".fourier" lines; no simulations run
