
Note: Compatibility modes selected: hs

Warning: m=xx on .subckt line will override multiplier m hierarchy!


Circuit: ***************************

Doing analysis at TEMP = 25.000000 and TNOM = 25.000000


No. of Data Rows : 402
                          ***************************
                          DC transfer characteristic  Mon Jan  9 13:57:29  2023
--------------------------------------------------------------------------------
Index   v-sweep         i(vds)          
--------------------------------------------------------------------------------
0	-0.000000e+00	0.000000e+00	
1	-5.00000e-02	1.038893e-07	
2	-1.00000e-01	1.468278e-07	
3	-1.50000e-01	1.575177e-07	
4	-2.00000e-01	1.605606e-07	
5	-2.50000e-01	1.621458e-07	
6	-3.00000e-01	1.633181e-07	
7	-3.50000e-01	1.643164e-07	
8	-4.00000e-01	1.652179e-07	
9	-4.50000e-01	1.660548e-07	
10	-5.00000e-01	1.668437e-07	
11	-5.50000e-01	1.675942e-07	
12	-6.00000e-01	1.683127e-07	
13	-6.50000e-01	1.690040e-07	
14	-7.00000e-01	1.696714e-07	
15	-7.50000e-01	1.703177e-07	
16	-8.00000e-01	1.709451e-07	
17	-8.50000e-01	1.715555e-07	
18	-9.00000e-01	1.721505e-07	
19	-9.50000e-01	1.727313e-07	
20	-1.00000e+00	1.732993e-07	
21	-1.05000e+00	1.738553e-07	
22	-1.10000e+00	1.744004e-07	
23	-1.15000e+00	1.749353e-07	
24	-1.20000e+00	1.754607e-07	
25	-1.25000e+00	1.759773e-07	
26	-1.30000e+00	1.764856e-07	
27	-1.35000e+00	1.769863e-07	
28	-1.40000e+00	1.774797e-07	
29	-1.45000e+00	1.779663e-07	
30	-1.50000e+00	1.784465e-07	
31	-1.55000e+00	1.789206e-07	
32	-1.60000e+00	1.793891e-07	
33	-1.65000e+00	1.798521e-07	
34	-1.70000e+00	1.803101e-07	
35	-1.75000e+00	1.807632e-07	
36	-1.80000e+00	1.812117e-07	
37	-1.85000e+00	1.816559e-07	
38	-1.90000e+00	1.820959e-07	
39	-1.95000e+00	1.825320e-07	
40	-2.00000e+00	1.829644e-07	
41	-2.05000e+00	1.833932e-07	
42	-2.10000e+00	1.838187e-07	
43	-2.15000e+00	1.842410e-07	
44	-2.20000e+00	1.846603e-07	
45	-2.25000e+00	1.850769e-07	
46	-2.30000e+00	1.854909e-07	
47	-2.35000e+00	1.859026e-07	
48	-2.40000e+00	1.863122e-07	
49	-2.45000e+00	1.867201e-07	
50	-2.50000e+00	1.871264e-07	
51	-2.55000e+00	1.875316e-07	
52	-2.60000e+00	1.879360e-07	
53	-2.65000e+00	1.883401e-07	
54	-2.70000e+00	1.887444e-07	

Index   v-sweep         i(vds)          
--------------------------------------------------------------------------------
55	-2.75000e+00	1.891494e-07	
56	-2.80000e+00	1.895558e-07	
57	-2.85000e+00	1.899643e-07	
58	-2.90000e+00	1.903757e-07	
59	-2.95000e+00	1.907909e-07	
60	-3.00000e+00	1.912109e-07	
61	-3.05000e+00	1.916369e-07	
62	-3.10000e+00	1.920700e-07	
63	-3.15000e+00	1.925116e-07	
64	-3.20000e+00	1.929632e-07	
65	-3.25000e+00	1.934264e-07	
66	-3.30000e+00	1.939030e-07	
67	-0.000000e+00	0.000000e+00	
68	-5.00000e-02	9.394090e-07	
69	-1.00000e-01	1.773962e-06	
70	-1.50000e-01	2.504849e-06	
71	-2.00000e-01	3.133327e-06	
72	-2.50000e-01	3.660811e-06	
73	-3.00000e-01	4.089092e-06	
74	-3.50000e-01	4.420875e-06	
75	-4.00000e-01	4.661173e-06	
76	-4.50000e-01	4.820303e-06	
77	-5.00000e-01	4.917164e-06	
78	-5.50000e-01	4.975796e-06	
79	-6.00000e-01	5.015110e-06	
80	-6.50000e-01	5.045125e-06	
81	-7.00000e-01	5.070248e-06	
82	-7.50000e-01	5.092420e-06	
83	-8.00000e-01	5.112577e-06	
84	-8.50000e-01	5.131223e-06	
85	-9.00000e-01	5.148664e-06	
86	-9.50000e-01	5.165104e-06	
87	-1.00000e+00	5.180687e-06	
88	-1.05000e+00	5.195521e-06	
89	-1.10000e+00	5.209694e-06	
90	-1.15000e+00	5.223274e-06	
91	-1.20000e+00	5.236319e-06	
92	-1.25000e+00	5.248878e-06	
93	-1.30000e+00	5.260993e-06	
94	-1.35000e+00	5.272699e-06	
95	-1.40000e+00	5.284030e-06	
96	-1.45000e+00	5.295012e-06	
97	-1.50000e+00	5.305670e-06	
98	-1.55000e+00	5.316027e-06	
99	-1.60000e+00	5.326103e-06	
100	-1.65000e+00	5.335916e-06	
101	-1.70000e+00	5.345481e-06	
102	-1.75000e+00	5.354814e-06	
103	-1.80000e+00	5.363929e-06	
104	-1.85000e+00	5.372836e-06	
105	-1.90000e+00	5.381549e-06	
106	-1.95000e+00	5.390076e-06	
107	-2.00000e+00	5.398428e-06	
108	-2.05000e+00	5.406614e-06	
109	-2.10000e+00	5.414641e-06	
110	-2.15000e+00	5.422519e-06	
111	-2.20000e+00	5.430252e-06	
112	-2.25000e+00	5.437849e-06	

Index   v-sweep         i(vds)          
--------------------------------------------------------------------------------
113	-2.30000e+00	5.445316e-06	
114	-2.35000e+00	5.452659e-06	
115	-2.40000e+00	5.459883e-06	
116	-2.45000e+00	5.466995e-06	
117	-2.50000e+00	5.473999e-06	
118	-2.55000e+00	5.480903e-06	
119	-2.60000e+00	5.487711e-06	
120	-2.65000e+00	5.494429e-06	
121	-2.70000e+00	5.501065e-06	
122	-2.75000e+00	5.507625e-06	
123	-2.80000e+00	5.514117e-06	
124	-2.85000e+00	5.520549e-06	
125	-2.90000e+00	5.526931e-06	
126	-2.95000e+00	5.533273e-06	
127	-3.00000e+00	5.539587e-06	
128	-3.05000e+00	5.545887e-06	
129	-3.10000e+00	5.552189e-06	
130	-3.15000e+00	5.558508e-06	
131	-3.20000e+00	5.564866e-06	
132	-3.25000e+00	5.571282e-06	
133	-3.30000e+00	5.577783e-06	
134	-0.000000e+00	0.000000e+00	
135	-5.00000e-02	1.694468e-06	
136	-1.00000e-01	3.284799e-06	
137	-1.50000e-01	4.771989e-06	
138	-2.00000e-01	6.157026e-06	
139	-2.50000e-01	7.440895e-06	
140	-3.00000e-01	8.624575e-06	
141	-3.50000e-01	9.709050e-06	
142	-4.00000e-01	1.069532e-05	
143	-4.50000e-01	1.158439e-05	
144	-5.00000e-01	1.237736e-05	
145	-5.50000e-01	1.307539e-05	
146	-6.00000e-01	1.367986e-05	
147	-6.50000e-01	1.419256e-05	
148	-7.00000e-01	1.461604e-05	
149	-7.50000e-01	1.495445e-05	
150	-8.00000e-01	1.521485e-05	
151	-8.50000e-01	1.540874e-05	
152	-9.00000e-01	1.555188e-05	
153	-9.50000e-01	1.566072e-05	
154	-1.00000e+00	1.574816e-05	
155	-1.05000e+00	1.582233e-05	
156	-1.10000e+00	1.588782e-05	
157	-1.15000e+00	1.594718e-05	
158	-1.20000e+00	1.600189e-05	
159	-1.25000e+00	1.605290e-05	
160	-1.30000e+00	1.610084e-05	
161	-1.35000e+00	1.614615e-05	
162	-1.40000e+00	1.618917e-05	
163	-1.45000e+00	1.623016e-05	
164	-1.50000e+00	1.626934e-05	
165	-1.55000e+00	1.630689e-05	
166	-1.60000e+00	1.634295e-05	
167	-1.65000e+00	1.637766e-05	
168	-1.70000e+00	1.641113e-05	
169	-1.75000e+00	1.644344e-05	
170	-1.80000e+00	1.647470e-05	

Index   v-sweep         i(vds)          
--------------------------------------------------------------------------------
171	-1.85000e+00	1.650496e-05	
172	-1.90000e+00	1.653431e-05	
173	-1.95000e+00	1.656280e-05	
174	-2.00000e+00	1.659049e-05	
175	-2.05000e+00	1.661742e-05	
176	-2.10000e+00	1.664364e-05	
177	-2.15000e+00	1.666920e-05	
178	-2.20000e+00	1.669412e-05	
179	-2.25000e+00	1.671845e-05	
180	-2.30000e+00	1.674221e-05	
181	-2.35000e+00	1.676544e-05	
182	-2.40000e+00	1.678816e-05	
183	-2.45000e+00	1.681040e-05	
184	-2.50000e+00	1.683217e-05	
185	-2.55000e+00	1.685351e-05	
186	-2.60000e+00	1.687443e-05	
187	-2.65000e+00	1.689495e-05	
188	-2.70000e+00	1.691510e-05	
189	-2.75000e+00	1.693487e-05	
190	-2.80000e+00	1.695431e-05	
191	-2.85000e+00	1.697341e-05	
192	-2.90000e+00	1.699221e-05	
193	-2.95000e+00	1.701070e-05	
194	-3.00000e+00	1.702892e-05	
195	-3.05000e+00	1.704689e-05	
196	-3.10000e+00	1.706461e-05	
197	-3.15000e+00	1.708212e-05	
198	-3.20000e+00	1.709943e-05	
199	-3.25000e+00	1.711658e-05	
200	-3.30000e+00	1.713359e-05	
201	-0.000000e+00	0.000000e+00	
202	-5.00000e-02	2.335186e-06	
203	-1.00000e-01	4.570122e-06	
204	-1.50000e-01	6.705687e-06	
205	-2.00000e-01	8.742752e-06	
206	-2.50000e-01	1.068218e-05	
207	-3.00000e-01	1.252482e-05	
208	-3.50000e-01	1.427152e-05	
209	-4.00000e-01	1.592311e-05	
210	-4.50000e-01	1.748043e-05	
211	-5.00000e-01	1.894431e-05	
212	-5.50000e-01	2.031556e-05	
213	-6.00000e-01	2.159501e-05	
214	-6.50000e-01	2.278349e-05	
215	-7.00000e-01	2.388182e-05	
216	-7.50000e-01	2.489087e-05	
217	-8.00000e-01	2.581153e-05	
218	-8.50000e-01	2.664475e-05	
219	-9.00000e-01	2.739160e-05	
220	-9.50000e-01	2.805335e-05	
221	-1.00000e+00	2.863160e-05	
222	-1.05000e+00	2.912862e-05	
223	-1.10000e+00	2.954776e-05	
224	-1.15000e+00	2.989428e-05	
225	-1.20000e+00	3.017610e-05	
226	-1.25000e+00	3.040405e-05	
227	-1.30000e+00	3.059057e-05	
228	-1.35000e+00	3.074726e-05	

Index   v-sweep         i(vds)          
--------------------------------------------------------------------------------
229	-1.40000e+00	3.088307e-05	
230	-1.45000e+00	3.100405e-05	
231	-1.50000e+00	3.111407e-05	
232	-1.55000e+00	3.121561e-05	
233	-1.60000e+00	3.131029e-05	
234	-1.65000e+00	3.139923e-05	
235	-1.70000e+00	3.148328e-05	
236	-1.75000e+00	3.156303e-05	
237	-1.80000e+00	3.163900e-05	
238	-1.85000e+00	3.171157e-05	
239	-1.90000e+00	3.178107e-05	
240	-1.95000e+00	3.184779e-05	
241	-2.00000e+00	3.191196e-05	
242	-2.05000e+00	3.197379e-05	
243	-2.10000e+00	3.203346e-05	
244	-2.15000e+00	3.209113e-05	
245	-2.20000e+00	3.214694e-05	
246	-2.25000e+00	3.220102e-05	
247	-2.30000e+00	3.225348e-05	
248	-2.35000e+00	3.230443e-05	
249	-2.40000e+00	3.235395e-05	
250	-2.45000e+00	3.240214e-05	
251	-2.50000e+00	3.244906e-05	
252	-2.55000e+00	3.249480e-05	
253	-2.60000e+00	3.253941e-05	
254	-2.65000e+00	3.258295e-05	
255	-2.70000e+00	3.262548e-05	
256	-2.75000e+00	3.266705e-05	
257	-2.80000e+00	3.270770e-05	
258	-2.85000e+00	3.274748e-05	
259	-2.90000e+00	3.278644e-05	
260	-2.95000e+00	3.282460e-05	
261	-3.00000e+00	3.286201e-05	
262	-3.05000e+00	3.289870e-05	
263	-3.10000e+00	3.293470e-05	
264	-3.15000e+00	3.297004e-05	
265	-3.20000e+00	3.300476e-05	
266	-3.25000e+00	3.303888e-05	
267	-3.30000e+00	3.307245e-05	
268	-0.000000e+00	0.000000e+00	
269	-5.00000e-02	2.880590e-06	
270	-1.00000e-01	5.665580e-06	
271	-1.50000e-01	8.355748e-06	
272	-2.00000e-01	1.095187e-05	
273	-2.50000e-01	1.345470e-05	
274	-3.00000e-01	1.586500e-05	
275	-3.50000e-01	1.818352e-05	
276	-4.00000e-01	2.041100e-05	
277	-4.50000e-01	2.254817e-05	
278	-5.00000e-01	2.459576e-05	
279	-5.50000e-01	2.655448e-05	
280	-6.00000e-01	2.842505e-05	
281	-6.50000e-01	3.020818e-05	
282	-7.00000e-01	3.190457e-05	
283	-7.50000e-01	3.351492e-05	
284	-8.00000e-01	3.503992e-05	
285	-8.50000e-01	3.648026e-05	
286	-9.00000e-01	3.783663e-05	

Index   v-sweep         i(vds)          
--------------------------------------------------------------------------------
287	-9.50000e-01	3.910974e-05	
288	-1.00000e+00	4.030027e-05	
289	-1.05000e+00	4.140896e-05	
290	-1.10000e+00	4.243653e-05	
291	-1.15000e+00	4.338376e-05	
292	-1.20000e+00	4.425151e-05	
293	-1.25000e+00	4.504071e-05	
294	-1.30000e+00	4.575250e-05	
295	-1.35000e+00	4.638829e-05	
296	-1.40000e+00	4.695003e-05	
297	-1.45000e+00	4.744044e-05	
298	-1.50000e+00	4.786354e-05	
299	-1.55000e+00	4.822514e-05	
300	-1.60000e+00	4.853304e-05	
301	-1.65000e+00	4.879658e-05	
302	-1.70000e+00	4.902526e-05	
303	-1.75000e+00	4.922740e-05	
304	-1.80000e+00	4.940941e-05	
305	-1.85000e+00	4.957587e-05	
306	-1.90000e+00	4.972995e-05	
307	-1.95000e+00	4.987387e-05	
308	-2.00000e+00	5.000921e-05	
309	-2.05000e+00	5.013717e-05	
310	-2.10000e+00	5.025866e-05	
311	-2.15000e+00	5.037441e-05	
312	-2.20000e+00	5.048500e-05	
313	-2.25000e+00	5.059093e-05	
314	-2.30000e+00	5.069263e-05	
315	-2.35000e+00	5.079044e-05	
316	-2.40000e+00	5.088467e-05	
317	-2.45000e+00	5.097561e-05	
318	-2.50000e+00	5.106350e-05	
319	-2.55000e+00	5.114854e-05	
320	-2.60000e+00	5.123092e-05	
321	-2.65000e+00	5.131083e-05	
322	-2.70000e+00	5.138842e-05	
323	-2.75000e+00	5.146382e-05	
324	-2.80000e+00	5.153717e-05	
325	-2.85000e+00	5.160859e-05	
326	-2.90000e+00	5.167817e-05	
327	-2.95000e+00	5.174602e-05	
328	-3.00000e+00	5.181223e-05	
329	-3.05000e+00	5.187689e-05	
330	-3.10000e+00	5.194006e-05	
331	-3.15000e+00	5.200183e-05	
332	-3.20000e+00	5.206226e-05	
333	-3.25000e+00	5.212141e-05	
334	-3.30000e+00	5.217933e-05	
335	-0.000000e+00	0.000000e+00	
336	-5.00000e-02	3.347088e-06	
337	-1.00000e-01	6.603370e-06	
338	-1.50000e-01	9.769539e-06	
339	-2.00000e-01	1.284628e-05	
340	-2.50000e-01	1.583428e-05	
341	-3.00000e-01	1.873420e-05	
342	-3.50000e-01	2.154671e-05	
343	-4.00000e-01	2.427246e-05	
344	-4.50000e-01	2.691212e-05	

Index   v-sweep         i(vds)          
--------------------------------------------------------------------------------
345	-5.00000e-01	2.946633e-05	
346	-5.50000e-01	3.193573e-05	
347	-6.00000e-01	3.432095e-05	
348	-6.50000e-01	3.662262e-05	
349	-7.00000e-01	3.884136e-05	
350	-7.50000e-01	4.097780e-05	
351	-8.00000e-01	4.303254e-05	
352	-8.50000e-01	4.500618e-05	
353	-9.00000e-01	4.689934e-05	
354	-9.50000e-01	4.871261e-05	
355	-1.00000e+00	5.044658e-05	
356	-1.05000e+00	5.210184e-05	
357	-1.10000e+00	5.367898e-05	
358	-1.15000e+00	5.517858e-05	
359	-1.20000e+00	5.660124e-05	
360	-1.25000e+00	5.794754e-05	
361	-1.30000e+00	5.921807e-05	
362	-1.35000e+00	6.041343e-05	
363	-1.40000e+00	6.153425e-05	
364	-1.45000e+00	6.258115e-05	
365	-1.50000e+00	6.355482e-05	
366	-1.55000e+00	6.445601e-05	
367	-1.60000e+00	6.528553e-05	
368	-1.65000e+00	6.604439e-05	
369	-1.70000e+00	6.673380e-05	
370	-1.75000e+00	6.735539e-05	
371	-1.80000e+00	6.791137e-05	
372	-1.85000e+00	6.840486e-05	
373	-1.90000e+00	6.884019e-05	
374	-1.95000e+00	6.922316e-05	
375	-2.00000e+00	6.956078e-05	
376	-2.05000e+00	6.986067e-05	
377	-2.10000e+00	7.013004e-05	
378	-2.15000e+00	7.037504e-05	
379	-2.20000e+00	7.060045e-05	
380	-2.25000e+00	7.080985e-05	
381	-2.30000e+00	7.100589e-05	
382	-2.35000e+00	7.119053e-05	
383	-2.40000e+00	7.136529e-05	
384	-2.45000e+00	7.153135e-05	
385	-2.50000e+00	7.168965e-05	
386	-2.55000e+00	7.184099e-05	
387	-2.60000e+00	7.198601e-05	
388	-2.65000e+00	7.212527e-05	
389	-2.70000e+00	7.225925e-05	
390	-2.75000e+00	7.238837e-05	
391	-2.80000e+00	7.251299e-05	
392	-2.85000e+00	7.263343e-05	
393	-2.90000e+00	7.274999e-05	
394	-2.95000e+00	7.286293e-05	
395	-3.00000e+00	7.297247e-05	
396	-3.05000e+00	7.307883e-05	
397	-3.10000e+00	7.318220e-05	
398	-3.15000e+00	7.328276e-05	
399	-3.20000e+00	7.338065e-05	
400	-3.25000e+00	7.347604e-05	
401	-3.30000e+00	7.356904e-05	
Note: No ".plot", ".print", or ".fourier" lines; no simulations run
