
Note: Compatibility modes selected: hs

Warning: m=xx on .subckt line will override multiplier m hierarchy!


Circuit: ***************************

Doing analysis at TEMP = -40.000000 and TNOM = -40.000000


No. of Data Rows : 402
                          ***************************
                          DC transfer characteristic  Mon Jan  9 13:57:29  2023
--------------------------------------------------------------------------------
Index   v-sweep         i(vds)          
--------------------------------------------------------------------------------
0	-0.000000e+00	0.000000e+00	
1	-5.00000e-02	1.271174e-08	
2	-1.00000e-01	1.366351e-08	
3	-1.50000e-01	1.381362e-08	
4	-2.00000e-01	1.386618e-08	
5	-2.50000e-01	1.389401e-08	
6	-3.00000e-01	1.391264e-08	
7	-3.50000e-01	1.392695e-08	
8	-4.00000e-01	1.393891e-08	
9	-4.50000e-01	1.394942e-08	
10	-5.00000e-01	1.395896e-08	
11	-5.50000e-01	1.396782e-08	
12	-6.00000e-01	1.397617e-08	
13	-6.50000e-01	1.398413e-08	
14	-7.00000e-01	1.399177e-08	
15	-7.50000e-01	1.399914e-08	
16	-8.00000e-01	1.400630e-08	
17	-8.50000e-01	1.401327e-08	
18	-9.00000e-01	1.402008e-08	
19	-9.50000e-01	1.402675e-08	
20	-1.00000e+00	1.403330e-08	
21	-1.05000e+00	1.403973e-08	
22	-1.10000e+00	1.404607e-08	
23	-1.15000e+00	1.405231e-08	
24	-1.20000e+00	1.405847e-08	
25	-1.25000e+00	1.406456e-08	
26	-1.30000e+00	1.407057e-08	
27	-1.35000e+00	1.407653e-08	
28	-1.40000e+00	1.408242e-08	
29	-1.45000e+00	1.408826e-08	
30	-1.50000e+00	1.409405e-08	
31	-1.55000e+00	1.409980e-08	
32	-1.60000e+00	1.410549e-08	
33	-1.65000e+00	1.411115e-08	
34	-1.70000e+00	1.411677e-08	
35	-1.75000e+00	1.412235e-08	
36	-1.80000e+00	1.412789e-08	
37	-1.85000e+00	1.413340e-08	
38	-1.90000e+00	1.413889e-08	
39	-1.95000e+00	1.414434e-08	
40	-2.00000e+00	1.414977e-08	
41	-2.05000e+00	1.415517e-08	
42	-2.10000e+00	1.416054e-08	
43	-2.15000e+00	1.416590e-08	
44	-2.20000e+00	1.417124e-08	
45	-2.25000e+00	1.417656e-08	
46	-2.30000e+00	1.418187e-08	
47	-2.35000e+00	1.418717e-08	
48	-2.40000e+00	1.419248e-08	
49	-2.45000e+00	1.419779e-08	
50	-2.50000e+00	1.420312e-08	
51	-2.55000e+00	1.420848e-08	
52	-2.60000e+00	1.421388e-08	
53	-2.65000e+00	1.421934e-08	
54	-2.70000e+00	1.422490e-08	

Index   v-sweep         i(vds)          
--------------------------------------------------------------------------------
55	-2.75000e+00	1.423056e-08	
56	-2.80000e+00	1.423638e-08	
57	-2.85000e+00	1.424239e-08	
58	-2.90000e+00	1.424864e-08	
59	-2.95000e+00	1.425519e-08	
60	-3.00000e+00	1.426211e-08	
61	-3.05000e+00	1.426948e-08	
62	-3.10000e+00	1.427740e-08	
63	-3.15000e+00	1.428597e-08	
64	-3.20000e+00	1.429532e-08	
65	-3.25000e+00	1.430559e-08	
66	-3.30000e+00	1.431696e-08	
67	-0.000000e+00	0.000000e+00	
68	-5.00000e-02	9.959486e-07	
69	-1.00000e-01	1.824875e-06	
70	-1.50000e-01	2.487815e-06	
71	-2.00000e-01	2.987025e-06	
72	-2.50000e-01	3.328385e-06	
73	-3.00000e-01	3.528195e-06	
74	-3.50000e-01	3.623264e-06	
75	-4.00000e-01	3.662470e-06	
76	-4.50000e-01	3.679318e-06	
77	-5.00000e-01	3.687806e-06	
78	-5.50000e-01	3.692856e-06	
79	-6.00000e-01	3.696284e-06	
80	-6.50000e-01	3.698844e-06	
81	-7.00000e-01	3.700888e-06	
82	-7.50000e-01	3.702601e-06	
83	-8.00000e-01	3.704084e-06	
84	-8.50000e-01	3.705399e-06	
85	-9.00000e-01	3.706588e-06	
86	-9.50000e-01	3.707677e-06	
87	-1.00000e+00	3.708685e-06	
88	-1.05000e+00	3.709626e-06	
89	-1.10000e+00	3.710511e-06	
90	-1.15000e+00	3.711348e-06	
91	-1.20000e+00	3.712142e-06	
92	-1.25000e+00	3.712900e-06	
93	-1.30000e+00	3.713625e-06	
94	-1.35000e+00	3.714321e-06	
95	-1.40000e+00	3.714991e-06	
96	-1.45000e+00	3.715637e-06	
97	-1.50000e+00	3.716261e-06	
98	-1.55000e+00	3.716866e-06	
99	-1.60000e+00	3.717452e-06	
100	-1.65000e+00	3.718022e-06	
101	-1.70000e+00	3.718575e-06	
102	-1.75000e+00	3.719115e-06	
103	-1.80000e+00	3.719641e-06	
104	-1.85000e+00	3.720154e-06	
105	-1.90000e+00	3.720656e-06	
106	-1.95000e+00	3.721146e-06	
107	-2.00000e+00	3.721626e-06	
108	-2.05000e+00	3.722097e-06	
109	-2.10000e+00	3.722558e-06	
110	-2.15000e+00	3.723010e-06	
111	-2.20000e+00	3.723454e-06	
112	-2.25000e+00	3.723890e-06	

Index   v-sweep         i(vds)          
--------------------------------------------------------------------------------
113	-2.30000e+00	3.724319e-06	
114	-2.35000e+00	3.724742e-06	
115	-2.40000e+00	3.725158e-06	
116	-2.45000e+00	3.725569e-06	
117	-2.50000e+00	3.725974e-06	
118	-2.55000e+00	3.726376e-06	
119	-2.60000e+00	3.726774e-06	
120	-2.65000e+00	3.727171e-06	
121	-2.70000e+00	3.727568e-06	
122	-2.75000e+00	3.727967e-06	
123	-2.80000e+00	3.728371e-06	
124	-2.85000e+00	3.728783e-06	
125	-2.90000e+00	3.729206e-06	
126	-2.95000e+00	3.729647e-06	
127	-3.00000e+00	3.730111e-06	
128	-3.05000e+00	3.730606e-06	
129	-3.10000e+00	3.731142e-06	
130	-3.15000e+00	3.731728e-06	
131	-3.20000e+00	3.732379e-06	
132	-3.25000e+00	3.733110e-06	
133	-3.30000e+00	3.733939e-06	
134	-0.000000e+00	0.000000e+00	
135	-5.00000e-02	2.061603e-06	
136	-1.00000e-01	3.962434e-06	
137	-1.50000e-01	5.702740e-06	
138	-2.00000e-01	7.282794e-06	
139	-2.50000e-01	8.702910e-06	
140	-3.00000e-01	9.963475e-06	
141	-3.50000e-01	1.106501e-05	
142	-4.00000e-01	1.200829e-05	
143	-4.50000e-01	1.279460e-05	
144	-5.00000e-01	1.342630e-05	
145	-5.50000e-01	1.390810e-05	
146	-6.00000e-01	1.424970e-05	
147	-6.50000e-01	1.446994e-05	
148	-7.00000e-01	1.459869e-05	
149	-7.50000e-01	1.466989e-05	
150	-8.00000e-01	1.470999e-05	
151	-8.50000e-01	1.473433e-05	
152	-9.00000e-01	1.475053e-05	
153	-9.50000e-01	1.476227e-05	
154	-1.00000e+00	1.477136e-05	
155	-1.05000e+00	1.477876e-05	
156	-1.10000e+00	1.478503e-05	
157	-1.15000e+00	1.479049e-05	
158	-1.20000e+00	1.479534e-05	
159	-1.25000e+00	1.479972e-05	
160	-1.30000e+00	1.480373e-05	
161	-1.35000e+00	1.480744e-05	
162	-1.40000e+00	1.481089e-05	
163	-1.45000e+00	1.481412e-05	
164	-1.50000e+00	1.481717e-05	
165	-1.55000e+00	1.482006e-05	
166	-1.60000e+00	1.482280e-05	
167	-1.65000e+00	1.482542e-05	
168	-1.70000e+00	1.482792e-05	
169	-1.75000e+00	1.483032e-05	
170	-1.80000e+00	1.483263e-05	

Index   v-sweep         i(vds)          
--------------------------------------------------------------------------------
171	-1.85000e+00	1.483486e-05	
172	-1.90000e+00	1.483700e-05	
173	-1.95000e+00	1.483908e-05	
174	-2.00000e+00	1.484109e-05	
175	-2.05000e+00	1.484304e-05	
176	-2.10000e+00	1.484493e-05	
177	-2.15000e+00	1.484676e-05	
178	-2.20000e+00	1.484855e-05	
179	-2.25000e+00	1.485030e-05	
180	-2.30000e+00	1.485199e-05	
181	-2.35000e+00	1.485365e-05	
182	-2.40000e+00	1.485527e-05	
183	-2.45000e+00	1.485685e-05	
184	-2.50000e+00	1.485840e-05	
185	-2.55000e+00	1.485992e-05	
186	-2.60000e+00	1.486140e-05	
187	-2.65000e+00	1.486286e-05	
188	-2.70000e+00	1.486429e-05	
189	-2.75000e+00	1.486570e-05	
190	-2.80000e+00	1.486708e-05	
191	-2.85000e+00	1.486845e-05	
192	-2.90000e+00	1.486980e-05	
193	-2.95000e+00	1.487114e-05	
194	-3.00000e+00	1.487247e-05	
195	-3.05000e+00	1.487380e-05	
196	-3.10000e+00	1.487514e-05	
197	-3.15000e+00	1.487651e-05	
198	-3.20000e+00	1.487790e-05	
199	-3.25000e+00	1.487935e-05	
200	-3.30000e+00	1.488087e-05	
201	-0.000000e+00	0.000000e+00	
202	-5.00000e-02	2.978341e-06	
203	-1.00000e-01	5.808084e-06	
204	-1.50000e-01	8.489410e-06	
205	-2.00000e-01	1.102250e-05	
206	-2.50000e-01	1.340755e-05	
207	-3.00000e-01	1.564474e-05	
208	-3.50000e-01	1.773428e-05	
209	-4.00000e-01	1.967637e-05	
210	-4.50000e-01	2.147126e-05	
211	-5.00000e-01	2.311920e-05	
212	-5.50000e-01	2.462048e-05	
213	-6.00000e-01	2.597547e-05	
214	-6.50000e-01	2.718466e-05	
215	-7.00000e-01	2.824869e-05	
216	-7.50000e-01	2.916859e-05	
217	-8.00000e-01	2.994596e-05	
218	-8.50000e-01	3.058358e-05	
219	-9.00000e-01	3.108639e-05	
220	-9.50000e-01	3.146322e-05	
221	-1.00000e+00	3.172895e-05	
222	-1.05000e+00	3.190533e-05	
223	-1.10000e+00	3.201787e-05	
224	-1.15000e+00	3.208963e-05	
225	-1.20000e+00	3.213709e-05	
226	-1.25000e+00	3.217036e-05	
227	-1.30000e+00	3.219511e-05	
228	-1.35000e+00	3.221455e-05	

Index   v-sweep         i(vds)          
--------------------------------------------------------------------------------
229	-1.40000e+00	3.223048e-05	
230	-1.45000e+00	3.224399e-05	
231	-1.50000e+00	3.225575e-05	
232	-1.55000e+00	3.226619e-05	
233	-1.60000e+00	3.227561e-05	
234	-1.65000e+00	3.228421e-05	
235	-1.70000e+00	3.229214e-05	
236	-1.75000e+00	3.229952e-05	
237	-1.80000e+00	3.230641e-05	
238	-1.85000e+00	3.231290e-05	
239	-1.90000e+00	3.231903e-05	
240	-1.95000e+00	3.232485e-05	
241	-2.00000e+00	3.233039e-05	
242	-2.05000e+00	3.233568e-05	
243	-2.10000e+00	3.234075e-05	
244	-2.15000e+00	3.234561e-05	
245	-2.20000e+00	3.235029e-05	
246	-2.25000e+00	3.235479e-05	
247	-2.30000e+00	3.235914e-05	
248	-2.35000e+00	3.236335e-05	
249	-2.40000e+00	3.236742e-05	
250	-2.45000e+00	3.237136e-05	
251	-2.50000e+00	3.237519e-05	
252	-2.55000e+00	3.237892e-05	
253	-2.60000e+00	3.238254e-05	
254	-2.65000e+00	3.238606e-05	
255	-2.70000e+00	3.238950e-05	
256	-2.75000e+00	3.239285e-05	
257	-2.80000e+00	3.239612e-05	
258	-2.85000e+00	3.239931e-05	
259	-2.90000e+00	3.240244e-05	
260	-2.95000e+00	3.240549e-05	
261	-3.00000e+00	3.240849e-05	
262	-3.05000e+00	3.241143e-05	
263	-3.10000e+00	3.241431e-05	
264	-3.15000e+00	3.241714e-05	
265	-3.20000e+00	3.241993e-05	
266	-3.25000e+00	3.242269e-05	
267	-3.30000e+00	3.242542e-05	
268	-0.000000e+00	0.000000e+00	
269	-5.00000e-02	3.748621e-06	
270	-1.00000e-01	7.361666e-06	
271	-1.50000e-01	1.083929e-05	
272	-2.00000e-01	1.418163e-05	
273	-2.50000e-01	1.738885e-05	
274	-3.00000e-01	2.046109e-05	
275	-3.50000e-01	2.339850e-05	
276	-4.00000e-01	2.620124e-05	
277	-4.50000e-01	2.886947e-05	
278	-5.00000e-01	3.140334e-05	
279	-5.50000e-01	3.380302e-05	
280	-6.00000e-01	3.606867e-05	
281	-6.50000e-01	3.820046e-05	
282	-7.00000e-01	4.019859e-05	
283	-7.50000e-01	4.206324e-05	
284	-8.00000e-01	4.379464e-05	
285	-8.50000e-01	4.539305e-05	
286	-9.00000e-01	4.685874e-05	

Index   v-sweep         i(vds)          
--------------------------------------------------------------------------------
287	-9.50000e-01	4.819209e-05	
288	-1.00000e+00	4.939358e-05	
289	-1.05000e+00	5.046385e-05	
290	-1.10000e+00	5.140386e-05	
291	-1.15000e+00	5.221505e-05	
292	-1.20000e+00	5.289974e-05	
293	-1.25000e+00	5.346170e-05	
294	-1.30000e+00	5.390717e-05	
295	-1.35000e+00	5.424610e-05	
296	-1.40000e+00	5.449306e-05	
297	-1.45000e+00	5.466667e-05	
298	-1.50000e+00	5.478670e-05	
299	-1.55000e+00	5.487043e-05	
300	-1.60000e+00	5.493067e-05	
301	-1.65000e+00	5.497586e-05	
302	-1.70000e+00	5.501127e-05	
303	-1.75000e+00	5.504012e-05	
304	-1.80000e+00	5.506440e-05	
305	-1.85000e+00	5.508538e-05	
306	-1.90000e+00	5.510388e-05	
307	-1.95000e+00	5.512047e-05	
308	-2.00000e+00	5.513554e-05	
309	-2.05000e+00	5.514937e-05	
310	-2.10000e+00	5.516218e-05	
311	-2.15000e+00	5.517413e-05	
312	-2.20000e+00	5.518533e-05	
313	-2.25000e+00	5.519588e-05	
314	-2.30000e+00	5.520587e-05	
315	-2.35000e+00	5.521537e-05	
316	-2.40000e+00	5.522441e-05	
317	-2.45000e+00	5.523306e-05	
318	-2.50000e+00	5.524134e-05	
319	-2.55000e+00	5.524929e-05	
320	-2.60000e+00	5.525694e-05	
321	-2.65000e+00	5.526432e-05	
322	-2.70000e+00	5.527144e-05	
323	-2.75000e+00	5.527832e-05	
324	-2.80000e+00	5.528498e-05	
325	-2.85000e+00	5.529144e-05	
326	-2.90000e+00	5.529771e-05	
327	-2.95000e+00	5.530380e-05	
328	-3.00000e+00	5.530972e-05	
329	-3.05000e+00	5.531549e-05	
330	-3.10000e+00	5.532111e-05	
331	-3.15000e+00	5.532659e-05	
332	-3.20000e+00	5.533193e-05	
333	-3.25000e+00	5.533716e-05	
334	-3.30000e+00	5.534226e-05	
335	-0.000000e+00	0.000000e+00	
336	-5.00000e-02	4.384297e-06	
337	-1.00000e-01	8.645740e-06	
338	-1.50000e-01	1.278445e-05	
339	-2.00000e-01	1.680056e-05	
340	-2.50000e-01	2.069419e-05	
341	-3.00000e-01	2.446546e-05	
342	-3.50000e-01	2.811450e-05	
343	-4.00000e-01	3.164144e-05	
344	-4.50000e-01	3.504640e-05	

Index   v-sweep         i(vds)          
--------------------------------------------------------------------------------
345	-5.00000e-01	3.832951e-05	
346	-5.50000e-01	4.149089e-05	
347	-6.00000e-01	4.453068e-05	
348	-6.50000e-01	4.744900e-05	
349	-7.00000e-01	5.024597e-05	
350	-7.50000e-01	5.292174e-05	
351	-8.00000e-01	5.547644e-05	
352	-8.50000e-01	5.791020e-05	
353	-9.00000e-01	6.022316e-05	
354	-9.50000e-01	6.241548e-05	
355	-1.00000e+00	6.448729e-05	
356	-1.05000e+00	6.643878e-05	
357	-1.10000e+00	6.827010e-05	
358	-1.15000e+00	6.998146e-05	
359	-1.20000e+00	7.157307e-05	
360	-1.25000e+00	7.304519e-05	
361	-1.30000e+00	7.439814e-05	
362	-1.35000e+00	7.563231e-05	
363	-1.40000e+00	7.674823e-05	
364	-1.45000e+00	7.774661e-05	
365	-1.50000e+00	7.862850e-05	
366	-1.55000e+00	7.939545e-05	
367	-1.60000e+00	8.004984e-05	
368	-1.65000e+00	8.059535e-05	
369	-1.70000e+00	8.103770e-05	
370	-1.75000e+00	8.138541e-05	
371	-1.80000e+00	8.165030e-05	
372	-1.85000e+00	8.184703e-05	
373	-1.90000e+00	8.199134e-05	
374	-1.95000e+00	8.209772e-05	
375	-2.00000e+00	8.217776e-05	
376	-2.05000e+00	8.223982e-05	
377	-2.10000e+00	8.228957e-05	
378	-2.15000e+00	8.233071e-05	
379	-2.20000e+00	8.236568e-05	
380	-2.25000e+00	8.239608e-05	
381	-2.30000e+00	8.242301e-05	
382	-2.35000e+00	8.244721e-05	
383	-2.40000e+00	8.246925e-05	
384	-2.45000e+00	8.248949e-05	
385	-2.50000e+00	8.250826e-05	
386	-2.55000e+00	8.252576e-05	
387	-2.60000e+00	8.254218e-05	
388	-2.65000e+00	8.255766e-05	
389	-2.70000e+00	8.257232e-05	
390	-2.75000e+00	8.258624e-05	
391	-2.80000e+00	8.259950e-05	
392	-2.85000e+00	8.261218e-05	
393	-2.90000e+00	8.262432e-05	
394	-2.95000e+00	8.263598e-05	
395	-3.00000e+00	8.264719e-05	
396	-3.05000e+00	8.265799e-05	
397	-3.10000e+00	8.266842e-05	
398	-3.15000e+00	8.267850e-05	
399	-3.20000e+00	8.268826e-05	
400	-3.25000e+00	8.269771e-05	
401	-3.30000e+00	8.270689e-05	
Note: No ".plot", ".print", or ".fourier" lines; no simulations run
