
Note: Compatibility modes selected: hs

Warning: m=xx on .subckt line will override multiplier m hierarchy!


Circuit: ***************************

Doing analysis at TEMP = 25.000000 and TNOM = 25.000000


No. of Data Rows : 402
                          ***************************
                          DC transfer characteristic  Mon Jan  9 13:57:29  2023
--------------------------------------------------------------------------------
Index   v-sweep         i(vds)          
--------------------------------------------------------------------------------
0	-0.000000e+00	0.000000e+00	
1	-5.00000e-02	3.022948e-09	
2	-1.00000e-01	3.678919e-09	
3	-1.50000e-01	3.774127e-09	
4	-2.00000e-01	3.797475e-09	
5	-2.50000e-01	3.806656e-09	
6	-3.00000e-01	3.811489e-09	
7	-3.50000e-01	3.814564e-09	
8	-4.00000e-01	3.816788e-09	
9	-4.50000e-01	3.818543e-09	
10	-5.00000e-01	3.820016e-09	
11	-5.50000e-01	3.821305e-09	
12	-6.00000e-01	3.822467e-09	
13	-6.50000e-01	3.823538e-09	
14	-7.00000e-01	3.824539e-09	
15	-7.50000e-01	3.825486e-09	
16	-8.00000e-01	3.826391e-09	
17	-8.50000e-01	3.827261e-09	
18	-9.00000e-01	3.828102e-09	
19	-9.50000e-01	3.828918e-09	
20	-1.00000e+00	3.829713e-09	
21	-1.05000e+00	3.830489e-09	
22	-1.10000e+00	3.831250e-09	
23	-1.15000e+00	3.831995e-09	
24	-1.20000e+00	3.832729e-09	
25	-1.25000e+00	3.833450e-09	
26	-1.30000e+00	3.834161e-09	
27	-1.35000e+00	3.834863e-09	
28	-1.40000e+00	3.835556e-09	
29	-1.45000e+00	3.836241e-09	
30	-1.50000e+00	3.836918e-09	
31	-1.55000e+00	3.837588e-09	
32	-1.60000e+00	3.838253e-09	
33	-1.65000e+00	3.838911e-09	
34	-1.70000e+00	3.839563e-09	
35	-1.75000e+00	3.840211e-09	
36	-1.80000e+00	3.840853e-09	
37	-1.85000e+00	3.841491e-09	
38	-1.90000e+00	3.842125e-09	
39	-1.95000e+00	3.842754e-09	
40	-2.00000e+00	3.843380e-09	
41	-2.05000e+00	3.844002e-09	
42	-2.10000e+00	3.844620e-09	
43	-2.15000e+00	3.845236e-09	
44	-2.20000e+00	3.845848e-09	
45	-2.25000e+00	3.846459e-09	
46	-2.30000e+00	3.847067e-09	
47	-2.35000e+00	3.847673e-09	
48	-2.40000e+00	3.848278e-09	
49	-2.45000e+00	3.848883e-09	
50	-2.50000e+00	3.849488e-09	
51	-2.55000e+00	3.850094e-09	
52	-2.60000e+00	3.850703e-09	
53	-2.65000e+00	3.851317e-09	
54	-2.70000e+00	3.851937e-09	

Index   v-sweep         i(vds)          
--------------------------------------------------------------------------------
55	-2.75000e+00	3.852566e-09	
56	-2.80000e+00	3.853207e-09	
57	-2.85000e+00	3.853864e-09	
58	-2.90000e+00	3.854542e-09	
59	-2.95000e+00	3.855246e-09	
60	-3.00000e+00	3.855982e-09	
61	-3.05000e+00	3.856758e-09	
62	-3.10000e+00	3.857583e-09	
63	-3.15000e+00	3.858468e-09	
64	-3.20000e+00	3.859425e-09	
65	-3.25000e+00	3.860469e-09	
66	-3.30000e+00	3.861615e-09	
67	-0.000000e+00	0.000000e+00	
68	-5.00000e-02	4.303530e-08	
69	-1.00000e-01	7.978762e-08	
70	-1.50000e-01	1.102783e-07	
71	-2.00000e-01	1.345511e-07	
72	-2.50000e-01	1.527087e-07	
73	-3.00000e-01	1.650201e-07	
74	-3.50000e-01	1.721865e-07	
75	-4.00000e-01	1.756356e-07	
76	-4.50000e-01	1.771026e-07	
77	-5.00000e-01	1.777450e-07	
78	-5.50000e-01	1.780638e-07	
79	-6.00000e-01	1.782457e-07	
80	-6.50000e-01	1.783625e-07	
81	-7.00000e-01	1.784449e-07	
82	-7.50000e-01	1.785074e-07	
83	-8.00000e-01	1.785575e-07	
84	-8.50000e-01	1.785993e-07	
85	-9.00000e-01	1.786353e-07	
86	-9.50000e-01	1.786672e-07	
87	-1.00000e+00	1.786958e-07	
88	-1.05000e+00	1.787220e-07	
89	-1.10000e+00	1.787461e-07	
90	-1.15000e+00	1.787686e-07	
91	-1.20000e+00	1.787898e-07	
92	-1.25000e+00	1.788098e-07	
93	-1.30000e+00	1.788288e-07	
94	-1.35000e+00	1.788469e-07	
95	-1.40000e+00	1.788643e-07	
96	-1.45000e+00	1.788810e-07	
97	-1.50000e+00	1.788971e-07	
98	-1.55000e+00	1.789127e-07	
99	-1.60000e+00	1.789277e-07	
100	-1.65000e+00	1.789423e-07	
101	-1.70000e+00	1.789565e-07	
102	-1.75000e+00	1.789704e-07	
103	-1.80000e+00	1.789838e-07	
104	-1.85000e+00	1.789970e-07	
105	-1.90000e+00	1.790098e-07	
106	-1.95000e+00	1.790224e-07	
107	-2.00000e+00	1.790347e-07	
108	-2.05000e+00	1.790468e-07	
109	-2.10000e+00	1.790586e-07	
110	-2.15000e+00	1.790702e-07	
111	-2.20000e+00	1.790816e-07	
112	-2.25000e+00	1.790928e-07	

Index   v-sweep         i(vds)          
--------------------------------------------------------------------------------
113	-2.30000e+00	1.791039e-07	
114	-2.35000e+00	1.791147e-07	
115	-2.40000e+00	1.791254e-07	
116	-2.45000e+00	1.791360e-07	
117	-2.50000e+00	1.791464e-07	
118	-2.55000e+00	1.791567e-07	
119	-2.60000e+00	1.791669e-07	
120	-2.65000e+00	1.791770e-07	
121	-2.70000e+00	1.791871e-07	
122	-2.75000e+00	1.791971e-07	
123	-2.80000e+00	1.792072e-07	
124	-2.85000e+00	1.792173e-07	
125	-2.90000e+00	1.792275e-07	
126	-2.95000e+00	1.792379e-07	
127	-3.00000e+00	1.792486e-07	
128	-3.05000e+00	1.792597e-07	
129	-3.10000e+00	1.792714e-07	
130	-3.15000e+00	1.792838e-07	
131	-3.20000e+00	1.792971e-07	
132	-3.25000e+00	1.793116e-07	
133	-3.30000e+00	1.793275e-07	
134	-0.000000e+00	0.000000e+00	
135	-5.00000e-02	8.407010e-08	
136	-1.00000e-01	1.619582e-07	
137	-1.50000e-01	2.336687e-07	
138	-2.00000e-01	2.992069e-07	
139	-2.50000e-01	3.585791e-07	
140	-3.00000e-01	4.117939e-07	
141	-3.50000e-01	4.588632e-07	
142	-4.00000e-01	4.998059e-07	
143	-4.50000e-01	5.346529e-07	
144	-5.00000e-01	5.634606e-07	
145	-5.50000e-01	5.863382e-07	
146	-6.00000e-01	6.035084e-07	
147	-6.50000e-01	6.154232e-07	
148	-7.00000e-01	6.229149e-07	
149	-7.50000e-01	6.271958e-07	
150	-8.00000e-01	6.295214e-07	
151	-8.50000e-01	6.308057e-07	
152	-9.00000e-01	6.315623e-07	
153	-9.50000e-01	6.320458e-07	
154	-1.00000e+00	6.323800e-07	
155	-1.05000e+00	6.326270e-07	
156	-1.10000e+00	6.328200e-07	
157	-1.15000e+00	6.329774e-07	
158	-1.20000e+00	6.331103e-07	
159	-1.25000e+00	6.332255e-07	
160	-1.30000e+00	6.333275e-07	
161	-1.35000e+00	6.334193e-07	
162	-1.40000e+00	6.335030e-07	
163	-1.45000e+00	6.335802e-07	
164	-1.50000e+00	6.336520e-07	
165	-1.55000e+00	6.337193e-07	
166	-1.60000e+00	6.337826e-07	
167	-1.65000e+00	6.338427e-07	
168	-1.70000e+00	6.338998e-07	
169	-1.75000e+00	6.339543e-07	
170	-1.80000e+00	6.340065e-07	

Index   v-sweep         i(vds)          
--------------------------------------------------------------------------------
171	-1.85000e+00	6.340567e-07	
172	-1.90000e+00	6.341050e-07	
173	-1.95000e+00	6.341516e-07	
174	-2.00000e+00	6.341966e-07	
175	-2.05000e+00	6.342403e-07	
176	-2.10000e+00	6.342826e-07	
177	-2.15000e+00	6.343237e-07	
178	-2.20000e+00	6.343637e-07	
179	-2.25000e+00	6.344027e-07	
180	-2.30000e+00	6.344407e-07	
181	-2.35000e+00	6.344778e-07	
182	-2.40000e+00	6.345140e-07	
183	-2.45000e+00	6.345494e-07	
184	-2.50000e+00	6.345841e-07	
185	-2.55000e+00	6.346181e-07	
186	-2.60000e+00	6.346513e-07	
187	-2.65000e+00	6.346840e-07	
188	-2.70000e+00	6.347161e-07	
189	-2.75000e+00	6.347476e-07	
190	-2.80000e+00	6.347786e-07	
191	-2.85000e+00	6.348091e-07	
192	-2.90000e+00	6.348393e-07	
193	-2.95000e+00	6.348691e-07	
194	-3.00000e+00	6.348986e-07	
195	-3.05000e+00	6.349279e-07	
196	-3.10000e+00	6.349572e-07	
197	-3.15000e+00	6.349866e-07	
198	-3.20000e+00	6.350162e-07	
199	-3.25000e+00	6.350463e-07	
200	-3.30000e+00	6.350772e-07	
201	-0.000000e+00	0.000000e+00	
202	-5.00000e-02	1.216743e-07	
203	-1.00000e-01	2.374801e-07	
204	-1.50000e-01	3.474203e-07	
205	-2.00000e-01	4.514978e-07	
206	-2.50000e-01	5.497160e-07	
207	-3.00000e-01	6.420783e-07	
208	-3.50000e-01	7.285882e-07	
209	-4.00000e-01	8.092498e-07	
210	-4.50000e-01	8.840680e-07	
211	-5.00000e-01	9.530481e-07	
212	-5.50000e-01	1.016197e-06	
213	-6.00000e-01	1.073524e-06	
214	-6.50000e-01	1.125041e-06	
215	-7.00000e-01	1.170767e-06	
216	-7.50000e-01	1.210728e-06	
217	-8.00000e-01	1.244971e-06	
218	-8.50000e-01	1.273573e-06	
219	-9.00000e-01	1.296670e-06	
220	-9.50000e-01	1.314509e-06	
221	-1.00000e+00	1.327523e-06	
222	-1.05000e+00	1.336410e-06	
223	-1.10000e+00	1.342110e-06	
224	-1.15000e+00	1.345632e-06	
225	-1.20000e+00	1.347807e-06	
226	-1.25000e+00	1.349199e-06	
227	-1.30000e+00	1.350137e-06	
228	-1.35000e+00	1.350807e-06	

Index   v-sweep         i(vds)          
--------------------------------------------------------------------------------
229	-1.40000e+00	1.351313e-06	
230	-1.45000e+00	1.351712e-06	
231	-1.50000e+00	1.352039e-06	
232	-1.55000e+00	1.352316e-06	
233	-1.60000e+00	1.352556e-06	
234	-1.65000e+00	1.352768e-06	
235	-1.70000e+00	1.352959e-06	
236	-1.75000e+00	1.353133e-06	
237	-1.80000e+00	1.353293e-06	
238	-1.85000e+00	1.353442e-06	
239	-1.90000e+00	1.353580e-06	
240	-1.95000e+00	1.353711e-06	
241	-2.00000e+00	1.353834e-06	
242	-2.05000e+00	1.353952e-06	
243	-2.10000e+00	1.354063e-06	
244	-2.15000e+00	1.354170e-06	
245	-2.20000e+00	1.354272e-06	
246	-2.25000e+00	1.354371e-06	
247	-2.30000e+00	1.354465e-06	
248	-2.35000e+00	1.354557e-06	
249	-2.40000e+00	1.354645e-06	
250	-2.45000e+00	1.354731e-06	
251	-2.50000e+00	1.354813e-06	
252	-2.55000e+00	1.354894e-06	
253	-2.60000e+00	1.354972e-06	
254	-2.65000e+00	1.355049e-06	
255	-2.70000e+00	1.355123e-06	
256	-2.75000e+00	1.355195e-06	
257	-2.80000e+00	1.355266e-06	
258	-2.85000e+00	1.355335e-06	
259	-2.90000e+00	1.355403e-06	
260	-2.95000e+00	1.355469e-06	
261	-3.00000e+00	1.355534e-06	
262	-3.05000e+00	1.355598e-06	
263	-3.10000e+00	1.355660e-06	
264	-3.15000e+00	1.355721e-06	
265	-3.20000e+00	1.355782e-06	
266	-3.25000e+00	1.355841e-06	
267	-3.30000e+00	1.355900e-06	
268	-0.000000e+00	0.000000e+00	
269	-5.00000e-02	1.556727e-07	
270	-1.00000e-01	3.058403e-07	
271	-1.50000e-01	4.505052e-07	
272	-2.00000e-01	5.896700e-07	
273	-2.50000e-01	7.233370e-07	
274	-3.00000e-01	8.515090e-07	
275	-3.50000e-01	9.741884e-07	
276	-4.00000e-01	1.091378e-06	
277	-4.50000e-01	1.203080e-06	
278	-5.00000e-01	1.309298e-06	
279	-5.50000e-01	1.410035e-06	
280	-6.00000e-01	1.505294e-06	
281	-6.50000e-01	1.595078e-06	
282	-7.00000e-01	1.679392e-06	
283	-7.50000e-01	1.758239e-06	
284	-8.00000e-01	1.831624e-06	
285	-8.50000e-01	1.899555e-06	
286	-9.00000e-01	1.962038e-06	

Index   v-sweep         i(vds)          
--------------------------------------------------------------------------------
287	-9.50000e-01	2.019084e-06	
288	-1.00000e+00	2.070707e-06	
289	-1.05000e+00	2.116926e-06	
290	-1.10000e+00	2.157772e-06	
291	-1.15000e+00	2.193289e-06	
292	-1.20000e+00	2.223551e-06	
293	-1.25000e+00	2.248677e-06	
294	-1.30000e+00	2.268868e-06	
295	-1.35000e+00	2.284449e-06	
296	-1.40000e+00	2.295921e-06	
297	-1.45000e+00	2.303976e-06	
298	-1.50000e+00	2.309426e-06	
299	-1.55000e+00	2.313055e-06	
300	-1.60000e+00	2.315497e-06	
301	-1.65000e+00	2.317190e-06	
302	-1.70000e+00	2.318413e-06	
303	-1.75000e+00	2.319336e-06	
304	-1.80000e+00	2.320062e-06	
305	-1.85000e+00	2.320654e-06	
306	-1.90000e+00	2.321151e-06	
307	-1.95000e+00	2.321580e-06	
308	-2.00000e+00	2.321956e-06	
309	-2.05000e+00	2.322293e-06	
310	-2.10000e+00	2.322597e-06	
311	-2.15000e+00	2.322877e-06	
312	-2.20000e+00	2.323135e-06	
313	-2.25000e+00	2.323375e-06	
314	-2.30000e+00	2.323600e-06	
315	-2.35000e+00	2.323812e-06	
316	-2.40000e+00	2.324013e-06	
317	-2.45000e+00	2.324204e-06	
318	-2.50000e+00	2.324386e-06	
319	-2.55000e+00	2.324560e-06	
320	-2.60000e+00	2.324727e-06	
321	-2.65000e+00	2.324888e-06	
322	-2.70000e+00	2.325043e-06	
323	-2.75000e+00	2.325192e-06	
324	-2.80000e+00	2.325336e-06	
325	-2.85000e+00	2.325476e-06	
326	-2.90000e+00	2.325611e-06	
327	-2.95000e+00	2.325743e-06	
328	-3.00000e+00	2.325871e-06	
329	-3.05000e+00	2.325995e-06	
330	-3.10000e+00	2.326117e-06	
331	-3.15000e+00	2.326235e-06	
332	-3.20000e+00	2.326350e-06	
333	-3.25000e+00	2.326463e-06	
334	-3.30000e+00	2.326573e-06	
335	-0.000000e+00	0.000000e+00	
336	-5.00000e-02	1.861226e-07	
337	-1.00000e-01	3.671138e-07	
338	-1.50000e-01	5.429759e-07	
339	-2.00000e-01	7.137108e-07	
340	-2.50000e-01	8.793208e-07	
341	-3.00000e-01	1.039808e-06	
342	-3.50000e-01	1.195175e-06	
343	-4.00000e-01	1.345423e-06	
344	-4.50000e-01	1.490555e-06	

Index   v-sweep         i(vds)          
--------------------------------------------------------------------------------
345	-5.00000e-01	1.630573e-06	
346	-5.50000e-01	1.765480e-06	
347	-6.00000e-01	1.895277e-06	
348	-6.50000e-01	2.019967e-06	
349	-7.00000e-01	2.139553e-06	
350	-7.50000e-01	2.254037e-06	
351	-8.00000e-01	2.363421e-06	
352	-8.50000e-01	2.467708e-06	
353	-9.00000e-01	2.566901e-06	
354	-9.50000e-01	2.661003e-06	
355	-1.00000e+00	2.750018e-06	
356	-1.05000e+00	2.833949e-06	
357	-1.10000e+00	2.912801e-06	
358	-1.15000e+00	2.986578e-06	
359	-1.20000e+00	3.055286e-06	
360	-1.25000e+00	3.118933e-06	
361	-1.30000e+00	3.177528e-06	
362	-1.35000e+00	3.231084e-06	
363	-1.40000e+00	3.279618e-06	
364	-1.45000e+00	3.323155e-06	
365	-1.50000e+00	3.361731e-06	
366	-1.55000e+00	3.395400e-06	
367	-1.60000e+00	3.424246e-06	
368	-1.65000e+00	3.448401e-06	
369	-1.70000e+00	3.468069e-06	
370	-1.75000e+00	3.483562e-06	
371	-1.80000e+00	3.495330e-06	
372	-1.85000e+00	3.503957e-06	
373	-1.90000e+00	3.510114e-06	
374	-1.95000e+00	3.514455e-06	
375	-2.00000e+00	3.517536e-06	
376	-2.05000e+00	3.519771e-06	
377	-2.10000e+00	3.521442e-06	
378	-2.15000e+00	3.522736e-06	
379	-2.20000e+00	3.523773e-06	
380	-2.25000e+00	3.524629e-06	
381	-2.30000e+00	3.525354e-06	
382	-2.35000e+00	3.525982e-06	
383	-2.40000e+00	3.526537e-06	
384	-2.45000e+00	3.527035e-06	
385	-2.50000e+00	3.527486e-06	
386	-2.55000e+00	3.527900e-06	
387	-2.60000e+00	3.528283e-06	
388	-2.65000e+00	3.528639e-06	
389	-2.70000e+00	3.528974e-06	
390	-2.75000e+00	3.529289e-06	
391	-2.80000e+00	3.529587e-06	
392	-2.85000e+00	3.529871e-06	
393	-2.90000e+00	3.530141e-06	
394	-2.95000e+00	3.530400e-06	
395	-3.00000e+00	3.530648e-06	
396	-3.05000e+00	3.530886e-06	
397	-3.10000e+00	3.531115e-06	
398	-3.15000e+00	3.531337e-06	
399	-3.20000e+00	3.531550e-06	
400	-3.25000e+00	3.531757e-06	
401	-3.30000e+00	3.531958e-06	
Note: No ".plot", ".print", or ".fourier" lines; no simulations run
