
Note: Compatibility modes selected: hs

Warning: m=xx on .subckt line will override multiplier m hierarchy!


Circuit: ***************************

Doing analysis at TEMP = 25.000000 and TNOM = 25.000000


No. of Data Rows : 402
                          ***************************
                          DC transfer characteristic  Mon Jan  9 13:57:28  2023
--------------------------------------------------------------------------------
Index   v-sweep         i(vds)          
--------------------------------------------------------------------------------
0	-0.000000e+00	0.000000e+00	
1	-5.00000e-02	5.847781e-08	
2	-1.00000e-01	7.097581e-08	
3	-1.50000e-01	7.280015e-08	
4	-2.00000e-01	7.326477e-08	
5	-2.50000e-01	7.345866e-08	
6	-3.00000e-01	7.356808e-08	
7	-3.50000e-01	7.364257e-08	
8	-4.00000e-01	7.369964e-08	
9	-4.50000e-01	7.374680e-08	
10	-5.00000e-01	7.378772e-08	
11	-5.50000e-01	7.382440e-08	
12	-6.00000e-01	7.385804e-08	
13	-6.50000e-01	7.388938e-08	
14	-7.00000e-01	7.391892e-08	
15	-7.50000e-01	7.394701e-08	
16	-8.00000e-01	7.397389e-08	
17	-8.50000e-01	7.399977e-08	
18	-9.00000e-01	7.402477e-08	
19	-9.50000e-01	7.404902e-08	
20	-1.00000e+00	7.407261e-08	
21	-1.05000e+00	7.409561e-08	
22	-1.10000e+00	7.411808e-08	
23	-1.15000e+00	7.414008e-08	
24	-1.20000e+00	7.416164e-08	
25	-1.25000e+00	7.418281e-08	
26	-1.30000e+00	7.420362e-08	
27	-1.35000e+00	7.422410e-08	
28	-1.40000e+00	7.424427e-08	
29	-1.45000e+00	7.426415e-08	
30	-1.50000e+00	7.428377e-08	
31	-1.55000e+00	7.430314e-08	
32	-1.60000e+00	7.432228e-08	
33	-1.65000e+00	7.434120e-08	
34	-1.70000e+00	7.435991e-08	
35	-1.75000e+00	7.437843e-08	
36	-1.80000e+00	7.439677e-08	
37	-1.85000e+00	7.441494e-08	
38	-1.90000e+00	7.443295e-08	
39	-1.95000e+00	7.445080e-08	
40	-2.00000e+00	7.446851e-08	
41	-2.05000e+00	7.448609e-08	
42	-2.10000e+00	7.450354e-08	
43	-2.15000e+00	7.452088e-08	
44	-2.20000e+00	7.453811e-08	
45	-2.25000e+00	7.455526e-08	
46	-2.30000e+00	7.457234e-08	
47	-2.35000e+00	7.458936e-08	
48	-2.40000e+00	7.460637e-08	
49	-2.45000e+00	7.462339e-08	
50	-2.50000e+00	7.464047e-08	
51	-2.55000e+00	7.465766e-08	
52	-2.60000e+00	7.467503e-08	
53	-2.65000e+00	7.469267e-08	
54	-2.70000e+00	7.471068e-08	

Index   v-sweep         i(vds)          
--------------------------------------------------------------------------------
55	-2.75000e+00	7.472920e-08	
56	-2.80000e+00	7.474838e-08	
57	-2.85000e+00	7.476842e-08	
58	-2.90000e+00	7.478954e-08	
59	-2.95000e+00	7.481203e-08	
60	-3.00000e+00	7.483620e-08	
61	-3.05000e+00	7.486245e-08	
62	-3.10000e+00	7.489123e-08	
63	-3.15000e+00	7.492304e-08	
64	-3.20000e+00	7.495850e-08	
65	-3.25000e+00	7.499830e-08	
66	-3.30000e+00	7.504321e-08	
67	-0.000000e+00	0.000000e+00	
68	-5.00000e-02	8.800380e-07	
69	-1.00000e-01	1.634296e-06	
70	-1.50000e-01	2.263243e-06	
71	-2.00000e-01	2.767746e-06	
72	-2.50000e-01	3.149705e-06	
73	-3.00000e-01	3.413890e-06	
74	-3.50000e-01	3.572641e-06	
75	-4.00000e-01	3.652183e-06	
76	-4.50000e-01	3.687174e-06	
77	-5.00000e-01	3.702898e-06	
78	-5.50000e-01	3.710959e-06	
79	-6.00000e-01	3.715765e-06	
80	-6.50000e-01	3.719015e-06	
81	-7.00000e-01	3.721432e-06	
82	-7.50000e-01	3.723356e-06	
83	-8.00000e-01	3.724963e-06	
84	-8.50000e-01	3.726354e-06	
85	-9.00000e-01	3.727588e-06	
86	-9.50000e-01	3.728703e-06	
87	-1.00000e+00	3.729726e-06	
88	-1.05000e+00	3.730673e-06	
89	-1.10000e+00	3.731558e-06	
90	-1.15000e+00	3.732391e-06	
91	-1.20000e+00	3.733179e-06	
92	-1.25000e+00	3.733928e-06	
93	-1.30000e+00	3.734644e-06	
94	-1.35000e+00	3.735328e-06	
95	-1.40000e+00	3.735986e-06	
96	-1.45000e+00	3.736620e-06	
97	-1.50000e+00	3.737231e-06	
98	-1.55000e+00	3.737822e-06	
99	-1.60000e+00	3.738394e-06	
100	-1.65000e+00	3.738950e-06	
101	-1.70000e+00	3.739490e-06	
102	-1.75000e+00	3.740015e-06	
103	-1.80000e+00	3.740526e-06	
104	-1.85000e+00	3.741025e-06	
105	-1.90000e+00	3.741512e-06	
106	-1.95000e+00	3.741988e-06	
107	-2.00000e+00	3.742453e-06	
108	-2.05000e+00	3.742909e-06	
109	-2.10000e+00	3.743355e-06	
110	-2.15000e+00	3.743792e-06	
111	-2.20000e+00	3.744221e-06	
112	-2.25000e+00	3.744643e-06	

Index   v-sweep         i(vds)          
--------------------------------------------------------------------------------
113	-2.30000e+00	3.745057e-06	
114	-2.35000e+00	3.745464e-06	
115	-2.40000e+00	3.745864e-06	
116	-2.45000e+00	3.746259e-06	
117	-2.50000e+00	3.746648e-06	
118	-2.55000e+00	3.747033e-06	
119	-2.60000e+00	3.747414e-06	
120	-2.65000e+00	3.747792e-06	
121	-2.70000e+00	3.748169e-06	
122	-2.75000e+00	3.748546e-06	
123	-2.80000e+00	3.748925e-06	
124	-2.85000e+00	3.749309e-06	
125	-2.90000e+00	3.749700e-06	
126	-2.95000e+00	3.750104e-06	
127	-3.00000e+00	3.750526e-06	
128	-3.05000e+00	3.750970e-06	
129	-3.10000e+00	3.751446e-06	
130	-3.15000e+00	3.751961e-06	
131	-3.20000e+00	3.752528e-06	
132	-3.25000e+00	3.753159e-06	
133	-3.30000e+00	3.753870e-06	
134	-0.000000e+00	0.000000e+00	
135	-5.00000e-02	1.692729e-06	
136	-1.00000e-01	3.264016e-06	
137	-1.50000e-01	4.714008e-06	
138	-2.00000e-01	6.042866e-06	
139	-2.50000e-01	7.250771e-06	
140	-3.00000e-01	8.337939e-06	
141	-3.50000e-01	9.304646e-06	
142	-4.00000e-01	1.015127e-05	
143	-4.50000e-01	1.087840e-05	
144	-5.00000e-01	1.148699e-05	
145	-5.50000e-01	1.197882e-05	
146	-6.00000e-01	1.235739e-05	
147	-6.50000e-01	1.262968e-05	
148	-7.00000e-01	1.280906e-05	
149	-7.50000e-01	1.291675e-05	
150	-8.00000e-01	1.297767e-05	
151	-8.50000e-01	1.301234e-05	
152	-9.00000e-01	1.303335e-05	
153	-9.50000e-01	1.304722e-05	
154	-1.00000e+00	1.305718e-05	
155	-1.05000e+00	1.306483e-05	
156	-1.10000e+00	1.307104e-05	
157	-1.15000e+00	1.307627e-05	
158	-1.20000e+00	1.308082e-05	
159	-1.25000e+00	1.308486e-05	
160	-1.30000e+00	1.308851e-05	
161	-1.35000e+00	1.309185e-05	
162	-1.40000e+00	1.309494e-05	
163	-1.45000e+00	1.309782e-05	
164	-1.50000e+00	1.310053e-05	
165	-1.55000e+00	1.310309e-05	
166	-1.60000e+00	1.310551e-05	
167	-1.65000e+00	1.310781e-05	
168	-1.70000e+00	1.311002e-05	
169	-1.75000e+00	1.311213e-05	
170	-1.80000e+00	1.311415e-05	

Index   v-sweep         i(vds)          
--------------------------------------------------------------------------------
171	-1.85000e+00	1.311610e-05	
172	-1.90000e+00	1.311798e-05	
173	-1.95000e+00	1.311980e-05	
174	-2.00000e+00	1.312156e-05	
175	-2.05000e+00	1.312326e-05	
176	-2.10000e+00	1.312491e-05	
177	-2.15000e+00	1.312652e-05	
178	-2.20000e+00	1.312808e-05	
179	-2.25000e+00	1.312960e-05	
180	-2.30000e+00	1.313108e-05	
181	-2.35000e+00	1.313253e-05	
182	-2.40000e+00	1.313394e-05	
183	-2.45000e+00	1.313532e-05	
184	-2.50000e+00	1.313667e-05	
185	-2.55000e+00	1.313799e-05	
186	-2.60000e+00	1.313929e-05	
187	-2.65000e+00	1.314056e-05	
188	-2.70000e+00	1.314180e-05	
189	-2.75000e+00	1.314302e-05	
190	-2.80000e+00	1.314423e-05	
191	-2.85000e+00	1.314541e-05	
192	-2.90000e+00	1.314658e-05	
193	-2.95000e+00	1.314773e-05	
194	-3.00000e+00	1.314888e-05	
195	-3.05000e+00	1.315002e-05	
196	-3.10000e+00	1.315116e-05	
197	-3.15000e+00	1.315231e-05	
198	-3.20000e+00	1.315347e-05	
199	-3.25000e+00	1.315467e-05	
200	-3.30000e+00	1.315591e-05	
201	-0.000000e+00	0.000000e+00	
202	-5.00000e-02	2.404270e-06	
203	-1.00000e-01	4.695417e-06	
204	-1.50000e-01	6.873553e-06	
205	-2.00000e-01	8.938789e-06	
206	-2.50000e-01	1.089124e-05	
207	-3.00000e-01	1.273102e-05	
208	-3.50000e-01	1.445826e-05	
209	-4.00000e-01	1.607309e-05	
210	-4.50000e-01	1.757563e-05	
211	-5.00000e-01	1.896605e-05	
212	-5.50000e-01	2.024452e-05	
213	-6.00000e-01	2.141124e-05	
214	-6.50000e-01	2.246647e-05	
215	-7.00000e-01	2.341054e-05	
216	-7.50000e-01	2.424394e-05	
217	-8.00000e-01	2.496739e-05	
218	-8.50000e-01	2.558205e-05	
219	-9.00000e-01	2.608990e-05	
220	-9.50000e-01	2.649441e-05	
221	-1.00000e+00	2.680173e-05	
222	-1.05000e+00	2.702219e-05	
223	-1.10000e+00	2.717119e-05	
224	-1.15000e+00	2.726753e-05	
225	-1.20000e+00	2.732918e-05	
226	-1.25000e+00	2.736971e-05	
227	-1.30000e+00	2.739778e-05	
228	-1.35000e+00	2.741841e-05	

Index   v-sweep         i(vds)          
--------------------------------------------------------------------------------
229	-1.40000e+00	2.743443e-05	
230	-1.45000e+00	2.744745e-05	
231	-1.50000e+00	2.745842e-05	
232	-1.55000e+00	2.746794e-05	
233	-1.60000e+00	2.747638e-05	
234	-1.65000e+00	2.748398e-05	
235	-1.70000e+00	2.749092e-05	
236	-1.75000e+00	2.749732e-05	
237	-1.80000e+00	2.750328e-05	
238	-1.85000e+00	2.750886e-05	
239	-1.90000e+00	2.751411e-05	
240	-1.95000e+00	2.751909e-05	
241	-2.00000e+00	2.752381e-05	
242	-2.05000e+00	2.752832e-05	
243	-2.10000e+00	2.753262e-05	
244	-2.15000e+00	2.753675e-05	
245	-2.20000e+00	2.754072e-05	
246	-2.25000e+00	2.754454e-05	
247	-2.30000e+00	2.754823e-05	
248	-2.35000e+00	2.755179e-05	
249	-2.40000e+00	2.755524e-05	
250	-2.45000e+00	2.755858e-05	
251	-2.50000e+00	2.756182e-05	
252	-2.55000e+00	2.756496e-05	
253	-2.60000e+00	2.756803e-05	
254	-2.65000e+00	2.757101e-05	
255	-2.70000e+00	2.757391e-05	
256	-2.75000e+00	2.757674e-05	
257	-2.80000e+00	2.757950e-05	
258	-2.85000e+00	2.758220e-05	
259	-2.90000e+00	2.758484e-05	
260	-2.95000e+00	2.758742e-05	
261	-3.00000e+00	2.758995e-05	
262	-3.05000e+00	2.759243e-05	
263	-3.10000e+00	2.759486e-05	
264	-3.15000e+00	2.759724e-05	
265	-3.20000e+00	2.759959e-05	
266	-3.25000e+00	2.760190e-05	
267	-3.30000e+00	2.760419e-05	
268	-0.000000e+00	0.000000e+00	
269	-5.00000e-02	3.018722e-06	
270	-1.00000e-01	5.933249e-06	
271	-1.50000e-01	8.743674e-06	
272	-2.00000e-01	1.145009e-05	
273	-2.50000e-01	1.405259e-05	
274	-3.00000e-01	1.655127e-05	
275	-3.50000e-01	1.894622e-05	
276	-4.00000e-01	2.123755e-05	
277	-4.50000e-01	2.342534e-05	
278	-5.00000e-01	2.550969e-05	
279	-5.50000e-01	2.749071e-05	
280	-6.00000e-01	2.936850e-05	
281	-6.50000e-01	3.114317e-05	
282	-7.00000e-01	3.281483e-05	
283	-7.50000e-01	3.438360e-05	
284	-8.00000e-01	3.584962e-05	
285	-8.50000e-01	3.721303e-05	
286	-9.00000e-01	3.847400e-05	

Index   v-sweep         i(vds)          
--------------------------------------------------------------------------------
287	-9.50000e-01	3.963274e-05	
288	-1.00000e+00	4.068950e-05	
289	-1.05000e+00	4.164461e-05	
290	-1.10000e+00	4.249853e-05	
291	-1.15000e+00	4.325193e-05	
292	-1.20000e+00	4.390583e-05	
293	-1.25000e+00	4.446180e-05	
294	-1.30000e+00	4.492246e-05	
295	-1.35000e+00	4.529201e-05	
296	-1.40000e+00	4.557724e-05	
297	-1.45000e+00	4.578826e-05	
298	-1.50000e+00	4.593845e-05	
299	-1.55000e+00	4.604285e-05	
300	-1.60000e+00	4.611542e-05	
301	-1.65000e+00	4.616705e-05	
302	-1.70000e+00	4.620523e-05	
303	-1.75000e+00	4.623472e-05	
304	-1.80000e+00	4.625845e-05	
305	-1.85000e+00	4.627824e-05	
306	-1.90000e+00	4.629522e-05	
307	-1.95000e+00	4.631012e-05	
308	-2.00000e+00	4.632345e-05	
309	-2.05000e+00	4.633554e-05	
310	-2.10000e+00	4.634663e-05	
311	-2.15000e+00	4.635690e-05	
312	-2.20000e+00	4.636648e-05	
313	-2.25000e+00	4.637547e-05	
314	-2.30000e+00	4.638394e-05	
315	-2.35000e+00	4.639198e-05	
316	-2.40000e+00	4.639962e-05	
317	-2.45000e+00	4.640691e-05	
318	-2.50000e+00	4.641388e-05	
319	-2.55000e+00	4.642057e-05	
320	-2.60000e+00	4.642700e-05	
321	-2.65000e+00	4.643319e-05	
322	-2.70000e+00	4.643916e-05	
323	-2.75000e+00	4.644493e-05	
324	-2.80000e+00	4.645052e-05	
325	-2.85000e+00	4.645593e-05	
326	-2.90000e+00	4.646118e-05	
327	-2.95000e+00	4.646628e-05	
328	-3.00000e+00	4.647124e-05	
329	-3.05000e+00	4.647607e-05	
330	-3.10000e+00	4.648077e-05	
331	-3.15000e+00	4.648535e-05	
332	-3.20000e+00	4.648983e-05	
333	-3.25000e+00	4.649420e-05	
334	-3.30000e+00	4.649847e-05	
335	-0.000000e+00	0.000000e+00	
336	-5.00000e-02	3.544298e-06	
337	-1.00000e-01	6.993153e-06	
338	-1.50000e-01	1.034664e-05	
339	-2.00000e-01	1.360485e-05	
340	-2.50000e-01	1.676785e-05	
341	-3.00000e-01	1.983573e-05	
342	-3.50000e-01	2.280856e-05	
343	-4.00000e-01	2.568642e-05	
344	-4.50000e-01	2.846940e-05	

Index   v-sweep         i(vds)          
--------------------------------------------------------------------------------
345	-5.00000e-01	3.115757e-05	
346	-5.50000e-01	3.375102e-05	
347	-6.00000e-01	3.624983e-05	
348	-6.50000e-01	3.865408e-05	
349	-7.00000e-01	4.096385e-05	
350	-7.50000e-01	4.317922e-05	
351	-8.00000e-01	4.530029e-05	
352	-8.50000e-01	4.732714e-05	
353	-9.00000e-01	4.925985e-05	
354	-9.50000e-01	5.109853e-05	
355	-1.00000e+00	5.284326e-05	
356	-1.05000e+00	5.449415e-05	
357	-1.10000e+00	5.605130e-05	
358	-1.15000e+00	5.751485e-05	
359	-1.20000e+00	5.888491e-05	
360	-1.25000e+00	6.016163e-05	
361	-1.30000e+00	6.134520e-05	
362	-1.35000e+00	6.243583e-05	
363	-1.40000e+00	6.343380e-05	
364	-1.45000e+00	6.433947e-05	
365	-1.50000e+00	6.515333e-05	
366	-1.55000e+00	6.587611e-05	
367	-1.60000e+00	6.650885e-05	
368	-1.65000e+00	6.705316e-05	
369	-1.70000e+00	6.751148e-05	
370	-1.75000e+00	6.788763e-05	
371	-1.80000e+00	6.818731e-05	
372	-1.85000e+00	6.841868e-05	
373	-1.90000e+00	6.859228e-05	
374	-1.95000e+00	6.872011e-05	
375	-2.00000e+00	6.881393e-05	
376	-2.05000e+00	6.888373e-05	
377	-2.10000e+00	6.893706e-05	
378	-2.15000e+00	6.897915e-05	
379	-2.20000e+00	6.901347e-05	
380	-2.25000e+00	6.904233e-05	
381	-2.30000e+00	6.906720e-05	
382	-2.35000e+00	6.908909e-05	
383	-2.40000e+00	6.910869e-05	
384	-2.45000e+00	6.912647e-05	
385	-2.50000e+00	6.914279e-05	
386	-2.55000e+00	6.915790e-05	
387	-2.60000e+00	6.917199e-05	
388	-2.65000e+00	6.918521e-05	
389	-2.70000e+00	6.919768e-05	
390	-2.75000e+00	6.920949e-05	
391	-2.80000e+00	6.922071e-05	
392	-2.85000e+00	6.923142e-05	
393	-2.90000e+00	6.924166e-05	
394	-2.95000e+00	6.925147e-05	
395	-3.00000e+00	6.926091e-05	
396	-3.05000e+00	6.926999e-05	
397	-3.10000e+00	6.927874e-05	
398	-3.15000e+00	6.928720e-05	
399	-3.20000e+00	6.929539e-05	
400	-3.25000e+00	6.930332e-05	
401	-3.30000e+00	6.931101e-05	
Note: No ".plot", ".print", or ".fourier" lines; no simulations run
