
Note: Compatibility modes selected: hs

Warning: m=xx on .subckt line will override multiplier m hierarchy!


Circuit: ***************************

Doing analysis at TEMP = -40.000000 and TNOM = -40.000000


No. of Data Rows : 402
                          ***************************
                          DC transfer characteristic  Mon Jan  9 13:57:29  2023
--------------------------------------------------------------------------------
Index   v-sweep         i(vds)          
--------------------------------------------------------------------------------
0	-0.000000e+00	0.000000e+00	
1	-5.00000e-02	4.272186e-07	
2	-1.00000e-01	4.988789e-07	
3	-1.50000e-01	5.225420e-07	
4	-2.00000e-01	5.403439e-07	
5	-2.50000e-01	5.566739e-07	
6	-3.00000e-01	5.724350e-07	
7	-3.50000e-01	5.879313e-07	
8	-4.00000e-01	6.033040e-07	
9	-4.50000e-01	6.186338e-07	
10	-5.00000e-01	6.339735e-07	
11	-5.50000e-01	6.493609e-07	
12	-6.00000e-01	6.648249e-07	
13	-6.50000e-01	6.803883e-07	
14	-7.00000e-01	6.960697e-07	
15	-7.50000e-01	7.118849e-07	
16	-8.00000e-01	7.278472e-07	
17	-8.50000e-01	7.439683e-07	
18	-9.00000e-01	7.602585e-07	
19	-9.50000e-01	7.767270e-07	
20	-1.00000e+00	7.933821e-07	
21	-1.05000e+00	8.102314e-07	
22	-1.10000e+00	8.272817e-07	
23	-1.15000e+00	8.445395e-07	
24	-1.20000e+00	8.620110e-07	
25	-1.25000e+00	8.797016e-07	
26	-1.30000e+00	8.976167e-07	
27	-1.35000e+00	9.157615e-07	
28	-1.40000e+00	9.341407e-07	
29	-1.45000e+00	9.527590e-07	
30	-1.50000e+00	9.716209e-07	
31	-1.55000e+00	9.907306e-07	
32	-1.60000e+00	1.010092e-06	
33	-1.65000e+00	1.029710e-06	
34	-1.70000e+00	1.049588e-06	
35	-1.75000e+00	1.069730e-06	
36	-1.80000e+00	1.090140e-06	
37	-1.85000e+00	1.110822e-06	
38	-1.90000e+00	1.131778e-06	
39	-1.95000e+00	1.153014e-06	
40	-2.00000e+00	1.174534e-06	
41	-2.05000e+00	1.196340e-06	
42	-2.10000e+00	1.218436e-06	
43	-2.15000e+00	1.240828e-06	
44	-2.20000e+00	1.263520e-06	
45	-2.25000e+00	1.286515e-06	
46	-2.30000e+00	1.309819e-06	
47	-2.35000e+00	1.333437e-06	
48	-2.40000e+00	1.357375e-06	
49	-2.45000e+00	1.381640e-06	
50	-2.50000e+00	1.406238e-06	
51	-2.55000e+00	1.431177e-06	
52	-2.60000e+00	1.456466e-06	
53	-2.65000e+00	1.482115e-06	
54	-2.70000e+00	1.508135e-06	

Index   v-sweep         i(vds)          
--------------------------------------------------------------------------------
55	-2.75000e+00	1.534539e-06	
56	-2.80000e+00	1.561340e-06	
57	-2.85000e+00	1.588554e-06	
58	-2.90000e+00	1.616199e-06	
59	-2.95000e+00	1.644295e-06	
60	-3.00000e+00	1.672862e-06	
61	-3.05000e+00	1.701927e-06	
62	-3.10000e+00	1.731516e-06	
63	-3.15000e+00	1.761659e-06	
64	-3.20000e+00	1.792390e-06	
65	-3.25000e+00	1.823746e-06	
66	-3.30000e+00	1.855767e-06	
67	-0.000000e+00	0.000000e+00	
68	-5.00000e-02	1.930077e-05	
69	-1.00000e-01	3.612571e-05	
70	-1.50000e-01	5.054219e-05	
71	-2.00000e-01	6.261898e-05	
72	-2.50000e-01	7.243098e-05	
73	-3.00000e-01	8.007172e-05	
74	-3.50000e-01	8.568653e-05	
75	-4.00000e-01	8.954493e-05	
76	-4.50000e-01	9.210679e-05	
77	-5.00000e-01	9.390386e-05	
78	-5.50000e-01	9.530996e-05	
79	-6.00000e-01	9.650880e-05	
80	-6.50000e-01	9.758192e-05	
81	-7.00000e-01	9.856851e-05	
82	-7.50000e-01	9.949011e-05	
83	-8.00000e-01	1.003602e-04	
84	-8.50000e-01	1.011879e-04	
85	-9.00000e-01	1.019798e-04	
86	-9.50000e-01	1.027412e-04	
87	-1.00000e+00	1.034761e-04	
88	-1.05000e+00	1.041876e-04	
89	-1.10000e+00	1.048785e-04	
90	-1.15000e+00	1.055509e-04	
91	-1.20000e+00	1.062069e-04	
92	-1.25000e+00	1.068480e-04	
93	-1.30000e+00	1.074756e-04	
94	-1.35000e+00	1.080910e-04	
95	-1.40000e+00	1.086951e-04	
96	-1.45000e+00	1.092890e-04	
97	-1.50000e+00	1.098734e-04	
98	-1.55000e+00	1.104492e-04	
99	-1.60000e+00	1.110168e-04	
100	-1.65000e+00	1.115771e-04	
101	-1.70000e+00	1.121304e-04	
102	-1.75000e+00	1.126772e-04	
103	-1.80000e+00	1.132181e-04	
104	-1.85000e+00	1.137534e-04	
105	-1.90000e+00	1.142834e-04	
106	-1.95000e+00	1.148085e-04	
107	-2.00000e+00	1.153290e-04	
108	-2.05000e+00	1.158451e-04	
109	-2.10000e+00	1.163572e-04	
110	-2.15000e+00	1.168655e-04	
111	-2.20000e+00	1.173702e-04	
112	-2.25000e+00	1.178715e-04	

Index   v-sweep         i(vds)          
--------------------------------------------------------------------------------
113	-2.30000e+00	1.183697e-04	
114	-2.35000e+00	1.188648e-04	
115	-2.40000e+00	1.193572e-04	
116	-2.45000e+00	1.198470e-04	
117	-2.50000e+00	1.203344e-04	
118	-2.55000e+00	1.208197e-04	
119	-2.60000e+00	1.213030e-04	
120	-2.65000e+00	1.217845e-04	
121	-2.70000e+00	1.222646e-04	
122	-2.75000e+00	1.227435e-04	
123	-2.80000e+00	1.232215e-04	
124	-2.85000e+00	1.236989e-04	
125	-2.90000e+00	1.241762e-04	
126	-2.95000e+00	1.246539e-04	
127	-3.00000e+00	1.251323e-04	
128	-3.05000e+00	1.256121e-04	
129	-3.10000e+00	1.260940e-04	
130	-3.15000e+00	1.265786e-04	
131	-3.20000e+00	1.270667e-04	
132	-3.25000e+00	1.275594e-04	
133	-3.30000e+00	1.280575e-04	
134	-0.000000e+00	0.000000e+00	
135	-5.00000e-02	3.593295e-05	
136	-1.00000e-01	6.938569e-05	
137	-1.50000e-01	1.004137e-04	
138	-2.00000e-01	1.290709e-04	
139	-2.50000e-01	1.554099e-04	
140	-3.00000e-01	1.794821e-04	
141	-3.50000e-01	2.013380e-04	
142	-4.00000e-01	2.210274e-04	
143	-4.50000e-01	2.386005e-04	
144	-5.00000e-01	2.541085e-04	
145	-5.50000e-01	2.676065e-04	
146	-6.00000e-01	2.791587e-04	
147	-6.50000e-01	2.888481e-04	
148	-7.00000e-01	2.967971e-04	
149	-7.50000e-01	3.031976e-04	
150	-8.00000e-01	3.083300e-04	
151	-8.50000e-01	3.125249e-04	
152	-9.00000e-01	3.160763e-04	
153	-9.50000e-01	3.191897e-04	
154	-1.00000e+00	3.219921e-04	
155	-1.05000e+00	3.245606e-04	
156	-1.10000e+00	3.269449e-04	
157	-1.15000e+00	3.291786e-04	
158	-1.20000e+00	3.312862e-04	
159	-1.25000e+00	3.332861e-04	
160	-1.30000e+00	3.351926e-04	
161	-1.35000e+00	3.370174e-04	
162	-1.40000e+00	3.387699e-04	
163	-1.45000e+00	3.404579e-04	
164	-1.50000e+00	3.420881e-04	
165	-1.55000e+00	3.436661e-04	
166	-1.60000e+00	3.451968e-04	
167	-1.65000e+00	3.466844e-04	
168	-1.70000e+00	3.481325e-04	
169	-1.75000e+00	3.495443e-04	
170	-1.80000e+00	3.509228e-04	

Index   v-sweep         i(vds)          
--------------------------------------------------------------------------------
171	-1.85000e+00	3.522704e-04	
172	-1.90000e+00	3.535894e-04	
173	-1.95000e+00	3.548818e-04	
174	-2.00000e+00	3.561494e-04	
175	-2.05000e+00	3.573939e-04	
176	-2.10000e+00	3.586167e-04	
177	-2.15000e+00	3.598192e-04	
178	-2.20000e+00	3.610027e-04	
179	-2.25000e+00	3.621682e-04	
180	-2.30000e+00	3.633168e-04	
181	-2.35000e+00	3.644495e-04	
182	-2.40000e+00	3.655670e-04	
183	-2.45000e+00	3.666704e-04	
184	-2.50000e+00	3.677602e-04	
185	-2.55000e+00	3.688372e-04	
186	-2.60000e+00	3.699021e-04	
187	-2.65000e+00	3.709555e-04	
188	-2.70000e+00	3.719980e-04	
189	-2.75000e+00	3.730304e-04	
190	-2.80000e+00	3.740530e-04	
191	-2.85000e+00	3.750667e-04	
192	-2.90000e+00	3.760720e-04	
193	-2.95000e+00	3.770695e-04	
194	-3.00000e+00	3.780600e-04	
195	-3.05000e+00	3.790443e-04	
196	-3.10000e+00	3.800233e-04	
197	-3.15000e+00	3.809978e-04	
198	-3.20000e+00	3.819689e-04	
199	-3.25000e+00	3.829378e-04	
200	-3.30000e+00	3.839059e-04	
201	-0.000000e+00	0.000000e+00	
202	-5.00000e-02	4.845578e-05	
203	-1.00000e-01	9.454730e-05	
204	-1.50000e-01	1.383207e-04	
205	-2.00000e-01	1.798211e-04	
206	-2.50000e-01	2.190923e-04	
207	-3.00000e-01	2.561772e-04	
208	-3.50000e-01	2.911175e-04	
209	-4.00000e-01	3.239541e-04	
210	-4.50000e-01	3.547268e-04	
211	-5.00000e-01	3.834748e-04	
212	-5.50000e-01	4.102363e-04	
213	-6.00000e-01	4.350490e-04	
214	-6.50000e-01	4.579503e-04	
215	-7.00000e-01	4.789772e-04	
216	-7.50000e-01	4.981674e-04	
217	-8.00000e-01	5.155597e-04	
218	-8.50000e-01	5.311955e-04	
219	-9.00000e-01	5.451223e-04	
220	-9.50000e-01	5.573981e-04	
221	-1.00000e+00	5.681012e-04	
222	-1.05000e+00	5.773438e-04	
223	-1.10000e+00	5.852857e-04	
224	-1.15000e+00	5.921330e-04	
225	-1.20000e+00	5.981094e-04	
226	-1.25000e+00	6.034155e-04	
227	-1.30000e+00	6.082061e-04	
228	-1.35000e+00	6.125921e-04	

Index   v-sweep         i(vds)          
--------------------------------------------------------------------------------
229	-1.40000e+00	6.166516e-04	
230	-1.45000e+00	6.204412e-04	
231	-1.50000e+00	6.240027e-04	
232	-1.55000e+00	6.273687e-04	
233	-1.60000e+00	6.305647e-04	
234	-1.65000e+00	6.336113e-04	
235	-1.70000e+00	6.365255e-04	
236	-1.75000e+00	6.393216e-04	
237	-1.80000e+00	6.420116e-04	
238	-1.85000e+00	6.446055e-04	
239	-1.90000e+00	6.471124e-04	
240	-1.95000e+00	6.495397e-04	
241	-2.00000e+00	6.518942e-04	
242	-2.05000e+00	6.541818e-04	
243	-2.10000e+00	6.564076e-04	
244	-2.15000e+00	6.585763e-04	
245	-2.20000e+00	6.606919e-04	
246	-2.25000e+00	6.627582e-04	
247	-2.30000e+00	6.647785e-04	
248	-2.35000e+00	6.667558e-04	
249	-2.40000e+00	6.686928e-04	
250	-2.45000e+00	6.705920e-04	
251	-2.50000e+00	6.724556e-04	
252	-2.55000e+00	6.742856e-04	
253	-2.60000e+00	6.760841e-04	
254	-2.65000e+00	6.778527e-04	
255	-2.70000e+00	6.795931e-04	
256	-2.75000e+00	6.813066e-04	
257	-2.80000e+00	6.829948e-04	
258	-2.85000e+00	6.846589e-04	
259	-2.90000e+00	6.863002e-04	
260	-2.95000e+00	6.879197e-04	
261	-3.00000e+00	6.895187e-04	
262	-3.05000e+00	6.910982e-04	
263	-3.10000e+00	6.926593e-04	
264	-3.15000e+00	6.942030e-04	
265	-3.20000e+00	6.957306e-04	
266	-3.25000e+00	6.972430e-04	
267	-3.30000e+00	6.987417e-04	
268	-0.000000e+00	0.000000e+00	
269	-5.00000e-02	5.800039e-05	
270	-1.00000e-01	1.137834e-04	
271	-1.50000e-01	1.673874e-04	
272	-2.00000e-01	2.188500e-04	
273	-2.50000e-01	2.682079e-04	
274	-3.00000e-01	3.154970e-04	
275	-3.50000e-01	3.607525e-04	
276	-4.00000e-01	4.040086e-04	
277	-4.50000e-01	4.452989e-04	
278	-5.00000e-01	4.846563e-04	
279	-5.50000e-01	5.221130e-04	
280	-6.00000e-01	5.577005e-04	
281	-6.50000e-01	5.914496e-04	
282	-7.00000e-01	6.233907e-04	
283	-7.50000e-01	6.535535e-04	
284	-8.00000e-01	6.819672e-04	
285	-8.50000e-01	7.086606e-04	
286	-9.00000e-01	7.336624e-04	

Index   v-sweep         i(vds)          
--------------------------------------------------------------------------------
287	-9.50000e-01	7.570008e-04	
288	-1.00000e+00	7.787044e-04	
289	-1.05000e+00	7.988020e-04	
290	-1.10000e+00	8.173238e-04	
291	-1.15000e+00	8.343021e-04	
292	-1.20000e+00	8.497731e-04	
293	-1.25000e+00	8.637804e-04	
294	-1.30000e+00	8.763802e-04	
295	-1.35000e+00	8.876486e-04	
296	-1.40000e+00	8.976899e-04	
297	-1.45000e+00	9.066394e-04	
298	-1.50000e+00	9.146540e-04	
299	-1.55000e+00	9.218915e-04	
300	-1.60000e+00	9.284917e-04	
301	-1.65000e+00	9.345679e-04	
302	-1.70000e+00	9.402080e-04	
303	-1.75000e+00	9.454799e-04	
304	-1.80000e+00	9.504368e-04	
305	-1.85000e+00	9.551205e-04	
306	-1.90000e+00	9.595652e-04	
307	-1.95000e+00	9.637986e-04	
308	-2.00000e+00	9.678439e-04	
309	-2.05000e+00	9.717207e-04	
310	-2.10000e+00	9.754455e-04	
311	-2.15000e+00	9.790327e-04	
312	-2.20000e+00	9.824945e-04	
313	-2.25000e+00	9.858416e-04	
314	-2.30000e+00	9.890835e-04	
315	-2.35000e+00	9.922286e-04	
316	-2.40000e+00	9.952840e-04	
317	-2.45000e+00	9.982565e-04	
318	-2.50000e+00	1.001152e-03	
319	-2.55000e+00	1.003975e-03	
320	-2.60000e+00	1.006732e-03	
321	-2.65000e+00	1.009425e-03	
322	-2.70000e+00	1.012060e-03	
323	-2.75000e+00	1.014639e-03	
324	-2.80000e+00	1.017166e-03	
325	-2.85000e+00	1.019644e-03	
326	-2.90000e+00	1.022076e-03	
327	-2.95000e+00	1.024464e-03	
328	-3.00000e+00	1.026810e-03	
329	-3.05000e+00	1.029116e-03	
330	-3.10000e+00	1.031386e-03	
331	-3.15000e+00	1.033619e-03	
332	-3.20000e+00	1.035819e-03	
333	-3.25000e+00	1.037987e-03	
334	-3.30000e+00	1.040124e-03	
335	-0.000000e+00	0.000000e+00	
336	-5.00000e-02	6.535444e-05	
337	-1.00000e-01	1.286433e-04	
338	-1.50000e-01	1.898986e-04	
339	-2.00000e-01	2.491520e-04	
340	-2.50000e-01	3.064341e-04	
341	-3.00000e-01	3.617752e-04	
342	-3.50000e-01	4.152049e-04	
343	-4.00000e-01	4.667521e-04	
344	-4.50000e-01	5.164454e-04	

Index   v-sweep         i(vds)          
--------------------------------------------------------------------------------
345	-5.00000e-01	5.643124e-04	
346	-5.50000e-01	6.103807e-04	
347	-6.00000e-01	6.546768e-04	
348	-6.50000e-01	6.972272e-04	
349	-7.00000e-01	7.380575e-04	
350	-7.50000e-01	7.771931e-04	
351	-8.00000e-01	8.146588e-04	
352	-8.50000e-01	8.504789e-04	
353	-9.00000e-01	8.846774e-04	
354	-9.50000e-01	9.172779e-04	
355	-1.00000e+00	9.483036e-04	
356	-1.05000e+00	9.777772e-04	
357	-1.10000e+00	1.005721e-03	
358	-1.15000e+00	1.032158e-03	
359	-1.20000e+00	1.057110e-03	
360	-1.25000e+00	1.080599e-03	
361	-1.30000e+00	1.102648e-03	
362	-1.35000e+00	1.123279e-03	
363	-1.40000e+00	1.142516e-03	
364	-1.45000e+00	1.160384e-03	
365	-1.50000e+00	1.176913e-03	
366	-1.55000e+00	1.192136e-03	
367	-1.60000e+00	1.206094e-03	
368	-1.65000e+00	1.218844e-03	
369	-1.70000e+00	1.230459e-03	
370	-1.75000e+00	1.241031e-03	
371	-1.80000e+00	1.250674e-03	
372	-1.85000e+00	1.259507e-03	
373	-1.90000e+00	1.267644e-03	
374	-1.95000e+00	1.275188e-03	
375	-2.00000e+00	1.282224e-03	
376	-2.05000e+00	1.288823e-03	
377	-2.10000e+00	1.295040e-03	
378	-2.15000e+00	1.300925e-03	
379	-2.20000e+00	1.306514e-03	
380	-2.25000e+00	1.311842e-03	
381	-2.30000e+00	1.316935e-03	
382	-2.35000e+00	1.321816e-03	
383	-2.40000e+00	1.326506e-03	
384	-2.45000e+00	1.331022e-03	
385	-2.50000e+00	1.335379e-03	
386	-2.55000e+00	1.339591e-03	
387	-2.60000e+00	1.343668e-03	
388	-2.65000e+00	1.347621e-03	
389	-2.70000e+00	1.351460e-03	
390	-2.75000e+00	1.355192e-03	
391	-2.80000e+00	1.358825e-03	
392	-2.85000e+00	1.362366e-03	
393	-2.90000e+00	1.365820e-03	
394	-2.95000e+00	1.369192e-03	
395	-3.00000e+00	1.372489e-03	
396	-3.05000e+00	1.375714e-03	
397	-3.10000e+00	1.378871e-03	
398	-3.15000e+00	1.381965e-03	
399	-3.20000e+00	1.384998e-03	
400	-3.25000e+00	1.387974e-03	
401	-3.30000e+00	1.390896e-03	
Note: No ".plot", ".print", or ".fourier" lines; no simulations run
