
Note: Compatibility modes selected: hs

Warning: m=xx on .subckt line will override multiplier m hierarchy!


Circuit: ***************************

Doing analysis at TEMP = 125.000000 and TNOM = 125.000000


No. of Data Rows : 402
                          ***************************
                          DC transfer characteristic  Mon Jan  9 13:57:29  2023
--------------------------------------------------------------------------------
Index   v-sweep         i(vds)          
--------------------------------------------------------------------------------
0	-0.000000e+00	0.000000e+00	
1	-5.00000e-02	1.902282e-07	
2	-1.00000e-01	3.173556e-07	
3	-1.50000e-01	3.885457e-07	
4	-2.00000e-01	4.180987e-07	
5	-2.50000e-01	4.282980e-07	
6	-3.00000e-01	4.328045e-07	
7	-3.50000e-01	4.356750e-07	
8	-4.00000e-01	4.379408e-07	
9	-4.50000e-01	4.399149e-07	
10	-5.00000e-01	4.417156e-07	
11	-5.50000e-01	4.433966e-07	
12	-6.00000e-01	4.449868e-07	
13	-6.50000e-01	4.465035e-07	
14	-7.00000e-01	4.479580e-07	
15	-7.50000e-01	4.493588e-07	
16	-8.00000e-01	4.507120e-07	
17	-8.50000e-01	4.520225e-07	
18	-9.00000e-01	4.532946e-07	
19	-9.50000e-01	4.545315e-07	
20	-1.00000e+00	4.557363e-07	
21	-1.05000e+00	4.569113e-07	
22	-1.10000e+00	4.580589e-07	
23	-1.15000e+00	4.591809e-07	
24	-1.20000e+00	4.602791e-07	
25	-1.25000e+00	4.613551e-07	
26	-1.30000e+00	4.624103e-07	
27	-1.35000e+00	4.634459e-07	
28	-1.40000e+00	4.644630e-07	
29	-1.45000e+00	4.654628e-07	
30	-1.50000e+00	4.664463e-07	
31	-1.55000e+00	4.674142e-07	
32	-1.60000e+00	4.683674e-07	
33	-1.65000e+00	4.693066e-07	
34	-1.70000e+00	4.702327e-07	
35	-1.75000e+00	4.711461e-07	
36	-1.80000e+00	4.720475e-07	
37	-1.85000e+00	4.729375e-07	
38	-1.90000e+00	4.738166e-07	
39	-1.95000e+00	4.746854e-07	
40	-2.00000e+00	4.755441e-07	
41	-2.05000e+00	4.763935e-07	
42	-2.10000e+00	4.772338e-07	
43	-2.15000e+00	4.780655e-07	
44	-2.20000e+00	4.788890e-07	
45	-2.25000e+00	4.797048e-07	
46	-2.30000e+00	4.805134e-07	
47	-2.35000e+00	4.813153e-07	
48	-2.40000e+00	4.821108e-07	
49	-2.45000e+00	4.829007e-07	
50	-2.50000e+00	4.836856e-07	
51	-2.55000e+00	4.844661e-07	
52	-2.60000e+00	4.852430e-07	
53	-2.65000e+00	4.860173e-07	
54	-2.70000e+00	4.867899e-07	

Index   v-sweep         i(vds)          
--------------------------------------------------------------------------------
55	-2.75000e+00	4.875621e-07	
56	-2.80000e+00	4.883351e-07	
57	-2.85000e+00	4.891104e-07	
58	-2.90000e+00	4.898896e-07	
59	-2.95000e+00	4.906748e-07	
60	-3.00000e+00	4.914679e-07	
61	-3.05000e+00	4.922713e-07	
62	-3.10000e+00	4.930877e-07	
63	-3.15000e+00	4.939199e-07	
64	-3.20000e+00	4.947712e-07	
65	-3.25000e+00	4.956451e-07	
66	-3.30000e+00	4.965455e-07	
67	-0.000000e+00	0.000000e+00	
68	-5.00000e-02	8.104224e-07	
69	-1.00000e-01	1.542101e-06	
70	-1.50000e-01	2.198427e-06	
71	-2.00000e-01	2.780700e-06	
72	-2.50000e-01	3.289771e-06	
73	-3.00000e-01	3.726458e-06	
74	-3.50000e-01	4.091732e-06	
75	-4.00000e-01	4.386949e-06	
76	-4.50000e-01	4.614386e-06	
77	-5.00000e-01	4.778423e-06	
78	-5.50000e-01	4.887628e-06	
79	-6.00000e-01	4.956009e-06	
80	-6.50000e-01	4.999507e-06	
81	-7.00000e-01	5.030031e-06	
82	-7.50000e-01	5.054009e-06	
83	-8.00000e-01	5.074429e-06	
84	-8.50000e-01	5.092675e-06	
85	-9.00000e-01	5.109433e-06	
86	-9.50000e-01	5.125075e-06	
87	-1.00000e+00	5.139826e-06	
88	-1.05000e+00	5.153834e-06	
89	-1.10000e+00	5.167203e-06	
90	-1.15000e+00	5.180008e-06	
91	-1.20000e+00	5.192312e-06	
92	-1.25000e+00	5.204162e-06	
93	-1.30000e+00	5.215600e-06	
94	-1.35000e+00	5.226659e-06	
95	-1.40000e+00	5.237370e-06	
96	-1.45000e+00	5.247758e-06	
97	-1.50000e+00	5.257847e-06	
98	-1.55000e+00	5.267655e-06	
99	-1.60000e+00	5.277202e-06	
100	-1.65000e+00	5.286504e-06	
101	-1.70000e+00	5.295576e-06	
102	-1.75000e+00	5.304431e-06	
103	-1.80000e+00	5.313080e-06	
104	-1.85000e+00	5.321537e-06	
105	-1.90000e+00	5.329810e-06	
106	-1.95000e+00	5.337910e-06	
107	-2.00000e+00	5.345844e-06	
108	-2.05000e+00	5.353622e-06	
109	-2.10000e+00	5.361250e-06	
110	-2.15000e+00	5.368735e-06	
111	-2.20000e+00	5.376085e-06	
112	-2.25000e+00	5.383305e-06	

Index   v-sweep         i(vds)          
--------------------------------------------------------------------------------
113	-2.30000e+00	5.390401e-06	
114	-2.35000e+00	5.397379e-06	
115	-2.40000e+00	5.404243e-06	
116	-2.45000e+00	5.410999e-06	
117	-2.50000e+00	5.417651e-06	
118	-2.55000e+00	5.424205e-06	
119	-2.60000e+00	5.430665e-06	
120	-2.65000e+00	5.437037e-06	
121	-2.70000e+00	5.443324e-06	
122	-2.75000e+00	5.449534e-06	
123	-2.80000e+00	5.455672e-06	
124	-2.85000e+00	5.461745e-06	
125	-2.90000e+00	5.467759e-06	
126	-2.95000e+00	5.473723e-06	
127	-3.00000e+00	5.479646e-06	
128	-3.05000e+00	5.485539e-06	
129	-3.10000e+00	5.491413e-06	
130	-3.15000e+00	5.497282e-06	
131	-3.20000e+00	5.503160e-06	
132	-3.25000e+00	5.509066e-06	
133	-3.30000e+00	5.515018e-06	
134	-0.000000e+00	0.000000e+00	
135	-5.00000e-02	1.365759e-06	
136	-1.00000e-01	2.653227e-06	
137	-1.50000e-01	3.865711e-06	
138	-2.00000e-01	5.004406e-06	
139	-2.50000e-01	6.070013e-06	
140	-3.00000e-01	7.063119e-06	
141	-3.50000e-01	7.984284e-06	
142	-4.00000e-01	8.834065e-06	
143	-4.50000e-01	9.613026e-06	
144	-5.00000e-01	1.032175e-05	
145	-5.50000e-01	1.096083e-05	
146	-6.00000e-01	1.153095e-05	
147	-6.50000e-01	1.203285e-05	
148	-7.00000e-01	1.246746e-05	
149	-7.50000e-01	1.283606e-05	
150	-8.00000e-01	1.314055e-05	
151	-8.50000e-01	1.338409e-05	
152	-9.00000e-01	1.357198e-05	
153	-9.50000e-01	1.371262e-05	
154	-1.00000e+00	1.381715e-05	
155	-1.05000e+00	1.389711e-05	
156	-1.10000e+00	1.396161e-05	
157	-1.15000e+00	1.401655e-05	
158	-1.20000e+00	1.406529e-05	
159	-1.25000e+00	1.410974e-05	
160	-1.30000e+00	1.415100e-05	
161	-1.35000e+00	1.418973e-05	
162	-1.40000e+00	1.422638e-05	
163	-1.45000e+00	1.426125e-05	
164	-1.50000e+00	1.429456e-05	
165	-1.55000e+00	1.432649e-05	
166	-1.60000e+00	1.435717e-05	
167	-1.65000e+00	1.438673e-05	
168	-1.70000e+00	1.441525e-05	
169	-1.75000e+00	1.444282e-05	
170	-1.80000e+00	1.446951e-05	

Index   v-sweep         i(vds)          
--------------------------------------------------------------------------------
171	-1.85000e+00	1.449538e-05	
172	-1.90000e+00	1.452049e-05	
173	-1.95000e+00	1.454489e-05	
174	-2.00000e+00	1.456862e-05	
175	-2.05000e+00	1.459172e-05	
176	-2.10000e+00	1.461423e-05	
177	-2.15000e+00	1.463619e-05	
178	-2.20000e+00	1.465762e-05	
179	-2.25000e+00	1.467855e-05	
180	-2.30000e+00	1.469901e-05	
181	-2.35000e+00	1.471901e-05	
182	-2.40000e+00	1.473860e-05	
183	-2.45000e+00	1.475777e-05	
184	-2.50000e+00	1.477656e-05	
185	-2.55000e+00	1.479497e-05	
186	-2.60000e+00	1.481304e-05	
187	-2.65000e+00	1.483076e-05	
188	-2.70000e+00	1.484816e-05	
189	-2.75000e+00	1.486525e-05	
190	-2.80000e+00	1.488205e-05	
191	-2.85000e+00	1.489856e-05	
192	-2.90000e+00	1.491481e-05	
193	-2.95000e+00	1.493079e-05	
194	-3.00000e+00	1.494654e-05	
195	-3.05000e+00	1.496205e-05	
196	-3.10000e+00	1.497734e-05	
197	-3.15000e+00	1.499243e-05	
198	-3.20000e+00	1.500733e-05	
199	-3.25000e+00	1.502207e-05	
200	-3.30000e+00	1.503666e-05	
201	-0.000000e+00	0.000000e+00	
202	-5.00000e-02	1.853924e-06	
203	-1.00000e-01	3.631747e-06	
204	-1.50000e-01	5.336722e-06	
205	-2.00000e-01	6.969989e-06	
206	-2.50000e-01	8.532193e-06	
207	-3.00000e-01	1.002386e-05	
208	-3.50000e-01	1.144549e-05	
209	-4.00000e-01	1.279756e-05	
210	-4.50000e-01	1.408057e-05	
211	-5.00000e-01	1.529498e-05	
212	-5.50000e-01	1.644128e-05	
213	-6.00000e-01	1.751995e-05	
214	-6.50000e-01	1.853146e-05	
215	-7.00000e-01	1.947630e-05	
216	-7.50000e-01	2.035495e-05	
217	-8.00000e-01	2.116791e-05	
218	-8.50000e-01	2.191570e-05	
219	-9.00000e-01	2.259887e-05	
220	-9.50000e-01	2.321801e-05	
221	-1.00000e+00	2.377381e-05	
222	-1.05000e+00	2.426712e-05	
223	-1.10000e+00	2.469904e-05	
224	-1.15000e+00	2.507112e-05	
225	-1.20000e+00	2.538570e-05	
226	-1.25000e+00	2.564644e-05	
227	-1.30000e+00	2.585882e-05	
228	-1.35000e+00	2.603043e-05	

Index   v-sweep         i(vds)          
--------------------------------------------------------------------------------
229	-1.40000e+00	2.617024e-05	
230	-1.45000e+00	2.628696e-05	
231	-1.50000e+00	2.638760e-05	
232	-1.55000e+00	2.647706e-05	
233	-1.60000e+00	2.655849e-05	
234	-1.65000e+00	2.663388e-05	
235	-1.70000e+00	2.670448e-05	
236	-1.75000e+00	2.677115e-05	
237	-1.80000e+00	2.683448e-05	
238	-1.85000e+00	2.689490e-05	
239	-1.90000e+00	2.695275e-05	
240	-1.95000e+00	2.700829e-05	
241	-2.00000e+00	2.706172e-05	
242	-2.05000e+00	2.711325e-05	
243	-2.10000e+00	2.716301e-05	
244	-2.15000e+00	2.721114e-05	
245	-2.20000e+00	2.725777e-05	
246	-2.25000e+00	2.730298e-05	
247	-2.30000e+00	2.734688e-05	
248	-2.35000e+00	2.738955e-05	
249	-2.40000e+00	2.743106e-05	
250	-2.45000e+00	2.747148e-05	
251	-2.50000e+00	2.751087e-05	
252	-2.55000e+00	2.754928e-05	
253	-2.60000e+00	2.758678e-05	
254	-2.65000e+00	2.762340e-05	
255	-2.70000e+00	2.765919e-05	
256	-2.75000e+00	2.769419e-05	
257	-2.80000e+00	2.772844e-05	
258	-2.85000e+00	2.776198e-05	
259	-2.90000e+00	2.779483e-05	
260	-2.95000e+00	2.782703e-05	
261	-3.00000e+00	2.785860e-05	
262	-3.05000e+00	2.788958e-05	
263	-3.10000e+00	2.791998e-05	
264	-3.15000e+00	2.794983e-05	
265	-3.20000e+00	2.797916e-05	
266	-3.25000e+00	2.800799e-05	
267	-3.30000e+00	2.803635e-05	
268	-0.000000e+00	0.000000e+00	
269	-5.00000e-02	2.289854e-06	
270	-1.00000e-01	4.506078e-06	
271	-1.50000e-01	6.651882e-06	
272	-2.00000e-01	8.728360e-06	
273	-2.50000e-01	1.073611e-05	
274	-3.00000e-01	1.267563e-05	
275	-3.50000e-01	1.454735e-05	
276	-4.00000e-01	1.635173e-05	
277	-4.50000e-01	1.808920e-05	
278	-5.00000e-01	1.976020e-05	
279	-5.50000e-01	2.136516e-05	
280	-6.00000e-01	2.290450e-05	
281	-6.50000e-01	2.437866e-05	
282	-7.00000e-01	2.578804e-05	
283	-7.50000e-01	2.713309e-05	
284	-8.00000e-01	2.841421e-05	
285	-8.50000e-01	2.963182e-05	
286	-9.00000e-01	3.078633e-05	

Index   v-sweep         i(vds)          
--------------------------------------------------------------------------------
287	-9.50000e-01	3.187817e-05	
288	-1.00000e+00	3.290776e-05	
289	-1.05000e+00	3.387551e-05	
290	-1.10000e+00	3.478186e-05	
291	-1.15000e+00	3.562725e-05	
292	-1.20000e+00	3.641214e-05	
293	-1.25000e+00	3.713702e-05	
294	-1.30000e+00	3.780244e-05	
295	-1.35000e+00	3.840900e-05	
296	-1.40000e+00	3.895745e-05	
297	-1.45000e+00	3.944871e-05	
298	-1.50000e+00	3.988407e-05	
299	-1.55000e+00	4.026530e-05	
300	-1.60000e+00	4.059505e-05	
301	-1.65000e+00	4.087715e-05	
302	-1.70000e+00	4.111688e-05	
303	-1.75000e+00	4.132089e-05	
304	-1.80000e+00	4.149642e-05	
305	-1.85000e+00	4.165024e-05	
306	-1.90000e+00	4.178787e-05	
307	-1.95000e+00	4.191334e-05	
308	-2.00000e+00	4.202944e-05	
309	-2.05000e+00	4.213807e-05	
310	-2.10000e+00	4.224053e-05	
311	-2.15000e+00	4.233777e-05	
312	-2.20000e+00	4.243047e-05	
313	-2.25000e+00	4.251915e-05	
314	-2.30000e+00	4.260424e-05	
315	-2.35000e+00	4.268607e-05	
316	-2.40000e+00	4.276492e-05	
317	-2.45000e+00	4.284105e-05	
318	-2.50000e+00	4.291465e-05	
319	-2.55000e+00	4.298591e-05	
320	-2.60000e+00	4.305499e-05	
321	-2.65000e+00	4.312203e-05	
322	-2.70000e+00	4.318716e-05	
323	-2.75000e+00	4.325050e-05	
324	-2.80000e+00	4.331215e-05	
325	-2.85000e+00	4.337220e-05	
326	-2.90000e+00	4.343075e-05	
327	-2.95000e+00	4.348787e-05	
328	-3.00000e+00	4.354363e-05	
329	-3.05000e+00	4.359812e-05	
330	-3.10000e+00	4.365137e-05	
331	-3.15000e+00	4.370347e-05	
332	-3.20000e+00	4.375446e-05	
333	-3.25000e+00	4.380438e-05	
334	-3.30000e+00	4.385330e-05	
335	-0.000000e+00	0.000000e+00	
336	-5.00000e-02	2.685182e-06	
337	-1.00000e-01	5.299136e-06	
338	-1.50000e-01	7.845032e-06	
339	-2.00000e-01	1.032393e-05	
340	-2.50000e-01	1.273639e-05	
341	-3.00000e-01	1.508287e-05	
342	-3.50000e-01	1.736378e-05	
343	-4.00000e-01	1.957952e-05	
344	-4.50000e-01	2.173051e-05	

Index   v-sweep         i(vds)          
--------------------------------------------------------------------------------
345	-5.00000e-01	2.381714e-05	
346	-5.50000e-01	2.583980e-05	
347	-6.00000e-01	2.779890e-05	
348	-6.50000e-01	2.969482e-05	
349	-7.00000e-01	3.152795e-05	
350	-7.50000e-01	3.329867e-05	
351	-8.00000e-01	3.500736e-05	
352	-8.50000e-01	3.665441e-05	
353	-9.00000e-01	3.824020e-05	
354	-9.50000e-01	3.976508e-05	
355	-1.00000e+00	4.122945e-05	
356	-1.05000e+00	4.263367e-05	
357	-1.10000e+00	4.397810e-05	
358	-1.15000e+00	4.526312e-05	
359	-1.20000e+00	4.648909e-05	
360	-1.25000e+00	4.765638e-05	
361	-1.30000e+00	4.876536e-05	
362	-1.35000e+00	4.981640e-05	
363	-1.40000e+00	5.080987e-05	
364	-1.45000e+00	5.174616e-05	
365	-1.50000e+00	5.262567e-05	
366	-1.55000e+00	5.344880e-05	
367	-1.60000e+00	5.421600e-05	
368	-1.65000e+00	5.492774e-05	
369	-1.70000e+00	5.558457e-05	
370	-1.75000e+00	5.618713e-05	
371	-1.80000e+00	5.673621e-05	
372	-1.85000e+00	5.723284e-05	
373	-1.90000e+00	5.767843e-05	
374	-1.95000e+00	5.807494e-05	
375	-2.00000e+00	5.842513e-05	
376	-2.05000e+00	5.873278e-05	
377	-2.10000e+00	5.900278e-05	
378	-2.15000e+00	5.924083e-05	
379	-2.20000e+00	5.945281e-05	
380	-2.25000e+00	5.964413e-05	
381	-2.30000e+00	5.981920e-05	
382	-2.35000e+00	5.998137e-05	
383	-2.40000e+00	6.013311e-05	
384	-2.45000e+00	6.027618e-05	
385	-2.50000e+00	6.041189e-05	
386	-2.55000e+00	6.054119e-05	
387	-2.60000e+00	6.066483e-05	
388	-2.65000e+00	6.078341e-05	
389	-2.70000e+00	6.089741e-05	
390	-2.75000e+00	6.100724e-05	
391	-2.80000e+00	6.111322e-05	
392	-2.85000e+00	6.121566e-05	
393	-2.90000e+00	6.131481e-05	
394	-2.95000e+00	6.141089e-05	
395	-3.00000e+00	6.150412e-05	
396	-3.05000e+00	6.159467e-05	
397	-3.10000e+00	6.168269e-05	
398	-3.15000e+00	6.176835e-05	
399	-3.20000e+00	6.185177e-05	
400	-3.25000e+00	6.193308e-05	
401	-3.30000e+00	6.201238e-05	
Note: No ".plot", ".print", or ".fourier" lines; no simulations run
