
Note: Compatibility modes selected: hs

Warning: m=xx on .subckt line will override multiplier m hierarchy!


Circuit: ***************************

Doing analysis at TEMP = 125.000000 and TNOM = 125.000000


No. of Data Rows : 402
                          ***************************
                          DC transfer characteristic  Mon Jan  9 13:57:30  2023
--------------------------------------------------------------------------------
Index   v-sweep         i(vds)          
--------------------------------------------------------------------------------
0	-0.000000e+00	0.000000e+00	
1	-5.00000e-02	9.766074e-08	
2	-1.00000e-01	1.644663e-07	
3	-1.50000e-01	2.034773e-07	
4	-2.00000e-01	2.207587e-07	
5	-2.50000e-01	2.269271e-07	
6	-3.00000e-01	2.295825e-07	
7	-3.50000e-01	2.312295e-07	
8	-4.00000e-01	2.325153e-07	
9	-4.50000e-01	2.336321e-07	
10	-5.00000e-01	2.346507e-07	
11	-5.50000e-01	2.356023e-07	
12	-6.00000e-01	2.365034e-07	
13	-6.50000e-01	2.373636e-07	
14	-7.00000e-01	2.381893e-07	
15	-7.50000e-01	2.389850e-07	
16	-8.00000e-01	2.397540e-07	
17	-8.50000e-01	2.404991e-07	
18	-9.00000e-01	2.412225e-07	
19	-9.50000e-01	2.419260e-07	
20	-1.00000e+00	2.426113e-07	
21	-1.05000e+00	2.432796e-07	
22	-1.10000e+00	2.439323e-07	
23	-1.15000e+00	2.445704e-07	
24	-1.20000e+00	2.451948e-07	
25	-1.25000e+00	2.458064e-07	
26	-1.30000e+00	2.464060e-07	
27	-1.35000e+00	2.469943e-07	
28	-1.40000e+00	2.475720e-07	
29	-1.45000e+00	2.481396e-07	
30	-1.50000e+00	2.486976e-07	
31	-1.55000e+00	2.492466e-07	
32	-1.60000e+00	2.497871e-07	
33	-1.65000e+00	2.503193e-07	
34	-1.70000e+00	2.508439e-07	
35	-1.75000e+00	2.513611e-07	
36	-1.80000e+00	2.518712e-07	
37	-1.85000e+00	2.523746e-07	
38	-1.90000e+00	2.528716e-07	
39	-1.95000e+00	2.533624e-07	
40	-2.00000e+00	2.538474e-07	
41	-2.05000e+00	2.543268e-07	
42	-2.10000e+00	2.548008e-07	
43	-2.15000e+00	2.552697e-07	
44	-2.20000e+00	2.557338e-07	
45	-2.25000e+00	2.561932e-07	
46	-2.30000e+00	2.566482e-07	
47	-2.35000e+00	2.570991e-07	
48	-2.40000e+00	2.575462e-07	
49	-2.45000e+00	2.579897e-07	
50	-2.50000e+00	2.584300e-07	
51	-2.55000e+00	2.588675e-07	
52	-2.60000e+00	2.593024e-07	
53	-2.65000e+00	2.597354e-07	
54	-2.70000e+00	2.601668e-07	

Index   v-sweep         i(vds)          
--------------------------------------------------------------------------------
55	-2.75000e+00	2.605973e-07	
56	-2.80000e+00	2.610276e-07	
57	-2.85000e+00	2.614582e-07	
58	-2.90000e+00	2.618902e-07	
59	-2.95000e+00	2.623244e-07	
60	-3.00000e+00	2.627618e-07	
61	-3.05000e+00	2.632036e-07	
62	-3.10000e+00	2.636512e-07	
63	-3.15000e+00	2.641059e-07	
64	-3.20000e+00	2.645694e-07	
65	-3.25000e+00	2.650434e-07	
66	-3.30000e+00	2.655298e-07	
67	-0.000000e+00	0.000000e+00	
68	-5.00000e-02	4.066622e-07	
69	-1.00000e-01	7.741531e-07	
70	-1.50000e-01	1.104018e-06	
71	-2.00000e-01	1.396884e-06	
72	-2.50000e-01	1.653180e-06	
73	-3.00000e-01	1.873325e-06	
74	-3.50000e-01	2.057813e-06	
75	-4.00000e-01	2.207326e-06	
76	-4.50000e-01	2.322983e-06	
77	-5.00000e-01	2.406922e-06	
78	-5.50000e-01	2.463311e-06	
79	-6.00000e-01	2.499024e-06	
80	-6.50000e-01	2.522013e-06	
81	-7.00000e-01	2.538322e-06	
82	-7.50000e-01	2.551251e-06	
83	-8.00000e-01	2.562339e-06	
84	-8.50000e-01	2.572300e-06	
85	-9.00000e-01	2.581486e-06	
86	-9.50000e-01	2.590087e-06	
87	-1.00000e+00	2.598219e-06	
88	-1.05000e+00	2.605957e-06	
89	-1.10000e+00	2.613354e-06	
90	-1.15000e+00	2.620449e-06	
91	-1.20000e+00	2.627275e-06	
92	-1.25000e+00	2.633856e-06	
93	-1.30000e+00	2.640213e-06	
94	-1.35000e+00	2.646364e-06	
95	-1.40000e+00	2.652326e-06	
96	-1.45000e+00	2.658111e-06	
97	-1.50000e+00	2.663731e-06	
98	-1.55000e+00	2.669198e-06	
99	-1.60000e+00	2.674521e-06	
100	-1.65000e+00	2.679709e-06	
101	-1.70000e+00	2.684770e-06	
102	-1.75000e+00	2.689710e-06	
103	-1.80000e+00	2.694537e-06	
104	-1.85000e+00	2.699257e-06	
105	-1.90000e+00	2.703874e-06	
106	-1.95000e+00	2.708395e-06	
107	-2.00000e+00	2.712824e-06	
108	-2.05000e+00	2.717165e-06	
109	-2.10000e+00	2.721423e-06	
110	-2.15000e+00	2.725601e-06	
111	-2.20000e+00	2.729703e-06	
112	-2.25000e+00	2.733732e-06	

Index   v-sweep         i(vds)          
--------------------------------------------------------------------------------
113	-2.30000e+00	2.737692e-06	
114	-2.35000e+00	2.741585e-06	
115	-2.40000e+00	2.745414e-06	
116	-2.45000e+00	2.749182e-06	
117	-2.50000e+00	2.752891e-06	
118	-2.55000e+00	2.756545e-06	
119	-2.60000e+00	2.760146e-06	
120	-2.65000e+00	2.763696e-06	
121	-2.70000e+00	2.767198e-06	
122	-2.75000e+00	2.770655e-06	
123	-2.80000e+00	2.774070e-06	
124	-2.85000e+00	2.777446e-06	
125	-2.90000e+00	2.780787e-06	
126	-2.95000e+00	2.784097e-06	
127	-3.00000e+00	2.787380e-06	
128	-3.05000e+00	2.790642e-06	
129	-3.10000e+00	2.793888e-06	
130	-3.15000e+00	2.797124e-06	
131	-3.20000e+00	2.800358e-06	
132	-3.25000e+00	2.803598e-06	
133	-3.30000e+00	2.806854e-06	
134	-0.000000e+00	0.000000e+00	
135	-5.00000e-02	6.974778e-07	
136	-1.00000e-01	1.354726e-06	
137	-1.50000e-01	1.973266e-06	
138	-2.00000e-01	2.553686e-06	
139	-2.50000e-01	3.096359e-06	
140	-3.00000e-01	3.601608e-06	
141	-3.50000e-01	4.069741e-06	
142	-4.00000e-01	4.501067e-06	
143	-4.50000e-01	4.895899e-06	
144	-5.00000e-01	5.254558e-06	
145	-5.50000e-01	5.577379e-06	
146	-6.00000e-01	5.864732e-06	
147	-6.50000e-01	6.117035e-06	
148	-7.00000e-01	6.334815e-06	
149	-7.50000e-01	6.518793e-06	
150	-8.00000e-01	6.670073e-06	
151	-8.50000e-01	6.790484e-06	
152	-9.00000e-01	6.883091e-06	
153	-9.50000e-01	6.952596e-06	
154	-1.00000e+00	7.004933e-06	
155	-1.05000e+00	7.045856e-06	
156	-1.10000e+00	7.079663e-06	
157	-1.15000e+00	7.109017e-06	
158	-1.20000e+00	7.135428e-06	
159	-1.25000e+00	7.159743e-06	
160	-1.30000e+00	7.182458e-06	
161	-1.35000e+00	7.203883e-06	
162	-1.40000e+00	7.224225e-06	
163	-1.45000e+00	7.243630e-06	
164	-1.50000e+00	7.262208e-06	
165	-1.55000e+00	7.280045e-06	
166	-1.60000e+00	7.297212e-06	
167	-1.65000e+00	7.313766e-06	
168	-1.70000e+00	7.329758e-06	
169	-1.75000e+00	7.345230e-06	
170	-1.80000e+00	7.360219e-06	

Index   v-sweep         i(vds)          
--------------------------------------------------------------------------------
171	-1.85000e+00	7.374759e-06	
172	-1.90000e+00	7.388880e-06	
173	-1.95000e+00	7.402607e-06	
174	-2.00000e+00	7.415964e-06	
175	-2.05000e+00	7.428974e-06	
176	-2.10000e+00	7.441655e-06	
177	-2.15000e+00	7.454027e-06	
178	-2.20000e+00	7.466104e-06	
179	-2.25000e+00	7.477904e-06	
180	-2.30000e+00	7.489439e-06	
181	-2.35000e+00	7.500723e-06	
182	-2.40000e+00	7.511768e-06	
183	-2.45000e+00	7.522584e-06	
184	-2.50000e+00	7.533183e-06	
185	-2.55000e+00	7.543574e-06	
186	-2.60000e+00	7.553765e-06	
187	-2.65000e+00	7.563767e-06	
188	-2.70000e+00	7.573586e-06	
189	-2.75000e+00	7.583231e-06	
190	-2.80000e+00	7.592709e-06	
191	-2.85000e+00	7.602027e-06	
192	-2.90000e+00	7.611192e-06	
193	-2.95000e+00	7.620210e-06	
194	-3.00000e+00	7.629090e-06	
195	-3.05000e+00	7.637837e-06	
196	-3.10000e+00	7.646460e-06	
197	-3.15000e+00	7.654967e-06	
198	-3.20000e+00	7.663365e-06	
199	-3.25000e+00	7.671664e-06	
200	-3.30000e+00	7.679874e-06	
201	-0.000000e+00	0.000000e+00	
202	-5.00000e-02	9.656136e-07	
203	-1.00000e-01	1.890897e-06	
204	-1.50000e-01	2.777357e-06	
205	-2.00000e-01	3.625566e-06	
206	-2.50000e-01	4.435882e-06	
207	-3.00000e-01	5.208608e-06	
208	-3.50000e-01	5.944034e-06	
209	-4.00000e-01	6.642444e-06	
210	-4.50000e-01	7.304119e-06	
211	-5.00000e-01	7.929341e-06	
212	-5.50000e-01	8.518387e-06	
213	-6.00000e-01	9.071538e-06	
214	-6.50000e-01	9.589071e-06	
215	-7.00000e-01	1.007127e-05	
216	-7.50000e-01	1.051841e-05	
217	-8.00000e-01	1.093080e-05	
218	-8.50000e-01	1.130873e-05	
219	-9.00000e-01	1.165253e-05	
220	-9.50000e-01	1.196257e-05	
221	-1.00000e+00	1.223927e-05	
222	-1.05000e+00	1.248317e-05	
223	-1.10000e+00	1.269500e-05	
224	-1.15000e+00	1.287583e-05	
225	-1.20000e+00	1.302730e-05	
226	-1.25000e+00	1.315194e-05	
227	-1.30000e+00	1.325339e-05	
228	-1.35000e+00	1.333624e-05	

Index   v-sweep         i(vds)          
--------------------------------------------------------------------------------
229	-1.40000e+00	1.340528e-05	
230	-1.45000e+00	1.346459e-05	
231	-1.50000e+00	1.351714e-05	
232	-1.55000e+00	1.356487e-05	
233	-1.60000e+00	1.360898e-05	
234	-1.65000e+00	1.365027e-05	
235	-1.70000e+00	1.368924e-05	
236	-1.75000e+00	1.372624e-05	
237	-1.80000e+00	1.376153e-05	
238	-1.85000e+00	1.379531e-05	
239	-1.90000e+00	1.382772e-05	
240	-1.95000e+00	1.385891e-05	
241	-2.00000e+00	1.388896e-05	
242	-2.05000e+00	1.391799e-05	
243	-2.10000e+00	1.394605e-05	
244	-2.15000e+00	1.397322e-05	
245	-2.20000e+00	1.399957e-05	
246	-2.25000e+00	1.402514e-05	
247	-2.30000e+00	1.404998e-05	
248	-2.35000e+00	1.407415e-05	
249	-2.40000e+00	1.409767e-05	
250	-2.45000e+00	1.412058e-05	
251	-2.50000e+00	1.414292e-05	
252	-2.55000e+00	1.416472e-05	
253	-2.60000e+00	1.418600e-05	
254	-2.65000e+00	1.420679e-05	
255	-2.70000e+00	1.422712e-05	
256	-2.75000e+00	1.424701e-05	
257	-2.80000e+00	1.426647e-05	
258	-2.85000e+00	1.428554e-05	
259	-2.90000e+00	1.430421e-05	
260	-2.95000e+00	1.432252e-05	
261	-3.00000e+00	1.434048e-05	
262	-3.05000e+00	1.435809e-05	
263	-3.10000e+00	1.437539e-05	
264	-3.15000e+00	1.439237e-05	
265	-3.20000e+00	1.440906e-05	
266	-3.25000e+00	1.442547e-05	
267	-3.30000e+00	1.444160e-05	
268	-0.000000e+00	0.000000e+00	
269	-5.00000e-02	1.215409e-06	
270	-1.00000e-01	2.390645e-06	
271	-1.50000e-01	3.527202e-06	
272	-2.00000e-01	4.625641e-06	
273	-2.50000e-01	5.686308e-06	
274	-3.00000e-01	6.709492e-06	
275	-3.50000e-01	7.695471e-06	
276	-4.00000e-01	8.644517e-06	
277	-4.50000e-01	9.556898e-06	
278	-5.00000e-01	1.043288e-05	
279	-5.50000e-01	1.127273e-05	
280	-6.00000e-01	1.207670e-05	
281	-6.50000e-01	1.284506e-05	
282	-7.00000e-01	1.357807e-05	
283	-7.50000e-01	1.427597e-05	
284	-8.00000e-01	1.493904e-05	
285	-8.50000e-01	1.556751e-05	
286	-9.00000e-01	1.616165e-05	

Index   v-sweep         i(vds)          
--------------------------------------------------------------------------------
287	-9.50000e-01	1.672171e-05	
288	-1.00000e+00	1.724795e-05	
289	-1.05000e+00	1.774063e-05	
290	-1.10000e+00	1.820001e-05	
291	-1.15000e+00	1.862637e-05	
292	-1.20000e+00	1.902001e-05	
293	-1.25000e+00	1.938124e-05	
294	-1.30000e+00	1.971042e-05	
295	-1.35000e+00	2.000799e-05	
296	-1.40000e+00	2.027450e-05	
297	-1.45000e+00	2.051067e-05	
298	-1.50000e+00	2.071758e-05	
299	-1.55000e+00	2.089674e-05	
300	-1.60000e+00	2.105040e-05	
301	-1.65000e+00	2.118161e-05	
302	-1.70000e+00	2.129410e-05	
303	-1.75000e+00	2.139182e-05	
304	-1.80000e+00	2.147834e-05	
305	-1.85000e+00	2.155647e-05	
306	-1.90000e+00	2.162822e-05	
307	-1.95000e+00	2.169498e-05	
308	-2.00000e+00	2.175769e-05	
309	-2.05000e+00	2.181700e-05	
310	-2.10000e+00	2.187340e-05	
311	-2.15000e+00	2.192724e-05	
312	-2.20000e+00	2.197880e-05	
313	-2.25000e+00	2.202830e-05	
314	-2.30000e+00	2.207593e-05	
315	-2.35000e+00	2.212184e-05	
316	-2.40000e+00	2.216618e-05	
317	-2.45000e+00	2.220905e-05	
318	-2.50000e+00	2.225056e-05	
319	-2.55000e+00	2.229081e-05	
320	-2.60000e+00	2.232987e-05	
321	-2.65000e+00	2.236781e-05	
322	-2.70000e+00	2.240471e-05	
323	-2.75000e+00	2.244062e-05	
324	-2.80000e+00	2.247560e-05	
325	-2.85000e+00	2.250970e-05	
326	-2.90000e+00	2.254296e-05	
327	-2.95000e+00	2.257543e-05	
328	-3.00000e+00	2.260715e-05	
329	-3.05000e+00	2.263816e-05	
330	-3.10000e+00	2.266848e-05	
331	-3.15000e+00	2.269815e-05	
332	-3.20000e+00	2.272720e-05	
333	-3.25000e+00	2.275566e-05	
334	-3.30000e+00	2.278355e-05	
335	-0.000000e+00	0.000000e+00	
336	-5.00000e-02	1.450722e-06	
337	-1.00000e-01	2.861494e-06	
338	-1.50000e-01	4.233798e-06	
339	-2.00000e-01	5.568186e-06	
340	-2.50000e-01	6.864991e-06	
341	-3.00000e-01	8.124496e-06	
342	-3.50000e-01	9.346965e-06	
343	-4.00000e-01	1.053266e-05	
344	-4.50000e-01	1.168184e-05	

Index   v-sweep         i(vds)          
--------------------------------------------------------------------------------
345	-5.00000e-01	1.279477e-05	
346	-5.50000e-01	1.387169e-05	
347	-6.00000e-01	1.491285e-05	
348	-6.50000e-01	1.591852e-05	
349	-7.00000e-01	1.688893e-05	
350	-7.50000e-01	1.782432e-05	
351	-8.00000e-01	1.872495e-05	
352	-8.50000e-01	1.959106e-05	
353	-9.00000e-01	2.042287e-05	
354	-9.50000e-01	2.122064e-05	
355	-1.00000e+00	2.198460e-05	
356	-1.05000e+00	2.271498e-05	
357	-1.10000e+00	2.341202e-05	
358	-1.15000e+00	2.407596e-05	
359	-1.20000e+00	2.470701e-05	
360	-1.25000e+00	2.530543e-05	
361	-1.30000e+00	2.587144e-05	
362	-1.35000e+00	2.640529e-05	
363	-1.40000e+00	2.690722e-05	
364	-1.45000e+00	2.737748e-05	
365	-1.50000e+00	2.781634e-05	
366	-1.55000e+00	2.822408e-05	
367	-1.60000e+00	2.860102e-05	
368	-1.65000e+00	2.894753e-05	
369	-1.70000e+00	2.926403e-05	
370	-1.75000e+00	2.955111e-05	
371	-1.80000e+00	2.980952e-05	
372	-1.85000e+00	3.004030e-05	
373	-1.90000e+00	3.024494e-05	
374	-1.95000e+00	3.042550e-05	
375	-2.00000e+00	3.058463e-05	
376	-2.05000e+00	3.072551e-05	
377	-2.10000e+00	3.085142e-05	
378	-2.15000e+00	3.096542e-05	
379	-2.20000e+00	3.106998e-05	
380	-2.25000e+00	3.116701e-05	
381	-2.30000e+00	3.125790e-05	
382	-2.35000e+00	3.134364e-05	
383	-2.40000e+00	3.142498e-05	
384	-2.45000e+00	3.150248e-05	
385	-2.50000e+00	3.157657e-05	
386	-2.55000e+00	3.164759e-05	
387	-2.60000e+00	3.171584e-05	
388	-2.65000e+00	3.178155e-05	
389	-2.70000e+00	3.184493e-05	
390	-2.75000e+00	3.190615e-05	
391	-2.80000e+00	3.196537e-05	
392	-2.85000e+00	3.202273e-05	
393	-2.90000e+00	3.207835e-05	
394	-2.95000e+00	3.213234e-05	
395	-3.00000e+00	3.218480e-05	
396	-3.05000e+00	3.223581e-05	
397	-3.10000e+00	3.228547e-05	
398	-3.15000e+00	3.233384e-05	
399	-3.20000e+00	3.238100e-05	
400	-3.25000e+00	3.242700e-05	
401	-3.30000e+00	3.247191e-05	
Note: No ".plot", ".print", or ".fourier" lines; no simulations run
