
Note: Compatibility modes selected: hs

Warning: m=xx on .subckt line will override multiplier m hierarchy!


Circuit: ***************************

Doing analysis at TEMP = 25.000000 and TNOM = 25.000000


No. of Data Rows : 402
                          ***************************
                          DC transfer characteristic  Mon Jan  9 13:57:29  2023
--------------------------------------------------------------------------------
Index   v-sweep         i(vds)          
--------------------------------------------------------------------------------
0	-0.000000e+00	0.000000e+00	
1	-5.00000e-02	1.204081e-08	
2	-1.00000e-01	1.475056e-08	
3	-1.50000e-01	1.515223e-08	
4	-2.00000e-01	1.525265e-08	
5	-2.50000e-01	1.529388e-08	
6	-3.00000e-01	1.531690e-08	
7	-3.50000e-01	1.533245e-08	
8	-4.00000e-01	1.534431e-08	
9	-4.50000e-01	1.535409e-08	
10	-5.00000e-01	1.536256e-08	
11	-5.50000e-01	1.537016e-08	
12	-6.00000e-01	1.537712e-08	
13	-6.50000e-01	1.538360e-08	
14	-7.00000e-01	1.538971e-08	
15	-7.50000e-01	1.539553e-08	
16	-8.00000e-01	1.540109e-08	
17	-8.50000e-01	1.540645e-08	
18	-9.00000e-01	1.541163e-08	
19	-9.50000e-01	1.541665e-08	
20	-1.00000e+00	1.542153e-08	
21	-1.05000e+00	1.542630e-08	
22	-1.10000e+00	1.543095e-08	
23	-1.15000e+00	1.543550e-08	
24	-1.20000e+00	1.543997e-08	
25	-1.25000e+00	1.544436e-08	
26	-1.30000e+00	1.544866e-08	
27	-1.35000e+00	1.545291e-08	
28	-1.40000e+00	1.545708e-08	
29	-1.45000e+00	1.546120e-08	
30	-1.50000e+00	1.546526e-08	
31	-1.55000e+00	1.546927e-08	
32	-1.60000e+00	1.547323e-08	
33	-1.65000e+00	1.547715e-08	
34	-1.70000e+00	1.548102e-08	
35	-1.75000e+00	1.548486e-08	
36	-1.80000e+00	1.548865e-08	
37	-1.85000e+00	1.549241e-08	
38	-1.90000e+00	1.549614e-08	
39	-1.95000e+00	1.549983e-08	
40	-2.00000e+00	1.550350e-08	
41	-2.05000e+00	1.550713e-08	
42	-2.10000e+00	1.551074e-08	
43	-2.15000e+00	1.551433e-08	
44	-2.20000e+00	1.551789e-08	
45	-2.25000e+00	1.552143e-08	
46	-2.30000e+00	1.552496e-08	
47	-2.35000e+00	1.552848e-08	
48	-2.40000e+00	1.553199e-08	
49	-2.45000e+00	1.553550e-08	
50	-2.50000e+00	1.553901e-08	
51	-2.55000e+00	1.554255e-08	
52	-2.60000e+00	1.554612e-08	
53	-2.65000e+00	1.554973e-08	
54	-2.70000e+00	1.555341e-08	

Index   v-sweep         i(vds)          
--------------------------------------------------------------------------------
55	-2.75000e+00	1.555718e-08	
56	-2.80000e+00	1.556107e-08	
57	-2.85000e+00	1.556512e-08	
58	-2.90000e+00	1.556937e-08	
59	-2.95000e+00	1.557387e-08	
60	-3.00000e+00	1.557868e-08	
61	-3.05000e+00	1.558388e-08	
62	-3.10000e+00	1.558955e-08	
63	-3.15000e+00	1.559578e-08	
64	-3.20000e+00	1.560270e-08	
65	-3.25000e+00	1.561042e-08	
66	-3.30000e+00	1.561911e-08	
67	-0.000000e+00	0.000000e+00	
68	-5.00000e-02	1.697074e-07	
69	-1.00000e-01	3.152595e-07	
70	-1.50000e-01	4.367436e-07	
71	-2.00000e-01	5.343222e-07	
72	-2.50000e-01	6.083513e-07	
73	-3.00000e-01	6.597233e-07	
74	-3.50000e-01	6.907505e-07	
75	-4.00000e-01	7.063860e-07	
76	-4.50000e-01	7.132806e-07	
77	-5.00000e-01	7.163698e-07	
78	-5.50000e-01	7.179453e-07	
79	-6.00000e-01	7.188796e-07	
80	-6.50000e-01	7.195091e-07	
81	-7.00000e-01	7.199762e-07	
82	-7.50000e-01	7.203476e-07	
83	-8.00000e-01	7.206579e-07	
84	-8.50000e-01	7.209265e-07	
85	-9.00000e-01	7.211649e-07	
86	-9.50000e-01	7.213805e-07	
87	-1.00000e+00	7.215783e-07	
88	-1.05000e+00	7.217617e-07	
89	-1.10000e+00	7.219333e-07	
90	-1.15000e+00	7.220949e-07	
91	-1.20000e+00	7.222479e-07	
92	-1.25000e+00	7.223934e-07	
93	-1.30000e+00	7.225324e-07	
94	-1.35000e+00	7.226656e-07	
95	-1.40000e+00	7.227936e-07	
96	-1.45000e+00	7.229169e-07	
97	-1.50000e+00	7.230359e-07	
98	-1.55000e+00	7.231511e-07	
99	-1.60000e+00	7.232627e-07	
100	-1.65000e+00	7.233710e-07	
101	-1.70000e+00	7.234762e-07	
102	-1.75000e+00	7.235787e-07	
103	-1.80000e+00	7.236785e-07	
104	-1.85000e+00	7.237759e-07	
105	-1.90000e+00	7.238709e-07	
106	-1.95000e+00	7.239638e-07	
107	-2.00000e+00	7.240547e-07	
108	-2.05000e+00	7.241437e-07	
109	-2.10000e+00	7.242309e-07	
110	-2.15000e+00	7.243163e-07	
111	-2.20000e+00	7.244002e-07	
112	-2.25000e+00	7.244825e-07	

Index   v-sweep         i(vds)          
--------------------------------------------------------------------------------
113	-2.30000e+00	7.245634e-07	
114	-2.35000e+00	7.246429e-07	
115	-2.40000e+00	7.247212e-07	
116	-2.45000e+00	7.247983e-07	
117	-2.50000e+00	7.248744e-07	
118	-2.55000e+00	7.249495e-07	
119	-2.60000e+00	7.250239e-07	
120	-2.65000e+00	7.250976e-07	
121	-2.70000e+00	7.251710e-07	
122	-2.75000e+00	7.252442e-07	
123	-2.80000e+00	7.253178e-07	
124	-2.85000e+00	7.253920e-07	
125	-2.90000e+00	7.254675e-07	
126	-2.95000e+00	7.255450e-07	
127	-3.00000e+00	7.256253e-07	
128	-3.05000e+00	7.257096e-07	
129	-3.10000e+00	7.257991e-07	
130	-3.15000e+00	7.258954e-07	
131	-3.20000e+00	7.260005e-07	
132	-3.25000e+00	7.261167e-07	
133	-3.30000e+00	7.262466e-07	
134	-0.000000e+00	0.000000e+00	
135	-5.00000e-02	3.279308e-07	
136	-1.00000e-01	6.323272e-07	
137	-1.50000e-01	9.132164e-07	
138	-2.00000e-01	1.170628e-06	
139	-2.50000e-01	1.404597e-06	
140	-3.00000e-01	1.615162e-06	
141	-3.50000e-01	1.802376e-06	
142	-4.00000e-01	1.966313e-06	
143	-4.50000e-01	2.107082e-06	
144	-5.00000e-01	2.224873e-06	
145	-5.50000e-01	2.320029e-06	
146	-6.00000e-01	2.393227e-06	
147	-6.50000e-01	2.445833e-06	
148	-7.00000e-01	2.480446e-06	
149	-7.50000e-01	2.501196e-06	
150	-8.00000e-01	2.512916e-06	
151	-8.50000e-01	2.519576e-06	
152	-9.00000e-01	2.523608e-06	
153	-9.50000e-01	2.526270e-06	
154	-1.00000e+00	2.528180e-06	
155	-1.05000e+00	2.529649e-06	
156	-1.10000e+00	2.530841e-06	
157	-1.15000e+00	2.531848e-06	
158	-1.20000e+00	2.532724e-06	
159	-1.25000e+00	2.533503e-06	
160	-1.30000e+00	2.534208e-06	
161	-1.35000e+00	2.534855e-06	
162	-1.40000e+00	2.535453e-06	
163	-1.45000e+00	2.536012e-06	
164	-1.50000e+00	2.536538e-06	
165	-1.55000e+00	2.537034e-06	
166	-1.60000e+00	2.537505e-06	
167	-1.65000e+00	2.537953e-06	
168	-1.70000e+00	2.538382e-06	
169	-1.75000e+00	2.538793e-06	
170	-1.80000e+00	2.539188e-06	

Index   v-sweep         i(vds)          
--------------------------------------------------------------------------------
171	-1.85000e+00	2.539569e-06	
172	-1.90000e+00	2.539936e-06	
173	-1.95000e+00	2.540290e-06	
174	-2.00000e+00	2.540634e-06	
175	-2.05000e+00	2.540967e-06	
176	-2.10000e+00	2.541290e-06	
177	-2.15000e+00	2.541604e-06	
178	-2.20000e+00	2.541910e-06	
179	-2.25000e+00	2.542207e-06	
180	-2.30000e+00	2.542498e-06	
181	-2.35000e+00	2.542781e-06	
182	-2.40000e+00	2.543058e-06	
183	-2.45000e+00	2.543328e-06	
184	-2.50000e+00	2.543592e-06	
185	-2.55000e+00	2.543851e-06	
186	-2.60000e+00	2.544105e-06	
187	-2.65000e+00	2.544354e-06	
188	-2.70000e+00	2.544598e-06	
189	-2.75000e+00	2.544837e-06	
190	-2.80000e+00	2.545073e-06	
191	-2.85000e+00	2.545305e-06	
192	-2.90000e+00	2.545534e-06	
193	-2.95000e+00	2.545760e-06	
194	-3.00000e+00	2.545984e-06	
195	-3.05000e+00	2.546207e-06	
196	-3.10000e+00	2.546430e-06	
197	-3.15000e+00	2.546653e-06	
198	-3.20000e+00	2.546880e-06	
199	-3.25000e+00	2.547111e-06	
200	-3.30000e+00	2.547349e-06	
201	-0.000000e+00	0.000000e+00	
202	-5.00000e-02	4.690326e-07	
203	-1.00000e-01	9.159525e-07	
204	-1.50000e-01	1.340780e-06	
205	-2.00000e-01	1.743537e-06	
206	-2.50000e-01	2.124244e-06	
207	-3.00000e-01	2.482923e-06	
208	-3.50000e-01	2.819598e-06	
209	-4.00000e-01	3.134292e-06	
210	-4.50000e-01	3.427032e-06	
211	-5.00000e-01	3.697846e-06	
212	-5.50000e-01	3.946768e-06	
213	-6.00000e-01	4.173836e-06	
214	-6.50000e-01	4.379101e-06	
215	-7.00000e-01	4.562629e-06	
216	-7.50000e-01	4.724514e-06	
217	-8.00000e-01	4.864899e-06	
218	-8.50000e-01	4.984016e-06	
219	-9.00000e-01	5.082261e-06	
220	-9.50000e-01	5.160333e-06	
221	-1.00000e+00	5.219464e-06	
222	-1.05000e+00	5.261724e-06	
223	-1.10000e+00	5.290178e-06	
224	-1.15000e+00	5.308521e-06	
225	-1.20000e+00	5.320244e-06	
226	-1.25000e+00	5.327955e-06	
227	-1.30000e+00	5.333304e-06	
228	-1.35000e+00	5.337243e-06	

Index   v-sweep         i(vds)          
--------------------------------------------------------------------------------
229	-1.40000e+00	5.340310e-06	
230	-1.45000e+00	5.342809e-06	
231	-1.50000e+00	5.344921e-06	
232	-1.55000e+00	5.346757e-06	
233	-1.60000e+00	5.348387e-06	
234	-1.65000e+00	5.349859e-06	
235	-1.70000e+00	5.351205e-06	
236	-1.75000e+00	5.352449e-06	
237	-1.80000e+00	5.353608e-06	
238	-1.85000e+00	5.354695e-06	
239	-1.90000e+00	5.355719e-06	
240	-1.95000e+00	5.356690e-06	
241	-2.00000e+00	5.357613e-06	
242	-2.05000e+00	5.358494e-06	
243	-2.10000e+00	5.359338e-06	
244	-2.15000e+00	5.360146e-06	
245	-2.20000e+00	5.360924e-06	
246	-2.25000e+00	5.361674e-06	
247	-2.30000e+00	5.362397e-06	
248	-2.35000e+00	5.363096e-06	
249	-2.40000e+00	5.363773e-06	
250	-2.45000e+00	5.364430e-06	
251	-2.50000e+00	5.365067e-06	
252	-2.55000e+00	5.365686e-06	
253	-2.60000e+00	5.366288e-06	
254	-2.65000e+00	5.366875e-06	
255	-2.70000e+00	5.367447e-06	
256	-2.75000e+00	5.368005e-06	
257	-2.80000e+00	5.368549e-06	
258	-2.85000e+00	5.369081e-06	
259	-2.90000e+00	5.369601e-06	
260	-2.95000e+00	5.370110e-06	
261	-3.00000e+00	5.370609e-06	
262	-3.05000e+00	5.371097e-06	
263	-3.10000e+00	5.371577e-06	
264	-3.15000e+00	5.372047e-06	
265	-3.20000e+00	5.372510e-06	
266	-3.25000e+00	5.372966e-06	
267	-3.30000e+00	5.373416e-06	
268	-0.000000e+00	0.000000e+00	
269	-5.00000e-02	5.929338e-07	
270	-1.00000e-01	1.165340e-06	
271	-1.50000e-01	1.717235e-06	
272	-2.00000e-01	2.248638e-06	
273	-2.50000e-01	2.759566e-06	
274	-3.00000e-01	3.250037e-06	
275	-3.50000e-01	3.720068e-06	
276	-4.00000e-01	4.169679e-06	
277	-4.50000e-01	4.598886e-06	
278	-5.00000e-01	5.007709e-06	
279	-5.50000e-01	5.396168e-06	
280	-6.00000e-01	5.764281e-06	
281	-6.50000e-01	6.112070e-06	
282	-7.00000e-01	6.439556e-06	
283	-7.50000e-01	6.746763e-06	
284	-8.00000e-01	7.033715e-06	
285	-8.50000e-01	7.300443e-06	
286	-9.00000e-01	7.546978e-06	

Index   v-sweep         i(vds)          
--------------------------------------------------------------------------------
287	-9.50000e-01	7.773361e-06	
288	-1.00000e+00	7.979643e-06	
289	-1.05000e+00	8.165890e-06	
290	-1.10000e+00	8.332195e-06	
291	-1.15000e+00	8.478694e-06	
292	-1.20000e+00	8.605594e-06	
293	-1.25000e+00	8.713222e-06	
294	-1.30000e+00	8.802114e-06	
295	-1.35000e+00	8.873144e-06	
296	-1.40000e+00	8.927705e-06	
297	-1.45000e+00	8.967864e-06	
298	-1.50000e+00	8.996319e-06	
299	-1.55000e+00	9.016044e-06	
300	-1.60000e+00	9.029750e-06	
301	-1.65000e+00	9.039521e-06	
302	-1.70000e+00	9.046770e-06	
303	-1.75000e+00	9.052392e-06	
304	-1.80000e+00	9.056934e-06	
305	-1.85000e+00	9.060735e-06	
306	-1.90000e+00	9.064008e-06	
307	-1.95000e+00	9.066890e-06	
308	-2.00000e+00	9.069474e-06	
309	-2.05000e+00	9.071822e-06	
310	-2.10000e+00	9.073981e-06	
311	-2.15000e+00	9.075984e-06	
312	-2.20000e+00	9.077855e-06	
313	-2.25000e+00	9.079613e-06	
314	-2.30000e+00	9.081274e-06	
315	-2.35000e+00	9.082850e-06	
316	-2.40000e+00	9.084350e-06	
317	-2.45000e+00	9.085782e-06	
318	-2.50000e+00	9.087154e-06	
319	-2.55000e+00	9.088470e-06	
320	-2.60000e+00	9.089737e-06	
321	-2.65000e+00	9.090957e-06	
322	-2.70000e+00	9.092136e-06	
323	-2.75000e+00	9.093275e-06	
324	-2.80000e+00	9.094378e-06	
325	-2.85000e+00	9.095448e-06	
326	-2.90000e+00	9.096486e-06	
327	-2.95000e+00	9.097494e-06	
328	-3.00000e+00	9.098476e-06	
329	-3.05000e+00	9.099431e-06	
330	-3.10000e+00	9.100362e-06	
331	-3.15000e+00	9.101270e-06	
332	-3.20000e+00	9.102157e-06	
333	-3.25000e+00	9.103023e-06	
334	-3.30000e+00	9.103869e-06	
335	-0.000000e+00	0.000000e+00	
336	-5.00000e-02	7.005251e-07	
337	-1.00000e-01	1.382114e-06	
338	-1.50000e-01	2.044782e-06	
339	-2.00000e-01	2.688545e-06	
340	-2.50000e-01	3.313417e-06	
341	-3.00000e-01	3.919413e-06	
342	-3.50000e-01	4.506550e-06	
343	-4.00000e-01	5.074842e-06	
344	-4.50000e-01	5.624305e-06	

Index   v-sweep         i(vds)          
--------------------------------------------------------------------------------
345	-5.00000e-01	6.154954e-06	
346	-5.50000e-01	6.666805e-06	
347	-6.00000e-01	7.159873e-06	
348	-6.50000e-01	7.634174e-06	
349	-7.00000e-01	8.089724e-06	
350	-7.50000e-01	8.526540e-06	
351	-8.00000e-01	8.944637e-06	
352	-8.50000e-01	9.344032e-06	
353	-9.00000e-01	9.724743e-06	
354	-9.50000e-01	1.008679e-05	
355	-1.00000e+00	1.043018e-05	
356	-1.05000e+00	1.075495e-05	
357	-1.10000e+00	1.106111e-05	
358	-1.15000e+00	1.134869e-05	
359	-1.20000e+00	1.161771e-05	
360	-1.25000e+00	1.186820e-05	
361	-1.30000e+00	1.210020e-05	
362	-1.35000e+00	1.231376e-05	
363	-1.40000e+00	1.250892e-05	
364	-1.45000e+00	1.268576e-05	
365	-1.50000e+00	1.284439e-05	
366	-1.55000e+00	1.298496e-05	
367	-1.60000e+00	1.310768e-05	
368	-1.65000e+00	1.321290e-05	
369	-1.70000e+00	1.330114e-05	
370	-1.75000e+00	1.337320e-05	
371	-1.80000e+00	1.343029e-05	
372	-1.85000e+00	1.347411e-05	
373	-1.90000e+00	1.350683e-05	
374	-1.95000e+00	1.353084e-05	
375	-2.00000e+00	1.354846e-05	
376	-2.05000e+00	1.356160e-05	
377	-2.10000e+00	1.357168e-05	
378	-2.15000e+00	1.357967e-05	
379	-2.20000e+00	1.358623e-05	
380	-2.25000e+00	1.359176e-05	
381	-2.30000e+00	1.359655e-05	
382	-2.35000e+00	1.360079e-05	
383	-2.40000e+00	1.360459e-05	
384	-2.45000e+00	1.360805e-05	
385	-2.50000e+00	1.361123e-05	
386	-2.55000e+00	1.361419e-05	
387	-2.60000e+00	1.361695e-05	
388	-2.65000e+00	1.361954e-05	
389	-2.70000e+00	1.362199e-05	
390	-2.75000e+00	1.362432e-05	
391	-2.80000e+00	1.362653e-05	
392	-2.85000e+00	1.362864e-05	
393	-2.90000e+00	1.363066e-05	
394	-2.95000e+00	1.363260e-05	
395	-3.00000e+00	1.363447e-05	
396	-3.05000e+00	1.363626e-05	
397	-3.10000e+00	1.363800e-05	
398	-3.15000e+00	1.363968e-05	
399	-3.20000e+00	1.364130e-05	
400	-3.25000e+00	1.364287e-05	
401	-3.30000e+00	1.364440e-05	
Note: No ".plot", ".print", or ".fourier" lines; no simulations run
