
Note: Compatibility modes selected: hs

Warning: m=xx on .subckt line will override multiplier m hierarchy!


Circuit: ***************************

Doing analysis at TEMP = 125.000000 and TNOM = 125.000000


No. of Data Rows : 798
                          ***************************
                          DC transfer characteristic  Mon Jan  9 13:57:53  2023
--------------------------------------------------------------------------------
Index   v-sweep         i(vds)          
--------------------------------------------------------------------------------
0	0.000000e+00	0.000000e+00	
1	-5.00000e-02	2.384508e-07	
2	-1.00000e-01	4.180094e-07	
3	-1.50000e-01	5.465373e-07	
4	-2.00000e-01	6.281316e-07	
5	-2.50000e-01	6.704291e-07	
6	-3.00000e-01	6.882535e-07	
7	-3.50000e-01	6.959800e-07	
8	-4.00000e-01	7.003313e-07	
9	-4.50000e-01	7.034488e-07	
10	-5.00000e-01	7.060117e-07	
11	-5.50000e-01	7.082697e-07	
12	-6.00000e-01	7.103315e-07	
13	-6.50000e-01	7.122515e-07	
14	-7.00000e-01	7.140608e-07	
15	-7.50000e-01	7.157790e-07	
16	-8.00000e-01	7.174196e-07	
17	-8.50000e-01	7.189925e-07	
18	-9.00000e-01	7.205051e-07	
19	-9.50000e-01	7.219637e-07	
20	-1.00000e+00	7.233732e-07	
21	-1.05000e+00	7.247378e-07	
22	-1.10000e+00	7.260610e-07	
23	-1.15000e+00	7.273461e-07	
24	-1.20000e+00	7.285958e-07	
25	-1.25000e+00	7.298125e-07	
26	-1.30000e+00	7.309984e-07	
27	-1.35000e+00	7.321554e-07	
28	-1.40000e+00	7.332852e-07	
29	-1.45000e+00	7.343896e-07	
30	-1.50000e+00	7.354699e-07	
31	-1.55000e+00	7.365275e-07	
32	-1.60000e+00	7.375636e-07	
33	-1.65000e+00	7.385793e-07	
34	-1.70000e+00	7.395756e-07	
35	-1.75000e+00	7.405535e-07	
36	-1.80000e+00	7.415139e-07	
37	-1.85000e+00	7.424577e-07	
38	-1.90000e+00	7.433855e-07	
39	-1.95000e+00	7.442980e-07	
40	-2.00000e+00	7.451961e-07	
41	-2.05000e+00	7.460802e-07	
42	-2.10000e+00	7.469510e-07	
43	-2.15000e+00	7.478090e-07	
44	-2.20000e+00	7.486547e-07	
45	-2.25000e+00	7.494886e-07	
46	-2.30000e+00	7.503112e-07	
47	-2.35000e+00	7.511228e-07	
48	-2.40000e+00	7.519240e-07	
49	-2.45000e+00	7.527151e-07	
50	-2.50000e+00	7.534964e-07	
51	-2.55000e+00	7.542683e-07	
52	-2.60000e+00	7.550311e-07	
53	-2.65000e+00	7.557851e-07	
54	-2.70000e+00	7.565307e-07	

Index   v-sweep         i(vds)          
--------------------------------------------------------------------------------
55	-2.75000e+00	7.572681e-07	
56	-2.80000e+00	7.579976e-07	
57	-2.85000e+00	7.587194e-07	
58	-2.90000e+00	7.594338e-07	
59	-2.95000e+00	7.601411e-07	
60	-3.00000e+00	7.608415e-07	
61	-3.05000e+00	7.615351e-07	
62	-3.10000e+00	7.622223e-07	
63	-3.15000e+00	7.629034e-07	
64	-3.20000e+00	7.635784e-07	
65	-3.25000e+00	7.642477e-07	
66	-3.30000e+00	7.649114e-07	
67	-3.35000e+00	7.655700e-07	
68	-3.40000e+00	7.662236e-07	
69	-3.45000e+00	7.668724e-07	
70	-3.50000e+00	7.675169e-07	
71	-3.55000e+00	7.681574e-07	
72	-3.60000e+00	7.687942e-07	
73	-3.65000e+00	7.694276e-07	
74	-3.70000e+00	7.700582e-07	
75	-3.75000e+00	7.706865e-07	
76	-3.80000e+00	7.713128e-07	
77	-3.85000e+00	7.719380e-07	
78	-3.90000e+00	7.725624e-07	
79	-3.95000e+00	7.731870e-07	
80	-4.00000e+00	7.738125e-07	
81	-4.05000e+00	7.744397e-07	
82	-4.10000e+00	7.750697e-07	
83	-4.15000e+00	7.757034e-07	
84	-4.20000e+00	7.763421e-07	
85	-4.25000e+00	7.769870e-07	
86	-4.30000e+00	7.776396e-07	
87	-4.35000e+00	7.783013e-07	
88	-4.40000e+00	7.789739e-07	
89	-4.45000e+00	7.796591e-07	
90	-4.50000e+00	7.803590e-07	
91	-4.55000e+00	7.810757e-07	
92	-4.60000e+00	7.818114e-07	
93	-4.65000e+00	7.825686e-07	
94	-4.70000e+00	7.833501e-07	
95	-4.75000e+00	7.841587e-07	
96	-4.80000e+00	7.849975e-07	
97	-4.85000e+00	7.858697e-07	
98	-4.90000e+00	7.867789e-07	
99	-4.95000e+00	7.877288e-07	
100	-5.00000e+00	7.887233e-07	
101	-5.05000e+00	7.897666e-07	
102	-5.10000e+00	7.908633e-07	
103	-5.15000e+00	7.920180e-07	
104	-5.20000e+00	7.932356e-07	
105	-5.25000e+00	7.945215e-07	
106	-5.30000e+00	7.958811e-07	
107	-5.35000e+00	7.973201e-07	
108	-5.40000e+00	7.988447e-07	
109	-5.45000e+00	8.004612e-07	
110	-5.50000e+00	8.021763e-07	
111	-5.55000e+00	8.039968e-07	
112	-5.60000e+00	8.059300e-07	

Index   v-sweep         i(vds)          
--------------------------------------------------------------------------------
113	-5.65000e+00	8.079834e-07	
114	-5.70000e+00	8.101650e-07	
115	-5.75000e+00	8.124827e-07	
116	-5.80000e+00	8.149450e-07	
117	-5.85000e+00	8.175608e-07	
118	-5.90000e+00	8.203390e-07	
119	-5.95000e+00	8.232891e-07	
120	-6.00000e+00	8.264208e-07	
121	-6.05000e+00	8.297440e-07	
122	-6.10000e+00	8.332691e-07	
123	-6.15000e+00	8.370066e-07	
124	-6.20000e+00	8.409676e-07	
125	-6.25000e+00	8.451633e-07	
126	-6.30000e+00	8.496053e-07	
127	-6.35000e+00	8.543053e-07	
128	-6.40000e+00	8.592756e-07	
129	-6.45000e+00	8.645287e-07	
130	-6.50000e+00	8.700773e-07	
131	-6.55000e+00	8.759345e-07	
132	-6.60000e+00	8.821136e-07	
133	0.000000e+00	0.000000e+00	
134	-5.00000e-02	1.059152e-06	
135	-1.00000e-01	2.054226e-06	
136	-1.50000e-01	2.992350e-06	
137	-2.00000e-01	3.875332e-06	
138	-2.50000e-01	4.703740e-06	
139	-3.00000e-01	5.477859e-06	
140	-3.50000e-01	6.197907e-06	
141	-4.00000e-01	6.864095e-06	
142	-4.50000e-01	7.476636e-06	
143	-5.00000e-01	8.035761e-06	
144	-5.50000e-01	8.541722e-06	
145	-6.00000e-01	8.994811e-06	
146	-6.50000e-01	9.395390e-06	
147	-7.00000e-01	9.743946e-06	
148	-7.50000e-01	1.004120e-05	
149	-8.00000e-01	1.028830e-05	
150	-8.50000e-01	1.048724e-05	
151	-9.00000e-01	1.064149e-05	
152	-9.50000e-01	1.075681e-05	
153	-1.00000e+00	1.084137e-05	
154	-1.05000e+00	1.090435e-05	
155	-1.10000e+00	1.095358e-05	
156	-1.15000e+00	1.099438e-05	
157	-1.20000e+00	1.102991e-05	
158	-1.25000e+00	1.106191e-05	
159	-1.30000e+00	1.109140e-05	
160	-1.35000e+00	1.111895e-05	
161	-1.40000e+00	1.114495e-05	
162	-1.45000e+00	1.116965e-05	
163	-1.50000e+00	1.119324e-05	
164	-1.55000e+00	1.121584e-05	
165	-1.60000e+00	1.123758e-05	
166	-1.65000e+00	1.125852e-05	
167	-1.70000e+00	1.127875e-05	
168	-1.75000e+00	1.129833e-05	
169	-1.80000e+00	1.131731e-05	
170	-1.85000e+00	1.133574e-05	

Index   v-sweep         i(vds)          
--------------------------------------------------------------------------------
171	-1.90000e+00	1.135364e-05	
172	-1.95000e+00	1.137107e-05	
173	-2.00000e+00	1.138805e-05	
174	-2.05000e+00	1.140461e-05	
175	-2.10000e+00	1.142077e-05	
176	-2.15000e+00	1.143656e-05	
177	-2.20000e+00	1.145201e-05	
178	-2.25000e+00	1.146712e-05	
179	-2.30000e+00	1.148192e-05	
180	-2.35000e+00	1.149642e-05	
181	-2.40000e+00	1.151064e-05	
182	-2.45000e+00	1.152460e-05	
183	-2.50000e+00	1.153830e-05	
184	-2.55000e+00	1.155175e-05	
185	-2.60000e+00	1.156498e-05	
186	-2.65000e+00	1.157798e-05	
187	-2.70000e+00	1.159078e-05	
188	-2.75000e+00	1.160337e-05	
189	-2.80000e+00	1.161576e-05	
190	-2.85000e+00	1.162797e-05	
191	-2.90000e+00	1.164001e-05	
192	-2.95000e+00	1.165187e-05	
193	-3.00000e+00	1.166357e-05	
194	-3.05000e+00	1.167510e-05	
195	-3.10000e+00	1.168649e-05	
196	-3.15000e+00	1.169773e-05	
197	-3.20000e+00	1.170882e-05	
198	-3.25000e+00	1.171979e-05	
199	-3.30000e+00	1.173061e-05	
200	-3.35000e+00	1.174132e-05	
201	-3.40000e+00	1.175189e-05	
202	-3.45000e+00	1.176235e-05	
203	-3.50000e+00	1.177270e-05	
204	-3.55000e+00	1.178293e-05	
205	-3.60000e+00	1.179306e-05	
206	-3.65000e+00	1.180308e-05	
207	-3.70000e+00	1.181300e-05	
208	-3.75000e+00	1.182282e-05	
209	-3.80000e+00	1.183255e-05	
210	-3.85000e+00	1.184219e-05	
211	-3.90000e+00	1.185175e-05	
212	-3.95000e+00	1.186122e-05	
213	-4.00000e+00	1.187061e-05	
214	-4.05000e+00	1.187992e-05	
215	-4.10000e+00	1.188916e-05	
216	-4.15000e+00	1.189833e-05	
217	-4.20000e+00	1.190744e-05	
218	-4.25000e+00	1.191649e-05	
219	-4.30000e+00	1.192549e-05	
220	-4.35000e+00	1.193444e-05	
221	-4.40000e+00	1.194335e-05	
222	-4.45000e+00	1.195222e-05	
223	-4.50000e+00	1.196107e-05	
224	-4.55000e+00	1.196990e-05	
225	-4.60000e+00	1.197872e-05	
226	-4.65000e+00	1.198754e-05	
227	-4.70000e+00	1.199638e-05	
228	-4.75000e+00	1.200524e-05	

Index   v-sweep         i(vds)          
--------------------------------------------------------------------------------
229	-4.80000e+00	1.201415e-05	
230	-4.85000e+00	1.202311e-05	
231	-4.90000e+00	1.203215e-05	
232	-4.95000e+00	1.204129e-05	
233	-5.00000e+00	1.205054e-05	
234	-5.05000e+00	1.205992e-05	
235	-5.10000e+00	1.206947e-05	
236	-5.15000e+00	1.207922e-05	
237	-5.20000e+00	1.208918e-05	
238	-5.25000e+00	1.209940e-05	
239	-5.30000e+00	1.210991e-05	
240	-5.35000e+00	1.212074e-05	
241	-5.40000e+00	1.213194e-05	
242	-5.45000e+00	1.214355e-05	
243	-5.50000e+00	1.215562e-05	
244	-5.55000e+00	1.216819e-05	
245	-5.60000e+00	1.218133e-05	
246	-5.65000e+00	1.219508e-05	
247	-5.70000e+00	1.220952e-05	
248	-5.75000e+00	1.222469e-05	
249	-5.80000e+00	1.224068e-05	
250	-5.85000e+00	1.225755e-05	
251	-5.90000e+00	1.227539e-05	
252	-5.95000e+00	1.229426e-05	
253	-6.00000e+00	1.231425e-05	
254	-6.05000e+00	1.233546e-05	
255	-6.10000e+00	1.235798e-05	
256	-6.15000e+00	1.238190e-05	
257	-6.20000e+00	1.240733e-05	
258	-6.25000e+00	1.243437e-05	
259	-6.30000e+00	1.246313e-05	
260	-6.35000e+00	1.249374e-05	
261	-6.40000e+00	1.252631e-05	
262	-6.45000e+00	1.256096e-05	
263	-6.50000e+00	1.259783e-05	
264	-6.55000e+00	1.263706e-05	
265	-6.60000e+00	1.267878e-05	
266	0.000000e+00	0.000000e+00	
267	-5.00000e-02	1.741560e-06	
268	-1.00000e-01	3.421421e-06	
269	-1.50000e-01	5.046681e-06	
270	-2.00000e-01	6.619118e-06	
271	-2.50000e-01	8.139272e-06	
272	-3.00000e-01	9.607390e-06	
273	-3.50000e-01	1.102366e-05	
274	-4.00000e-01	1.238823e-05	
275	-4.50000e-01	1.370128e-05	
276	-5.00000e-01	1.496297e-05	
277	-5.50000e-01	1.617345e-05	
278	-6.00000e-01	1.733289e-05	
279	-6.50000e-01	1.844145e-05	
280	-7.00000e-01	1.949928e-05	
281	-7.50000e-01	2.050656e-05	
282	-8.00000e-01	2.146344e-05	
283	-8.50000e-01	2.237009e-05	
284	-9.00000e-01	2.322669e-05	
285	-9.50000e-01	2.403341e-05	
286	-1.00000e+00	2.479043e-05	

Index   v-sweep         i(vds)          
--------------------------------------------------------------------------------
287	-1.05000e+00	2.549794e-05	
288	-1.10000e+00	2.615614e-05	
289	-1.15000e+00	2.676528e-05	
290	-1.20000e+00	2.732560e-05	
291	-1.25000e+00	2.783743e-05	
292	-1.30000e+00	2.830114e-05	
293	-1.35000e+00	2.871728e-05	
294	-1.40000e+00	2.908657e-05	
295	-1.45000e+00	2.941007e-05	
296	-1.50000e+00	2.968942e-05	
297	-1.55000e+00	2.992708e-05	
298	-1.60000e+00	3.012669e-05	
299	-1.65000e+00	3.029323e-05	
300	-1.70000e+00	3.043269e-05	
301	-1.75000e+00	3.055129e-05	
302	-1.80000e+00	3.065451e-05	
303	-1.85000e+00	3.074653e-05	
304	-1.90000e+00	3.083030e-05	
305	-1.95000e+00	3.090778e-05	
306	-2.00000e+00	3.098031e-05	
307	-2.05000e+00	3.104877e-05	
308	-2.10000e+00	3.111381e-05	
309	-2.15000e+00	3.117589e-05	
310	-2.20000e+00	3.123537e-05	
311	-2.25000e+00	3.129254e-05	
312	-2.30000e+00	3.134763e-05	
313	-2.35000e+00	3.140082e-05	
314	-2.40000e+00	3.145228e-05	
315	-2.45000e+00	3.150215e-05	
316	-2.50000e+00	3.155055e-05	
317	-2.55000e+00	3.159758e-05	
318	-2.60000e+00	3.164335e-05	
319	-2.65000e+00	3.168794e-05	
320	-2.70000e+00	3.173141e-05	
321	-2.75000e+00	3.177385e-05	
322	-2.80000e+00	3.181530e-05	
323	-2.85000e+00	3.185584e-05	
324	-2.90000e+00	3.189550e-05	
325	-2.95000e+00	3.193434e-05	
326	-3.00000e+00	3.197240e-05	
327	-3.05000e+00	3.200972e-05	
328	-3.10000e+00	3.204634e-05	
329	-3.15000e+00	3.208229e-05	
330	-3.20000e+00	3.211760e-05	
331	-3.25000e+00	3.215231e-05	
332	-3.30000e+00	3.218643e-05	
333	-3.35000e+00	3.222000e-05	
334	-3.40000e+00	3.225305e-05	
335	-3.45000e+00	3.228558e-05	
336	-3.50000e+00	3.231763e-05	
337	-3.55000e+00	3.234921e-05	
338	-3.60000e+00	3.238034e-05	
339	-3.65000e+00	3.241104e-05	
340	-3.70000e+00	3.244132e-05	
341	-3.75000e+00	3.247121e-05	
342	-3.80000e+00	3.250071e-05	
343	-3.85000e+00	3.252985e-05	
344	-3.90000e+00	3.255862e-05	

Index   v-sweep         i(vds)          
--------------------------------------------------------------------------------
345	-3.95000e+00	3.258705e-05	
346	-4.00000e+00	3.261515e-05	
347	-4.05000e+00	3.264293e-05	
348	-4.10000e+00	3.267040e-05	
349	-4.15000e+00	3.269756e-05	
350	-4.20000e+00	3.272444e-05	
351	-4.25000e+00	3.275104e-05	
352	-4.30000e+00	3.277736e-05	
353	-4.35000e+00	3.280343e-05	
354	-4.40000e+00	3.282924e-05	
355	-4.45000e+00	3.285480e-05	
356	-4.50000e+00	3.288013e-05	
357	-4.55000e+00	3.290523e-05	
358	-4.60000e+00	3.293011e-05	
359	-4.65000e+00	3.295478e-05	
360	-4.70000e+00	3.297925e-05	
361	-4.75000e+00	3.300354e-05	
362	-4.80000e+00	3.302764e-05	
363	-4.85000e+00	3.305157e-05	
364	-4.90000e+00	3.307535e-05	
365	-4.95000e+00	3.309898e-05	
366	-5.00000e+00	3.312249e-05	
367	-5.05000e+00	3.314588e-05	
368	-5.10000e+00	3.316918e-05	
369	-5.15000e+00	3.319240e-05	
370	-5.20000e+00	3.321557e-05	
371	-5.25000e+00	3.323871e-05	
372	-5.30000e+00	3.326185e-05	
373	-5.35000e+00	3.328501e-05	
374	-5.40000e+00	3.330824e-05	
375	-5.45000e+00	3.333156e-05	
376	-5.50000e+00	3.335503e-05	
377	-5.55000e+00	3.337867e-05	
378	-5.60000e+00	3.340255e-05	
379	-5.65000e+00	3.342672e-05	
380	-5.70000e+00	3.345124e-05	
381	-5.75000e+00	3.347617e-05	
382	-5.80000e+00	3.350158e-05	
383	-5.85000e+00	3.352755e-05	
384	-5.90000e+00	3.355417e-05	
385	-5.95000e+00	3.358153e-05	
386	-6.00000e+00	3.360972e-05	
387	-6.05000e+00	3.363885e-05	
388	-6.10000e+00	3.366904e-05	
389	-6.15000e+00	3.370041e-05	
390	-6.20000e+00	3.373309e-05	
391	-6.25000e+00	3.376723e-05	
392	-6.30000e+00	3.380296e-05	
393	-6.35000e+00	3.384046e-05	
394	-6.40000e+00	3.387989e-05	
395	-6.45000e+00	3.392144e-05	
396	-6.50000e+00	3.396530e-05	
397	-6.55000e+00	3.401166e-05	
398	-6.60000e+00	3.406074e-05	
399	0.000000e+00	0.000000e+00	
400	-5.00000e-02	2.331424e-06	
401	-1.00000e-01	4.603632e-06	
402	-1.50000e-01	6.823705e-06	

Index   v-sweep         i(vds)          
--------------------------------------------------------------------------------
403	-2.00000e-01	8.993401e-06	
404	-2.50000e-01	1.111324e-05	
405	-3.00000e-01	1.318345e-05	
406	-3.50000e-01	1.520420e-05	
407	-4.00000e-01	1.717564e-05	
408	-4.50000e-01	1.909789e-05	
409	-5.00000e-01	2.097112e-05	
410	-5.50000e-01	2.279545e-05	
411	-6.00000e-01	2.457103e-05	
412	-6.50000e-01	2.629800e-05	
413	-7.00000e-01	2.797649e-05	
414	-7.50000e-01	2.960665e-05	
415	-8.00000e-01	3.118861e-05	
416	-8.50000e-01	3.272252e-05	
417	-9.00000e-01	3.420851e-05	
418	-9.50000e-01	3.564671e-05	
419	-1.00000e+00	3.703728e-05	
420	-1.05000e+00	3.838034e-05	
421	-1.10000e+00	3.967603e-05	
422	-1.15000e+00	4.092450e-05	
423	-1.20000e+00	4.212588e-05	
424	-1.25000e+00	4.328031e-05	
425	-1.30000e+00	4.438793e-05	
426	-1.35000e+00	4.544889e-05	
427	-1.40000e+00	4.646333e-05	
428	-1.45000e+00	4.743140e-05	
429	-1.50000e+00	4.835324e-05	
430	-1.55000e+00	4.922902e-05	
431	-1.60000e+00	5.005890e-05	
432	-1.65000e+00	5.084305e-05	
433	-1.70000e+00	5.158166e-05	
434	-1.75000e+00	5.227493e-05	
435	-1.80000e+00	5.292309e-05	
436	-1.85000e+00	5.352643e-05	
437	-1.90000e+00	5.408526e-05	
438	-1.95000e+00	5.460000e-05	
439	-2.00000e+00	5.507119e-05	
440	-2.05000e+00	5.549956e-05	
441	-2.10000e+00	5.588614e-05	
442	-2.15000e+00	5.623235e-05	
443	-2.20000e+00	5.654022e-05	
444	-2.25000e+00	5.681252e-05	
445	-2.30000e+00	5.705285e-05	
446	-2.35000e+00	5.726550e-05	
447	-2.40000e+00	5.745508e-05	
448	-2.45000e+00	5.762601e-05	
449	-2.50000e+00	5.778208e-05	
450	-2.55000e+00	5.792632e-05	
451	-2.60000e+00	5.806098e-05	
452	-2.65000e+00	5.818776e-05	
453	-2.70000e+00	5.830788e-05	
454	-2.75000e+00	5.842227e-05	
455	-2.80000e+00	5.853166e-05	
456	-2.85000e+00	5.863661e-05	
457	-2.90000e+00	5.873758e-05	
458	-2.95000e+00	5.883495e-05	
459	-3.00000e+00	5.892904e-05	
460	-3.05000e+00	5.902011e-05	

Index   v-sweep         i(vds)          
--------------------------------------------------------------------------------
461	-3.10000e+00	5.910842e-05	
462	-3.15000e+00	5.919416e-05	
463	-3.20000e+00	5.927752e-05	
464	-3.25000e+00	5.935866e-05	
465	-3.30000e+00	5.943773e-05	
466	-3.35000e+00	5.951486e-05	
467	-3.40000e+00	5.959016e-05	
468	-3.45000e+00	5.966375e-05	
469	-3.50000e+00	5.973573e-05	
470	-3.55000e+00	5.980618e-05	
471	-3.60000e+00	5.987518e-05	
472	-3.65000e+00	5.994282e-05	
473	-3.70000e+00	6.000916e-05	
474	-3.75000e+00	6.007426e-05	
475	-3.80000e+00	6.013819e-05	
476	-3.85000e+00	6.020101e-05	
477	-3.90000e+00	6.026276e-05	
478	-3.95000e+00	6.032349e-05	
479	-4.00000e+00	6.038324e-05	
480	-4.05000e+00	6.044207e-05	
481	-4.10000e+00	6.050000e-05	
482	-4.15000e+00	6.055708e-05	
483	-4.20000e+00	6.061334e-05	
484	-4.25000e+00	6.066881e-05	
485	-4.30000e+00	6.072352e-05	
486	-4.35000e+00	6.077751e-05	
487	-4.40000e+00	6.083080e-05	
488	-4.45000e+00	6.088341e-05	
489	-4.50000e+00	6.093537e-05	
490	-4.55000e+00	6.098671e-05	
491	-4.60000e+00	6.103744e-05	
492	-4.65000e+00	6.108758e-05	
493	-4.70000e+00	6.113716e-05	
494	-4.75000e+00	6.118620e-05	
495	-4.80000e+00	6.123471e-05	
496	-4.85000e+00	6.128271e-05	
497	-4.90000e+00	6.133022e-05	
498	-4.95000e+00	6.137725e-05	
499	-5.00000e+00	6.142382e-05	
500	-5.05000e+00	6.146994e-05	
501	-5.10000e+00	6.151563e-05	
502	-5.15000e+00	6.156091e-05	
503	-5.20000e+00	6.160579e-05	
504	-5.25000e+00	6.165028e-05	
505	-5.30000e+00	6.169441e-05	
506	-5.35000e+00	6.173818e-05	
507	-5.40000e+00	6.178162e-05	
508	-5.45000e+00	6.182474e-05	
509	-5.50000e+00	6.186757e-05	
510	-5.55000e+00	6.191012e-05	
511	-5.60000e+00	6.195242e-05	
512	-5.65000e+00	6.199449e-05	
513	-5.70000e+00	6.203636e-05	
514	-5.75000e+00	6.207807e-05	
515	-5.80000e+00	6.211964e-05	
516	-5.85000e+00	6.216112e-05	
517	-5.90000e+00	6.220255e-05	
518	-5.95000e+00	6.224398e-05	

Index   v-sweep         i(vds)          
--------------------------------------------------------------------------------
519	-6.00000e+00	6.228546e-05	
520	-6.05000e+00	6.232705e-05	
521	-6.10000e+00	6.236882e-05	
522	-6.15000e+00	6.241084e-05	
523	-6.20000e+00	6.245319e-05	
524	-6.25000e+00	6.249596e-05	
525	-6.30000e+00	6.253924e-05	
526	-6.35000e+00	6.258315e-05	
527	-6.40000e+00	6.262780e-05	
528	-6.45000e+00	6.267333e-05	
529	-6.50000e+00	6.271986e-05	
530	-6.55000e+00	6.276756e-05	
531	-6.60000e+00	6.281659e-05	
532	0.000000e+00	0.000000e+00	
533	-5.00000e-02	2.855810e-06	
534	-1.00000e-01	5.654589e-06	
535	-1.50000e-01	8.403403e-06	
536	-2.00000e-01	1.110400e-05	
537	-2.50000e-01	1.375688e-05	
538	-3.00000e-01	1.636226e-05	
539	-3.50000e-01	1.892030e-05	
540	-4.00000e-01	2.143112e-05	
541	-4.50000e-01	2.389485e-05	
542	-5.00000e-01	2.631162e-05	
543	-5.50000e-01	2.868156e-05	
544	-6.00000e-01	3.100479e-05	
545	-6.50000e-01	3.328144e-05	
546	-7.00000e-01	3.551164e-05	
547	-7.50000e-01	3.769550e-05	
548	-8.00000e-01	3.983316e-05	
549	-8.50000e-01	4.192474e-05	
550	-9.00000e-01	4.397036e-05	
551	-9.50000e-01	4.597014e-05	
552	-1.00000e+00	4.792422e-05	
553	-1.05000e+00	4.983271e-05	
554	-1.10000e+00	5.169573e-05	
555	-1.15000e+00	5.351341e-05	
556	-1.20000e+00	5.528586e-05	
557	-1.25000e+00	5.701322e-05	
558	-1.30000e+00	5.869560e-05	
559	-1.35000e+00	6.033313e-05	
560	-1.40000e+00	6.192592e-05	
561	-1.45000e+00	6.347410e-05	
562	-1.50000e+00	6.497778e-05	
563	-1.55000e+00	6.643710e-05	
564	-1.60000e+00	6.785216e-05	
565	-1.65000e+00	6.922310e-05	
566	-1.70000e+00	7.055003e-05	
567	-1.75000e+00	7.183308e-05	
568	-1.80000e+00	7.307236e-05	
569	-1.85000e+00	7.426802e-05	
570	-1.90000e+00	7.542016e-05	
571	-1.95000e+00	7.652892e-05	
572	-2.00000e+00	7.759443e-05	
573	-2.05000e+00	7.861682e-05	
574	-2.10000e+00	7.959622e-05	
575	-2.15000e+00	8.053279e-05	
576	-2.20000e+00	8.142667e-05	

Index   v-sweep         i(vds)          
--------------------------------------------------------------------------------
577	-2.25000e+00	8.227801e-05	
578	-2.30000e+00	8.308699e-05	
579	-2.35000e+00	8.385380e-05	
580	-2.40000e+00	8.457864e-05	
581	-2.45000e+00	8.526176e-05	
582	-2.50000e+00	8.590344e-05	
583	-2.55000e+00	8.650404e-05	
584	-2.60000e+00	8.706398e-05	
585	-2.65000e+00	8.758383e-05	
586	-2.70000e+00	8.806433e-05	
587	-2.75000e+00	8.850647e-05	
588	-2.80000e+00	8.891158e-05	
589	-2.85000e+00	8.928144e-05	
590	-2.90000e+00	8.961835e-05	
591	-2.95000e+00	8.992516e-05	
592	-3.00000e+00	9.020517e-05	
593	-3.05000e+00	9.046192e-05	
594	-3.10000e+00	9.069887e-05	
595	-3.15000e+00	9.091915e-05	
596	-3.20000e+00	9.112541e-05	
597	-3.25000e+00	9.131979e-05	
598	-3.30000e+00	9.150401e-05	
599	-3.35000e+00	9.167941e-05	
600	-3.40000e+00	9.184706e-05	
601	-3.45000e+00	9.200781e-05	
602	-3.50000e+00	9.216237e-05	
603	-3.55000e+00	9.231133e-05	
604	-3.60000e+00	9.245519e-05	
605	-3.65000e+00	9.259437e-05	
606	-3.70000e+00	9.272926e-05	
607	-3.75000e+00	9.286016e-05	
608	-3.80000e+00	9.298737e-05	
609	-3.85000e+00	9.311114e-05	
610	-3.90000e+00	9.323171e-05	
611	-3.95000e+00	9.334928e-05	
612	-4.00000e+00	9.346402e-05	
613	-4.05000e+00	9.357613e-05	
614	-4.10000e+00	9.368574e-05	
615	-4.15000e+00	9.379299e-05	
616	-4.20000e+00	9.389803e-05	
617	-4.25000e+00	9.400096e-05	
618	-4.30000e+00	9.410189e-05	
619	-4.35000e+00	9.420093e-05	
620	-4.40000e+00	9.429816e-05	
621	-4.45000e+00	9.439368e-05	
622	-4.50000e+00	9.448756e-05	
623	-4.55000e+00	9.457989e-05	
624	-4.60000e+00	9.467072e-05	
625	-4.65000e+00	9.476013e-05	
626	-4.70000e+00	9.484818e-05	
627	-4.75000e+00	9.493492e-05	
628	-4.80000e+00	9.502040e-05	
629	-4.85000e+00	9.510469e-05	
630	-4.90000e+00	9.518782e-05	
631	-4.95000e+00	9.526984e-05	
632	-5.00000e+00	9.535079e-05	
633	-5.05000e+00	9.543071e-05	
634	-5.10000e+00	9.550964e-05	

Index   v-sweep         i(vds)          
--------------------------------------------------------------------------------
635	-5.15000e+00	9.558762e-05	
636	-5.20000e+00	9.566468e-05	
637	-5.25000e+00	9.574085e-05	
638	-5.30000e+00	9.581616e-05	
639	-5.35000e+00	9.589064e-05	
640	-5.40000e+00	9.596432e-05	
641	-5.45000e+00	9.603723e-05	
642	-5.50000e+00	9.610938e-05	
643	-5.55000e+00	9.618082e-05	
644	-5.60000e+00	9.625155e-05	
645	-5.65000e+00	9.632160e-05	
646	-5.70000e+00	9.639100e-05	
647	-5.75000e+00	9.645976e-05	
648	-5.80000e+00	9.652792e-05	
649	-5.85000e+00	9.659549e-05	
650	-5.90000e+00	9.666249e-05	
651	-5.95000e+00	9.672895e-05	
652	-6.00000e+00	9.679490e-05	
653	-6.05000e+00	9.686035e-05	
654	-6.10000e+00	9.692534e-05	
655	-6.15000e+00	9.698990e-05	
656	-6.20000e+00	9.705406e-05	
657	-6.25000e+00	9.711785e-05	
658	-6.30000e+00	9.718131e-05	
659	-6.35000e+00	9.724450e-05	
660	-6.40000e+00	9.730744e-05	
661	-6.45000e+00	9.737021e-05	
662	-6.50000e+00	9.743285e-05	
663	-6.55000e+00	9.749543e-05	
664	-6.60000e+00	9.755803e-05	
665	0.000000e+00	0.000000e+00	
666	-5.00000e-02	3.332783e-06	
667	-1.00000e-01	6.610400e-06	
668	-1.50000e-01	9.839909e-06	
669	-2.00000e-01	1.302304e-05	
670	-2.50000e-01	1.616029e-05	
671	-3.00000e-01	1.925187e-05	
672	-3.50000e-01	2.229791e-05	
673	-4.00000e-01	2.529853e-05	
674	-4.50000e-01	2.825386e-05	
675	-5.00000e-01	3.116400e-05	
676	-5.50000e-01	3.402908e-05	
677	-6.00000e-01	3.684921e-05	
678	-6.50000e-01	3.962450e-05	
679	-7.00000e-01	4.235508e-05	
680	-7.50000e-01	4.504105e-05	
681	-8.00000e-01	4.768253e-05	
682	-8.50000e-01	5.027963e-05	
683	-9.00000e-01	5.283247e-05	
684	-9.50000e-01	5.534115e-05	
685	-1.00000e+00	5.780580e-05	
686	-1.05000e+00	6.022653e-05	
687	-1.10000e+00	6.260344e-05	
688	-1.15000e+00	6.493665e-05	
689	-1.20000e+00	6.722626e-05	
690	-1.25000e+00	6.947240e-05	
691	-1.30000e+00	7.167517e-05	
692	-1.35000e+00	7.383468e-05	

Index   v-sweep         i(vds)          
--------------------------------------------------------------------------------
693	-1.40000e+00	7.595104e-05	
694	-1.45000e+00	7.802437e-05	
695	-1.50000e+00	8.005476e-05	
696	-1.55000e+00	8.204234e-05	
697	-1.60000e+00	8.398721e-05	
698	-1.65000e+00	8.588947e-05	
699	-1.70000e+00	8.774924e-05	
700	-1.75000e+00	8.956663e-05	
701	-1.80000e+00	9.134174e-05	
702	-1.85000e+00	9.307469e-05	
703	-1.90000e+00	9.476557e-05	
704	-1.95000e+00	9.641450e-05	
705	-2.00000e+00	9.802159e-05	
706	-2.05000e+00	9.958695e-05	
707	-2.10000e+00	1.011107e-04	
708	-2.15000e+00	1.025929e-04	
709	-2.20000e+00	1.040337e-04	
710	-2.25000e+00	1.054332e-04	
711	-2.30000e+00	1.067915e-04	
712	-2.35000e+00	1.081087e-04	
713	-2.40000e+00	1.093850e-04	
714	-2.45000e+00	1.106204e-04	
715	-2.50000e+00	1.118151e-04	
716	-2.55000e+00	1.129691e-04	
717	-2.60000e+00	1.140826e-04	
718	-2.65000e+00	1.151558e-04	
719	-2.70000e+00	1.161887e-04	
720	-2.75000e+00	1.171814e-04	
721	-2.80000e+00	1.181342e-04	
722	-2.85000e+00	1.190471e-04	
723	-2.90000e+00	1.199204e-04	
724	-2.95000e+00	1.207541e-04	
725	-3.00000e+00	1.215486e-04	
726	-3.05000e+00	1.223039e-04	
727	-3.10000e+00	1.230204e-04	
728	-3.15000e+00	1.236984e-04	
729	-3.20000e+00	1.243382e-04	
730	-3.25000e+00	1.249403e-04	
731	-3.30000e+00	1.255053e-04	
732	-3.35000e+00	1.260339e-04	
733	-3.40000e+00	1.265271e-04	
734	-3.45000e+00	1.269863e-04	
735	-3.50000e+00	1.274129e-04	
736	-3.55000e+00	1.278090e-04	
737	-3.60000e+00	1.281770e-04	
738	-3.65000e+00	1.285194e-04	
739	-3.70000e+00	1.288391e-04	
740	-3.75000e+00	1.291388e-04	
741	-3.80000e+00	1.294211e-04	
742	-3.85000e+00	1.296880e-04	
743	-3.90000e+00	1.299417e-04	
744	-3.95000e+00	1.301835e-04	
745	-4.00000e+00	1.304148e-04	
746	-4.05000e+00	1.306367e-04	
747	-4.10000e+00	1.308502e-04	
748	-4.15000e+00	1.310559e-04	
749	-4.20000e+00	1.312546e-04	
750	-4.25000e+00	1.314469e-04	

Index   v-sweep         i(vds)          
--------------------------------------------------------------------------------
751	-4.30000e+00	1.316331e-04	
752	-4.35000e+00	1.318139e-04	
753	-4.40000e+00	1.319896e-04	
754	-4.45000e+00	1.321604e-04	
755	-4.50000e+00	1.323269e-04	
756	-4.55000e+00	1.324891e-04	
757	-4.60000e+00	1.326475e-04	
758	-4.65000e+00	1.328022e-04	
759	-4.70000e+00	1.329534e-04	
760	-4.75000e+00	1.331014e-04	
761	-4.80000e+00	1.332463e-04	
762	-4.85000e+00	1.333883e-04	
763	-4.90000e+00	1.335275e-04	
764	-4.95000e+00	1.336641e-04	
765	-5.00000e+00	1.337982e-04	
766	-5.05000e+00	1.339299e-04	
767	-5.10000e+00	1.340594e-04	
768	-5.15000e+00	1.341867e-04	
769	-5.20000e+00	1.343119e-04	
770	-5.25000e+00	1.344352e-04	
771	-5.30000e+00	1.345566e-04	
772	-5.35000e+00	1.346762e-04	
773	-5.40000e+00	1.347940e-04	
774	-5.45000e+00	1.349102e-04	
775	-5.50000e+00	1.350249e-04	
776	-5.55000e+00	1.351379e-04	
777	-5.60000e+00	1.352496e-04	
778	-5.65000e+00	1.353598e-04	
779	-5.70000e+00	1.354686e-04	
780	-5.75000e+00	1.355761e-04	
781	-5.80000e+00	1.356824e-04	
782	-5.85000e+00	1.357874e-04	
783	-5.90000e+00	1.358912e-04	
784	-5.95000e+00	1.359939e-04	
785	-6.00000e+00	1.360955e-04	
786	-6.05000e+00	1.361961e-04	
787	-6.10000e+00	1.362956e-04	
788	-6.15000e+00	1.363941e-04	
789	-6.20000e+00	1.364917e-04	
790	-6.25000e+00	1.365883e-04	
791	-6.30000e+00	1.366840e-04	
792	-6.35000e+00	1.367788e-04	
793	-6.40000e+00	1.368728e-04	
794	-6.45000e+00	1.369660e-04	
795	-6.50000e+00	1.370585e-04	
796	-6.55000e+00	1.371501e-04	
797	-6.60000e+00	1.372411e-04	
Note: No ".plot", ".print", or ".fourier" lines; no simulations run
