
Note: Compatibility modes selected: hs

Warning: m=xx on .subckt line will override multiplier m hierarchy!


Circuit: ***************************

Doing analysis at TEMP = -40.000000 and TNOM = -40.000000


No. of Data Rows : 798
                          ***************************
                          DC transfer characteristic  Mon Jan  9 13:57:53  2023
--------------------------------------------------------------------------------
Index   v-sweep         i(vds)          
--------------------------------------------------------------------------------
0	0.000000e+00	0.000000e+00	
1	-5.00000e-02	9.292705e-09	
2	-1.00000e-01	1.101771e-08	
3	-1.50000e-01	1.126891e-08	
4	-2.00000e-01	1.134124e-08	
5	-2.50000e-01	1.137609e-08	
6	-3.00000e-01	1.139852e-08	
7	-3.50000e-01	1.141546e-08	
8	-4.00000e-01	1.142947e-08	
9	-4.50000e-01	1.144168e-08	
10	-5.00000e-01	1.145267e-08	
11	-5.50000e-01	1.146279e-08	
12	-6.00000e-01	1.147223e-08	
13	-6.50000e-01	1.148114e-08	
14	-7.00000e-01	1.148961e-08	
15	-7.50000e-01	1.149771e-08	
16	-8.00000e-01	1.150550e-08	
17	-8.50000e-01	1.151301e-08	
18	-9.00000e-01	1.152028e-08	
19	-9.50000e-01	1.152735e-08	
20	-1.00000e+00	1.153422e-08	
21	-1.05000e+00	1.154092e-08	
22	-1.10000e+00	1.154746e-08	
23	-1.15000e+00	1.155386e-08	
24	-1.20000e+00	1.156014e-08	
25	-1.25000e+00	1.156629e-08	
26	-1.30000e+00	1.157233e-08	
27	-1.35000e+00	1.157827e-08	
28	-1.40000e+00	1.158411e-08	
29	-1.45000e+00	1.158987e-08	
30	-1.50000e+00	1.159554e-08	
31	-1.55000e+00	1.160114e-08	
32	-1.60000e+00	1.160666e-08	
33	-1.65000e+00	1.161211e-08	
34	-1.70000e+00	1.161750e-08	
35	-1.75000e+00	1.162282e-08	
36	-1.80000e+00	1.162809e-08	
37	-1.85000e+00	1.163330e-08	
38	-1.90000e+00	1.163846e-08	
39	-1.95000e+00	1.164357e-08	
40	-2.00000e+00	1.164864e-08	
41	-2.05000e+00	1.165365e-08	
42	-2.10000e+00	1.165863e-08	
43	-2.15000e+00	1.166356e-08	
44	-2.20000e+00	1.166846e-08	
45	-2.25000e+00	1.167332e-08	
46	-2.30000e+00	1.167814e-08	
47	-2.35000e+00	1.168292e-08	
48	-2.40000e+00	1.168768e-08	
49	-2.45000e+00	1.169240e-08	
50	-2.50000e+00	1.169709e-08	
51	-2.55000e+00	1.170175e-08	
52	-2.60000e+00	1.170639e-08	
53	-2.65000e+00	1.171100e-08	
54	-2.70000e+00	1.171558e-08	

Index   v-sweep         i(vds)          
--------------------------------------------------------------------------------
55	-2.75000e+00	1.172013e-08	
56	-2.80000e+00	1.172467e-08	
57	-2.85000e+00	1.172918e-08	
58	-2.90000e+00	1.173367e-08	
59	-2.95000e+00	1.173814e-08	
60	-3.00000e+00	1.174260e-08	
61	-3.05000e+00	1.174703e-08	
62	-3.10000e+00	1.175146e-08	
63	-3.15000e+00	1.175587e-08	
64	-3.20000e+00	1.176027e-08	
65	-3.25000e+00	1.176466e-08	
66	-3.30000e+00	1.176905e-08	
67	-3.35000e+00	1.177344e-08	
68	-3.40000e+00	1.177783e-08	
69	-3.45000e+00	1.178223e-08	
70	-3.50000e+00	1.178664e-08	
71	-3.55000e+00	1.179107e-08	
72	-3.60000e+00	1.179553e-08	
73	-3.65000e+00	1.180002e-08	
74	-3.70000e+00	1.180456e-08	
75	-3.75000e+00	1.180915e-08	
76	-3.80000e+00	1.181380e-08	
77	-3.85000e+00	1.181852e-08	
78	-3.90000e+00	1.182334e-08	
79	-3.95000e+00	1.182826e-08	
80	-4.00000e+00	1.183330e-08	
81	-4.05000e+00	1.183849e-08	
82	-4.10000e+00	1.184383e-08	
83	-4.15000e+00	1.184936e-08	
84	-4.20000e+00	1.185510e-08	
85	-4.25000e+00	1.186108e-08	
86	-4.30000e+00	1.186732e-08	
87	-4.35000e+00	1.187385e-08	
88	-4.40000e+00	1.188072e-08	
89	-4.45000e+00	1.188796e-08	
90	-4.50000e+00	1.189561e-08	
91	-4.55000e+00	1.190371e-08	
92	-4.60000e+00	1.191231e-08	
93	-4.65000e+00	1.192145e-08	
94	-4.70000e+00	1.193120e-08	
95	-4.75000e+00	1.194161e-08	
96	-4.80000e+00	1.195273e-08	
97	-4.85000e+00	1.196463e-08	
98	-4.90000e+00	1.197738e-08	
99	-4.95000e+00	1.199105e-08	
100	-5.00000e+00	1.200572e-08	
101	-5.05000e+00	1.202145e-08	
102	-5.10000e+00	1.203834e-08	
103	-5.15000e+00	1.205648e-08	
104	-5.20000e+00	1.207595e-08	
105	-5.25000e+00	1.209684e-08	
106	-5.30000e+00	1.211927e-08	
107	-5.35000e+00	1.214333e-08	
108	-5.40000e+00	1.216914e-08	
109	-5.45000e+00	1.219680e-08	
110	-5.50000e+00	1.222644e-08	
111	-5.55000e+00	1.225818e-08	
112	-5.60000e+00	1.229213e-08	

Index   v-sweep         i(vds)          
--------------------------------------------------------------------------------
113	-5.65000e+00	1.232845e-08	
114	-5.70000e+00	1.236725e-08	
115	-5.75000e+00	1.240869e-08	
116	-5.80000e+00	1.245291e-08	
117	-5.85000e+00	1.250006e-08	
118	-5.90000e+00	1.255028e-08	
119	-5.95000e+00	1.260375e-08	
120	-6.00000e+00	1.266063e-08	
121	-6.05000e+00	1.272108e-08	
122	-6.10000e+00	1.278528e-08	
123	-6.15000e+00	1.285340e-08	
124	-6.20000e+00	1.292563e-08	
125	-6.25000e+00	1.300215e-08	
126	-6.30000e+00	1.308315e-08	
127	-6.35000e+00	1.316884e-08	
128	-6.40000e+00	1.325939e-08	
129	-6.45000e+00	1.335503e-08	
130	-6.50000e+00	1.345596e-08	
131	-6.55000e+00	1.356239e-08	
132	-6.60000e+00	1.367453e-08	
133	0.000000e+00	0.000000e+00	
134	-5.00000e-02	3.099813e-07	
135	-1.00000e-01	5.978084e-07	
136	-1.50000e-01	8.635287e-07	
137	-2.00000e-01	1.107192e-06	
138	-2.50000e-01	1.328852e-06	
139	-3.00000e-01	1.528569e-06	
140	-3.50000e-01	1.706412e-06	
141	-4.00000e-01	1.862470e-06	
142	-4.50000e-01	1.996869e-06	
143	-5.00000e-01	2.109799e-06	
144	-5.50000e-01	2.201595e-06	
145	-6.00000e-01	2.272885e-06	
146	-6.50000e-01	2.324909e-06	
147	-7.00000e-01	2.360012e-06	
148	-7.50000e-01	2.381939e-06	
149	-8.00000e-01	2.395146e-06	
150	-8.50000e-01	2.403370e-06	
151	-9.00000e-01	2.408939e-06	
152	-9.50000e-01	2.413079e-06	
153	-1.00000e+00	2.416401e-06	
154	-1.05000e+00	2.419217e-06	
155	-1.10000e+00	2.421699e-06	
156	-1.15000e+00	2.423943e-06	
157	-1.20000e+00	2.426011e-06	
158	-1.25000e+00	2.427941e-06	
159	-1.30000e+00	2.429761e-06	
160	-1.35000e+00	2.431490e-06	
161	-1.40000e+00	2.433143e-06	
162	-1.45000e+00	2.434731e-06	
163	-1.50000e+00	2.436261e-06	
164	-1.55000e+00	2.437742e-06	
165	-1.60000e+00	2.439178e-06	
166	-1.65000e+00	2.440574e-06	
167	-1.70000e+00	2.441935e-06	
168	-1.75000e+00	2.443263e-06	
169	-1.80000e+00	2.444562e-06	
170	-1.85000e+00	2.445834e-06	

Index   v-sweep         i(vds)          
--------------------------------------------------------------------------------
171	-1.90000e+00	2.447080e-06	
172	-1.95000e+00	2.448304e-06	
173	-2.00000e+00	2.449507e-06	
174	-2.05000e+00	2.450689e-06	
175	-2.10000e+00	2.451853e-06	
176	-2.15000e+00	2.453000e-06	
177	-2.20000e+00	2.454131e-06	
178	-2.25000e+00	2.455247e-06	
179	-2.30000e+00	2.456348e-06	
180	-2.35000e+00	2.457436e-06	
181	-2.40000e+00	2.458511e-06	
182	-2.45000e+00	2.459574e-06	
183	-2.50000e+00	2.460626e-06	
184	-2.55000e+00	2.461667e-06	
185	-2.60000e+00	2.462698e-06	
186	-2.65000e+00	2.463719e-06	
187	-2.70000e+00	2.464731e-06	
188	-2.75000e+00	2.465733e-06	
189	-2.80000e+00	2.466728e-06	
190	-2.85000e+00	2.467714e-06	
191	-2.90000e+00	2.468692e-06	
192	-2.95000e+00	2.469663e-06	
193	-3.00000e+00	2.470627e-06	
194	-3.05000e+00	2.471584e-06	
195	-3.10000e+00	2.472535e-06	
196	-3.15000e+00	2.473479e-06	
197	-3.20000e+00	2.474418e-06	
198	-3.25000e+00	2.475350e-06	
199	-3.30000e+00	2.476277e-06	
200	-3.35000e+00	2.477199e-06	
201	-3.40000e+00	2.478115e-06	
202	-3.45000e+00	2.479027e-06	
203	-3.50000e+00	2.479934e-06	
204	-3.55000e+00	2.480837e-06	
205	-3.60000e+00	2.481736e-06	
206	-3.65000e+00	2.482631e-06	
207	-3.70000e+00	2.483523e-06	
208	-3.75000e+00	2.484412e-06	
209	-3.80000e+00	2.485298e-06	
210	-3.85000e+00	2.486181e-06	
211	-3.90000e+00	2.487064e-06	
212	-3.95000e+00	2.487945e-06	
213	-4.00000e+00	2.488826e-06	
214	-4.05000e+00	2.489707e-06	
215	-4.10000e+00	2.490590e-06	
216	-4.15000e+00	2.491475e-06	
217	-4.20000e+00	2.492364e-06	
218	-4.25000e+00	2.493258e-06	
219	-4.30000e+00	2.494159e-06	
220	-4.35000e+00	2.495068e-06	
221	-4.40000e+00	2.495987e-06	
222	-4.45000e+00	2.496919e-06	
223	-4.50000e+00	2.497866e-06	
224	-4.55000e+00	2.498830e-06	
225	-4.60000e+00	2.499816e-06	
226	-4.65000e+00	2.500826e-06	
227	-4.70000e+00	2.501865e-06	
228	-4.75000e+00	2.502935e-06	

Index   v-sweep         i(vds)          
--------------------------------------------------------------------------------
229	-4.80000e+00	2.504043e-06	
230	-4.85000e+00	2.505193e-06	
231	-4.90000e+00	2.506390e-06	
232	-4.95000e+00	2.507641e-06	
233	-5.00000e+00	2.508953e-06	
234	-5.05000e+00	2.510331e-06	
235	-5.10000e+00	2.511784e-06	
236	-5.15000e+00	2.513320e-06	
237	-5.20000e+00	2.514948e-06	
238	-5.25000e+00	2.516678e-06	
239	-5.30000e+00	2.518519e-06	
240	-5.35000e+00	2.520483e-06	
241	-5.40000e+00	2.522580e-06	
242	-5.45000e+00	2.524824e-06	
243	-5.50000e+00	2.527228e-06	
244	-5.55000e+00	2.529804e-06	
245	-5.60000e+00	2.532569e-06	
246	-5.65000e+00	2.535537e-06	
247	-5.70000e+00	2.538725e-06	
248	-5.75000e+00	2.542150e-06	
249	-5.80000e+00	2.545830e-06	
250	-5.85000e+00	2.549784e-06	
251	-5.90000e+00	2.554031e-06	
252	-5.95000e+00	2.558594e-06	
253	-6.00000e+00	2.563492e-06	
254	-6.05000e+00	2.568749e-06	
255	-6.10000e+00	2.574389e-06	
256	-6.15000e+00	2.580435e-06	
257	-6.20000e+00	2.586914e-06	
258	-6.25000e+00	2.593852e-06	
259	-6.30000e+00	2.601275e-06	
260	-6.35000e+00	2.609214e-06	
261	-6.40000e+00	2.617696e-06	
262	-6.45000e+00	2.626752e-06	
263	-6.50000e+00	2.636413e-06	
264	-6.55000e+00	2.646713e-06	
265	-6.60000e+00	2.657683e-06	
266	0.000000e+00	0.000000e+00	
267	-5.00000e-02	5.729884e-07	
268	-1.00000e-01	1.125327e-06	
269	-1.50000e-01	1.657051e-06	
270	-2.00000e-01	2.168199e-06	
271	-2.50000e-01	2.658805e-06	
272	-3.00000e-01	3.128907e-06	
273	-3.50000e-01	3.578541e-06	
274	-4.00000e-01	4.007744e-06	
275	-4.50000e-01	4.416554e-06	
276	-5.00000e-01	4.805007e-06	
277	-5.50000e-01	5.173143e-06	
278	-6.00000e-01	5.520999e-06	
279	-6.50000e-01	5.848617e-06	
280	-7.00000e-01	6.156038e-06	
281	-7.50000e-01	6.443305e-06	
282	-8.00000e-01	6.710465e-06	
283	-8.50000e-01	6.957571e-06	
284	-9.00000e-01	7.184680e-06	
285	-9.50000e-01	7.391861e-06	
286	-1.00000e+00	7.579200e-06	

Index   v-sweep         i(vds)          
--------------------------------------------------------------------------------
287	-1.05000e+00	7.746808e-06	
288	-1.10000e+00	7.894839e-06	
289	-1.15000e+00	8.023521e-06	
290	-1.20000e+00	8.133202e-06	
291	-1.25000e+00	8.224442e-06	
292	-1.30000e+00	8.298146e-06	
293	-1.35000e+00	8.355743e-06	
294	-1.40000e+00	8.399334e-06	
295	-1.45000e+00	8.431620e-06	
296	-1.50000e+00	8.455518e-06	
297	-1.55000e+00	8.473622e-06	
298	-1.60000e+00	8.487886e-06	
299	-1.65000e+00	8.499622e-06	
300	-1.70000e+00	8.509659e-06	
301	-1.75000e+00	8.518511e-06	
302	-1.80000e+00	8.526505e-06	
303	-1.85000e+00	8.533852e-06	
304	-1.90000e+00	8.540694e-06	
305	-1.95000e+00	8.547131e-06	
306	-2.00000e+00	8.553235e-06	
307	-2.05000e+00	8.559059e-06	
308	-2.10000e+00	8.564645e-06	
309	-2.15000e+00	8.570023e-06	
310	-2.20000e+00	8.575221e-06	
311	-2.25000e+00	8.580258e-06	
312	-2.30000e+00	8.585152e-06	
313	-2.35000e+00	8.589917e-06	
314	-2.40000e+00	8.594566e-06	
315	-2.45000e+00	8.599109e-06	
316	-2.50000e+00	8.603556e-06	
317	-2.55000e+00	8.607914e-06	
318	-2.60000e+00	8.612189e-06	
319	-2.65000e+00	8.616390e-06	
320	-2.70000e+00	8.620519e-06	
321	-2.75000e+00	8.624584e-06	
322	-2.80000e+00	8.628587e-06	
323	-2.85000e+00	8.632534e-06	
324	-2.90000e+00	8.636426e-06	
325	-2.95000e+00	8.640269e-06	
326	-3.00000e+00	8.644064e-06	
327	-3.05000e+00	8.647814e-06	
328	-3.10000e+00	8.651522e-06	
329	-3.15000e+00	8.655190e-06	
330	-3.20000e+00	8.658820e-06	
331	-3.25000e+00	8.662414e-06	
332	-3.30000e+00	8.665973e-06	
333	-3.35000e+00	8.669500e-06	
334	-3.40000e+00	8.672996e-06	
335	-3.45000e+00	8.676463e-06	
336	-3.50000e+00	8.679901e-06	
337	-3.55000e+00	8.683312e-06	
338	-3.60000e+00	8.686697e-06	
339	-3.65000e+00	8.690057e-06	
340	-3.70000e+00	8.693394e-06	
341	-3.75000e+00	8.696707e-06	
342	-3.80000e+00	8.699999e-06	
343	-3.85000e+00	8.703270e-06	
344	-3.90000e+00	8.706520e-06	

Index   v-sweep         i(vds)          
--------------------------------------------------------------------------------
345	-3.95000e+00	8.709751e-06	
346	-4.00000e+00	8.712964e-06	
347	-4.05000e+00	8.716159e-06	
348	-4.10000e+00	8.719337e-06	
349	-4.15000e+00	8.722499e-06	
350	-4.20000e+00	8.725645e-06	
351	-4.25000e+00	8.728777e-06	
352	-4.30000e+00	8.731896e-06	
353	-4.35000e+00	8.735002e-06	
354	-4.40000e+00	8.738097e-06	
355	-4.45000e+00	8.741183e-06	
356	-4.50000e+00	8.744259e-06	
357	-4.55000e+00	8.747329e-06	
358	-4.60000e+00	8.750394e-06	
359	-4.65000e+00	8.753456e-06	
360	-4.70000e+00	8.756519e-06	
361	-4.75000e+00	8.759583e-06	
362	-4.80000e+00	8.762654e-06	
363	-4.85000e+00	8.765735e-06	
364	-4.90000e+00	8.768829e-06	
365	-4.95000e+00	8.771942e-06	
366	-5.00000e+00	8.775080e-06	
367	-5.05000e+00	8.778249e-06	
368	-5.10000e+00	8.781456e-06	
369	-5.15000e+00	8.784708e-06	
370	-5.20000e+00	8.788015e-06	
371	-5.25000e+00	8.791387e-06	
372	-5.30000e+00	8.794834e-06	
373	-5.35000e+00	8.798370e-06	
374	-5.40000e+00	8.802007e-06	
375	-5.45000e+00	8.805761e-06	
376	-5.50000e+00	8.809648e-06	
377	-5.55000e+00	8.813685e-06	
378	-5.60000e+00	8.817893e-06	
379	-5.65000e+00	8.822294e-06	
380	-5.70000e+00	8.826909e-06	
381	-5.75000e+00	8.831764e-06	
382	-5.80000e+00	8.836887e-06	
383	-5.85000e+00	8.842307e-06	
384	-5.90000e+00	8.848054e-06	
385	-5.95000e+00	8.854164e-06	
386	-6.00000e+00	8.860671e-06	
387	-6.05000e+00	8.867615e-06	
388	-6.10000e+00	8.875036e-06	
389	-6.15000e+00	8.882979e-06	
390	-6.20000e+00	8.891489e-06	
391	-6.25000e+00	8.900616e-06	
392	-6.30000e+00	8.910411e-06	
393	-6.35000e+00	8.920930e-06	
394	-6.40000e+00	8.932231e-06	
395	-6.45000e+00	8.944373e-06	
396	-6.50000e+00	8.957422e-06	
397	-6.55000e+00	8.971443e-06	
398	-6.60000e+00	8.986508e-06	
399	0.000000e+00	0.000000e+00	
400	-5.00000e-02	7.901533e-07	
401	-1.00000e-01	1.561278e-06	
402	-1.50000e-01	2.313405e-06	

Index   v-sweep         i(vds)          
--------------------------------------------------------------------------------
403	-2.00000e-01	3.046564e-06	
404	-2.50000e-01	3.760785e-06	
405	-3.00000e-01	4.456100e-06	
406	-3.50000e-01	5.132539e-06	
407	-4.00000e-01	5.790131e-06	
408	-4.50000e-01	6.428907e-06	
409	-5.00000e-01	7.048898e-06	
410	-5.50000e-01	7.650133e-06	
411	-6.00000e-01	8.232644e-06	
412	-6.50000e-01	8.796459e-06	
413	-7.00000e-01	9.341611e-06	
414	-7.50000e-01	9.868128e-06	
415	-8.00000e-01	1.037604e-05	
416	-8.50000e-01	1.086538e-05	
417	-9.00000e-01	1.133618e-05	
418	-9.50000e-01	1.178847e-05	
419	-1.00000e+00	1.222228e-05	
420	-1.05000e+00	1.263765e-05	
421	-1.10000e+00	1.303459e-05	
422	-1.15000e+00	1.341316e-05	
423	-1.20000e+00	1.377337e-05	
424	-1.25000e+00	1.411528e-05	
425	-1.30000e+00	1.443890e-05	
426	-1.35000e+00	1.474429e-05	
427	-1.40000e+00	1.503147e-05	
428	-1.45000e+00	1.530051e-05	
429	-1.50000e+00	1.555144e-05	
430	-1.55000e+00	1.578434e-05	
431	-1.60000e+00	1.599925e-05	
432	-1.65000e+00	1.619628e-05	
433	-1.70000e+00	1.637552e-05	
434	-1.75000e+00	1.653714e-05	
435	-1.80000e+00	1.668132e-05	
436	-1.85000e+00	1.680836e-05	
437	-1.90000e+00	1.691867e-05	
438	-1.95000e+00	1.701289e-05	
439	-2.00000e+00	1.709191e-05	
440	-2.05000e+00	1.715702e-05	
441	-2.10000e+00	1.720992e-05	
442	-2.15000e+00	1.725261e-05	
443	-2.20000e+00	1.728723e-05	
444	-2.25000e+00	1.731574e-05	
445	-2.30000e+00	1.733976e-05	
446	-2.35000e+00	1.736052e-05	
447	-2.40000e+00	1.737888e-05	
448	-2.45000e+00	1.739546e-05	
449	-2.50000e+00	1.741067e-05	
450	-2.55000e+00	1.742480e-05	
451	-2.60000e+00	1.743806e-05	
452	-2.65000e+00	1.745062e-05	
453	-2.70000e+00	1.746258e-05	
454	-2.75000e+00	1.747403e-05	
455	-2.80000e+00	1.748504e-05	
456	-2.85000e+00	1.749567e-05	
457	-2.90000e+00	1.750596e-05	
458	-2.95000e+00	1.751595e-05	
459	-3.00000e+00	1.752567e-05	
460	-3.05000e+00	1.753515e-05	

Index   v-sweep         i(vds)          
--------------------------------------------------------------------------------
461	-3.10000e+00	1.754441e-05	
462	-3.15000e+00	1.755346e-05	
463	-3.20000e+00	1.756233e-05	
464	-3.25000e+00	1.757104e-05	
465	-3.30000e+00	1.757958e-05	
466	-3.35000e+00	1.758798e-05	
467	-3.40000e+00	1.759624e-05	
468	-3.45000e+00	1.760438e-05	
469	-3.50000e+00	1.761240e-05	
470	-3.55000e+00	1.762031e-05	
471	-3.60000e+00	1.762811e-05	
472	-3.65000e+00	1.763582e-05	
473	-3.70000e+00	1.764344e-05	
474	-3.75000e+00	1.765096e-05	
475	-3.80000e+00	1.765841e-05	
476	-3.85000e+00	1.766578e-05	
477	-3.90000e+00	1.767308e-05	
478	-3.95000e+00	1.768030e-05	
479	-4.00000e+00	1.768746e-05	
480	-4.05000e+00	1.769455e-05	
481	-4.10000e+00	1.770159e-05	
482	-4.15000e+00	1.770857e-05	
483	-4.20000e+00	1.771549e-05	
484	-4.25000e+00	1.772236e-05	
485	-4.30000e+00	1.772917e-05	
486	-4.35000e+00	1.773594e-05	
487	-4.40000e+00	1.774267e-05	
488	-4.45000e+00	1.774934e-05	
489	-4.50000e+00	1.775598e-05	
490	-4.55000e+00	1.776257e-05	
491	-4.60000e+00	1.776913e-05	
492	-4.65000e+00	1.777565e-05	
493	-4.70000e+00	1.778213e-05	
494	-4.75000e+00	1.778857e-05	
495	-4.80000e+00	1.779499e-05	
496	-4.85000e+00	1.780137e-05	
497	-4.90000e+00	1.780772e-05	
498	-4.95000e+00	1.781404e-05	
499	-5.00000e+00	1.782034e-05	
500	-5.05000e+00	1.782661e-05	
501	-5.10000e+00	1.783286e-05	
502	-5.15000e+00	1.783910e-05	
503	-5.20000e+00	1.784531e-05	
504	-5.25000e+00	1.785152e-05	
505	-5.30000e+00	1.785771e-05	
506	-5.35000e+00	1.786390e-05	
507	-5.40000e+00	1.787009e-05	
508	-5.45000e+00	1.787629e-05	
509	-5.50000e+00	1.788250e-05	
510	-5.55000e+00	1.788873e-05	
511	-5.60000e+00	1.789499e-05	
512	-5.65000e+00	1.790130e-05	
513	-5.70000e+00	1.790765e-05	
514	-5.75000e+00	1.791406e-05	
515	-5.80000e+00	1.792056e-05	
516	-5.85000e+00	1.792715e-05	
517	-5.90000e+00	1.793385e-05	
518	-5.95000e+00	1.794069e-05	

Index   v-sweep         i(vds)          
--------------------------------------------------------------------------------
519	-6.00000e+00	1.794768e-05	
520	-6.05000e+00	1.795485e-05	
521	-6.10000e+00	1.796224e-05	
522	-6.15000e+00	1.796986e-05	
523	-6.20000e+00	1.797775e-05	
524	-6.25000e+00	1.798596e-05	
525	-6.30000e+00	1.799451e-05	
526	-6.35000e+00	1.800346e-05	
527	-6.40000e+00	1.801285e-05	
528	-6.45000e+00	1.802273e-05	
529	-6.50000e+00	1.803316e-05	
530	-6.55000e+00	1.804419e-05	
531	-6.60000e+00	1.805590e-05	
532	0.000000e+00	0.000000e+00	
533	-5.00000e-02	9.698616e-07	
534	-1.00000e-01	1.922215e-06	
535	-1.50000e-01	2.857086e-06	
536	-2.00000e-01	3.774501e-06	
537	-2.50000e-01	4.674486e-06	
538	-3.00000e-01	5.557065e-06	
539	-3.50000e-01	6.422265e-06	
540	-4.00000e-01	7.270112e-06	
541	-4.50000e-01	8.100631e-06	
542	-5.00000e-01	8.913847e-06	
543	-5.50000e-01	9.709787e-06	
544	-6.00000e-01	1.048848e-05	
545	-6.50000e-01	1.124994e-05	
546	-7.00000e-01	1.199420e-05	
547	-7.50000e-01	1.272129e-05	
548	-8.00000e-01	1.343123e-05	
549	-8.50000e-01	1.412404e-05	
550	-9.00000e-01	1.479976e-05	
551	-9.50000e-01	1.545840e-05	
552	-1.00000e+00	1.609999e-05	
553	-1.05000e+00	1.672456e-05	
554	-1.10000e+00	1.733214e-05	
555	-1.15000e+00	1.792274e-05	
556	-1.20000e+00	1.849640e-05	
557	-1.25000e+00	1.905313e-05	
558	-1.30000e+00	1.959298e-05	
559	-1.35000e+00	2.011595e-05	
560	-1.40000e+00	2.062208e-05	
561	-1.45000e+00	2.111139e-05	
562	-1.50000e+00	2.158391e-05	
563	-1.55000e+00	2.203966e-05	
564	-1.60000e+00	2.247868e-05	
565	-1.65000e+00	2.290098e-05	
566	-1.70000e+00	2.330661e-05	
567	-1.75000e+00	2.369557e-05	
568	-1.80000e+00	2.406791e-05	
569	-1.85000e+00	2.442366e-05	
570	-1.90000e+00	2.476284e-05	
571	-1.95000e+00	2.508548e-05	
572	-2.00000e+00	2.539163e-05	
573	-2.05000e+00	2.568132e-05	
574	-2.10000e+00	2.595460e-05	
575	-2.15000e+00	2.621150e-05	
576	-2.20000e+00	2.645208e-05	

Index   v-sweep         i(vds)          
--------------------------------------------------------------------------------
577	-2.25000e+00	2.667641e-05	
578	-2.30000e+00	2.688457e-05	
579	-2.35000e+00	2.707664e-05	
580	-2.40000e+00	2.725276e-05	
581	-2.45000e+00	2.741308e-05	
582	-2.50000e+00	2.755782e-05	
583	-2.55000e+00	2.768729e-05	
584	-2.60000e+00	2.780189e-05	
585	-2.65000e+00	2.790223e-05	
586	-2.70000e+00	2.798908e-05	
587	-2.75000e+00	2.806351e-05	
588	-2.80000e+00	2.812685e-05	
589	-2.85000e+00	2.818064e-05	
590	-2.90000e+00	2.822650e-05	
591	-2.95000e+00	2.826601e-05	
592	-3.00000e+00	2.830055e-05	
593	-3.05000e+00	2.833123e-05	
594	-3.10000e+00	2.835894e-05	
595	-3.15000e+00	2.838430e-05	
596	-3.20000e+00	2.840782e-05	
597	-3.25000e+00	2.842984e-05	
598	-3.30000e+00	2.845063e-05	
599	-3.35000e+00	2.847038e-05	
600	-3.40000e+00	2.848927e-05	
601	-3.45000e+00	2.850740e-05	
602	-3.50000e+00	2.852487e-05	
603	-3.55000e+00	2.854177e-05	
604	-3.60000e+00	2.855816e-05	
605	-3.65000e+00	2.857409e-05	
606	-3.70000e+00	2.858961e-05	
607	-3.75000e+00	2.860476e-05	
608	-3.80000e+00	2.861957e-05	
609	-3.85000e+00	2.863406e-05	
610	-3.90000e+00	2.864827e-05	
611	-3.95000e+00	2.866222e-05	
612	-4.00000e+00	2.867593e-05	
613	-4.05000e+00	2.868941e-05	
614	-4.10000e+00	2.870268e-05	
615	-4.15000e+00	2.871575e-05	
616	-4.20000e+00	2.872864e-05	
617	-4.25000e+00	2.874136e-05	
618	-4.30000e+00	2.875391e-05	
619	-4.35000e+00	2.876632e-05	
620	-4.40000e+00	2.877858e-05	
621	-4.45000e+00	2.879070e-05	
622	-4.50000e+00	2.880269e-05	
623	-4.55000e+00	2.881457e-05	
624	-4.60000e+00	2.882633e-05	
625	-4.65000e+00	2.883797e-05	
626	-4.70000e+00	2.884952e-05	
627	-4.75000e+00	2.886096e-05	
628	-4.80000e+00	2.887231e-05	
629	-4.85000e+00	2.888356e-05	
630	-4.90000e+00	2.889473e-05	
631	-4.95000e+00	2.890582e-05	
632	-5.00000e+00	2.891683e-05	
633	-5.05000e+00	2.892776e-05	
634	-5.10000e+00	2.893862e-05	

Index   v-sweep         i(vds)          
--------------------------------------------------------------------------------
635	-5.15000e+00	2.894940e-05	
636	-5.20000e+00	2.896012e-05	
637	-5.25000e+00	2.897078e-05	
638	-5.30000e+00	2.898137e-05	
639	-5.35000e+00	2.899191e-05	
640	-5.40000e+00	2.900238e-05	
641	-5.45000e+00	2.901280e-05	
642	-5.50000e+00	2.902317e-05	
643	-5.55000e+00	2.903349e-05	
644	-5.60000e+00	2.904376e-05	
645	-5.65000e+00	2.905399e-05	
646	-5.70000e+00	2.906418e-05	
647	-5.75000e+00	2.907432e-05	
648	-5.80000e+00	2.908444e-05	
649	-5.85000e+00	2.909452e-05	
650	-5.90000e+00	2.910458e-05	
651	-5.95000e+00	2.911462e-05	
652	-6.00000e+00	2.912464e-05	
653	-6.05000e+00	2.913466e-05	
654	-6.10000e+00	2.914468e-05	
655	-6.15000e+00	2.915471e-05	
656	-6.20000e+00	2.916476e-05	
657	-6.25000e+00	2.917484e-05	
658	-6.30000e+00	2.918497e-05	
659	-6.35000e+00	2.919517e-05	
660	-6.40000e+00	2.920544e-05	
661	-6.45000e+00	2.921582e-05	
662	-6.50000e+00	2.922633e-05	
663	-6.55000e+00	2.923698e-05	
664	-6.60000e+00	2.924782e-05	
665	0.000000e+00	0.000000e+00	
666	-5.00000e-02	1.118962e-06	
667	-1.00000e-01	2.221805e-06	
668	-1.50000e-01	3.308551e-06	
669	-2.00000e-01	4.379222e-06	
670	-2.50000e-01	5.433841e-06	
671	-3.00000e-01	6.472429e-06	
672	-3.50000e-01	7.495008e-06	
673	-4.00000e-01	8.501600e-06	
674	-4.50000e-01	9.492227e-06	
675	-5.00000e-01	1.046691e-05	
676	-5.50000e-01	1.142567e-05	
677	-6.00000e-01	1.236854e-05	
678	-6.50000e-01	1.329552e-05	
679	-7.00000e-01	1.420665e-05	
680	-7.50000e-01	1.510194e-05	
681	-8.00000e-01	1.598142e-05	
682	-8.50000e-01	1.684511e-05	
683	-9.00000e-01	1.769303e-05	
684	-9.50000e-01	1.852520e-05	
685	-1.00000e+00	1.934164e-05	
686	-1.05000e+00	2.014238e-05	
687	-1.10000e+00	2.092743e-05	
688	-1.15000e+00	2.169682e-05	
689	-1.20000e+00	2.245057e-05	
690	-1.25000e+00	2.318870e-05	
691	-1.30000e+00	2.391124e-05	
692	-1.35000e+00	2.461819e-05	

Index   v-sweep         i(vds)          
--------------------------------------------------------------------------------
693	-1.40000e+00	2.530959e-05	
694	-1.45000e+00	2.598546e-05	
695	-1.50000e+00	2.664581e-05	
696	-1.55000e+00	2.729067e-05	
697	-1.60000e+00	2.792007e-05	
698	-1.65000e+00	2.853401e-05	
699	-1.70000e+00	2.913253e-05	
700	-1.75000e+00	2.971564e-05	
701	-1.80000e+00	3.028337e-05	
702	-1.85000e+00	3.083573e-05	
703	-1.90000e+00	3.137276e-05	
704	-1.95000e+00	3.189447e-05	
705	-2.00000e+00	3.240088e-05	
706	-2.05000e+00	3.289201e-05	
707	-2.10000e+00	3.336789e-05	
708	-2.15000e+00	3.382855e-05	
709	-2.20000e+00	3.427399e-05	
710	-2.25000e+00	3.470426e-05	
711	-2.30000e+00	3.511936e-05	
712	-2.35000e+00	3.551933e-05	
713	-2.40000e+00	3.590418e-05	
714	-2.45000e+00	3.627395e-05	
715	-2.50000e+00	3.662866e-05	
716	-2.55000e+00	3.696834e-05	
717	-2.60000e+00	3.729301e-05	
718	-2.65000e+00	3.760272e-05	
719	-2.70000e+00	3.789749e-05	
720	-2.75000e+00	3.817736e-05	
721	-2.80000e+00	3.844237e-05	
722	-2.85000e+00	3.869257e-05	
723	-2.90000e+00	3.892801e-05	
724	-2.95000e+00	3.914876e-05	
725	-3.00000e+00	3.935490e-05	
726	-3.05000e+00	3.954652e-05	
727	-3.10000e+00	3.972375e-05	
728	-3.15000e+00	3.988675e-05	
729	-3.20000e+00	4.003572e-05	
730	-3.25000e+00	4.017095e-05	
731	-3.30000e+00	4.029281e-05	
732	-3.35000e+00	4.040178e-05	
733	-3.40000e+00	4.049853e-05	
734	-3.45000e+00	4.058388e-05	
735	-3.50000e+00	4.065887e-05	
736	-3.55000e+00	4.072466e-05	
737	-3.60000e+00	4.078256e-05	
738	-3.65000e+00	4.083383e-05	
739	-3.70000e+00	4.087968e-05	
740	-3.75000e+00	4.092113e-05	
741	-3.80000e+00	4.095903e-05	
742	-3.85000e+00	4.099408e-05	
743	-3.90000e+00	4.102678e-05	
744	-3.95000e+00	4.105757e-05	
745	-4.00000e+00	4.108674e-05	
746	-4.05000e+00	4.111455e-05	
747	-4.10000e+00	4.114119e-05	
748	-4.15000e+00	4.116682e-05	
749	-4.20000e+00	4.119156e-05	
750	-4.25000e+00	4.121552e-05	

Index   v-sweep         i(vds)          
--------------------------------------------------------------------------------
751	-4.30000e+00	4.123878e-05	
752	-4.35000e+00	4.126141e-05	
753	-4.40000e+00	4.128347e-05	
754	-4.45000e+00	4.130502e-05	
755	-4.50000e+00	4.132611e-05	
756	-4.55000e+00	4.134676e-05	
757	-4.60000e+00	4.136702e-05	
758	-4.65000e+00	4.138691e-05	
759	-4.70000e+00	4.140646e-05	
760	-4.75000e+00	4.142570e-05	
761	-4.80000e+00	4.144465e-05	
762	-4.85000e+00	4.146332e-05	
763	-4.90000e+00	4.148173e-05	
764	-4.95000e+00	4.149991e-05	
765	-5.00000e+00	4.151786e-05	
766	-5.05000e+00	4.153559e-05	
767	-5.10000e+00	4.155313e-05	
768	-5.15000e+00	4.157047e-05	
769	-5.20000e+00	4.158763e-05	
770	-5.25000e+00	4.160463e-05	
771	-5.30000e+00	4.162146e-05	
772	-5.35000e+00	4.163813e-05	
773	-5.40000e+00	4.165466e-05	
774	-5.45000e+00	4.167105e-05	
775	-5.50000e+00	4.168730e-05	
776	-5.55000e+00	4.170343e-05	
777	-5.60000e+00	4.171944e-05	
778	-5.65000e+00	4.173532e-05	
779	-5.70000e+00	4.175110e-05	
780	-5.75000e+00	4.176677e-05	
781	-5.80000e+00	4.178233e-05	
782	-5.85000e+00	4.179780e-05	
783	-5.90000e+00	4.181317e-05	
784	-5.95000e+00	4.182845e-05	
785	-6.00000e+00	4.184364e-05	
786	-6.05000e+00	4.185875e-05	
787	-6.10000e+00	4.187378e-05	
788	-6.15000e+00	4.188873e-05	
789	-6.20000e+00	4.190360e-05	
790	-6.25000e+00	4.191841e-05	
791	-6.30000e+00	4.193315e-05	
792	-6.35000e+00	4.194782e-05	
793	-6.40000e+00	4.196244e-05	
794	-6.45000e+00	4.197700e-05	
795	-6.50000e+00	4.199151e-05	
796	-6.55000e+00	4.200598e-05	
797	-6.60000e+00	4.202041e-05	
Note: No ".plot", ".print", or ".fourier" lines; no simulations run
