
Note: Compatibility modes selected: hs

Warning: m=xx on .subckt line will override multiplier m hierarchy!


Circuit: ***************************

Doing analysis at TEMP = -40.000000 and TNOM = -40.000000


No. of Data Rows : 798
                          ***************************
                          DC transfer characteristic  Mon Jan  9 13:57:53  2023
--------------------------------------------------------------------------------
Index   v-sweep         i(vds)          
--------------------------------------------------------------------------------
0	0.000000e+00	0.000000e+00	
1	-5.00000e-02	1.897839e-07	
2	-1.00000e-01	2.564487e-07	
3	-1.50000e-01	2.730268e-07	
4	-2.00000e-01	2.803538e-07	
5	-2.50000e-01	2.857612e-07	
6	-3.00000e-01	2.904757e-07	
7	-3.50000e-01	2.948192e-07	
8	-4.00000e-01	2.989160e-07	
9	-4.50000e-01	3.028288e-07	
10	-5.00000e-01	3.065959e-07	
11	-5.50000e-01	3.102429e-07	
12	-6.00000e-01	3.137890e-07	
13	-6.50000e-01	3.172486e-07	
14	-7.00000e-01	3.206335e-07	
15	-7.50000e-01	3.239531e-07	
16	-8.00000e-01	3.272152e-07	
17	-8.50000e-01	3.304264e-07	
18	-9.00000e-01	3.335925e-07	
19	-9.50000e-01	3.367182e-07	
20	-1.00000e+00	3.398078e-07	
21	-1.05000e+00	3.428649e-07	
22	-1.10000e+00	3.458928e-07	
23	-1.15000e+00	3.488943e-07	
24	-1.20000e+00	3.518721e-07	
25	-1.25000e+00	3.548282e-07	
26	-1.30000e+00	3.577648e-07	
27	-1.35000e+00	3.606838e-07	
28	-1.40000e+00	3.635867e-07	
29	-1.45000e+00	3.664751e-07	
30	-1.50000e+00	3.693503e-07	
31	-1.55000e+00	3.722136e-07	
32	-1.60000e+00	3.750661e-07	
33	-1.65000e+00	3.779089e-07	
34	-1.70000e+00	3.807429e-07	
35	-1.75000e+00	3.835690e-07	
36	-1.80000e+00	3.863880e-07	
37	-1.85000e+00	3.892007e-07	
38	-1.90000e+00	3.920078e-07	
39	-1.95000e+00	3.948099e-07	
40	-2.00000e+00	3.976077e-07	
41	-2.05000e+00	4.004016e-07	
42	-2.10000e+00	4.031923e-07	
43	-2.15000e+00	4.059801e-07	
44	-2.20000e+00	4.087657e-07	
45	-2.25000e+00	4.115493e-07	
46	-2.30000e+00	4.143315e-07	
47	-2.35000e+00	4.171125e-07	
48	-2.40000e+00	4.198928e-07	
49	-2.45000e+00	4.226727e-07	
50	-2.50000e+00	4.254525e-07	
51	-2.55000e+00	4.282326e-07	
52	-2.60000e+00	4.310131e-07	
53	-2.65000e+00	4.337944e-07	
54	-2.70000e+00	4.365767e-07	

Index   v-sweep         i(vds)          
--------------------------------------------------------------------------------
55	-2.75000e+00	4.393603e-07	
56	-2.80000e+00	4.421455e-07	
57	-2.85000e+00	4.449324e-07	
58	-2.90000e+00	4.477212e-07	
59	-2.95000e+00	4.505123e-07	
60	-3.00000e+00	4.533058e-07	
61	-3.05000e+00	4.561019e-07	
62	-3.10000e+00	4.589009e-07	
63	-3.15000e+00	4.617029e-07	
64	-3.20000e+00	4.645082e-07	
65	-3.25000e+00	4.673170e-07	
66	-3.30000e+00	4.701295e-07	
67	-3.35000e+00	4.729460e-07	
68	-3.40000e+00	4.757668e-07	
69	-3.45000e+00	4.785921e-07	
70	-3.50000e+00	4.814222e-07	
71	-3.55000e+00	4.842575e-07	
72	-3.60000e+00	4.870984e-07	
73	-3.65000e+00	4.899451e-07	
74	-3.70000e+00	4.927983e-07	
75	-3.75000e+00	4.956583e-07	
76	-3.80000e+00	4.985257e-07	
77	-3.85000e+00	5.014012e-07	
78	-3.90000e+00	5.042853e-07	
79	-3.95000e+00	5.071787e-07	
80	-4.00000e+00	5.100824e-07	
81	-4.05000e+00	5.129971e-07	
82	-4.10000e+00	5.159239e-07	
83	-4.15000e+00	5.188639e-07	
84	-4.20000e+00	5.218181e-07	
85	-4.25000e+00	5.247880e-07	
86	-4.30000e+00	5.277749e-07	
87	-4.35000e+00	5.307803e-07	
88	-4.40000e+00	5.338061e-07	
89	-4.45000e+00	5.368539e-07	
90	-4.50000e+00	5.399258e-07	
91	-4.55000e+00	5.430239e-07	
92	-4.60000e+00	5.461506e-07	
93	-4.65000e+00	5.493084e-07	
94	-4.70000e+00	5.525000e-07	
95	-4.75000e+00	5.557282e-07	
96	-4.80000e+00	5.589963e-07	
97	-4.85000e+00	5.623074e-07	
98	-4.90000e+00	5.656653e-07	
99	-4.95000e+00	5.690737e-07	
100	-5.00000e+00	5.725366e-07	
101	-5.05000e+00	5.760584e-07	
102	-5.10000e+00	5.796437e-07	
103	-5.15000e+00	5.832972e-07	
104	-5.20000e+00	5.870242e-07	
105	-5.25000e+00	5.908300e-07	
106	-5.30000e+00	5.947203e-07	
107	-5.35000e+00	5.987013e-07	
108	-5.40000e+00	6.027793e-07	
109	-5.45000e+00	6.069609e-07	
110	-5.50000e+00	6.112532e-07	
111	-5.55000e+00	6.156635e-07	
112	-5.60000e+00	6.201996e-07	

Index   v-sweep         i(vds)          
--------------------------------------------------------------------------------
113	-5.65000e+00	6.248695e-07	
114	-5.70000e+00	6.296816e-07	
115	-5.75000e+00	6.346447e-07	
116	-5.80000e+00	6.397681e-07	
117	-5.85000e+00	6.450613e-07	
118	-5.90000e+00	6.505342e-07	
119	-5.95000e+00	6.561971e-07	
120	-6.00000e+00	6.620610e-07	
121	-6.05000e+00	6.681368e-07	
122	-6.10000e+00	6.744362e-07	
123	-6.15000e+00	6.809712e-07	
124	-6.20000e+00	6.877542e-07	
125	-6.25000e+00	6.947981e-07	
126	-6.30000e+00	7.021160e-07	
127	-6.35000e+00	7.097218e-07	
128	-6.40000e+00	7.176296e-07	
129	-6.45000e+00	7.258540e-07	
130	-6.50000e+00	7.344100e-07	
131	-6.55000e+00	7.433131e-07	
132	-6.60000e+00	7.525793e-07	
133	0.000000e+00	0.000000e+00	
134	-5.00000e-02	3.294301e-06	
135	-1.00000e-01	6.349071e-06	
136	-1.50000e-01	9.169777e-06	
137	-2.00000e-01	1.176174e-05	
138	-2.50000e-01	1.413014e-05	
139	-3.00000e-01	1.628007e-05	
140	-3.50000e-01	1.821652e-05	
141	-4.00000e-01	1.994446e-05	
142	-4.50000e-01	2.146895e-05	
143	-5.00000e-01	2.279528e-05	
144	-5.50000e-01	2.392939e-05	
145	-6.00000e-01	2.487870e-05	
146	-6.50000e-01	2.565375e-05	
147	-7.00000e-01	2.627105e-05	
148	-7.50000e-01	2.675587e-05	
149	-8.00000e-01	2.714027e-05	
150	-8.50000e-01	2.745484e-05	
151	-9.00000e-01	2.772205e-05	
152	-9.50000e-01	2.795606e-05	
153	-1.00000e+00	2.816558e-05	
154	-1.05000e+00	2.835612e-05	
155	-1.10000e+00	2.853144e-05	
156	-1.15000e+00	2.869421e-05	
157	-1.20000e+00	2.884642e-05	
158	-1.25000e+00	2.898960e-05	
159	-1.30000e+00	2.912497e-05	
160	-1.35000e+00	2.925350e-05	
161	-1.40000e+00	2.937600e-05	
162	-1.45000e+00	2.949312e-05	
163	-1.50000e+00	2.960544e-05	
164	-1.55000e+00	2.971343e-05	
165	-1.60000e+00	2.981749e-05	
166	-1.65000e+00	2.991798e-05	
167	-1.70000e+00	3.001521e-05	
168	-1.75000e+00	3.010945e-05	
169	-1.80000e+00	3.020093e-05	
170	-1.85000e+00	3.028987e-05	

Index   v-sweep         i(vds)          
--------------------------------------------------------------------------------
171	-1.90000e+00	3.037645e-05	
172	-1.95000e+00	3.046085e-05	
173	-2.00000e+00	3.054320e-05	
174	-2.05000e+00	3.062365e-05	
175	-2.10000e+00	3.070233e-05	
176	-2.15000e+00	3.077933e-05	
177	-2.20000e+00	3.085476e-05	
178	-2.25000e+00	3.092872e-05	
179	-2.30000e+00	3.100129e-05	
180	-2.35000e+00	3.107254e-05	
181	-2.40000e+00	3.114256e-05	
182	-2.45000e+00	3.121139e-05	
183	-2.50000e+00	3.127911e-05	
184	-2.55000e+00	3.134577e-05	
185	-2.60000e+00	3.141142e-05	
186	-2.65000e+00	3.147612e-05	
187	-2.70000e+00	3.153990e-05	
188	-2.75000e+00	3.160280e-05	
189	-2.80000e+00	3.166488e-05	
190	-2.85000e+00	3.172616e-05	
191	-2.90000e+00	3.178668e-05	
192	-2.95000e+00	3.184646e-05	
193	-3.00000e+00	3.190555e-05	
194	-3.05000e+00	3.196397e-05	
195	-3.10000e+00	3.202175e-05	
196	-3.15000e+00	3.207891e-05	
197	-3.20000e+00	3.213547e-05	
198	-3.25000e+00	3.219146e-05	
199	-3.30000e+00	3.224690e-05	
200	-3.35000e+00	3.230182e-05	
201	-3.40000e+00	3.235622e-05	
202	-3.45000e+00	3.241013e-05	
203	-3.50000e+00	3.246357e-05	
204	-3.55000e+00	3.251656e-05	
205	-3.60000e+00	3.256911e-05	
206	-3.65000e+00	3.262123e-05	
207	-3.70000e+00	3.267295e-05	
208	-3.75000e+00	3.272428e-05	
209	-3.80000e+00	3.277524e-05	
210	-3.85000e+00	3.282583e-05	
211	-3.90000e+00	3.287609e-05	
212	-3.95000e+00	3.292603e-05	
213	-4.00000e+00	3.297566e-05	
214	-4.05000e+00	3.302501e-05	
215	-4.10000e+00	3.307409e-05	
216	-4.15000e+00	3.312292e-05	
217	-4.20000e+00	3.317153e-05	
218	-4.25000e+00	3.321994e-05	
219	-4.30000e+00	3.326818e-05	
220	-4.35000e+00	3.331628e-05	
221	-4.40000e+00	3.336426e-05	
222	-4.45000e+00	3.341217e-05	
223	-4.50000e+00	3.346004e-05	
224	-4.55000e+00	3.350791e-05	
225	-4.60000e+00	3.355583e-05	
226	-4.65000e+00	3.360385e-05	
227	-4.70000e+00	3.365202e-05	
228	-4.75000e+00	3.370039e-05	

Index   v-sweep         i(vds)          
--------------------------------------------------------------------------------
229	-4.80000e+00	3.374904e-05	
230	-4.85000e+00	3.379804e-05	
231	-4.90000e+00	3.384745e-05	
232	-4.95000e+00	3.389737e-05	
233	-5.00000e+00	3.394788e-05	
234	-5.05000e+00	3.399909e-05	
235	-5.10000e+00	3.405108e-05	
236	-5.15000e+00	3.410399e-05	
237	-5.20000e+00	3.415792e-05	
238	-5.25000e+00	3.421302e-05	
239	-5.30000e+00	3.426941e-05	
240	-5.35000e+00	3.432724e-05	
241	-5.40000e+00	3.438669e-05	
242	-5.45000e+00	3.444791e-05	
243	-5.50000e+00	3.451108e-05	
244	-5.55000e+00	3.457640e-05	
245	-5.60000e+00	3.464407e-05	
246	-5.65000e+00	3.471431e-05	
247	-5.70000e+00	3.478733e-05	
248	-5.75000e+00	3.486337e-05	
249	-5.80000e+00	3.494270e-05	
250	-5.85000e+00	3.502556e-05	
251	-5.90000e+00	3.511225e-05	
252	-5.95000e+00	3.520304e-05	
253	-6.00000e+00	3.529824e-05	
254	-6.05000e+00	3.539817e-05	
255	-6.10000e+00	3.550317e-05	
256	-6.15000e+00	3.561356e-05	
257	-6.20000e+00	3.572973e-05	
258	-6.25000e+00	3.585203e-05	
259	-6.30000e+00	3.598086e-05	
260	-6.35000e+00	3.611663e-05	
261	-6.40000e+00	3.625974e-05	
262	-6.45000e+00	3.641064e-05	
263	-6.50000e+00	3.656977e-05	
264	-6.55000e+00	3.673760e-05	
265	-6.60000e+00	3.691460e-05	
266	0.000000e+00	0.000000e+00	
267	-5.00000e-02	5.582678e-06	
268	-1.00000e-01	1.092703e-05	
269	-1.50000e-01	1.603767e-05	
270	-2.00000e-01	2.091910e-05	
271	-2.50000e-01	2.557570e-05	
272	-3.00000e-01	3.001176e-05	
273	-3.50000e-01	3.423145e-05	
274	-4.00000e-01	3.823883e-05	
275	-4.50000e-01	4.203788e-05	
276	-5.00000e-01	4.563249e-05	
277	-5.50000e-01	4.902643e-05	
278	-6.00000e-01	5.222343e-05	
279	-6.50000e-01	5.522709e-05	
280	-7.00000e-01	5.804099e-05	
281	-7.50000e-01	6.066862e-05	
282	-8.00000e-01	6.311342e-05	
283	-8.50000e-01	6.537880e-05	
284	-9.00000e-01	6.746817e-05	
285	-9.50000e-01	6.938499e-05	
286	-1.00000e+00	7.113282e-05	

Index   v-sweep         i(vds)          
--------------------------------------------------------------------------------
287	-1.05000e+00	7.271549e-05	
288	-1.10000e+00	7.413732e-05	
289	-1.15000e+00	7.540361e-05	
290	-1.20000e+00	7.652127e-05	
291	-1.25000e+00	7.749995e-05	
292	-1.30000e+00	7.835272e-05	
293	-1.35000e+00	7.909590e-05	
294	-1.40000e+00	7.974719e-05	
295	-1.45000e+00	8.032332e-05	
296	-1.50000e+00	8.083851e-05	
297	-1.55000e+00	8.130411e-05	
298	-1.60000e+00	8.172899e-05	
299	-1.65000e+00	8.212001e-05	
300	-1.70000e+00	8.248253e-05	
301	-1.75000e+00	8.282077e-05	
302	-1.80000e+00	8.313810e-05	
303	-1.85000e+00	8.343727e-05	
304	-1.90000e+00	8.372051e-05	
305	-1.95000e+00	8.398967e-05	
306	-2.00000e+00	8.424631e-05	
307	-2.05000e+00	8.449173e-05	
308	-2.10000e+00	8.472707e-05	
309	-2.15000e+00	8.495327e-05	
310	-2.20000e+00	8.517117e-05	
311	-2.25000e+00	8.538149e-05	
312	-2.30000e+00	8.558486e-05	
313	-2.35000e+00	8.578184e-05	
314	-2.40000e+00	8.597292e-05	
315	-2.45000e+00	8.615855e-05	
316	-2.50000e+00	8.633912e-05	
317	-2.55000e+00	8.651497e-05	
318	-2.60000e+00	8.668642e-05	
319	-2.65000e+00	8.685376e-05	
320	-2.70000e+00	8.701725e-05	
321	-2.75000e+00	8.717712e-05	
322	-2.80000e+00	8.733359e-05	
323	-2.85000e+00	8.748685e-05	
324	-2.90000e+00	8.763709e-05	
325	-2.95000e+00	8.778446e-05	
326	-3.00000e+00	8.792913e-05	
327	-3.05000e+00	8.807123e-05	
328	-3.10000e+00	8.821089e-05	
329	-3.15000e+00	8.834824e-05	
330	-3.20000e+00	8.848338e-05	
331	-3.25000e+00	8.861642e-05	
332	-3.30000e+00	8.874745e-05	
333	-3.35000e+00	8.887657e-05	
334	-3.40000e+00	8.900386e-05	
335	-3.45000e+00	8.912940e-05	
336	-3.50000e+00	8.925326e-05	
337	-3.55000e+00	8.937552e-05	
338	-3.60000e+00	8.949623e-05	
339	-3.65000e+00	8.961547e-05	
340	-3.70000e+00	8.973328e-05	
341	-3.75000e+00	8.984973e-05	
342	-3.80000e+00	8.996487e-05	
343	-3.85000e+00	9.007874e-05	
344	-3.90000e+00	9.019139e-05	

Index   v-sweep         i(vds)          
--------------------------------------------------------------------------------
345	-3.95000e+00	9.030287e-05	
346	-4.00000e+00	9.041323e-05	
347	-4.05000e+00	9.052249e-05	
348	-4.10000e+00	9.063072e-05	
349	-4.15000e+00	9.073793e-05	
350	-4.20000e+00	9.084418e-05	
351	-4.25000e+00	9.094950e-05	
352	-4.30000e+00	9.105392e-05	
353	-4.35000e+00	9.115750e-05	
354	-4.40000e+00	9.126026e-05	
355	-4.45000e+00	9.136226e-05	
356	-4.50000e+00	9.146352e-05	
357	-4.55000e+00	9.156410e-05	
358	-4.60000e+00	9.166405e-05	
359	-4.65000e+00	9.176341e-05	
360	-4.70000e+00	9.186223e-05	
361	-4.75000e+00	9.196059e-05	
362	-4.80000e+00	9.205854e-05	
363	-4.85000e+00	9.215615e-05	
364	-4.90000e+00	9.225350e-05	
365	-4.95000e+00	9.235068e-05	
366	-5.00000e+00	9.244777e-05	
367	-5.05000e+00	9.254489e-05	
368	-5.10000e+00	9.264213e-05	
369	-5.15000e+00	9.273963e-05	
370	-5.20000e+00	9.283752e-05	
371	-5.25000e+00	9.293594e-05	
372	-5.30000e+00	9.303506e-05	
373	-5.35000e+00	9.313506e-05	
374	-5.40000e+00	9.323613e-05	
375	-5.45000e+00	9.333847e-05	
376	-5.50000e+00	9.344231e-05	
377	-5.55000e+00	9.354791e-05	
378	-5.60000e+00	9.365552e-05	
379	-5.65000e+00	9.376544e-05	
380	-5.70000e+00	9.387797e-05	
381	-5.75000e+00	9.399344e-05	
382	-5.80000e+00	9.411222e-05	
383	-5.85000e+00	9.423468e-05	
384	-5.90000e+00	9.436123e-05	
385	-5.95000e+00	9.449232e-05	
386	-6.00000e+00	9.462839e-05	
387	-6.05000e+00	9.476995e-05	
388	-6.10000e+00	9.491751e-05	
389	-6.15000e+00	9.507163e-05	
390	-6.20000e+00	9.523289e-05	
391	-6.25000e+00	9.540192e-05	
392	-6.30000e+00	9.557935e-05	
393	-6.35000e+00	9.576587e-05	
394	-6.40000e+00	9.596221e-05	
395	-6.45000e+00	9.616911e-05	
396	-6.50000e+00	9.638737e-05	
397	-6.55000e+00	9.661780e-05	
398	-6.60000e+00	9.686127e-05	
399	0.000000e+00	0.000000e+00	
400	-5.00000e-02	7.324995e-06	
401	-1.00000e-01	1.442004e-05	
402	-1.50000e-01	2.128902e-05	

Index   v-sweep         i(vds)          
--------------------------------------------------------------------------------
403	-2.00000e-01	2.793577e-05	
404	-2.50000e-01	3.436400e-05	
405	-3.00000e-01	4.057737e-05	
406	-3.50000e-01	4.657945e-05	
407	-4.00000e-01	5.237371e-05	
408	-4.50000e-01	5.796358e-05	
409	-5.00000e-01	6.335238e-05	
410	-5.50000e-01	6.854339e-05	
411	-6.00000e-01	7.353981e-05	
412	-6.50000e-01	7.834475e-05	
413	-7.00000e-01	8.296129e-05	
414	-7.50000e-01	8.739243e-05	
415	-8.00000e-01	9.164110e-05	
416	-8.50000e-01	9.571018e-05	
417	-9.00000e-01	9.960248e-05	
418	-9.50000e-01	1.033208e-04	
419	-1.00000e+00	1.068678e-04	
420	-1.05000e+00	1.102461e-04	
421	-1.10000e+00	1.134585e-04	
422	-1.15000e+00	1.165073e-04	
423	-1.20000e+00	1.193952e-04	
424	-1.25000e+00	1.221245e-04	
425	-1.30000e+00	1.246978e-04	
426	-1.35000e+00	1.271174e-04	
427	-1.40000e+00	1.293856e-04	
428	-1.45000e+00	1.315048e-04	
429	-1.50000e+00	1.334772e-04	
430	-1.55000e+00	1.353051e-04	
431	-1.60000e+00	1.369907e-04	
432	-1.65000e+00	1.385365e-04	
433	-1.70000e+00	1.399457e-04	
434	-1.75000e+00	1.412223e-04	
435	-1.80000e+00	1.423729e-04	
436	-1.85000e+00	1.434066e-04	
437	-1.90000e+00	1.443352e-04	
438	-1.95000e+00	1.451718e-04	
439	-2.00000e+00	1.459294e-04	
440	-2.05000e+00	1.466199e-04	
441	-2.10000e+00	1.472535e-04	
442	-2.15000e+00	1.478387e-04	
443	-2.20000e+00	1.483823e-04	
444	-2.25000e+00	1.488902e-04	
445	-2.30000e+00	1.493672e-04	
446	-2.35000e+00	1.498170e-04	
447	-2.40000e+00	1.502429e-04	
448	-2.45000e+00	1.506476e-04	
449	-2.50000e+00	1.510335e-04	
450	-2.55000e+00	1.514024e-04	
451	-2.60000e+00	1.517561e-04	
452	-2.65000e+00	1.520960e-04	
453	-2.70000e+00	1.524232e-04	
454	-2.75000e+00	1.527390e-04	
455	-2.80000e+00	1.530443e-04	
456	-2.85000e+00	1.533399e-04	
457	-2.90000e+00	1.536265e-04	
458	-2.95000e+00	1.539048e-04	
459	-3.00000e+00	1.541755e-04	
460	-3.05000e+00	1.544390e-04	

Index   v-sweep         i(vds)          
--------------------------------------------------------------------------------
461	-3.10000e+00	1.546959e-04	
462	-3.15000e+00	1.549465e-04	
463	-3.20000e+00	1.551912e-04	
464	-3.25000e+00	1.554305e-04	
465	-3.30000e+00	1.556646e-04	
466	-3.35000e+00	1.558939e-04	
467	-3.40000e+00	1.561185e-04	
468	-3.45000e+00	1.563388e-04	
469	-3.50000e+00	1.565550e-04	
470	-3.55000e+00	1.567673e-04	
471	-3.60000e+00	1.569760e-04	
472	-3.65000e+00	1.571811e-04	
473	-3.70000e+00	1.573828e-04	
474	-3.75000e+00	1.575814e-04	
475	-3.80000e+00	1.577769e-04	
476	-3.85000e+00	1.579695e-04	
477	-3.90000e+00	1.581593e-04	
478	-3.95000e+00	1.583465e-04	
479	-4.00000e+00	1.585312e-04	
480	-4.05000e+00	1.587134e-04	
481	-4.10000e+00	1.588933e-04	
482	-4.15000e+00	1.590709e-04	
483	-4.20000e+00	1.592464e-04	
484	-4.25000e+00	1.594198e-04	
485	-4.30000e+00	1.595912e-04	
486	-4.35000e+00	1.597607e-04	
487	-4.40000e+00	1.599283e-04	
488	-4.45000e+00	1.600942e-04	
489	-4.50000e+00	1.602583e-04	
490	-4.55000e+00	1.604209e-04	
491	-4.60000e+00	1.605818e-04	
492	-4.65000e+00	1.607412e-04	
493	-4.70000e+00	1.608991e-04	
494	-4.75000e+00	1.610557e-04	
495	-4.80000e+00	1.612109e-04	
496	-4.85000e+00	1.613648e-04	
497	-4.90000e+00	1.615176e-04	
498	-4.95000e+00	1.616691e-04	
499	-5.00000e+00	1.618196e-04	
500	-5.05000e+00	1.619691e-04	
501	-5.10000e+00	1.621177e-04	
502	-5.15000e+00	1.622654e-04	
503	-5.20000e+00	1.624124e-04	
504	-5.25000e+00	1.625588e-04	
505	-5.30000e+00	1.627046e-04	
506	-5.35000e+00	1.628500e-04	
507	-5.40000e+00	1.629952e-04	
508	-5.45000e+00	1.631402e-04	
509	-5.50000e+00	1.632852e-04	
510	-5.55000e+00	1.634305e-04	
511	-5.60000e+00	1.635762e-04	
512	-5.65000e+00	1.637225e-04	
513	-5.70000e+00	1.638697e-04	
514	-5.75000e+00	1.640180e-04	
515	-5.80000e+00	1.641678e-04	
516	-5.85000e+00	1.643192e-04	
517	-5.90000e+00	1.644728e-04	
518	-5.95000e+00	1.646288e-04	

Index   v-sweep         i(vds)          
--------------------------------------------------------------------------------
519	-6.00000e+00	1.647877e-04	
520	-6.05000e+00	1.649499e-04	
521	-6.10000e+00	1.651158e-04	
522	-6.15000e+00	1.652860e-04	
523	-6.20000e+00	1.654610e-04	
524	-6.25000e+00	1.656415e-04	
525	-6.30000e+00	1.658280e-04	
526	-6.35000e+00	1.660213e-04	
527	-6.40000e+00	1.662220e-04	
528	-6.45000e+00	1.664309e-04	
529	-6.50000e+00	1.666489e-04	
530	-6.55000e+00	1.668768e-04	
531	-6.60000e+00	1.671156e-04	
532	0.000000e+00	0.000000e+00	
533	-5.00000e-02	8.706538e-06	
534	-1.00000e-01	1.719344e-05	
535	-1.50000e-01	2.546402e-05	
536	-2.00000e-01	3.352153e-05	
537	-2.50000e-01	4.136918e-05	
538	-3.00000e-01	4.901008e-05	
539	-3.50000e-01	5.644729e-05	
540	-4.00000e-01	6.368383e-05	
541	-4.50000e-01	7.072265e-05	
542	-5.00000e-01	7.756662e-05	
543	-5.50000e-01	8.421858e-05	
544	-6.00000e-01	9.068131e-05	
545	-6.50000e-01	9.695754e-05	
546	-7.00000e-01	1.030499e-04	
547	-7.50000e-01	1.089611e-04	
548	-8.00000e-01	1.146937e-04	
549	-8.50000e-01	1.202501e-04	
550	-9.00000e-01	1.256329e-04	
551	-9.50000e-01	1.308445e-04	
552	-1.00000e+00	1.358873e-04	
553	-1.05000e+00	1.407635e-04	
554	-1.10000e+00	1.454757e-04	
555	-1.15000e+00	1.500258e-04	
556	-1.20000e+00	1.544163e-04	
557	-1.25000e+00	1.586493e-04	
558	-1.30000e+00	1.627268e-04	
559	-1.35000e+00	1.666511e-04	
560	-1.40000e+00	1.704241e-04	
561	-1.45000e+00	1.740479e-04	
562	-1.50000e+00	1.775244e-04	
563	-1.55000e+00	1.808557e-04	
564	-1.60000e+00	1.840435e-04	
565	-1.65000e+00	1.870897e-04	
566	-1.70000e+00	1.899962e-04	
567	-1.75000e+00	1.927646e-04	
568	-1.80000e+00	1.953966e-04	
569	-1.85000e+00	1.978937e-04	
570	-1.90000e+00	2.002572e-04	
571	-1.95000e+00	2.024883e-04	
572	-2.00000e+00	2.045878e-04	
573	-2.05000e+00	2.065563e-04	
574	-2.10000e+00	2.083937e-04	
575	-2.15000e+00	2.101001e-04	
576	-2.20000e+00	2.116758e-04	

Index   v-sweep         i(vds)          
--------------------------------------------------------------------------------
577	-2.25000e+00	2.131224e-04	
578	-2.30000e+00	2.144441e-04	
579	-2.35000e+00	2.156483e-04	
580	-2.40000e+00	2.167450e-04	
581	-2.45000e+00	2.177460e-04	
582	-2.50000e+00	2.186629e-04	
583	-2.55000e+00	2.195069e-04	
584	-2.60000e+00	2.202878e-04	
585	-2.65000e+00	2.210140e-04	
586	-2.70000e+00	2.216928e-04	
587	-2.75000e+00	2.223300e-04	
588	-2.80000e+00	2.229309e-04	
589	-2.85000e+00	2.234996e-04	
590	-2.90000e+00	2.240398e-04	
591	-2.95000e+00	2.245545e-04	
592	-3.00000e+00	2.250464e-04	
593	-3.05000e+00	2.255176e-04	
594	-3.10000e+00	2.259703e-04	
595	-3.15000e+00	2.264059e-04	
596	-3.20000e+00	2.268261e-04	
597	-3.25000e+00	2.272321e-04	
598	-3.30000e+00	2.276250e-04	
599	-3.35000e+00	2.280059e-04	
600	-3.40000e+00	2.283756e-04	
601	-3.45000e+00	2.287350e-04	
602	-3.50000e+00	2.290848e-04	
603	-3.55000e+00	2.294257e-04	
604	-3.60000e+00	2.297581e-04	
605	-3.65000e+00	2.300827e-04	
606	-3.70000e+00	2.304000e-04	
607	-3.75000e+00	2.307103e-04	
608	-3.80000e+00	2.310141e-04	
609	-3.85000e+00	2.313118e-04	
610	-3.90000e+00	2.316036e-04	
611	-3.95000e+00	2.318900e-04	
612	-4.00000e+00	2.321711e-04	
613	-4.05000e+00	2.324473e-04	
614	-4.10000e+00	2.327188e-04	
615	-4.15000e+00	2.329858e-04	
616	-4.20000e+00	2.332486e-04	
617	-4.25000e+00	2.335073e-04	
618	-4.30000e+00	2.337621e-04	
619	-4.35000e+00	2.340133e-04	
620	-4.40000e+00	2.342609e-04	
621	-4.45000e+00	2.345051e-04	
622	-4.50000e+00	2.347460e-04	
623	-4.55000e+00	2.349838e-04	
624	-4.60000e+00	2.352187e-04	
625	-4.65000e+00	2.354506e-04	
626	-4.70000e+00	2.356798e-04	
627	-4.75000e+00	2.359064e-04	
628	-4.80000e+00	2.361304e-04	
629	-4.85000e+00	2.363520e-04	
630	-4.90000e+00	2.365711e-04	
631	-4.95000e+00	2.367880e-04	
632	-5.00000e+00	2.370028e-04	
633	-5.05000e+00	2.372154e-04	
634	-5.10000e+00	2.374260e-04	

Index   v-sweep         i(vds)          
--------------------------------------------------------------------------------
635	-5.15000e+00	2.376346e-04	
636	-5.20000e+00	2.378414e-04	
637	-5.25000e+00	2.380465e-04	
638	-5.30000e+00	2.382498e-04	
639	-5.35000e+00	2.384515e-04	
640	-5.40000e+00	2.386517e-04	
641	-5.45000e+00	2.388505e-04	
642	-5.50000e+00	2.390480e-04	
643	-5.55000e+00	2.392443e-04	
644	-5.60000e+00	2.394395e-04	
645	-5.65000e+00	2.396337e-04	
646	-5.70000e+00	2.398272e-04	
647	-5.75000e+00	2.400199e-04	
648	-5.80000e+00	2.402122e-04	
649	-5.85000e+00	2.404042e-04	
650	-5.90000e+00	2.405961e-04	
651	-5.95000e+00	2.407882e-04	
652	-6.00000e+00	2.409807e-04	
653	-6.05000e+00	2.411738e-04	
654	-6.10000e+00	2.413680e-04	
655	-6.15000e+00	2.415634e-04	
656	-6.20000e+00	2.417606e-04	
657	-6.25000e+00	2.419600e-04	
658	-6.30000e+00	2.421619e-04	
659	-6.35000e+00	2.423668e-04	
660	-6.40000e+00	2.425754e-04	
661	-6.45000e+00	2.427882e-04	
662	-6.50000e+00	2.430057e-04	
663	-6.55000e+00	2.432288e-04	
664	-6.60000e+00	2.434581e-04	
665	0.000000e+00	0.000000e+00	
666	-5.00000e-02	9.835868e-06	
667	-1.00000e-01	1.946268e-05	
668	-1.50000e-01	2.888328e-05	
669	-2.00000e-01	3.810048e-05	
670	-2.50000e-01	4.711703e-05	
671	-3.00000e-01	5.593564e-05	
672	-3.50000e-01	6.455896e-05	
673	-4.00000e-01	7.298959e-05	
674	-4.50000e-01	8.123010e-05	
675	-5.00000e-01	8.928300e-05	
676	-5.50000e-01	9.715076e-05	
677	-6.00000e-01	1.048358e-04	
678	-6.50000e-01	1.123406e-04	
679	-7.00000e-01	1.196673e-04	
680	-7.50000e-01	1.268184e-04	
681	-8.00000e-01	1.337961e-04	
682	-8.50000e-01	1.406026e-04	
683	-9.00000e-01	1.472401e-04	
684	-9.50000e-01	1.537108e-04	
685	-1.00000e+00	1.600167e-04	
686	-1.05000e+00	1.661600e-04	
687	-1.10000e+00	1.721426e-04	
688	-1.15000e+00	1.779667e-04	
689	-1.20000e+00	1.836341e-04	
690	-1.25000e+00	1.891469e-04	
691	-1.30000e+00	1.945069e-04	
692	-1.35000e+00	1.997160e-04	

Index   v-sweep         i(vds)          
--------------------------------------------------------------------------------
693	-1.40000e+00	2.047760e-04	
694	-1.45000e+00	2.096888e-04	
695	-1.50000e+00	2.144562e-04	
696	-1.55000e+00	2.190799e-04	
697	-1.60000e+00	2.235617e-04	
698	-1.65000e+00	2.279032e-04	
699	-1.70000e+00	2.321061e-04	
700	-1.75000e+00	2.361721e-04	
701	-1.80000e+00	2.401028e-04	
702	-1.85000e+00	2.438997e-04	
703	-1.90000e+00	2.475644e-04	
704	-1.95000e+00	2.510984e-04	
705	-2.00000e+00	2.545031e-04	
706	-2.05000e+00	2.577800e-04	
707	-2.10000e+00	2.609305e-04	
708	-2.15000e+00	2.639557e-04	
709	-2.20000e+00	2.668569e-04	
710	-2.25000e+00	2.696350e-04	
711	-2.30000e+00	2.722908e-04	
712	-2.35000e+00	2.748250e-04	
713	-2.40000e+00	2.772376e-04	
714	-2.45000e+00	2.795284e-04	
715	-2.50000e+00	2.816962e-04	
716	-2.55000e+00	2.837395e-04	
717	-2.60000e+00	2.856562e-04	
718	-2.65000e+00	2.874444e-04	
719	-2.70000e+00	2.891035e-04	
720	-2.75000e+00	2.906353e-04	
721	-2.80000e+00	2.920449e-04	
722	-2.85000e+00	2.933404e-04	
723	-2.90000e+00	2.945318e-04	
724	-2.95000e+00	2.956303e-04	
725	-3.00000e+00	2.966465e-04	
726	-3.05000e+00	2.975906e-04	
727	-3.10000e+00	2.984714e-04	
728	-3.15000e+00	2.992967e-04	
729	-3.20000e+00	3.000731e-04	
730	-3.25000e+00	3.008064e-04	
731	-3.30000e+00	3.015014e-04	
732	-3.35000e+00	3.021623e-04	
733	-3.40000e+00	3.027926e-04	
734	-3.45000e+00	3.033954e-04	
735	-3.50000e+00	3.039734e-04	
736	-3.55000e+00	3.045288e-04	
737	-3.60000e+00	3.050637e-04	
738	-3.65000e+00	3.055798e-04	
739	-3.70000e+00	3.060787e-04	
740	-3.75000e+00	3.065618e-04	
741	-3.80000e+00	3.070301e-04	
742	-3.85000e+00	3.074850e-04	
743	-3.90000e+00	3.079272e-04	
744	-3.95000e+00	3.083577e-04	
745	-4.00000e+00	3.087773e-04	
746	-4.05000e+00	3.091867e-04	
747	-4.10000e+00	3.095865e-04	
748	-4.15000e+00	3.099774e-04	
749	-4.20000e+00	3.103598e-04	
750	-4.25000e+00	3.107342e-04	

Index   v-sweep         i(vds)          
--------------------------------------------------------------------------------
751	-4.30000e+00	3.111011e-04	
752	-4.35000e+00	3.114609e-04	
753	-4.40000e+00	3.118140e-04	
754	-4.45000e+00	3.121608e-04	
755	-4.50000e+00	3.125014e-04	
756	-4.55000e+00	3.128364e-04	
757	-4.60000e+00	3.131659e-04	
758	-4.65000e+00	3.134901e-04	
759	-4.70000e+00	3.138094e-04	
760	-4.75000e+00	3.141240e-04	
761	-4.80000e+00	3.144340e-04	
762	-4.85000e+00	3.147397e-04	
763	-4.90000e+00	3.150412e-04	
764	-4.95000e+00	3.153388e-04	
765	-5.00000e+00	3.156325e-04	
766	-5.05000e+00	3.159226e-04	
767	-5.10000e+00	3.162092e-04	
768	-5.15000e+00	3.164924e-04	
769	-5.20000e+00	3.167723e-04	
770	-5.25000e+00	3.170492e-04	
771	-5.30000e+00	3.173230e-04	
772	-5.35000e+00	3.175939e-04	
773	-5.40000e+00	3.178620e-04	
774	-5.45000e+00	3.181275e-04	
775	-5.50000e+00	3.183904e-04	
776	-5.55000e+00	3.186508e-04	
777	-5.60000e+00	3.189089e-04	
778	-5.65000e+00	3.191647e-04	
779	-5.70000e+00	3.194183e-04	
780	-5.75000e+00	3.196699e-04	
781	-5.80000e+00	3.199195e-04	
782	-5.85000e+00	3.201673e-04	
783	-5.90000e+00	3.204134e-04	
784	-5.95000e+00	3.206579e-04	
785	-6.00000e+00	3.209010e-04	
786	-6.05000e+00	3.211429e-04	
787	-6.10000e+00	3.213836e-04	
788	-6.15000e+00	3.216234e-04	
789	-6.20000e+00	3.218625e-04	
790	-6.25000e+00	3.221012e-04	
791	-6.30000e+00	3.223396e-04	
792	-6.35000e+00	3.225781e-04	
793	-6.40000e+00	3.228169e-04	
794	-6.45000e+00	3.230565e-04	
795	-6.50000e+00	3.232971e-04	
796	-6.55000e+00	3.235393e-04	
797	-6.60000e+00	3.237834e-04	
Note: No ".plot", ".print", or ".fourier" lines; no simulations run
