
Note: Compatibility modes selected: hs

Warning: m=xx on .subckt line will override multiplier m hierarchy!


Circuit: ***************************

Doing analysis at TEMP = 25.000000 and TNOM = 25.000000


No. of Data Rows : 798
                          ***************************
                          DC transfer characteristic  Mon Jan  9 13:57:53  2023
--------------------------------------------------------------------------------
Index   v-sweep         i(vds)          
--------------------------------------------------------------------------------
0	0.000000e+00	0.000000e+00	
1	-5.00000e-02	1.306631e-07	
2	-1.00000e-01	2.195243e-07	
3	-1.50000e-01	2.700706e-07	
4	-2.00000e-01	2.922135e-07	
5	-2.50000e-01	3.013492e-07	
6	-3.00000e-01	3.066719e-07	
7	-3.50000e-01	3.108667e-07	
8	-4.00000e-01	3.146147e-07	
9	-4.50000e-01	3.181250e-07	
10	-5.00000e-01	3.214784e-07	
11	-5.50000e-01	3.247133e-07	
12	-6.00000e-01	3.278513e-07	
13	-6.50000e-01	3.309066e-07	
14	-7.00000e-01	3.338890e-07	
15	-7.50000e-01	3.368062e-07	
16	-8.00000e-01	3.396643e-07	
17	-8.50000e-01	3.424685e-07	
18	-9.00000e-01	3.452231e-07	
19	-9.50000e-01	3.479321e-07	
20	-1.00000e+00	3.505987e-07	
21	-1.05000e+00	3.532260e-07	
22	-1.10000e+00	3.558166e-07	
23	-1.15000e+00	3.583730e-07	
24	-1.20000e+00	3.608973e-07	
25	-1.25000e+00	3.633917e-07	
26	-1.30000e+00	3.658579e-07	
27	-1.35000e+00	3.682976e-07	
28	-1.40000e+00	3.707124e-07	
29	-1.45000e+00	3.731036e-07	
30	-1.50000e+00	3.754727e-07	
31	-1.55000e+00	3.778207e-07	
32	-1.60000e+00	3.801490e-07	
33	-1.65000e+00	3.824585e-07	
34	-1.70000e+00	3.847502e-07	
35	-1.75000e+00	3.870251e-07	
36	-1.80000e+00	3.892839e-07	
37	-1.85000e+00	3.915276e-07	
38	-1.90000e+00	3.937569e-07	
39	-1.95000e+00	3.959724e-07	
40	-2.00000e+00	3.981748e-07	
41	-2.05000e+00	4.003649e-07	
42	-2.10000e+00	4.025431e-07	
43	-2.15000e+00	4.047100e-07	
44	-2.20000e+00	4.068662e-07	
45	-2.25000e+00	4.090122e-07	
46	-2.30000e+00	4.111484e-07	
47	-2.35000e+00	4.132753e-07	
48	-2.40000e+00	4.153933e-07	
49	-2.45000e+00	4.175028e-07	
50	-2.50000e+00	4.196042e-07	
51	-2.55000e+00	4.216979e-07	
52	-2.60000e+00	4.237842e-07	
53	-2.65000e+00	4.258634e-07	
54	-2.70000e+00	4.279359e-07	

Index   v-sweep         i(vds)          
--------------------------------------------------------------------------------
55	-2.75000e+00	4.300020e-07	
56	-2.80000e+00	4.320619e-07	
57	-2.85000e+00	4.341160e-07	
58	-2.90000e+00	4.361645e-07	
59	-2.95000e+00	4.382076e-07	
60	-3.00000e+00	4.402456e-07	
61	-3.05000e+00	4.422788e-07	
62	-3.10000e+00	4.443075e-07	
63	-3.15000e+00	4.463317e-07	
64	-3.20000e+00	4.483518e-07	
65	-3.25000e+00	4.503680e-07	
66	-3.30000e+00	4.523805e-07	
67	-3.35000e+00	4.543896e-07	
68	-3.40000e+00	4.563955e-07	
69	-3.45000e+00	4.583984e-07	
70	-3.50000e+00	4.603986e-07	
71	-3.55000e+00	4.623964e-07	
72	-3.60000e+00	4.643920e-07	
73	-3.65000e+00	4.663857e-07	
74	-3.70000e+00	4.683779e-07	
75	-3.75000e+00	4.703688e-07	
76	-3.80000e+00	4.723590e-07	
77	-3.85000e+00	4.743487e-07	
78	-3.90000e+00	4.763384e-07	
79	-3.95000e+00	4.783285e-07	
80	-4.00000e+00	4.803197e-07	
81	-4.05000e+00	4.823124e-07	
82	-4.10000e+00	4.843074e-07	
83	-4.15000e+00	4.863052e-07	
84	-4.20000e+00	4.883066e-07	
85	-4.25000e+00	4.903125e-07	
86	-4.30000e+00	4.923237e-07	
87	-4.35000e+00	4.943413e-07	
88	-4.40000e+00	4.963663e-07	
89	-4.45000e+00	4.983998e-07	
90	-4.50000e+00	5.004432e-07	
91	-4.55000e+00	5.024977e-07	
92	-4.60000e+00	5.045650e-07	
93	-4.65000e+00	5.066465e-07	
94	-4.70000e+00	5.087440e-07	
95	-4.75000e+00	5.108595e-07	
96	-4.80000e+00	5.129948e-07	
97	-4.85000e+00	5.151521e-07	
98	-4.90000e+00	5.173339e-07	
99	-4.95000e+00	5.195424e-07	
100	-5.00000e+00	5.217804e-07	
101	-5.05000e+00	5.240506e-07	
102	-5.10000e+00	5.263561e-07	
103	-5.15000e+00	5.287001e-07	
104	-5.20000e+00	5.310859e-07	
105	-5.25000e+00	5.335170e-07	
106	-5.30000e+00	5.359973e-07	
107	-5.35000e+00	5.385307e-07	
108	-5.40000e+00	5.411216e-07	
109	-5.45000e+00	5.437742e-07	
110	-5.50000e+00	5.464932e-07	
111	-5.55000e+00	5.492836e-07	
112	-5.60000e+00	5.521505e-07	

Index   v-sweep         i(vds)          
--------------------------------------------------------------------------------
113	-5.65000e+00	5.550994e-07	
114	-5.70000e+00	5.581357e-07	
115	-5.75000e+00	5.612654e-07	
116	-5.80000e+00	5.644947e-07	
117	-5.85000e+00	5.678301e-07	
118	-5.90000e+00	5.712781e-07	
119	-5.95000e+00	5.748457e-07	
120	-6.00000e+00	5.785402e-07	
121	-6.05000e+00	5.823692e-07	
122	-6.10000e+00	5.863404e-07	
123	-6.15000e+00	5.904619e-07	
124	-6.20000e+00	5.947421e-07	
125	-6.25000e+00	5.991896e-07	
126	-6.30000e+00	6.038135e-07	
127	-6.35000e+00	6.086231e-07	
128	-6.40000e+00	6.136278e-07	
129	-6.45000e+00	6.188376e-07	
130	-6.50000e+00	6.242627e-07	
131	-6.55000e+00	6.299135e-07	
132	-6.60000e+00	6.358009e-07	
133	0.000000e+00	0.000000e+00	
134	-5.00000e-02	8.661063e-07	
135	-1.00000e-01	1.679344e-06	
136	-1.50000e-01	2.440454e-06	
137	-2.00000e-01	3.150167e-06	
138	-2.50000e-01	3.809203e-06	
139	-3.00000e-01	4.418275e-06	
140	-3.50000e-01	4.978091e-06	
141	-4.00000e-01	5.489355e-06	
142	-4.50000e-01	5.952783e-06	
143	-5.00000e-01	6.369107e-06	
144	-5.50000e-01	6.739104e-06	
145	-6.00000e-01	7.063641e-06	
146	-6.50000e-01	7.343764e-06	
147	-7.00000e-01	7.580879e-06	
148	-7.50000e-01	7.777107e-06	
149	-8.00000e-01	7.935883e-06	
150	-8.50000e-01	8.062635e-06	
151	-9.00000e-01	8.164708e-06	
152	-9.50000e-01	8.249788e-06	
153	-1.00000e+00	8.323926e-06	
154	-1.05000e+00	8.390943e-06	
155	-1.10000e+00	8.453008e-06	
156	-1.15000e+00	8.511342e-06	
157	-1.20000e+00	8.566674e-06	
158	-1.25000e+00	8.619475e-06	
159	-1.30000e+00	8.670078e-06	
160	-1.35000e+00	8.718730e-06	
161	-1.40000e+00	8.765627e-06	
162	-1.45000e+00	8.810930e-06	
163	-1.50000e+00	8.854776e-06	
164	-1.55000e+00	8.897279e-06	
165	-1.60000e+00	8.938541e-06	
166	-1.65000e+00	8.978651e-06	
167	-1.70000e+00	9.017690e-06	
168	-1.75000e+00	9.055727e-06	
169	-1.80000e+00	9.092827e-06	
170	-1.85000e+00	9.129047e-06	

Index   v-sweep         i(vds)          
--------------------------------------------------------------------------------
171	-1.90000e+00	9.164440e-06	
172	-1.95000e+00	9.199054e-06	
173	-2.00000e+00	9.232933e-06	
174	-2.05000e+00	9.266117e-06	
175	-2.10000e+00	9.298643e-06	
176	-2.15000e+00	9.330544e-06	
177	-2.20000e+00	9.361854e-06	
178	-2.25000e+00	9.392600e-06	
179	-2.30000e+00	9.422809e-06	
180	-2.35000e+00	9.452508e-06	
181	-2.40000e+00	9.481719e-06	
182	-2.45000e+00	9.510465e-06	
183	-2.50000e+00	9.538765e-06	
184	-2.55000e+00	9.566640e-06	
185	-2.60000e+00	9.594107e-06	
186	-2.65000e+00	9.621183e-06	
187	-2.70000e+00	9.647883e-06	
188	-2.75000e+00	9.674224e-06	
189	-2.80000e+00	9.700218e-06	
190	-2.85000e+00	9.725880e-06	
191	-2.90000e+00	9.751221e-06	
192	-2.95000e+00	9.776254e-06	
193	-3.00000e+00	9.800990e-06	
194	-3.05000e+00	9.825439e-06	
195	-3.10000e+00	9.849612e-06	
196	-3.15000e+00	9.873518e-06	
197	-3.20000e+00	9.897166e-06	
198	-3.25000e+00	9.920566e-06	
199	-3.30000e+00	9.943724e-06	
200	-3.35000e+00	9.966650e-06	
201	-3.40000e+00	9.989350e-06	
202	-3.45000e+00	1.001183e-05	
203	-3.50000e+00	1.003410e-05	
204	-3.55000e+00	1.005617e-05	
205	-3.60000e+00	1.007804e-05	
206	-3.65000e+00	1.009971e-05	
207	-3.70000e+00	1.012120e-05	
208	-3.75000e+00	1.014251e-05	
209	-3.80000e+00	1.016365e-05	
210	-3.85000e+00	1.018461e-05	
211	-3.90000e+00	1.020541e-05	
212	-3.95000e+00	1.022606e-05	
213	-4.00000e+00	1.024655e-05	
214	-4.05000e+00	1.026689e-05	
215	-4.10000e+00	1.028709e-05	
216	-4.15000e+00	1.030716e-05	
217	-4.20000e+00	1.032710e-05	
218	-4.25000e+00	1.034691e-05	
219	-4.30000e+00	1.036660e-05	
220	-4.35000e+00	1.038619e-05	
221	-4.40000e+00	1.040567e-05	
222	-4.45000e+00	1.042506e-05	
223	-4.50000e+00	1.044436e-05	
224	-4.55000e+00	1.046358e-05	
225	-4.60000e+00	1.048273e-05	
226	-4.65000e+00	1.050183e-05	
227	-4.70000e+00	1.052088e-05	
228	-4.75000e+00	1.053990e-05	

Index   v-sweep         i(vds)          
--------------------------------------------------------------------------------
229	-4.80000e+00	1.055890e-05	
230	-4.85000e+00	1.057789e-05	
231	-4.90000e+00	1.059690e-05	
232	-4.95000e+00	1.061594e-05	
233	-5.00000e+00	1.063503e-05	
234	-5.05000e+00	1.065418e-05	
235	-5.10000e+00	1.067343e-05	
236	-5.15000e+00	1.069280e-05	
237	-5.20000e+00	1.071231e-05	
238	-5.25000e+00	1.073200e-05	
239	-5.30000e+00	1.075188e-05	
240	-5.35000e+00	1.077201e-05	
241	-5.40000e+00	1.079241e-05	
242	-5.45000e+00	1.081312e-05	
243	-5.50000e+00	1.083418e-05	
244	-5.55000e+00	1.085563e-05	
245	-5.60000e+00	1.087753e-05	
246	-5.65000e+00	1.089992e-05	
247	-5.70000e+00	1.092286e-05	
248	-5.75000e+00	1.094640e-05	
249	-5.80000e+00	1.097060e-05	
250	-5.85000e+00	1.099552e-05	
251	-5.90000e+00	1.102123e-05	
252	-5.95000e+00	1.104780e-05	
253	-6.00000e+00	1.107530e-05	
254	-6.05000e+00	1.110381e-05	
255	-6.10000e+00	1.113342e-05	
256	-6.15000e+00	1.116420e-05	
257	-6.20000e+00	1.119625e-05	
258	-6.25000e+00	1.122965e-05	
259	-6.30000e+00	1.126452e-05	
260	-6.35000e+00	1.130094e-05	
261	-6.40000e+00	1.133903e-05	
262	-6.45000e+00	1.137890e-05	
263	-6.50000e+00	1.142065e-05	
264	-6.55000e+00	1.146442e-05	
265	-6.60000e+00	1.151031e-05	
266	0.000000e+00	0.000000e+00	
267	-5.00000e-02	1.459427e-06	
268	-1.00000e-01	2.865948e-06	
269	-1.50000e-01	4.220197e-06	
270	-2.00000e-01	5.522798e-06	
271	-2.50000e-01	6.774366e-06	
272	-3.00000e-01	7.975507e-06	
273	-3.50000e-01	9.126817e-06	
274	-4.00000e-01	1.022888e-05	
275	-4.50000e-01	1.128228e-05	
276	-5.00000e-01	1.228759e-05	
277	-5.50000e-01	1.324537e-05	
278	-6.00000e-01	1.415617e-05	
279	-6.50000e-01	1.502055e-05	
280	-7.00000e-01	1.583905e-05	
281	-7.50000e-01	1.661220e-05	
282	-8.00000e-01	1.734056e-05	
283	-8.50000e-01	1.802464e-05	
284	-9.00000e-01	1.866499e-05	
285	-9.50000e-01	1.926216e-05	
286	-1.00000e+00	1.981670e-05	

Index   v-sweep         i(vds)          
--------------------------------------------------------------------------------
287	-1.05000e+00	2.032920e-05	
288	-1.10000e+00	2.080030e-05	
289	-1.15000e+00	2.123070e-05	
290	-1.20000e+00	2.162125e-05	
291	-1.25000e+00	2.197304e-05	
292	-1.30000e+00	2.228753e-05	
293	-1.35000e+00	2.256680e-05	
294	-1.40000e+00	2.281381e-05	
295	-1.45000e+00	2.303253e-05	
296	-1.50000e+00	2.322770e-05	
297	-1.55000e+00	2.340411e-05	
298	-1.60000e+00	2.356592e-05	
299	-1.65000e+00	2.371627e-05	
300	-1.70000e+00	2.385737e-05	
301	-1.75000e+00	2.399078e-05	
302	-1.80000e+00	2.411760e-05	
303	-1.85000e+00	2.423868e-05	
304	-1.90000e+00	2.435464e-05	
305	-1.95000e+00	2.446601e-05	
306	-2.00000e+00	2.457322e-05	
307	-2.05000e+00	2.467663e-05	
308	-2.10000e+00	2.477655e-05	
309	-2.15000e+00	2.487325e-05	
310	-2.20000e+00	2.496697e-05	
311	-2.25000e+00	2.505793e-05	
312	-2.30000e+00	2.514632e-05	
313	-2.35000e+00	2.523231e-05	
314	-2.40000e+00	2.531604e-05	
315	-2.45000e+00	2.539766e-05	
316	-2.50000e+00	2.547730e-05	
317	-2.55000e+00	2.555507e-05	
318	-2.60000e+00	2.563107e-05	
319	-2.65000e+00	2.570541e-05	
320	-2.70000e+00	2.577817e-05	
321	-2.75000e+00	2.584944e-05	
322	-2.80000e+00	2.591929e-05	
323	-2.85000e+00	2.598778e-05	
324	-2.90000e+00	2.605500e-05	
325	-2.95000e+00	2.612099e-05	
326	-3.00000e+00	2.618581e-05	
327	-3.05000e+00	2.624952e-05	
328	-3.10000e+00	2.631216e-05	
329	-3.15000e+00	2.637379e-05	
330	-3.20000e+00	2.643443e-05	
331	-3.25000e+00	2.649415e-05	
332	-3.30000e+00	2.655296e-05	
333	-3.35000e+00	2.661092e-05	
334	-3.40000e+00	2.666804e-05	
335	-3.45000e+00	2.672437e-05	
336	-3.50000e+00	2.677994e-05	
337	-3.55000e+00	2.683477e-05	
338	-3.60000e+00	2.688888e-05	
339	-3.65000e+00	2.694231e-05	
340	-3.70000e+00	2.699508e-05	
341	-3.75000e+00	2.704721e-05	
342	-3.80000e+00	2.709873e-05	
343	-3.85000e+00	2.714964e-05	
344	-3.90000e+00	2.719999e-05	

Index   v-sweep         i(vds)          
--------------------------------------------------------------------------------
345	-3.95000e+00	2.724977e-05	
346	-4.00000e+00	2.729902e-05	
347	-4.05000e+00	2.734774e-05	
348	-4.10000e+00	2.739595e-05	
349	-4.15000e+00	2.744368e-05	
350	-4.20000e+00	2.749093e-05	
351	-4.25000e+00	2.753772e-05	
352	-4.30000e+00	2.758407e-05	
353	-4.35000e+00	2.762998e-05	
354	-4.40000e+00	2.767548e-05	
355	-4.45000e+00	2.772057e-05	
356	-4.50000e+00	2.776527e-05	
357	-4.55000e+00	2.780959e-05	
358	-4.60000e+00	2.785355e-05	
359	-4.65000e+00	2.789715e-05	
360	-4.70000e+00	2.794042e-05	
361	-4.75000e+00	2.798337e-05	
362	-4.80000e+00	2.802600e-05	
363	-4.85000e+00	2.806835e-05	
364	-4.90000e+00	2.811042e-05	
365	-4.95000e+00	2.815223e-05	
366	-5.00000e+00	2.819380e-05	
367	-5.05000e+00	2.823515e-05	
368	-5.10000e+00	2.827631e-05	
369	-5.15000e+00	2.831729e-05	
370	-5.20000e+00	2.835812e-05	
371	-5.25000e+00	2.839884e-05	
372	-5.30000e+00	2.843947e-05	
373	-5.35000e+00	2.848004e-05	
374	-5.40000e+00	2.852060e-05	
375	-5.45000e+00	2.856117e-05	
376	-5.50000e+00	2.860182e-05	
377	-5.55000e+00	2.864257e-05	
378	-5.60000e+00	2.868349e-05	
379	-5.65000e+00	2.872463e-05	
380	-5.70000e+00	2.876605e-05	
381	-5.75000e+00	2.880782e-05	
382	-5.80000e+00	2.885001e-05	
383	-5.85000e+00	2.889269e-05	
384	-5.90000e+00	2.893595e-05	
385	-5.95000e+00	2.897988e-05	
386	-6.00000e+00	2.902456e-05	
387	-6.05000e+00	2.907012e-05	
388	-6.10000e+00	2.911664e-05	
389	-6.15000e+00	2.916426e-05	
390	-6.20000e+00	2.921310e-05	
391	-6.25000e+00	2.926328e-05	
392	-6.30000e+00	2.931496e-05	
393	-6.35000e+00	2.936827e-05	
394	-6.40000e+00	2.942338e-05	
395	-6.45000e+00	2.948045e-05	
396	-6.50000e+00	2.953967e-05	
397	-6.55000e+00	2.960121e-05	
398	-6.60000e+00	2.966528e-05	
399	0.000000e+00	0.000000e+00	
400	-5.00000e-02	1.955326e-06	
401	-1.00000e-01	3.858933e-06	
402	-1.50000e-01	5.711363e-06	

Index   v-sweep         i(vds)          
--------------------------------------------------------------------------------
403	-2.00000e-01	7.513155e-06	
404	-2.50000e-01	9.264836e-06	
405	-3.00000e-01	1.096693e-05	
406	-3.50000e-01	1.261995e-05	
407	-4.00000e-01	1.422440e-05	
408	-4.50000e-01	1.578079e-05	
409	-5.00000e-01	1.728960e-05	
410	-5.50000e-01	1.875133e-05	
411	-6.00000e-01	2.016646e-05	
412	-6.50000e-01	2.153546e-05	
413	-7.00000e-01	2.285880e-05	
414	-7.50000e-01	2.413695e-05	
415	-8.00000e-01	2.537036e-05	
416	-8.50000e-01	2.655948e-05	
417	-9.00000e-01	2.770475e-05	
418	-9.50000e-01	2.880663e-05	
419	-1.00000e+00	2.986555e-05	
420	-1.05000e+00	3.088193e-05	
421	-1.10000e+00	3.185621e-05	
422	-1.15000e+00	3.278881e-05	
423	-1.20000e+00	3.368016e-05	
424	-1.25000e+00	3.453067e-05	
425	-1.30000e+00	3.534077e-05	
426	-1.35000e+00	3.611087e-05	
427	-1.40000e+00	3.684140e-05	
428	-1.45000e+00	3.753281e-05	
429	-1.50000e+00	3.818552e-05	
430	-1.55000e+00	3.880002e-05	
431	-1.60000e+00	3.937681e-05	
432	-1.65000e+00	3.991643e-05	
433	-1.70000e+00	4.041954e-05	
434	-1.75000e+00	4.088691e-05	
435	-1.80000e+00	4.131950e-05	
436	-1.85000e+00	4.171859e-05	
437	-1.90000e+00	4.208588e-05	
438	-1.95000e+00	4.242359e-05	
439	-2.00000e+00	4.273449e-05	
440	-2.05000e+00	4.302176e-05	
441	-2.10000e+00	4.328863e-05	
442	-2.15000e+00	4.353811e-05	
443	-2.20000e+00	4.377272e-05	
444	-2.25000e+00	4.399451e-05	
445	-2.30000e+00	4.420510e-05	
446	-2.35000e+00	4.440579e-05	
447	-2.40000e+00	4.459764e-05	
448	-2.45000e+00	4.478151e-05	
449	-2.50000e+00	4.495817e-05	
450	-2.55000e+00	4.512822e-05	
451	-2.60000e+00	4.529223e-05	
452	-2.65000e+00	4.545067e-05	
453	-2.70000e+00	4.560397e-05	
454	-2.75000e+00	4.575251e-05	
455	-2.80000e+00	4.589661e-05	
456	-2.85000e+00	4.603659e-05	
457	-2.90000e+00	4.617270e-05	
458	-2.95000e+00	4.630520e-05	
459	-3.00000e+00	4.643431e-05	
460	-3.05000e+00	4.656023e-05	

Index   v-sweep         i(vds)          
--------------------------------------------------------------------------------
461	-3.10000e+00	4.668315e-05	
462	-3.15000e+00	4.680323e-05	
463	-3.20000e+00	4.692063e-05	
464	-3.25000e+00	4.703550e-05	
465	-3.30000e+00	4.714797e-05	
466	-3.35000e+00	4.725815e-05	
467	-3.40000e+00	4.736616e-05	
468	-3.45000e+00	4.747211e-05	
469	-3.50000e+00	4.757610e-05	
470	-3.55000e+00	4.767821e-05	
471	-3.60000e+00	4.777852e-05	
472	-3.65000e+00	4.787713e-05	
473	-3.70000e+00	4.797410e-05	
474	-3.75000e+00	4.806950e-05	
475	-3.80000e+00	4.816340e-05	
476	-3.85000e+00	4.825585e-05	
477	-3.90000e+00	4.834693e-05	
478	-3.95000e+00	4.843667e-05	
479	-4.00000e+00	4.852513e-05	
480	-4.05000e+00	4.861236e-05	
481	-4.10000e+00	4.869840e-05	
482	-4.15000e+00	4.878331e-05	
483	-4.20000e+00	4.886711e-05	
484	-4.25000e+00	4.894985e-05	
485	-4.30000e+00	4.903156e-05	
486	-4.35000e+00	4.911229e-05	
487	-4.40000e+00	4.919205e-05	
488	-4.45000e+00	4.927089e-05	
489	-4.50000e+00	4.934883e-05	
490	-4.55000e+00	4.942591e-05	
491	-4.60000e+00	4.950215e-05	
492	-4.65000e+00	4.957757e-05	
493	-4.70000e+00	4.965221e-05	
494	-4.75000e+00	4.972608e-05	
495	-4.80000e+00	4.979922e-05	
496	-4.85000e+00	4.987164e-05	
497	-4.90000e+00	4.994336e-05	
498	-4.95000e+00	5.001442e-05	
499	-5.00000e+00	5.008482e-05	
500	-5.05000e+00	5.015460e-05	
501	-5.10000e+00	5.022377e-05	
502	-5.15000e+00	5.029236e-05	
503	-5.20000e+00	5.036038e-05	
504	-5.25000e+00	5.042787e-05	
505	-5.30000e+00	5.049485e-05	
506	-5.35000e+00	5.056133e-05	
507	-5.40000e+00	5.062736e-05	
508	-5.45000e+00	5.069295e-05	
509	-5.50000e+00	5.075814e-05	
510	-5.55000e+00	5.082295e-05	
511	-5.60000e+00	5.088743e-05	
512	-5.65000e+00	5.095162e-05	
513	-5.70000e+00	5.101554e-05	
514	-5.75000e+00	5.107926e-05	
515	-5.80000e+00	5.114282e-05	
516	-5.85000e+00	5.120627e-05	
517	-5.90000e+00	5.126967e-05	
518	-5.95000e+00	5.133309e-05	

Index   v-sweep         i(vds)          
--------------------------------------------------------------------------------
519	-6.00000e+00	5.139660e-05	
520	-6.05000e+00	5.146027e-05	
521	-6.10000e+00	5.152419e-05	
522	-6.15000e+00	5.158846e-05	
523	-6.20000e+00	5.165317e-05	
524	-6.25000e+00	5.171843e-05	
525	-6.30000e+00	5.178435e-05	
526	-6.35000e+00	5.185107e-05	
527	-6.40000e+00	5.191873e-05	
528	-6.45000e+00	5.198746e-05	
529	-6.50000e+00	5.205743e-05	
530	-6.55000e+00	5.212881e-05	
531	-6.60000e+00	5.220178e-05	
532	0.000000e+00	0.000000e+00	
533	-5.00000e-02	2.381417e-06	
534	-1.00000e-01	4.712694e-06	
535	-1.50000e-01	6.994302e-06	
536	-2.00000e-01	9.226703e-06	
537	-2.50000e-01	1.141036e-05	
538	-3.00000e-01	1.354571e-05	
539	-3.50000e-01	1.563322e-05	
540	-4.00000e-01	1.767332e-05	
541	-4.50000e-01	1.966645e-05	
542	-5.00000e-01	2.161304e-05	
543	-5.50000e-01	2.351351e-05	
544	-6.00000e-01	2.536829e-05	
545	-6.50000e-01	2.717779e-05	
546	-7.00000e-01	2.894242e-05	
547	-7.50000e-01	3.066258e-05	
548	-8.00000e-01	3.233869e-05	
549	-8.50000e-01	3.397113e-05	
550	-9.00000e-01	3.556029e-05	
551	-9.50000e-01	3.710657e-05	
552	-1.00000e+00	3.861034e-05	
553	-1.05000e+00	4.007198e-05	
554	-1.10000e+00	4.149188e-05	
555	-1.15000e+00	4.287039e-05	
556	-1.20000e+00	4.420788e-05	
557	-1.25000e+00	4.550472e-05	
558	-1.30000e+00	4.676127e-05	
559	-1.35000e+00	4.797788e-05	
560	-1.40000e+00	4.915490e-05	
561	-1.45000e+00	5.029269e-05	
562	-1.50000e+00	5.139158e-05	
563	-1.55000e+00	5.245193e-05	
564	-1.60000e+00	5.347407e-05	
565	-1.65000e+00	5.445835e-05	
566	-1.70000e+00	5.540510e-05	
567	-1.75000e+00	5.631467e-05	
568	-1.80000e+00	5.718739e-05	
569	-1.85000e+00	5.802361e-05	
570	-1.90000e+00	5.882369e-05	
571	-1.95000e+00	5.958797e-05	
572	-2.00000e+00	6.031683e-05	
573	-2.05000e+00	6.101066e-05	
574	-2.10000e+00	6.166987e-05	
575	-2.15000e+00	6.229494e-05	
576	-2.20000e+00	6.288637e-05	

Index   v-sweep         i(vds)          
--------------------------------------------------------------------------------
577	-2.25000e+00	6.344477e-05	
578	-2.30000e+00	6.397090e-05	
579	-2.35000e+00	6.446566e-05	
580	-2.40000e+00	6.493021e-05	
581	-2.45000e+00	6.536602e-05	
582	-2.50000e+00	6.577486e-05	
583	-2.55000e+00	6.615881e-05	
584	-2.60000e+00	6.652008e-05	
585	-2.65000e+00	6.686091e-05	
586	-2.70000e+00	6.718342e-05	
587	-2.75000e+00	6.748951e-05	
588	-2.80000e+00	6.778085e-05	
589	-2.85000e+00	6.805887e-05	
590	-2.90000e+00	6.832485e-05	
591	-2.95000e+00	6.857987e-05	
592	-3.00000e+00	6.882488e-05	
593	-3.05000e+00	6.906071e-05	
594	-3.10000e+00	6.928811e-05	
595	-3.15000e+00	6.950773e-05	
596	-3.20000e+00	6.972015e-05	
597	-3.25000e+00	6.992590e-05	
598	-3.30000e+00	7.012543e-05	
599	-3.35000e+00	7.031917e-05	
600	-3.40000e+00	7.050751e-05	
601	-3.45000e+00	7.069077e-05	
602	-3.50000e+00	7.086928e-05	
603	-3.55000e+00	7.104332e-05	
604	-3.60000e+00	7.121315e-05	
605	-3.65000e+00	7.137900e-05	
606	-3.70000e+00	7.154111e-05	
607	-3.75000e+00	7.169966e-05	
608	-3.80000e+00	7.185485e-05	
609	-3.85000e+00	7.200685e-05	
610	-3.90000e+00	7.215582e-05	
611	-3.95000e+00	7.230189e-05	
612	-4.00000e+00	7.244522e-05	
613	-4.05000e+00	7.258593e-05	
614	-4.10000e+00	7.272413e-05	
615	-4.15000e+00	7.285995e-05	
616	-4.20000e+00	7.299347e-05	
617	-4.25000e+00	7.312481e-05	
618	-4.30000e+00	7.325405e-05	
619	-4.35000e+00	7.338128e-05	
620	-4.40000e+00	7.350657e-05	
621	-4.45000e+00	7.363001e-05	
622	-4.50000e+00	7.375167e-05	
623	-4.55000e+00	7.387161e-05	
624	-4.60000e+00	7.398990e-05	
625	-4.65000e+00	7.410660e-05	
626	-4.70000e+00	7.422176e-05	
627	-4.75000e+00	7.433544e-05	
628	-4.80000e+00	7.444769e-05	
629	-4.85000e+00	7.455857e-05	
630	-4.90000e+00	7.466811e-05	
631	-4.95000e+00	7.477636e-05	
632	-5.00000e+00	7.488336e-05	
633	-5.05000e+00	7.498916e-05	
634	-5.10000e+00	7.509379e-05	

Index   v-sweep         i(vds)          
--------------------------------------------------------------------------------
635	-5.15000e+00	7.519729e-05	
636	-5.20000e+00	7.529969e-05	
637	-5.25000e+00	7.540103e-05	
638	-5.30000e+00	7.550135e-05	
639	-5.35000e+00	7.560066e-05	
640	-5.40000e+00	7.569902e-05	
641	-5.45000e+00	7.579644e-05	
642	-5.50000e+00	7.589295e-05	
643	-5.55000e+00	7.598860e-05	
644	-5.60000e+00	7.608340e-05	
645	-5.65000e+00	7.617739e-05	
646	-5.70000e+00	7.627059e-05	
647	-5.75000e+00	7.636306e-05	
648	-5.80000e+00	7.645480e-05	
649	-5.85000e+00	7.654587e-05	
650	-5.90000e+00	7.663630e-05	
651	-5.95000e+00	7.672612e-05	
652	-6.00000e+00	7.681538e-05	
653	-6.05000e+00	7.690413e-05	
654	-6.10000e+00	7.699242e-05	
655	-6.15000e+00	7.708030e-05	
656	-6.20000e+00	7.716783e-05	
657	-6.25000e+00	7.725507e-05	
658	-6.30000e+00	7.734209e-05	
659	-6.35000e+00	7.742898e-05	
660	-6.40000e+00	7.751581e-05	
661	-6.45000e+00	7.760269e-05	
662	-6.50000e+00	7.768970e-05	
663	-6.55000e+00	7.777697e-05	
664	-6.60000e+00	7.786461e-05	
665	0.000000e+00	0.000000e+00	
666	-5.00000e-02	2.755558e-06	
667	-1.00000e-01	5.462669e-06	
668	-1.50000e-01	8.121741e-06	
669	-2.00000e-01	1.073318e-05	
670	-2.50000e-01	1.329738e-05	
671	-3.00000e-01	1.581475e-05	
672	-3.50000e-01	1.828567e-05	
673	-4.00000e-01	2.071052e-05	
674	-4.50000e-01	2.308969e-05	
675	-5.00000e-01	2.542356e-05	
676	-5.50000e-01	2.771251e-05	
677	-6.00000e-01	2.995689e-05	
678	-6.50000e-01	3.215708e-05	
679	-7.00000e-01	3.431344e-05	
680	-7.50000e-01	3.642632e-05	
681	-8.00000e-01	3.849609e-05	
682	-8.50000e-01	4.052308e-05	
683	-9.00000e-01	4.250766e-05	
684	-9.50000e-01	4.445015e-05	
685	-1.00000e+00	4.635090e-05	
686	-1.05000e+00	4.821025e-05	
687	-1.10000e+00	5.002852e-05	
688	-1.15000e+00	5.180605e-05	
689	-1.20000e+00	5.354315e-05	
690	-1.25000e+00	5.524016e-05	
691	-1.30000e+00	5.689739e-05	
692	-1.35000e+00	5.851516e-05	

Index   v-sweep         i(vds)          
--------------------------------------------------------------------------------
693	-1.40000e+00	6.009377e-05	
694	-1.45000e+00	6.163354e-05	
695	-1.50000e+00	6.313478e-05	
696	-1.55000e+00	6.459779e-05	
697	-1.60000e+00	6.602286e-05	
698	-1.65000e+00	6.741030e-05	
699	-1.70000e+00	6.876040e-05	
700	-1.75000e+00	7.007346e-05	
701	-1.80000e+00	7.134976e-05	
702	-1.85000e+00	7.258959e-05	
703	-1.90000e+00	7.379325e-05	
704	-1.95000e+00	7.496101e-05	
705	-2.00000e+00	7.609316e-05	
706	-2.05000e+00	7.718998e-05	
707	-2.10000e+00	7.825176e-05	
708	-2.15000e+00	7.927876e-05	
709	-2.20000e+00	8.027129e-05	
710	-2.25000e+00	8.122961e-05	
711	-2.30000e+00	8.215402e-05	
712	-2.35000e+00	8.304480e-05	
713	-2.40000e+00	8.390224e-05	
714	-2.45000e+00	8.472666e-05	
715	-2.50000e+00	8.551837e-05	
716	-2.55000e+00	8.627770e-05	
717	-2.60000e+00	8.700501e-05	
718	-2.65000e+00	8.770069e-05	
719	-2.70000e+00	8.836517e-05	
720	-2.75000e+00	8.899895e-05	
721	-2.80000e+00	8.960263e-05	
722	-2.85000e+00	9.017689e-05	
723	-2.90000e+00	9.072258e-05	
724	-2.95000e+00	9.124071e-05	
725	-3.00000e+00	9.173249e-05	
726	-3.05000e+00	9.219928e-05	
727	-3.10000e+00	9.264261e-05	
728	-3.15000e+00	9.306407e-05	
729	-3.20000e+00	9.346528e-05	
730	-3.25000e+00	9.384780e-05	
731	-3.30000e+00	9.421316e-05	
732	-3.35000e+00	9.456274e-05	
733	-3.40000e+00	9.489782e-05	
734	-3.45000e+00	9.521958e-05	
735	-3.50000e+00	9.552908e-05	
736	-3.55000e+00	9.582726e-05	
737	-3.60000e+00	9.611500e-05	
738	-3.65000e+00	9.639306e-05	
739	-3.70000e+00	9.666214e-05	
740	-3.75000e+00	9.692287e-05	
741	-3.80000e+00	9.717582e-05	
742	-3.85000e+00	9.742151e-05	
743	-3.90000e+00	9.766039e-05	
744	-3.95000e+00	9.789290e-05	
745	-4.00000e+00	9.811943e-05	
746	-4.05000e+00	9.834032e-05	
747	-4.10000e+00	9.855590e-05	
748	-4.15000e+00	9.876648e-05	
749	-4.20000e+00	9.897232e-05	
750	-4.25000e+00	9.917367e-05	

Index   v-sweep         i(vds)          
--------------------------------------------------------------------------------
751	-4.30000e+00	9.937077e-05	
752	-4.35000e+00	9.956384e-05	
753	-4.40000e+00	9.975308e-05	
754	-4.45000e+00	9.993866e-05	
755	-4.50000e+00	1.001208e-04	
756	-4.55000e+00	1.002996e-04	
757	-4.60000e+00	1.004752e-04	
758	-4.65000e+00	1.006478e-04	
759	-4.70000e+00	1.008175e-04	
760	-4.75000e+00	1.009844e-04	
761	-4.80000e+00	1.011487e-04	
762	-4.85000e+00	1.013104e-04	
763	-4.90000e+00	1.014697e-04	
764	-4.95000e+00	1.016266e-04	
765	-5.00000e+00	1.017813e-04	
766	-5.05000e+00	1.019338e-04	
767	-5.10000e+00	1.020842e-04	
768	-5.15000e+00	1.022325e-04	
769	-5.20000e+00	1.023790e-04	
770	-5.25000e+00	1.025235e-04	
771	-5.30000e+00	1.026663e-04	
772	-5.35000e+00	1.028073e-04	
773	-5.40000e+00	1.029466e-04	
774	-5.45000e+00	1.030843e-04	
775	-5.50000e+00	1.032203e-04	
776	-5.55000e+00	1.033549e-04	
777	-5.60000e+00	1.034880e-04	
778	-5.65000e+00	1.036196e-04	
779	-5.70000e+00	1.037499e-04	
780	-5.75000e+00	1.038788e-04	
781	-5.80000e+00	1.040064e-04	
782	-5.85000e+00	1.041327e-04	
783	-5.90000e+00	1.042578e-04	
784	-5.95000e+00	1.043818e-04	
785	-6.00000e+00	1.045045e-04	
786	-6.05000e+00	1.046262e-04	
787	-6.10000e+00	1.047468e-04	
788	-6.15000e+00	1.048664e-04	
789	-6.20000e+00	1.049850e-04	
790	-6.25000e+00	1.051027e-04	
791	-6.30000e+00	1.052194e-04	
792	-6.35000e+00	1.053353e-04	
793	-6.40000e+00	1.054504e-04	
794	-6.45000e+00	1.055647e-04	
795	-6.50000e+00	1.056783e-04	
796	-6.55000e+00	1.057913e-04	
797	-6.60000e+00	1.059037e-04	
Note: No ".plot", ".print", or ".fourier" lines; no simulations run
