
Note: Compatibility modes selected: hs

Warning: m=xx on .subckt line will override multiplier m hierarchy!


Circuit: ***************************

Doing analysis at TEMP = 125.000000 and TNOM = 125.000000


No. of Data Rows : 798
                          ***************************
                          DC transfer characteristic  Mon Jan  9 13:57:53  2023
--------------------------------------------------------------------------------
Index   v-sweep         i(vds)          
--------------------------------------------------------------------------------
0	0.000000e+00	0.000000e+00	
1	-5.00000e-02	2.616610e-06	
2	-1.00000e-01	4.696130e-06	
3	-1.50000e-01	6.281883e-06	
4	-2.00000e-01	7.398312e-06	
5	-2.50000e-01	8.088074e-06	
6	-3.00000e-01	8.450103e-06	
7	-3.50000e-01	8.632229e-06	
8	-4.00000e-01	8.743347e-06	
9	-4.50000e-01	8.828251e-06	
10	-5.00000e-01	8.901741e-06	
11	-5.50000e-01	8.969043e-06	
12	-6.00000e-01	9.032329e-06	
13	-6.50000e-01	9.092664e-06	
14	-7.00000e-01	9.150659e-06	
15	-7.50000e-01	9.206705e-06	
16	-8.00000e-01	9.261075e-06	
17	-8.50000e-01	9.313977e-06	
18	-9.00000e-01	9.365574e-06	
19	-9.50000e-01	9.415999e-06	
20	-1.00000e+00	9.465362e-06	
21	-1.05000e+00	9.513758e-06	
22	-1.10000e+00	9.561269e-06	
23	-1.15000e+00	9.607967e-06	
24	-1.20000e+00	9.653914e-06	
25	-1.25000e+00	9.699166e-06	
26	-1.30000e+00	9.743774e-06	
27	-1.35000e+00	9.787782e-06	
28	-1.40000e+00	9.831230e-06	
29	-1.45000e+00	9.874156e-06	
30	-1.50000e+00	9.916593e-06	
31	-1.55000e+00	9.958571e-06	
32	-1.60000e+00	1.000012e-05	
33	-1.65000e+00	1.004126e-05	
34	-1.70000e+00	1.008202e-05	
35	-1.75000e+00	1.012242e-05	
36	-1.80000e+00	1.016248e-05	
37	-1.85000e+00	1.020222e-05	
38	-1.90000e+00	1.024166e-05	
39	-1.95000e+00	1.028080e-05	
40	-2.00000e+00	1.031968e-05	
41	-2.05000e+00	1.035829e-05	
42	-2.10000e+00	1.039666e-05	
43	-2.15000e+00	1.043480e-05	
44	-2.20000e+00	1.047271e-05	
45	-2.25000e+00	1.051041e-05	
46	-2.30000e+00	1.054791e-05	
47	-2.35000e+00	1.058522e-05	
48	-2.40000e+00	1.062234e-05	
49	-2.45000e+00	1.065929e-05	
50	-2.50000e+00	1.069608e-05	
51	-2.55000e+00	1.073270e-05	
52	-2.60000e+00	1.076917e-05	
53	-2.65000e+00	1.080550e-05	
54	-2.70000e+00	1.084169e-05	

Index   v-sweep         i(vds)          
--------------------------------------------------------------------------------
55	-2.75000e+00	1.087774e-05	
56	-2.80000e+00	1.091367e-05	
57	-2.85000e+00	1.094948e-05	
58	-2.90000e+00	1.098517e-05	
59	-2.95000e+00	1.102075e-05	
60	-3.00000e+00	1.105623e-05	
61	-3.05000e+00	1.109160e-05	
62	-3.10000e+00	1.112688e-05	
63	-3.15000e+00	1.116207e-05	
64	-3.20000e+00	1.119717e-05	
65	-3.25000e+00	1.123218e-05	
66	-3.30000e+00	1.126712e-05	
67	-3.35000e+00	1.130199e-05	
68	-3.40000e+00	1.133679e-05	
69	-3.45000e+00	1.137153e-05	
70	-3.50000e+00	1.140621e-05	
71	-3.55000e+00	1.144084e-05	
72	-3.60000e+00	1.147542e-05	
73	-3.65000e+00	1.150997e-05	
74	-3.70000e+00	1.154448e-05	
75	-3.75000e+00	1.157897e-05	
76	-3.80000e+00	1.161345e-05	
77	-3.85000e+00	1.164792e-05	
78	-3.90000e+00	1.168240e-05	
79	-3.95000e+00	1.171689e-05	
80	-4.00000e+00	1.175142e-05	
81	-4.05000e+00	1.178599e-05	
82	-4.10000e+00	1.182062e-05	
83	-4.15000e+00	1.185532e-05	
84	-4.20000e+00	1.189013e-05	
85	-4.25000e+00	1.192505e-05	
86	-4.30000e+00	1.196011e-05	
87	-4.35000e+00	1.199533e-05	
88	-4.40000e+00	1.203075e-05	
89	-4.45000e+00	1.206640e-05	
90	-4.50000e+00	1.210229e-05	
91	-4.55000e+00	1.213848e-05	
92	-4.60000e+00	1.217500e-05	
93	-4.65000e+00	1.221189e-05	
94	-4.70000e+00	1.224919e-05	
95	-4.75000e+00	1.228696e-05	
96	-4.80000e+00	1.232525e-05	
97	-4.85000e+00	1.236411e-05	
98	-4.90000e+00	1.240360e-05	
99	-4.95000e+00	1.244378e-05	
100	-5.00000e+00	1.248473e-05	
101	-5.05000e+00	1.252652e-05	
102	-5.10000e+00	1.256922e-05	
103	-5.15000e+00	1.261292e-05	
104	-5.20000e+00	1.265770e-05	
105	-5.25000e+00	1.270366e-05	
106	-5.30000e+00	1.275088e-05	
107	-5.35000e+00	1.279949e-05	
108	-5.40000e+00	1.284957e-05	
109	-5.45000e+00	1.290125e-05	
110	-5.50000e+00	1.295465e-05	
111	-5.55000e+00	1.300988e-05	
112	-5.60000e+00	1.306709e-05	

Index   v-sweep         i(vds)          
--------------------------------------------------------------------------------
113	-5.65000e+00	1.312640e-05	
114	-5.70000e+00	1.318797e-05	
115	-5.75000e+00	1.325193e-05	
116	-5.80000e+00	1.331845e-05	
117	-5.85000e+00	1.338769e-05	
118	-5.90000e+00	1.345981e-05	
119	-5.95000e+00	1.353499e-05	
120	-6.00000e+00	1.361341e-05	
121	-6.05000e+00	1.369526e-05	
122	-6.10000e+00	1.378074e-05	
123	-6.15000e+00	1.387004e-05	
124	-6.20000e+00	1.396338e-05	
125	-6.25000e+00	1.406096e-05	
126	-6.30000e+00	1.416302e-05	
127	-6.35000e+00	1.426978e-05	
128	-6.40000e+00	1.438147e-05	
129	-6.45000e+00	1.449834e-05	
130	-6.50000e+00	1.462064e-05	
131	-6.55000e+00	1.474862e-05	
132	-6.60000e+00	1.488254e-05	
133	0.000000e+00	0.000000e+00	
134	-5.00000e-02	1.076246e-05	
135	-1.00000e-01	2.093786e-05	
136	-1.50000e-01	3.056494e-05	
137	-2.00000e-01	3.965579e-05	
138	-2.50000e-01	4.821629e-05	
139	-3.00000e-01	5.625085e-05	
140	-3.50000e-01	6.376357e-05	
141	-4.00000e-01	7.075844e-05	
142	-4.50000e-01	7.723951e-05	
143	-5.00000e-01	8.321087e-05	
144	-5.50000e-01	8.867676e-05	
145	-6.00000e-01	9.364165e-05	
146	-6.50000e-01	9.811040e-05	
147	-7.00000e-01	1.020886e-04	
148	-7.50000e-01	1.055833e-04	
149	-8.00000e-01	1.086036e-04	
150	-8.50000e-01	1.111637e-04	
151	-9.00000e-01	1.132857e-04	
152	-9.50000e-01	1.150061e-04	
153	-1.00000e+00	1.163814e-04	
154	-1.05000e+00	1.174860e-04	
155	-1.10000e+00	1.183977e-04	
156	-1.15000e+00	1.191801e-04	
157	-1.20000e+00	1.198756e-04	
158	-1.25000e+00	1.205104e-04	
159	-1.30000e+00	1.210998e-04	
160	-1.35000e+00	1.216534e-04	
161	-1.40000e+00	1.221775e-04	
162	-1.45000e+00	1.226765e-04	
163	-1.50000e+00	1.231537e-04	
164	-1.55000e+00	1.236118e-04	
165	-1.60000e+00	1.240526e-04	
166	-1.65000e+00	1.244780e-04	
167	-1.70000e+00	1.248894e-04	
168	-1.75000e+00	1.252881e-04	
169	-1.80000e+00	1.256749e-04	
170	-1.85000e+00	1.260510e-04	

Index   v-sweep         i(vds)          
--------------------------------------------------------------------------------
171	-1.90000e+00	1.264170e-04	
172	-1.95000e+00	1.267738e-04	
173	-2.00000e+00	1.271220e-04	
174	-2.05000e+00	1.274621e-04	
175	-2.10000e+00	1.277947e-04	
176	-2.15000e+00	1.281203e-04	
177	-2.20000e+00	1.284392e-04	
178	-2.25000e+00	1.287519e-04	
179	-2.30000e+00	1.290588e-04	
180	-2.35000e+00	1.293601e-04	
181	-2.40000e+00	1.296561e-04	
182	-2.45000e+00	1.299472e-04	
183	-2.50000e+00	1.302336e-04	
184	-2.55000e+00	1.305156e-04	
185	-2.60000e+00	1.307932e-04	
186	-2.65000e+00	1.310669e-04	
187	-2.70000e+00	1.313367e-04	
188	-2.75000e+00	1.316028e-04	
189	-2.80000e+00	1.318654e-04	
190	-2.85000e+00	1.321246e-04	
191	-2.90000e+00	1.323806e-04	
192	-2.95000e+00	1.326336e-04	
193	-3.00000e+00	1.328836e-04	
194	-3.05000e+00	1.331307e-04	
195	-3.10000e+00	1.333752e-04	
196	-3.15000e+00	1.336170e-04	
197	-3.20000e+00	1.338564e-04	
198	-3.25000e+00	1.340933e-04	
199	-3.30000e+00	1.343279e-04	
200	-3.35000e+00	1.345603e-04	
201	-3.40000e+00	1.347905e-04	
202	-3.45000e+00	1.350186e-04	
203	-3.50000e+00	1.352448e-04	
204	-3.55000e+00	1.354690e-04	
205	-3.60000e+00	1.356913e-04	
206	-3.65000e+00	1.359118e-04	
207	-3.70000e+00	1.361306e-04	
208	-3.75000e+00	1.363477e-04	
209	-3.80000e+00	1.365631e-04	
210	-3.85000e+00	1.367771e-04	
211	-3.90000e+00	1.369895e-04	
212	-3.95000e+00	1.372004e-04	
213	-4.00000e+00	1.374100e-04	
214	-4.05000e+00	1.376182e-04	
215	-4.10000e+00	1.378251e-04	
216	-4.15000e+00	1.380308e-04	
217	-4.20000e+00	1.382354e-04	
218	-4.25000e+00	1.384389e-04	
219	-4.30000e+00	1.386414e-04	
220	-4.35000e+00	1.388429e-04	
221	-4.40000e+00	1.390436e-04	
222	-4.45000e+00	1.392435e-04	
223	-4.50000e+00	1.394428e-04	
224	-4.55000e+00	1.396415e-04	
225	-4.60000e+00	1.398398e-04	
226	-4.65000e+00	1.400378e-04	
227	-4.70000e+00	1.402356e-04	
228	-4.75000e+00	1.404334e-04	

Index   v-sweep         i(vds)          
--------------------------------------------------------------------------------
229	-4.80000e+00	1.406314e-04	
230	-4.85000e+00	1.408298e-04	
231	-4.90000e+00	1.410288e-04	
232	-4.95000e+00	1.412285e-04	
233	-5.00000e+00	1.414293e-04	
234	-5.05000e+00	1.416315e-04	
235	-5.10000e+00	1.418353e-04	
236	-5.15000e+00	1.420411e-04	
237	-5.20000e+00	1.422492e-04	
238	-5.25000e+00	1.424600e-04	
239	-5.30000e+00	1.426739e-04	
240	-5.35000e+00	1.428915e-04	
241	-5.40000e+00	1.431131e-04	
242	-5.45000e+00	1.433393e-04	
243	-5.50000e+00	1.435707e-04	
244	-5.55000e+00	1.438079e-04	
245	-5.60000e+00	1.440515e-04	
246	-5.65000e+00	1.443022e-04	
247	-5.70000e+00	1.445608e-04	
248	-5.75000e+00	1.448280e-04	
249	-5.80000e+00	1.451047e-04	
250	-5.85000e+00	1.453917e-04	
251	-5.90000e+00	1.456899e-04	
252	-5.95000e+00	1.460005e-04	
253	-6.00000e+00	1.463243e-04	
254	-6.05000e+00	1.466625e-04	
255	-6.10000e+00	1.470163e-04	
256	-6.15000e+00	1.473867e-04	
257	-6.20000e+00	1.477752e-04	
258	-6.25000e+00	1.481830e-04	
259	-6.30000e+00	1.486114e-04	
260	-6.35000e+00	1.490620e-04	
261	-6.40000e+00	1.495362e-04	
262	-6.45000e+00	1.500357e-04	
263	-6.50000e+00	1.505619e-04	
264	-6.55000e+00	1.511166e-04	
265	-6.60000e+00	1.517017e-04	
266	0.000000e+00	0.000000e+00	
267	-5.00000e-02	1.713487e-05	
268	-1.00000e-01	3.370187e-05	
269	-1.50000e-01	4.973916e-05	
270	-2.00000e-01	6.525829e-05	
271	-2.50000e-01	8.026457e-05	
272	-3.00000e-01	9.476184e-05	
273	-3.50000e-01	1.087536e-04	
274	-4.00000e-01	1.222432e-04	
275	-4.50000e-01	1.352340e-04	
276	-5.00000e-01	1.477292e-04	
277	-5.50000e-01	1.597323e-04	
278	-6.00000e-01	1.712463e-04	
279	-6.50000e-01	1.822746e-04	
280	-7.00000e-01	1.928204e-04	
281	-7.50000e-01	2.028869e-04	
282	-8.00000e-01	2.124774e-04	
283	-8.50000e-01	2.215949e-04	
284	-9.00000e-01	2.302427e-04	
285	-9.50000e-01	2.384241e-04	
286	-1.00000e+00	2.461423e-04	

Index   v-sweep         i(vds)          
--------------------------------------------------------------------------------
287	-1.05000e+00	2.534007e-04	
288	-1.10000e+00	2.602026e-04	
289	-1.15000e+00	2.665517e-04	
290	-1.20000e+00	2.724518e-04	
291	-1.25000e+00	2.779072e-04	
292	-1.30000e+00	2.829225e-04	
293	-1.35000e+00	2.875038e-04	
294	-1.40000e+00	2.916582e-04	
295	-1.45000e+00	2.953957e-04	
296	-1.50000e+00	2.987303e-04	
297	-1.55000e+00	3.016821e-04	
298	-1.60000e+00	3.042801e-04	
299	-1.65000e+00	3.065631e-04	
300	-1.70000e+00	3.085783e-04	
301	-1.75000e+00	3.103754e-04	
302	-1.80000e+00	3.119998e-04	
303	-1.85000e+00	3.134878e-04	
304	-1.90000e+00	3.148669e-04	
305	-1.95000e+00	3.161567e-04	
306	-2.00000e+00	3.173716e-04	
307	-2.05000e+00	3.185226e-04	
308	-2.10000e+00	3.196178e-04	
309	-2.15000e+00	3.206639e-04	
310	-2.20000e+00	3.216662e-04	
311	-2.25000e+00	3.226292e-04	
312	-2.30000e+00	3.235566e-04	
313	-2.35000e+00	3.244515e-04	
314	-2.40000e+00	3.253169e-04	
315	-2.45000e+00	3.261551e-04	
316	-2.50000e+00	3.269682e-04	
317	-2.55000e+00	3.277581e-04	
318	-2.60000e+00	3.285265e-04	
319	-2.65000e+00	3.292749e-04	
320	-2.70000e+00	3.300046e-04	
321	-2.75000e+00	3.307168e-04	
322	-2.80000e+00	3.314127e-04	
323	-2.85000e+00	3.320932e-04	
324	-2.90000e+00	3.327592e-04	
325	-2.95000e+00	3.334116e-04	
326	-3.00000e+00	3.340512e-04	
327	-3.05000e+00	3.346786e-04	
328	-3.10000e+00	3.352944e-04	
329	-3.15000e+00	3.358993e-04	
330	-3.20000e+00	3.364939e-04	
331	-3.25000e+00	3.370786e-04	
332	-3.30000e+00	3.376538e-04	
333	-3.35000e+00	3.382202e-04	
334	-3.40000e+00	3.387780e-04	
335	-3.45000e+00	3.393276e-04	
336	-3.50000e+00	3.398694e-04	
337	-3.55000e+00	3.404038e-04	
338	-3.60000e+00	3.409310e-04	
339	-3.65000e+00	3.414513e-04	
340	-3.70000e+00	3.419651e-04	
341	-3.75000e+00	3.424725e-04	
342	-3.80000e+00	3.429739e-04	
343	-3.85000e+00	3.434695e-04	
344	-3.90000e+00	3.439594e-04	

Index   v-sweep         i(vds)          
--------------------------------------------------------------------------------
345	-3.95000e+00	3.444439e-04	
346	-4.00000e+00	3.449232e-04	
347	-4.05000e+00	3.453975e-04	
348	-4.10000e+00	3.458670e-04	
349	-4.15000e+00	3.463317e-04	
350	-4.20000e+00	3.467920e-04	
351	-4.25000e+00	3.472478e-04	
352	-4.30000e+00	3.476995e-04	
353	-4.35000e+00	3.481471e-04	
354	-4.40000e+00	3.485908e-04	
355	-4.45000e+00	3.490307e-04	
356	-4.50000e+00	3.494669e-04	
357	-4.55000e+00	3.498997e-04	
358	-4.60000e+00	3.503290e-04	
359	-4.65000e+00	3.507550e-04	
360	-4.70000e+00	3.511780e-04	
361	-4.75000e+00	3.515980e-04	
362	-4.80000e+00	3.520151e-04	
363	-4.85000e+00	3.524296e-04	
364	-4.90000e+00	3.528415e-04	
365	-4.95000e+00	3.532511e-04	
366	-5.00000e+00	3.536586e-04	
367	-5.05000e+00	3.540641e-04	
368	-5.10000e+00	3.544678e-04	
369	-5.15000e+00	3.548701e-04	
370	-5.20000e+00	3.552712e-04	
371	-5.25000e+00	3.556713e-04	
372	-5.30000e+00	3.560708e-04	
373	-5.35000e+00	3.564701e-04	
374	-5.40000e+00	3.568695e-04	
375	-5.45000e+00	3.572696e-04	
376	-5.50000e+00	3.576706e-04	
377	-5.55000e+00	3.580733e-04	
378	-5.60000e+00	3.584781e-04	
379	-5.65000e+00	3.588857e-04	
380	-5.70000e+00	3.592968e-04	
381	-5.75000e+00	3.597122e-04	
382	-5.80000e+00	3.601326e-04	
383	-5.85000e+00	3.605589e-04	
384	-5.90000e+00	3.609922e-04	
385	-5.95000e+00	3.614335e-04	
386	-6.00000e+00	3.618838e-04	
387	-6.05000e+00	3.623445e-04	
388	-6.10000e+00	3.628168e-04	
389	-6.15000e+00	3.633022e-04	
390	-6.20000e+00	3.638022e-04	
391	-6.25000e+00	3.643183e-04	
392	-6.30000e+00	3.648524e-04	
393	-6.35000e+00	3.654061e-04	
394	-6.40000e+00	3.659816e-04	
395	-6.45000e+00	3.665809e-04	
396	-6.50000e+00	3.672061e-04	
397	-6.55000e+00	3.678595e-04	
398	-6.60000e+00	3.685438e-04	
399	0.000000e+00	0.000000e+00	
400	-5.00000e-02	2.242444e-05	
401	-1.00000e-01	4.430198e-05	
402	-1.50000e-01	6.567040e-05	

Index   v-sweep         i(vds)          
--------------------------------------------------------------------------------
403	-2.00000e-01	8.654085e-05	
404	-2.50000e-01	1.069183e-04	
405	-3.00000e-01	1.268061e-04	
406	-3.50000e-01	1.462074e-04	
407	-4.00000e-01	1.651253e-04	
408	-4.50000e-01	1.835626e-04	
409	-5.00000e-01	2.015223e-04	
410	-5.50000e-01	2.190073e-04	
411	-6.00000e-01	2.360205e-04	
412	-6.50000e-01	2.525648e-04	
413	-7.00000e-01	2.686429e-04	
414	-7.50000e-01	2.842578e-04	
415	-8.00000e-01	2.994122e-04	
416	-8.50000e-01	3.141088e-04	
417	-9.00000e-01	3.283505e-04	
418	-9.50000e-01	3.421400e-04	
419	-1.00000e+00	3.554801e-04	
420	-1.05000e+00	3.683733e-04	
421	-1.10000e+00	3.808225e-04	
422	-1.15000e+00	3.928303e-04	
423	-1.20000e+00	4.043994e-04	
424	-1.25000e+00	4.155324e-04	
425	-1.30000e+00	4.262321e-04	
426	-1.35000e+00	4.365010e-04	
427	-1.40000e+00	4.463418e-04	
428	-1.45000e+00	4.557573e-04	
429	-1.50000e+00	4.647501e-04	
430	-1.55000e+00	4.733230e-04	
431	-1.60000e+00	4.814787e-04	
432	-1.65000e+00	4.892202e-04	
433	-1.70000e+00	4.965504e-04	
434	-1.75000e+00	5.034725e-04	
435	-1.80000e+00	5.099900e-04	
436	-1.85000e+00	5.161066e-04	
437	-1.90000e+00	5.218269e-04	
438	-1.95000e+00	5.271560e-04	
439	-2.00000e+00	5.321005e-04	
440	-2.05000e+00	5.366689e-04	
441	-2.10000e+00	5.408724e-04	
442	-2.15000e+00	5.447263e-04	
443	-2.20000e+00	5.482505e-04	
444	-2.25000e+00	5.514711e-04	
445	-2.30000e+00	5.544188e-04	
446	-2.35000e+00	5.571268e-04	
447	-2.40000e+00	5.596283e-04	
448	-2.45000e+00	5.619532e-04	
449	-2.50000e+00	5.641268e-04	
450	-2.55000e+00	5.661701e-04	
451	-2.60000e+00	5.681002e-04	
452	-2.65000e+00	5.699310e-04	
453	-2.70000e+00	5.716738e-04	
454	-2.75000e+00	5.733384e-04	
455	-2.80000e+00	5.749325e-04	
456	-2.85000e+00	5.764631e-04	
457	-2.90000e+00	5.779360e-04	
458	-2.95000e+00	5.793563e-04	
459	-3.00000e+00	5.807283e-04	
460	-3.05000e+00	5.820561e-04	

Index   v-sweep         i(vds)          
--------------------------------------------------------------------------------
461	-3.10000e+00	5.833431e-04	
462	-3.15000e+00	5.845922e-04	
463	-3.20000e+00	5.858062e-04	
464	-3.25000e+00	5.869876e-04	
465	-3.30000e+00	5.881385e-04	
466	-3.35000e+00	5.892609e-04	
467	-3.40000e+00	5.903566e-04	
468	-3.45000e+00	5.914273e-04	
469	-3.50000e+00	5.924745e-04	
470	-3.55000e+00	5.934994e-04	
471	-3.60000e+00	5.945034e-04	
472	-3.65000e+00	5.954875e-04	
473	-3.70000e+00	5.964529e-04	
474	-3.75000e+00	5.974005e-04	
475	-3.80000e+00	5.983312e-04	
476	-3.85000e+00	5.992459e-04	
477	-3.90000e+00	6.001453e-04	
478	-3.95000e+00	6.010301e-04	
479	-4.00000e+00	6.019011e-04	
480	-4.05000e+00	6.027587e-04	
481	-4.10000e+00	6.036037e-04	
482	-4.15000e+00	6.044366e-04	
483	-4.20000e+00	6.052578e-04	
484	-4.25000e+00	6.060679e-04	
485	-4.30000e+00	6.068674e-04	
486	-4.35000e+00	6.076565e-04	
487	-4.40000e+00	6.084358e-04	
488	-4.45000e+00	6.092057e-04	
489	-4.50000e+00	6.099664e-04	
490	-4.55000e+00	6.107183e-04	
491	-4.60000e+00	6.114618e-04	
492	-4.65000e+00	6.121971e-04	
493	-4.70000e+00	6.129246e-04	
494	-4.75000e+00	6.136444e-04	
495	-4.80000e+00	6.143569e-04	
496	-4.85000e+00	6.150624e-04	
497	-4.90000e+00	6.157610e-04	
498	-4.95000e+00	6.164530e-04	
499	-5.00000e+00	6.171387e-04	
500	-5.05000e+00	6.178182e-04	
501	-5.10000e+00	6.184918e-04	
502	-5.15000e+00	6.191597e-04	
503	-5.20000e+00	6.198220e-04	
504	-5.25000e+00	6.204791e-04	
505	-5.30000e+00	6.211312e-04	
506	-5.35000e+00	6.217784e-04	
507	-5.40000e+00	6.224210e-04	
508	-5.45000e+00	6.230594e-04	
509	-5.50000e+00	6.236936e-04	
510	-5.55000e+00	6.243241e-04	
511	-5.60000e+00	6.249512e-04	
512	-5.65000e+00	6.255751e-04	
513	-5.70000e+00	6.261963e-04	
514	-5.75000e+00	6.268152e-04	
515	-5.80000e+00	6.274322e-04	
516	-5.85000e+00	6.280479e-04	
517	-5.90000e+00	6.286627e-04	
518	-5.95000e+00	6.292773e-04	

Index   v-sweep         i(vds)          
--------------------------------------------------------------------------------
519	-6.00000e+00	6.298924e-04	
520	-6.05000e+00	6.305086e-04	
521	-6.10000e+00	6.311269e-04	
522	-6.15000e+00	6.317480e-04	
523	-6.20000e+00	6.323731e-04	
524	-6.25000e+00	6.330032e-04	
525	-6.30000e+00	6.336394e-04	
526	-6.35000e+00	6.342831e-04	
527	-6.40000e+00	6.349357e-04	
528	-6.45000e+00	6.355988e-04	
529	-6.50000e+00	6.362739e-04	
530	-6.55000e+00	6.369629e-04	
531	-6.60000e+00	6.376678e-04	
532	0.000000e+00	0.000000e+00	
533	-5.00000e-02	2.698101e-05	
534	-1.00000e-01	5.343363e-05	
535	-1.50000e-01	7.939533e-05	
536	-2.00000e-01	1.048770e-04	
537	-2.50000e-01	1.298832e-04	
538	-3.00000e-01	1.544172e-04	
539	-3.50000e-01	1.784817e-04	
540	-4.00000e-01	2.020795e-04	
541	-4.50000e-01	2.252133e-04	
542	-5.00000e-01	2.478856e-04	
543	-5.50000e-01	2.700993e-04	
544	-6.00000e-01	2.918567e-04	
545	-6.50000e-01	3.131606e-04	
546	-7.00000e-01	3.340136e-04	
547	-7.50000e-01	3.544181e-04	
548	-8.00000e-01	3.743767e-04	
549	-8.50000e-01	3.938920e-04	
550	-9.00000e-01	4.129664e-04	
551	-9.50000e-01	4.316024e-04	
552	-1.00000e+00	4.498025e-04	
553	-1.05000e+00	4.675691e-04	
554	-1.10000e+00	4.849047e-04	
555	-1.15000e+00	5.018117e-04	
556	-1.20000e+00	5.182924e-04	
557	-1.25000e+00	5.343494e-04	
558	-1.30000e+00	5.499848e-04	
559	-1.35000e+00	5.652011e-04	
560	-1.40000e+00	5.800007e-04	
561	-1.45000e+00	5.943858e-04	
562	-1.50000e+00	6.083588e-04	
563	-1.55000e+00	6.219220e-04	
564	-1.60000e+00	6.350776e-04	
565	-1.65000e+00	6.478280e-04	
566	-1.70000e+00	6.601754e-04	
567	-1.75000e+00	6.721221e-04	
568	-1.80000e+00	6.836704e-04	
569	-1.85000e+00	6.948225e-04	
570	-1.90000e+00	7.055807e-04	
571	-1.95000e+00	7.159474e-04	
572	-2.00000e+00	7.259247e-04	
573	-2.05000e+00	7.355151e-04	
574	-2.10000e+00	7.447209e-04	
575	-2.15000e+00	7.535445e-04	
576	-2.20000e+00	7.619884e-04	

Index   v-sweep         i(vds)          
--------------------------------------------------------------------------------
577	-2.25000e+00	7.700552e-04	
578	-2.30000e+00	7.777476e-04	
579	-2.35000e+00	7.850686e-04	
580	-2.40000e+00	7.920214e-04	
581	-2.45000e+00	7.986096e-04	
582	-2.50000e+00	8.048374e-04	
583	-2.55000e+00	8.107098e-04	
584	-2.60000e+00	8.162329e-04	
585	-2.65000e+00	8.214142e-04	
586	-2.70000e+00	8.262638e-04	
587	-2.75000e+00	8.307939e-04	
588	-2.80000e+00	8.350203e-04	
589	-2.85000e+00	8.389619e-04	
590	-2.90000e+00	8.426404e-04	
591	-2.95000e+00	8.460793e-04	
592	-3.00000e+00	8.493022e-04	
593	-3.05000e+00	8.523317e-04	
594	-3.10000e+00	8.551888e-04	
595	-3.15000e+00	8.578920e-04	
596	-3.20000e+00	8.604577e-04	
597	-3.25000e+00	8.629001e-04	
598	-3.30000e+00	8.652316e-04	
599	-3.35000e+00	8.674629e-04	
600	-3.40000e+00	8.696035e-04	
601	-3.45000e+00	8.716614e-04	
602	-3.50000e+00	8.736439e-04	
603	-3.55000e+00	8.755572e-04	
604	-3.60000e+00	8.774070e-04	
605	-3.65000e+00	8.791981e-04	
606	-3.70000e+00	8.809350e-04	
607	-3.75000e+00	8.826216e-04	
608	-3.80000e+00	8.842613e-04	
609	-3.85000e+00	8.858575e-04	
610	-3.90000e+00	8.874130e-04	
611	-3.95000e+00	8.889303e-04	
612	-4.00000e+00	8.904118e-04	
613	-4.05000e+00	8.918597e-04	
614	-4.10000e+00	8.932760e-04	
615	-4.15000e+00	8.946623e-04	
616	-4.20000e+00	8.960205e-04	
617	-4.25000e+00	8.973520e-04	
618	-4.30000e+00	8.986582e-04	
619	-4.35000e+00	8.999404e-04	
620	-4.40000e+00	9.011998e-04	
621	-4.45000e+00	9.024376e-04	
622	-4.50000e+00	9.036547e-04	
623	-4.55000e+00	9.048521e-04	
624	-4.60000e+00	9.060308e-04	
625	-4.65000e+00	9.071915e-04	
626	-4.70000e+00	9.083350e-04	
627	-4.75000e+00	9.094621e-04	
628	-4.80000e+00	9.105735e-04	
629	-4.85000e+00	9.116698e-04	
630	-4.90000e+00	9.127516e-04	
631	-4.95000e+00	9.138195e-04	
632	-5.00000e+00	9.148740e-04	
633	-5.05000e+00	9.159157e-04	
634	-5.10000e+00	9.169449e-04	

Index   v-sweep         i(vds)          
--------------------------------------------------------------------------------
635	-5.15000e+00	9.179623e-04	
636	-5.20000e+00	9.189682e-04	
637	-5.25000e+00	9.199630e-04	
638	-5.30000e+00	9.209471e-04	
639	-5.35000e+00	9.219209e-04	
640	-5.40000e+00	9.228848e-04	
641	-5.45000e+00	9.238390e-04	
642	-5.50000e+00	9.247839e-04	
643	-5.55000e+00	9.257199e-04	
644	-5.60000e+00	9.266473e-04	
645	-5.65000e+00	9.275663e-04	
646	-5.70000e+00	9.284772e-04	
647	-5.75000e+00	9.293805e-04	
648	-5.80000e+00	9.302763e-04	
649	-5.85000e+00	9.311649e-04	
650	-5.90000e+00	9.320468e-04	
651	-5.95000e+00	9.329222e-04	
652	-6.00000e+00	9.337916e-04	
653	-6.05000e+00	9.346551e-04	
654	-6.10000e+00	9.355134e-04	
655	-6.15000e+00	9.363667e-04	
656	-6.20000e+00	9.372156e-04	
657	-6.25000e+00	9.380606e-04	
658	-6.30000e+00	9.389023e-04	
659	-6.35000e+00	9.397413e-04	
660	-6.40000e+00	9.405782e-04	
661	-6.45000e+00	9.414139e-04	
662	-6.50000e+00	9.422492e-04	
663	-6.55000e+00	9.430850e-04	
664	-6.60000e+00	9.439223e-04	
665	0.000000e+00	0.000000e+00	
666	-5.00000e-02	3.102369e-05	
667	-1.00000e-01	6.153458e-05	
668	-1.50000e-01	9.156993e-05	
669	-2.00000e-01	1.211404e-04	
670	-2.50000e-01	1.502503e-04	
671	-3.00000e-01	1.789027e-04	
672	-3.50000e-01	2.071001e-04	
673	-4.00000e-01	2.348450e-04	
674	-4.50000e-01	2.621400e-04	
675	-5.00000e-01	2.889873e-04	
676	-5.50000e-01	3.153896e-04	
677	-6.00000e-01	3.413491e-04	
678	-6.50000e-01	3.668682e-04	
679	-7.00000e-01	3.919494e-04	
680	-7.50000e-01	4.165949e-04	
681	-8.00000e-01	4.408072e-04	
682	-8.50000e-01	4.645885e-04	
683	-9.00000e-01	4.879411e-04	
684	-9.50000e-01	5.108674e-04	
685	-1.00000e+00	5.333696e-04	
686	-1.05000e+00	5.554499e-04	
687	-1.10000e+00	5.771106e-04	
688	-1.15000e+00	5.983540e-04	
689	-1.20000e+00	6.191822e-04	
690	-1.25000e+00	6.395974e-04	
691	-1.30000e+00	6.596019e-04	
692	-1.35000e+00	6.791977e-04	

Index   v-sweep         i(vds)          
--------------------------------------------------------------------------------
693	-1.40000e+00	6.983871e-04	
694	-1.45000e+00	7.171721e-04	
695	-1.50000e+00	7.355550e-04	
696	-1.55000e+00	7.535378e-04	
697	-1.60000e+00	7.711226e-04	
698	-1.65000e+00	7.883114e-04	
699	-1.70000e+00	8.051065e-04	
700	-1.75000e+00	8.215098e-04	
701	-1.80000e+00	8.375234e-04	
702	-1.85000e+00	8.531494e-04	
703	-1.90000e+00	8.683897e-04	
704	-1.95000e+00	8.832463e-04	
705	-2.00000e+00	8.977214e-04	
706	-2.05000e+00	9.118169e-04	
707	-2.10000e+00	9.255347e-04	
708	-2.15000e+00	9.388769e-04	
709	-2.20000e+00	9.518455e-04	
710	-2.25000e+00	9.644424e-04	
711	-2.30000e+00	9.766697e-04	
712	-2.35000e+00	9.885292e-04	
713	-2.40000e+00	1.000023e-03	
714	-2.45000e+00	1.011153e-03	
715	-2.50000e+00	1.021921e-03	
716	-2.55000e+00	1.032330e-03	
717	-2.60000e+00	1.042381e-03	
718	-2.65000e+00	1.052077e-03	
719	-2.70000e+00	1.061419e-03	
720	-2.75000e+00	1.070410e-03	
721	-2.80000e+00	1.079051e-03	
722	-2.85000e+00	1.087347e-03	
723	-2.90000e+00	1.095298e-03	
724	-2.95000e+00	1.102908e-03	
725	-3.00000e+00	1.110180e-03	
726	-3.05000e+00	1.117118e-03	
727	-3.10000e+00	1.123724e-03	
728	-3.15000e+00	1.130005e-03	
729	-3.20000e+00	1.135964e-03	
730	-3.25000e+00	1.141610e-03	
731	-3.30000e+00	1.146950e-03	
732	-3.35000e+00	1.151994e-03	
733	-3.40000e+00	1.156755e-03	
734	-3.45000e+00	1.161246e-03	
735	-3.50000e+00	1.165485e-03	
736	-3.55000e+00	1.169487e-03	
737	-3.60000e+00	1.173271e-03	
738	-3.65000e+00	1.176857e-03	
739	-3.70000e+00	1.180260e-03	
740	-3.75000e+00	1.183499e-03	
741	-3.80000e+00	1.186586e-03	
742	-3.85000e+00	1.189538e-03	
743	-3.90000e+00	1.192365e-03	
744	-3.95000e+00	1.195078e-03	
745	-4.00000e+00	1.197688e-03	
746	-4.05000e+00	1.200203e-03	
747	-4.10000e+00	1.202630e-03	
748	-4.15000e+00	1.204977e-03	
749	-4.20000e+00	1.207250e-03	
750	-4.25000e+00	1.209454e-03	

Index   v-sweep         i(vds)          
--------------------------------------------------------------------------------
751	-4.30000e+00	1.211593e-03	
752	-4.35000e+00	1.213674e-03	
753	-4.40000e+00	1.215699e-03	
754	-4.45000e+00	1.217672e-03	
755	-4.50000e+00	1.219596e-03	
756	-4.55000e+00	1.221475e-03	
757	-4.60000e+00	1.223312e-03	
758	-4.65000e+00	1.225107e-03	
759	-4.70000e+00	1.226865e-03	
760	-4.75000e+00	1.228587e-03	
761	-4.80000e+00	1.230275e-03	
762	-4.85000e+00	1.231931e-03	
763	-4.90000e+00	1.233556e-03	
764	-4.95000e+00	1.235152e-03	
765	-5.00000e+00	1.236720e-03	
766	-5.05000e+00	1.238262e-03	
767	-5.10000e+00	1.239779e-03	
768	-5.15000e+00	1.241273e-03	
769	-5.20000e+00	1.242743e-03	
770	-5.25000e+00	1.244191e-03	
771	-5.30000e+00	1.245619e-03	
772	-5.35000e+00	1.247026e-03	
773	-5.40000e+00	1.248415e-03	
774	-5.45000e+00	1.249784e-03	
775	-5.50000e+00	1.251137e-03	
776	-5.55000e+00	1.252472e-03	
777	-5.60000e+00	1.253790e-03	
778	-5.65000e+00	1.255093e-03	
779	-5.70000e+00	1.256381e-03	
780	-5.75000e+00	1.257654e-03	
781	-5.80000e+00	1.258914e-03	
782	-5.85000e+00	1.260159e-03	
783	-5.90000e+00	1.261391e-03	
784	-5.95000e+00	1.262611e-03	
785	-6.00000e+00	1.263819e-03	
786	-6.05000e+00	1.265014e-03	
787	-6.10000e+00	1.266199e-03	
788	-6.15000e+00	1.267372e-03	
789	-6.20000e+00	1.268534e-03	
790	-6.25000e+00	1.269687e-03	
791	-6.30000e+00	1.270830e-03	
792	-6.35000e+00	1.271963e-03	
793	-6.40000e+00	1.273087e-03	
794	-6.45000e+00	1.274202e-03	
795	-6.50000e+00	1.275310e-03	
796	-6.55000e+00	1.276410e-03	
797	-6.60000e+00	1.277502e-03	
Note: No ".plot", ".print", or ".fourier" lines; no simulations run
