
Note: Compatibility modes selected: hs

Warning: m=xx on .subckt line will override multiplier m hierarchy!


Circuit: ***************************

Doing analysis at TEMP = 25.000000 and TNOM = 25.000000


No. of Data Rows : 798
                          ***************************
                          DC transfer characteristic  Mon Jan  9 13:57:53  2023
--------------------------------------------------------------------------------
Index   v-sweep         i(vds)          
--------------------------------------------------------------------------------
0	0.000000e+00	0.000000e+00	
1	-5.00000e-02	1.593961e-07	
2	-1.00000e-01	2.773208e-07	
3	-1.50000e-01	3.555740e-07	
4	-2.00000e-01	3.988514e-07	
5	-2.50000e-01	4.183570e-07	
6	-3.00000e-01	4.275921e-07	
7	-3.50000e-01	4.335630e-07	
8	-4.00000e-01	4.384069e-07	
9	-4.50000e-01	4.427410e-07	
10	-5.00000e-01	4.467779e-07	
11	-5.50000e-01	4.506073e-07	
12	-6.00000e-01	4.542753e-07	
13	-6.50000e-01	4.578091e-07	
14	-7.00000e-01	4.612269e-07	
15	-7.50000e-01	4.645422e-07	
16	-8.00000e-01	4.677653e-07	
17	-8.50000e-01	4.709048e-07	
18	-9.00000e-01	4.739679e-07	
19	-9.50000e-01	4.769605e-07	
20	-1.00000e+00	4.798881e-07	
21	-1.05000e+00	4.827553e-07	
22	-1.10000e+00	4.855664e-07	
23	-1.15000e+00	4.883249e-07	
24	-1.20000e+00	4.910343e-07	
25	-1.25000e+00	4.936977e-07	
26	-1.30000e+00	4.963179e-07	
27	-1.35000e+00	4.988973e-07	
28	-1.40000e+00	5.014383e-07	
29	-1.45000e+00	5.039430e-07	
30	-1.50000e+00	5.064134e-07	
31	-1.55000e+00	5.088513e-07	
32	-1.60000e+00	5.112584e-07	
33	-1.65000e+00	5.136363e-07	
34	-1.70000e+00	5.159863e-07	
35	-1.75000e+00	5.183099e-07	
36	-1.80000e+00	5.206083e-07	
37	-1.85000e+00	5.228827e-07	
38	-1.90000e+00	5.251342e-07	
39	-1.95000e+00	5.273638e-07	
40	-2.00000e+00	5.295725e-07	
41	-2.05000e+00	5.317612e-07	
42	-2.10000e+00	5.339307e-07	
43	-2.15000e+00	5.360819e-07	
44	-2.20000e+00	5.382155e-07	
45	-2.25000e+00	5.403323e-07	
46	-2.30000e+00	5.424328e-07	
47	-2.35000e+00	5.445179e-07	
48	-2.40000e+00	5.465880e-07	
49	-2.45000e+00	5.486437e-07	
50	-2.50000e+00	5.506856e-07	
51	-2.55000e+00	5.527143e-07	
52	-2.60000e+00	5.547302e-07	
53	-2.65000e+00	5.567337e-07	
54	-2.70000e+00	5.587254e-07	

Index   v-sweep         i(vds)          
--------------------------------------------------------------------------------
55	-2.75000e+00	5.607056e-07	
56	-2.80000e+00	5.626749e-07	
57	-2.85000e+00	5.646334e-07	
58	-2.90000e+00	5.665817e-07	
59	-2.95000e+00	5.685202e-07	
60	-3.00000e+00	5.704491e-07	
61	-3.05000e+00	5.723687e-07	
62	-3.10000e+00	5.742795e-07	
63	-3.15000e+00	5.761818e-07	
64	-3.20000e+00	5.780758e-07	
65	-3.25000e+00	5.799619e-07	
66	-3.30000e+00	5.818404e-07	
67	-3.35000e+00	5.837116e-07	
68	-3.40000e+00	5.855758e-07	
69	-3.45000e+00	5.874333e-07	
70	-3.50000e+00	5.892845e-07	
71	-3.55000e+00	5.911298e-07	
72	-3.60000e+00	5.929694e-07	
73	-3.65000e+00	5.948037e-07	
74	-3.70000e+00	5.966332e-07	
75	-3.75000e+00	5.984582e-07	
76	-3.80000e+00	6.002793e-07	
77	-3.85000e+00	6.020969e-07	
78	-3.90000e+00	6.039116e-07	
79	-3.95000e+00	6.057239e-07	
80	-4.00000e+00	6.075345e-07	
81	-4.05000e+00	6.093440e-07	
82	-4.10000e+00	6.111532e-07	
83	-4.15000e+00	6.129630e-07	
84	-4.20000e+00	6.147742e-07	
85	-4.25000e+00	6.165877e-07	
86	-4.30000e+00	6.184048e-07	
87	-4.35000e+00	6.202265e-07	
88	-4.40000e+00	6.220540e-07	
89	-4.45000e+00	6.238888e-07	
90	-4.50000e+00	6.257324e-07	
91	-4.55000e+00	6.275863e-07	
92	-4.60000e+00	6.294524e-07	
93	-4.65000e+00	6.313324e-07	
94	-4.70000e+00	6.332285e-07	
95	-4.75000e+00	6.351428e-07	
96	-4.80000e+00	6.370776e-07	
97	-4.85000e+00	6.390355e-07	
98	-4.90000e+00	6.410192e-07	
99	-4.95000e+00	6.430315e-07	
100	-5.00000e+00	6.450755e-07	
101	-5.05000e+00	6.471545e-07	
102	-5.10000e+00	6.492720e-07	
103	-5.15000e+00	6.514317e-07	
104	-5.20000e+00	6.536374e-07	
105	-5.25000e+00	6.558933e-07	
106	-5.30000e+00	6.582037e-07	
107	-5.35000e+00	6.605734e-07	
108	-5.40000e+00	6.630071e-07	
109	-5.45000e+00	6.655099e-07	
110	-5.50000e+00	6.680873e-07	
111	-5.55000e+00	6.707448e-07	
112	-5.60000e+00	6.734884e-07	

Index   v-sweep         i(vds)          
--------------------------------------------------------------------------------
113	-5.65000e+00	6.763243e-07	
114	-5.70000e+00	6.792588e-07	
115	-5.75000e+00	6.822989e-07	
116	-5.80000e+00	6.854514e-07	
117	-5.85000e+00	6.887237e-07	
118	-5.90000e+00	6.921234e-07	
119	-5.95000e+00	6.956585e-07	
120	-6.00000e+00	6.993372e-07	
121	-6.05000e+00	7.031680e-07	
122	-6.10000e+00	7.071598e-07	
123	-6.15000e+00	7.113217e-07	
124	-6.20000e+00	7.156632e-07	
125	-6.25000e+00	7.201941e-07	
126	-6.30000e+00	7.249245e-07	
127	-6.35000e+00	7.298648e-07	
128	-6.40000e+00	7.350258e-07	
129	-6.45000e+00	7.404185e-07	
130	-6.50000e+00	7.460544e-07	
131	-6.55000e+00	7.519452e-07	
132	-6.60000e+00	7.581028e-07	
133	0.000000e+00	0.000000e+00	
134	-5.00000e-02	8.327110e-07	
135	-1.00000e-01	1.616666e-06	
136	-1.50000e-01	2.352474e-06	
137	-2.00000e-01	3.040737e-06	
138	-2.50000e-01	3.682051e-06	
139	-3.00000e-01	4.277002e-06	
140	-3.50000e-01	4.826177e-06	
141	-4.00000e-01	5.330160e-06	
142	-4.50000e-01	5.789539e-06	
143	-5.00000e-01	6.204916e-06	
144	-5.50000e-01	6.576922e-06	
145	-6.00000e-01	6.906245e-06	
146	-6.50000e-01	7.193687e-06	
147	-7.00000e-01	7.440271e-06	
148	-7.50000e-01	7.647461e-06	
149	-8.00000e-01	7.817561e-06	
150	-8.50000e-01	7.954331e-06	
151	-9.00000e-01	8.063449e-06	
152	-9.50000e-01	8.151973e-06	
153	-1.00000e+00	8.226594e-06	
154	-1.05000e+00	8.292195e-06	
155	-1.10000e+00	8.351759e-06	
156	-1.15000e+00	8.406986e-06	
157	-1.20000e+00	8.458864e-06	
158	-1.25000e+00	8.508007e-06	
159	-1.30000e+00	8.554825e-06	
160	-1.35000e+00	8.599613e-06	
161	-1.40000e+00	8.642599e-06	
162	-1.45000e+00	8.683964e-06	
163	-1.50000e+00	8.723856e-06	
164	-1.55000e+00	8.762402e-06	
165	-1.60000e+00	8.799710e-06	
166	-1.65000e+00	8.835875e-06	
167	-1.70000e+00	8.870981e-06	
168	-1.75000e+00	8.905102e-06	
169	-1.80000e+00	8.938303e-06	
170	-1.85000e+00	8.970644e-06	

Index   v-sweep         i(vds)          
--------------------------------------------------------------------------------
171	-1.90000e+00	9.002179e-06	
172	-1.95000e+00	9.032957e-06	
173	-2.00000e+00	9.063022e-06	
174	-2.05000e+00	9.092414e-06	
175	-2.10000e+00	9.121171e-06	
176	-2.15000e+00	9.149328e-06	
177	-2.20000e+00	9.176915e-06	
178	-2.25000e+00	9.203961e-06	
179	-2.30000e+00	9.230494e-06	
180	-2.35000e+00	9.256538e-06	
181	-2.40000e+00	9.282116e-06	
182	-2.45000e+00	9.307251e-06	
183	-2.50000e+00	9.331962e-06	
184	-2.55000e+00	9.356268e-06	
185	-2.60000e+00	9.380186e-06	
186	-2.65000e+00	9.403734e-06	
187	-2.70000e+00	9.426926e-06	
188	-2.75000e+00	9.449777e-06	
189	-2.80000e+00	9.472300e-06	
190	-2.85000e+00	9.494509e-06	
191	-2.90000e+00	9.516416e-06	
192	-2.95000e+00	9.538032e-06	
193	-3.00000e+00	9.559368e-06	
194	-3.05000e+00	9.580434e-06	
195	-3.10000e+00	9.601239e-06	
196	-3.15000e+00	9.621794e-06	
197	-3.20000e+00	9.642106e-06	
198	-3.25000e+00	9.662185e-06	
199	-3.30000e+00	9.682037e-06	
200	-3.35000e+00	9.701671e-06	
201	-3.40000e+00	9.721093e-06	
202	-3.45000e+00	9.740311e-06	
203	-3.50000e+00	9.759331e-06	
204	-3.55000e+00	9.778159e-06	
205	-3.60000e+00	9.796801e-06	
206	-3.65000e+00	9.815264e-06	
207	-3.70000e+00	9.833552e-06	
208	-3.75000e+00	9.851671e-06	
209	-3.80000e+00	9.869627e-06	
210	-3.85000e+00	9.887424e-06	
211	-3.90000e+00	9.905068e-06	
212	-3.95000e+00	9.922564e-06	
213	-4.00000e+00	9.939917e-06	
214	-4.05000e+00	9.957132e-06	
215	-4.10000e+00	9.974215e-06	
216	-4.15000e+00	9.991170e-06	
217	-4.20000e+00	1.000800e-05	
218	-4.25000e+00	1.002472e-05	
219	-4.30000e+00	1.004133e-05	
220	-4.35000e+00	1.005783e-05	
221	-4.40000e+00	1.007423e-05	
222	-4.45000e+00	1.009055e-05	
223	-4.50000e+00	1.010678e-05	
224	-4.55000e+00	1.012294e-05	
225	-4.60000e+00	1.013903e-05	
226	-4.65000e+00	1.015507e-05	
227	-4.70000e+00	1.017106e-05	
228	-4.75000e+00	1.018703e-05	

Index   v-sweep         i(vds)          
--------------------------------------------------------------------------------
229	-4.80000e+00	1.020297e-05	
230	-4.85000e+00	1.021890e-05	
231	-4.90000e+00	1.023484e-05	
232	-4.95000e+00	1.025081e-05	
233	-5.00000e+00	1.026682e-05	
234	-5.05000e+00	1.028289e-05	
235	-5.10000e+00	1.029905e-05	
236	-5.15000e+00	1.031531e-05	
237	-5.20000e+00	1.033170e-05	
238	-5.25000e+00	1.034825e-05	
239	-5.30000e+00	1.036498e-05	
240	-5.35000e+00	1.038193e-05	
241	-5.40000e+00	1.039913e-05	
242	-5.45000e+00	1.041662e-05	
243	-5.50000e+00	1.043443e-05	
244	-5.55000e+00	1.045260e-05	
245	-5.60000e+00	1.047118e-05	
246	-5.65000e+00	1.049022e-05	
247	-5.70000e+00	1.050975e-05	
248	-5.75000e+00	1.052985e-05	
249	-5.80000e+00	1.055055e-05	
250	-5.85000e+00	1.057193e-05	
251	-5.90000e+00	1.059403e-05	
252	-5.95000e+00	1.061694e-05	
253	-6.00000e+00	1.064071e-05	
254	-6.05000e+00	1.066541e-05	
255	-6.10000e+00	1.069114e-05	
256	-6.15000e+00	1.071795e-05	
257	-6.20000e+00	1.074595e-05	
258	-6.25000e+00	1.077521e-05	
259	-6.30000e+00	1.080583e-05	
260	-6.35000e+00	1.083790e-05	
261	-6.40000e+00	1.087152e-05	
262	-6.45000e+00	1.090680e-05	
263	-6.50000e+00	1.094384e-05	
264	-6.55000e+00	1.098275e-05	
265	-6.60000e+00	1.102366e-05	
266	0.000000e+00	0.000000e+00	
267	-5.00000e-02	1.377735e-06	
268	-1.00000e-01	2.707146e-06	
269	-1.50000e-01	3.988751e-06	
270	-2.00000e-01	5.223060e-06	
271	-2.50000e-01	6.410575e-06	
272	-3.00000e-01	7.551792e-06	
273	-3.50000e-01	8.647203e-06	
274	-4.00000e-01	9.697289e-06	
275	-4.50000e-01	1.070253e-05	
276	-5.00000e-01	1.166339e-05	
277	-5.50000e-01	1.258034e-05	
278	-6.00000e-01	1.345384e-05	
279	-6.50000e-01	1.428435e-05	
280	-7.00000e-01	1.507232e-05	
281	-7.50000e-01	1.581819e-05	
282	-8.00000e-01	1.652241e-05	
283	-8.50000e-01	1.718542e-05	
284	-9.00000e-01	1.780768e-05	
285	-9.50000e-01	1.838963e-05	
286	-1.00000e+00	1.893174e-05	

Index   v-sweep         i(vds)          
--------------------------------------------------------------------------------
287	-1.05000e+00	1.943448e-05	
288	-1.10000e+00	1.989836e-05	
289	-1.15000e+00	2.032395e-05	
290	-1.20000e+00	2.071189e-05	
291	-1.25000e+00	2.106299e-05	
292	-1.30000e+00	2.137828e-05	
293	-1.35000e+00	2.165924e-05	
294	-1.40000e+00	2.190794e-05	
295	-1.45000e+00	2.212733e-05	
296	-1.50000e+00	2.232130e-05	
297	-1.55000e+00	2.249427e-05	
298	-1.60000e+00	2.265061e-05	
299	-1.65000e+00	2.279394e-05	
300	-1.70000e+00	2.292700e-05	
301	-1.75000e+00	2.305173e-05	
302	-1.80000e+00	2.316948e-05	
303	-1.85000e+00	2.328126e-05	
304	-1.90000e+00	2.338781e-05	
305	-1.95000e+00	2.348971e-05	
306	-2.00000e+00	2.358744e-05	
307	-2.05000e+00	2.368140e-05	
308	-2.10000e+00	2.377191e-05	
309	-2.15000e+00	2.385928e-05	
310	-2.20000e+00	2.394373e-05	
311	-2.25000e+00	2.402551e-05	
312	-2.30000e+00	2.410479e-05	
313	-2.35000e+00	2.418176e-05	
314	-2.40000e+00	2.425657e-05	
315	-2.45000e+00	2.432936e-05	
316	-2.50000e+00	2.440025e-05	
317	-2.55000e+00	2.446937e-05	
318	-2.60000e+00	2.453682e-05	
319	-2.65000e+00	2.460268e-05	
320	-2.70000e+00	2.466706e-05	
321	-2.75000e+00	2.473003e-05	
322	-2.80000e+00	2.479166e-05	
323	-2.85000e+00	2.485203e-05	
324	-2.90000e+00	2.491119e-05	
325	-2.95000e+00	2.496921e-05	
326	-3.00000e+00	2.502614e-05	
327	-3.05000e+00	2.508204e-05	
328	-3.10000e+00	2.513693e-05	
329	-3.15000e+00	2.519089e-05	
330	-3.20000e+00	2.524393e-05	
331	-3.25000e+00	2.529611e-05	
332	-3.30000e+00	2.534746e-05	
333	-3.35000e+00	2.539801e-05	
334	-3.40000e+00	2.544779e-05	
335	-3.45000e+00	2.549684e-05	
336	-3.50000e+00	2.554519e-05	
337	-3.55000e+00	2.559285e-05	
338	-3.60000e+00	2.563986e-05	
339	-3.65000e+00	2.568624e-05	
340	-3.70000e+00	2.573201e-05	
341	-3.75000e+00	2.577719e-05	
342	-3.80000e+00	2.582181e-05	
343	-3.85000e+00	2.586589e-05	
344	-3.90000e+00	2.590943e-05	

Index   v-sweep         i(vds)          
--------------------------------------------------------------------------------
345	-3.95000e+00	2.595246e-05	
346	-4.00000e+00	2.599500e-05	
347	-4.05000e+00	2.603707e-05	
348	-4.10000e+00	2.607867e-05	
349	-4.15000e+00	2.611982e-05	
350	-4.20000e+00	2.616054e-05	
351	-4.25000e+00	2.620084e-05	
352	-4.30000e+00	2.624073e-05	
353	-4.35000e+00	2.628023e-05	
354	-4.40000e+00	2.631934e-05	
355	-4.45000e+00	2.635809e-05	
356	-4.50000e+00	2.639648e-05	
357	-4.55000e+00	2.643452e-05	
358	-4.60000e+00	2.647223e-05	
359	-4.65000e+00	2.650962e-05	
360	-4.70000e+00	2.654671e-05	
361	-4.75000e+00	2.658349e-05	
362	-4.80000e+00	2.662000e-05	
363	-4.85000e+00	2.665624e-05	
364	-4.90000e+00	2.669222e-05	
365	-4.95000e+00	2.672797e-05	
366	-5.00000e+00	2.676350e-05	
367	-5.05000e+00	2.679882e-05	
368	-5.10000e+00	2.683396e-05	
369	-5.15000e+00	2.686894e-05	
370	-5.20000e+00	2.690378e-05	
371	-5.25000e+00	2.693851e-05	
372	-5.30000e+00	2.697315e-05	
373	-5.35000e+00	2.700774e-05	
374	-5.40000e+00	2.704230e-05	
375	-5.45000e+00	2.707687e-05	
376	-5.50000e+00	2.711150e-05	
377	-5.55000e+00	2.714621e-05	
378	-5.60000e+00	2.718107e-05	
379	-5.65000e+00	2.721612e-05	
380	-5.70000e+00	2.725142e-05	
381	-5.75000e+00	2.728702e-05	
382	-5.80000e+00	2.732298e-05	
383	-5.85000e+00	2.735939e-05	
384	-5.90000e+00	2.739631e-05	
385	-5.95000e+00	2.743382e-05	
386	-6.00000e+00	2.747202e-05	
387	-6.05000e+00	2.751099e-05	
388	-6.10000e+00	2.755083e-05	
389	-6.15000e+00	2.759165e-05	
390	-6.20000e+00	2.763357e-05	
391	-6.25000e+00	2.767670e-05	
392	-6.30000e+00	2.772117e-05	
393	-6.35000e+00	2.776712e-05	
394	-6.40000e+00	2.781470e-05	
395	-6.45000e+00	2.786406e-05	
396	-6.50000e+00	2.791535e-05	
397	-6.55000e+00	2.796876e-05	
398	-6.60000e+00	2.802446e-05	
399	0.000000e+00	0.000000e+00	
400	-5.00000e-02	1.834337e-06	
401	-1.00000e-01	3.621699e-06	
402	-1.50000e-01	5.362525e-06	

Index   v-sweep         i(vds)          
--------------------------------------------------------------------------------
403	-2.00000e-01	7.057253e-06	
404	-2.50000e-01	8.706314e-06	
405	-3.00000e-01	1.031013e-05	
406	-3.50000e-01	1.186913e-05	
407	-4.00000e-01	1.338372e-05	
408	-4.50000e-01	1.485431e-05	
409	-5.00000e-01	1.628132e-05	
410	-5.50000e-01	1.766513e-05	
411	-6.00000e-01	1.900615e-05	
412	-6.50000e-01	2.030476e-05	
413	-7.00000e-01	2.156136e-05	
414	-7.50000e-01	2.277633e-05	
415	-8.00000e-01	2.395003e-05	
416	-8.50000e-01	2.508286e-05	
417	-9.00000e-01	2.617517e-05	
418	-9.50000e-01	2.722734e-05	
419	-1.00000e+00	2.823973e-05	
420	-1.05000e+00	2.921269e-05	
421	-1.10000e+00	3.014659e-05	
422	-1.15000e+00	3.104178e-05	
423	-1.20000e+00	3.189860e-05	
424	-1.25000e+00	3.271742e-05	
425	-1.30000e+00	3.349857e-05	
426	-1.35000e+00	3.424243e-05	
427	-1.40000e+00	3.494932e-05	
428	-1.45000e+00	3.561963e-05	
429	-1.50000e+00	3.625370e-05	
430	-1.55000e+00	3.685193e-05	
431	-1.60000e+00	3.741472e-05	
432	-1.65000e+00	3.794251e-05	
433	-1.70000e+00	3.843579e-05	
434	-1.75000e+00	3.889513e-05	
435	-1.80000e+00	3.932123e-05	
436	-1.85000e+00	3.971500e-05	
437	-1.90000e+00	4.007761e-05	
438	-1.95000e+00	4.041064e-05	
439	-2.00000e+00	4.071619e-05	
440	-2.05000e+00	4.099685e-05	
441	-2.10000e+00	4.125556e-05	
442	-2.15000e+00	4.149533e-05	
443	-2.20000e+00	4.171893e-05	
444	-2.25000e+00	4.192873e-05	
445	-2.30000e+00	4.212664e-05	
446	-2.35000e+00	4.231417e-05	
447	-2.40000e+00	4.249256e-05	
448	-2.45000e+00	4.266280e-05	
449	-2.50000e+00	4.282572e-05	
450	-2.55000e+00	4.298200e-05	
451	-2.60000e+00	4.313226e-05	
452	-2.65000e+00	4.327699e-05	
453	-2.70000e+00	4.341666e-05	
454	-2.75000e+00	4.355165e-05	
455	-2.80000e+00	4.368231e-05	
456	-2.85000e+00	4.380895e-05	
457	-2.90000e+00	4.393186e-05	
458	-2.95000e+00	4.405128e-05	
459	-3.00000e+00	4.416744e-05	
460	-3.05000e+00	4.428054e-05	

Index   v-sweep         i(vds)          
--------------------------------------------------------------------------------
461	-3.10000e+00	4.439077e-05	
462	-3.15000e+00	4.449830e-05	
463	-3.20000e+00	4.460328e-05	
464	-3.25000e+00	4.470585e-05	
465	-3.30000e+00	4.480615e-05	
466	-3.35000e+00	4.490429e-05	
467	-3.40000e+00	4.500039e-05	
468	-3.45000e+00	4.509455e-05	
469	-3.50000e+00	4.518687e-05	
470	-3.55000e+00	4.527742e-05	
471	-3.60000e+00	4.536630e-05	
472	-3.65000e+00	4.545358e-05	
473	-3.70000e+00	4.553933e-05	
474	-3.75000e+00	4.562363e-05	
475	-3.80000e+00	4.570652e-05	
476	-3.85000e+00	4.578807e-05	
477	-3.90000e+00	4.586834e-05	
478	-3.95000e+00	4.594738e-05	
479	-4.00000e+00	4.602524e-05	
480	-4.05000e+00	4.610195e-05	
481	-4.10000e+00	4.617757e-05	
482	-4.15000e+00	4.625214e-05	
483	-4.20000e+00	4.632569e-05	
484	-4.25000e+00	4.639827e-05	
485	-4.30000e+00	4.646990e-05	
486	-4.35000e+00	4.654061e-05	
487	-4.40000e+00	4.661045e-05	
488	-4.45000e+00	4.667944e-05	
489	-4.50000e+00	4.674761e-05	
490	-4.55000e+00	4.681498e-05	
491	-4.60000e+00	4.688159e-05	
492	-4.65000e+00	4.694745e-05	
493	-4.70000e+00	4.701259e-05	
494	-4.75000e+00	4.707703e-05	
495	-4.80000e+00	4.714080e-05	
496	-4.85000e+00	4.720391e-05	
497	-4.90000e+00	4.726639e-05	
498	-4.95000e+00	4.732826e-05	
499	-5.00000e+00	4.738953e-05	
500	-5.05000e+00	4.745023e-05	
501	-5.10000e+00	4.751037e-05	
502	-5.15000e+00	4.756998e-05	
503	-5.20000e+00	4.762908e-05	
504	-5.25000e+00	4.768768e-05	
505	-5.30000e+00	4.774581e-05	
506	-5.35000e+00	4.780350e-05	
507	-5.40000e+00	4.786075e-05	
508	-5.45000e+00	4.791761e-05	
509	-5.50000e+00	4.797409e-05	
510	-5.55000e+00	4.803022e-05	
511	-5.60000e+00	4.808604e-05	
512	-5.65000e+00	4.814157e-05	
513	-5.70000e+00	4.819686e-05	
514	-5.75000e+00	4.825194e-05	
515	-5.80000e+00	4.830686e-05	
516	-5.85000e+00	4.836166e-05	
517	-5.90000e+00	4.841640e-05	
518	-5.95000e+00	4.847113e-05	

Index   v-sweep         i(vds)          
--------------------------------------------------------------------------------
519	-6.00000e+00	4.852592e-05	
520	-6.05000e+00	4.858083e-05	
521	-6.10000e+00	4.863594e-05	
522	-6.15000e+00	4.869132e-05	
523	-6.20000e+00	4.874707e-05	
524	-6.25000e+00	4.880329e-05	
525	-6.30000e+00	4.886007e-05	
526	-6.35000e+00	4.891752e-05	
527	-6.40000e+00	4.897578e-05	
528	-6.45000e+00	4.903497e-05	
529	-6.50000e+00	4.909524e-05	
530	-6.55000e+00	4.915673e-05	
531	-6.60000e+00	4.921961e-05	
532	0.000000e+00	0.000000e+00	
533	-5.00000e-02	2.227363e-06	
534	-1.00000e-01	4.409355e-06	
535	-1.50000e-01	6.546356e-06	
536	-2.00000e-01	8.638742e-06	
537	-2.50000e-01	1.068688e-05	
538	-3.00000e-01	1.269115e-05	
539	-3.50000e-01	1.465191e-05	
540	-4.00000e-01	1.656951e-05	
541	-4.50000e-01	1.844432e-05	
542	-5.00000e-01	2.027669e-05	
543	-5.50000e-01	2.206696e-05	
544	-6.00000e-01	2.381548e-05	
545	-6.50000e-01	2.552258e-05	
546	-7.00000e-01	2.718862e-05	
547	-7.50000e-01	2.881391e-05	
548	-8.00000e-01	3.039880e-05	
549	-8.50000e-01	3.194360e-05	
550	-9.00000e-01	3.344864e-05	
551	-9.50000e-01	3.491425e-05	
552	-1.00000e+00	3.634073e-05	
553	-1.05000e+00	3.772839e-05	
554	-1.10000e+00	3.907756e-05	
555	-1.15000e+00	4.038854e-05	
556	-1.20000e+00	4.166163e-05	
557	-1.25000e+00	4.289713e-05	
558	-1.30000e+00	4.409535e-05	
559	-1.35000e+00	4.525658e-05	
560	-1.40000e+00	4.638110e-05	
561	-1.45000e+00	4.746923e-05	
562	-1.50000e+00	4.852123e-05	
563	-1.55000e+00	4.953741e-05	
564	-1.60000e+00	5.051805e-05	
565	-1.65000e+00	5.146342e-05	
566	-1.70000e+00	5.237383e-05	
567	-1.75000e+00	5.324954e-05	
568	-1.80000e+00	5.409085e-05	
569	-1.85000e+00	5.489804e-05	
570	-1.90000e+00	5.567141e-05	
571	-1.95000e+00	5.641124e-05	
572	-2.00000e+00	5.711784e-05	
573	-2.05000e+00	5.779152e-05	
574	-2.10000e+00	5.843262e-05	
575	-2.15000e+00	5.904150e-05	
576	-2.20000e+00	5.961856e-05	

Index   v-sweep         i(vds)          
--------------------------------------------------------------------------------
577	-2.25000e+00	6.016423e-05	
578	-2.30000e+00	6.067906e-05	
579	-2.35000e+00	6.116369e-05	
580	-2.40000e+00	6.161892e-05	
581	-2.45000e+00	6.204579e-05	
582	-2.50000e+00	6.244558e-05	
583	-2.55000e+00	6.281991e-05	
584	-2.60000e+00	6.317064e-05	
585	-2.65000e+00	6.349984e-05	
586	-2.70000e+00	6.380963e-05	
587	-2.75000e+00	6.410201e-05	
588	-2.80000e+00	6.437883e-05	
589	-2.85000e+00	6.464169e-05	
590	-2.90000e+00	6.489202e-05	
591	-2.95000e+00	6.513103e-05	
592	-3.00000e+00	6.535977e-05	
593	-3.05000e+00	6.557918e-05	
594	-3.10000e+00	6.579005e-05	
595	-3.15000e+00	6.599309e-05	
596	-3.20000e+00	6.618892e-05	
597	-3.25000e+00	6.637811e-05	
598	-3.30000e+00	6.656114e-05	
599	-3.35000e+00	6.673846e-05	
600	-3.40000e+00	6.691047e-05	
601	-3.45000e+00	6.707751e-05	
602	-3.50000e+00	6.723992e-05	
603	-3.55000e+00	6.739798e-05	
604	-3.60000e+00	6.755196e-05	
605	-3.65000e+00	6.770211e-05	
606	-3.70000e+00	6.784865e-05	
607	-3.75000e+00	6.799177e-05	
608	-3.80000e+00	6.813167e-05	
609	-3.85000e+00	6.826852e-05	
610	-3.90000e+00	6.840248e-05	
611	-3.95000e+00	6.853369e-05	
612	-4.00000e+00	6.866229e-05	
613	-4.05000e+00	6.878840e-05	
614	-4.10000e+00	6.891215e-05	
615	-4.15000e+00	6.903364e-05	
616	-4.20000e+00	6.915298e-05	
617	-4.25000e+00	6.927025e-05	
618	-4.30000e+00	6.938556e-05	
619	-4.35000e+00	6.949898e-05	
620	-4.40000e+00	6.961058e-05	
621	-4.45000e+00	6.972046e-05	
622	-4.50000e+00	6.982866e-05	
623	-4.55000e+00	6.993527e-05	
624	-4.60000e+00	7.004033e-05	
625	-4.65000e+00	7.014391e-05	
626	-4.70000e+00	7.024607e-05	
627	-4.75000e+00	7.034685e-05	
628	-4.80000e+00	7.044631e-05	
629	-4.85000e+00	7.054449e-05	
630	-4.90000e+00	7.064143e-05	
631	-4.95000e+00	7.073718e-05	
632	-5.00000e+00	7.083177e-05	
633	-5.05000e+00	7.092526e-05	
634	-5.10000e+00	7.101766e-05	

Index   v-sweep         i(vds)          
--------------------------------------------------------------------------------
635	-5.15000e+00	7.110902e-05	
636	-5.20000e+00	7.119937e-05	
637	-5.25000e+00	7.128874e-05	
638	-5.30000e+00	7.137717e-05	
639	-5.35000e+00	7.146468e-05	
640	-5.40000e+00	7.155130e-05	
641	-5.45000e+00	7.163706e-05	
642	-5.50000e+00	7.172198e-05	
643	-5.55000e+00	7.180611e-05	
644	-5.60000e+00	7.188946e-05	
645	-5.65000e+00	7.197205e-05	
646	-5.70000e+00	7.205393e-05	
647	-5.75000e+00	7.213512e-05	
648	-5.80000e+00	7.221564e-05	
649	-5.85000e+00	7.229553e-05	
650	-5.90000e+00	7.237481e-05	
651	-5.95000e+00	7.245354e-05	
652	-6.00000e+00	7.253173e-05	
653	-6.05000e+00	7.260944e-05	
654	-6.10000e+00	7.268669e-05	
655	-6.15000e+00	7.276355e-05	
656	-6.20000e+00	7.284006e-05	
657	-6.25000e+00	7.291627e-05	
658	-6.30000e+00	7.299225e-05	
659	-6.35000e+00	7.306805e-05	
660	-6.40000e+00	7.314376e-05	
661	-6.45000e+00	7.321946e-05	
662	-6.50000e+00	7.329522e-05	
663	-6.55000e+00	7.337115e-05	
664	-6.60000e+00	7.344736e-05	
665	0.000000e+00	0.000000e+00	
666	-5.00000e-02	2.572938e-06	
667	-1.00000e-01	5.102154e-06	
668	-1.50000e-01	7.587978e-06	
669	-2.00000e-01	1.003074e-05	
670	-2.50000e-01	1.243075e-05	
671	-3.00000e-01	1.478835e-05	
672	-3.50000e-01	1.710384e-05	
673	-4.00000e-01	1.937755e-05	
674	-4.50000e-01	2.160977e-05	
675	-5.00000e-01	2.380083e-05	
676	-5.50000e-01	2.595102e-05	
677	-6.00000e-01	2.806065e-05	
678	-6.50000e-01	3.013001e-05	
679	-7.00000e-01	3.215940e-05	
680	-7.50000e-01	3.414912e-05	
681	-8.00000e-01	3.609945e-05	
682	-8.50000e-01	3.801069e-05	
683	-9.00000e-01	3.988312e-05	
684	-9.50000e-01	4.171701e-05	
685	-1.00000e+00	4.351266e-05	
686	-1.05000e+00	4.527033e-05	
687	-1.10000e+00	4.699030e-05	
688	-1.15000e+00	4.867284e-05	
689	-1.20000e+00	5.031823e-05	
690	-1.25000e+00	5.192672e-05	
691	-1.30000e+00	5.349859e-05	
692	-1.35000e+00	5.503409e-05	

Index   v-sweep         i(vds)          
--------------------------------------------------------------------------------
693	-1.40000e+00	5.653349e-05	
694	-1.45000e+00	5.799704e-05	
695	-1.50000e+00	5.942499e-05	
696	-1.55000e+00	6.081760e-05	
697	-1.60000e+00	6.217513e-05	
698	-1.65000e+00	6.349781e-05	
699	-1.70000e+00	6.478590e-05	
700	-1.75000e+00	6.603964e-05	
701	-1.80000e+00	6.725927e-05	
702	-1.85000e+00	6.844504e-05	
703	-1.90000e+00	6.959718e-05	
704	-1.95000e+00	7.071594e-05	
705	-2.00000e+00	7.180156e-05	
706	-2.05000e+00	7.285426e-05	
707	-2.10000e+00	7.387429e-05	
708	-2.15000e+00	7.486187e-05	
709	-2.20000e+00	7.581725e-05	
710	-2.25000e+00	7.674067e-05	
711	-2.30000e+00	7.763236e-05	
712	-2.35000e+00	7.849255e-05	
713	-2.40000e+00	7.932150e-05	
714	-2.45000e+00	8.011946e-05	
715	-2.50000e+00	8.088667e-05	
716	-2.55000e+00	8.162341e-05	
717	-2.60000e+00	8.232996e-05	
718	-2.65000e+00	8.300662e-05	
719	-2.70000e+00	8.365371e-05	
720	-2.75000e+00	8.427161e-05	
721	-2.80000e+00	8.486073e-05	
722	-2.85000e+00	8.542157e-05	
723	-2.90000e+00	8.595472e-05	
724	-2.95000e+00	8.646090e-05	
725	-3.00000e+00	8.694096e-05	
726	-3.05000e+00	8.739596e-05	
727	-3.10000e+00	8.782711e-05	
728	-3.15000e+00	8.823578e-05	
729	-3.20000e+00	8.862348e-05	
730	-3.25000e+00	8.899172e-05	
731	-3.30000e+00	8.934202e-05	
732	-3.35000e+00	8.967586e-05	
733	-3.40000e+00	8.999459e-05	
734	-3.45000e+00	9.029949e-05	
735	-3.50000e+00	9.059169e-05	
736	-3.55000e+00	9.087225e-05	
737	-3.60000e+00	9.114209e-05	
738	-3.65000e+00	9.140207e-05	
739	-3.70000e+00	9.165292e-05	
740	-3.75000e+00	9.189534e-05	
741	-3.80000e+00	9.212993e-05	
742	-3.85000e+00	9.235724e-05	
743	-3.90000e+00	9.257777e-05	
744	-3.95000e+00	9.279197e-05	
745	-4.00000e+00	9.300024e-05	
746	-4.05000e+00	9.320296e-05	
747	-4.10000e+00	9.340046e-05	
748	-4.15000e+00	9.359305e-05	
749	-4.20000e+00	9.378101e-05	
750	-4.25000e+00	9.396461e-05	

Index   v-sweep         i(vds)          
--------------------------------------------------------------------------------
751	-4.30000e+00	9.414408e-05	
752	-4.35000e+00	9.431964e-05	
753	-4.40000e+00	9.449149e-05	
754	-4.45000e+00	9.465982e-05	
755	-4.50000e+00	9.482482e-05	
756	-4.55000e+00	9.498662e-05	
757	-4.60000e+00	9.514540e-05	
758	-4.65000e+00	9.530128e-05	
759	-4.70000e+00	9.545441e-05	
760	-4.75000e+00	9.560489e-05	
761	-4.80000e+00	9.575284e-05	
762	-4.85000e+00	9.589838e-05	
763	-4.90000e+00	9.604160e-05	
764	-4.95000e+00	9.618260e-05	
765	-5.00000e+00	9.632146e-05	
766	-5.05000e+00	9.645827e-05	
767	-5.10000e+00	9.659311e-05	
768	-5.15000e+00	9.672605e-05	
769	-5.20000e+00	9.685716e-05	
770	-5.25000e+00	9.698651e-05	
771	-5.30000e+00	9.711416e-05	
772	-5.35000e+00	9.724017e-05	
773	-5.40000e+00	9.736461e-05	
774	-5.45000e+00	9.748751e-05	
775	-5.50000e+00	9.760894e-05	
776	-5.55000e+00	9.772894e-05	
777	-5.60000e+00	9.784756e-05	
778	-5.65000e+00	9.796484e-05	
779	-5.70000e+00	9.808083e-05	
780	-5.75000e+00	9.819557e-05	
781	-5.80000e+00	9.830910e-05	
782	-5.85000e+00	9.842145e-05	
783	-5.90000e+00	9.853266e-05	
784	-5.95000e+00	9.864277e-05	
785	-6.00000e+00	9.875182e-05	
786	-6.05000e+00	9.885983e-05	
787	-6.10000e+00	9.896685e-05	
788	-6.15000e+00	9.907292e-05	
789	-6.20000e+00	9.917805e-05	
790	-6.25000e+00	9.928230e-05	
791	-6.30000e+00	9.938570e-05	
792	-6.35000e+00	9.948830e-05	
793	-6.40000e+00	9.959012e-05	
794	-6.45000e+00	9.969122e-05	
795	-6.50000e+00	9.979164e-05	
796	-6.55000e+00	9.989144e-05	
797	-6.60000e+00	9.999067e-05	
Note: No ".plot", ".print", or ".fourier" lines; no simulations run
