
Note: Compatibility modes selected: hs

Warning: m=xx on .subckt line will override multiplier m hierarchy!


Circuit: ***************************

Doing analysis at TEMP = -40.000000 and TNOM = -40.000000


No. of Data Rows : 798
                          ***************************
                          DC transfer characteristic  Mon Jan  9 13:57:53  2023
--------------------------------------------------------------------------------
Index   v-sweep         i(vds)          
--------------------------------------------------------------------------------
0	0.000000e+00	0.000000e+00	
1	-5.00000e-02	8.666397e-07	
2	-1.00000e-01	1.138949e-06	
3	-1.50000e-01	1.204390e-06	
4	-2.00000e-01	1.235712e-06	
5	-2.50000e-01	1.259613e-06	
6	-3.00000e-01	1.280668e-06	
7	-3.50000e-01	1.300158e-06	
8	-4.00000e-01	1.318603e-06	
9	-4.50000e-01	1.336279e-06	
10	-5.00000e-01	1.353353e-06	
11	-5.50000e-01	1.369940e-06	
12	-6.00000e-01	1.386126e-06	
13	-6.50000e-01	1.401973e-06	
14	-7.00000e-01	1.417533e-06	
15	-7.50000e-01	1.432846e-06	
16	-8.00000e-01	1.447946e-06	
17	-8.50000e-01	1.462861e-06	
18	-9.00000e-01	1.477614e-06	
19	-9.50000e-01	1.492226e-06	
20	-1.00000e+00	1.506714e-06	
21	-1.05000e+00	1.521093e-06	
22	-1.10000e+00	1.535377e-06	
23	-1.15000e+00	1.549576e-06	
24	-1.20000e+00	1.563701e-06	
25	-1.25000e+00	1.577761e-06	
26	-1.30000e+00	1.591764e-06	
27	-1.35000e+00	1.605718e-06	
28	-1.40000e+00	1.619629e-06	
29	-1.45000e+00	1.633503e-06	
30	-1.50000e+00	1.647344e-06	
31	-1.55000e+00	1.661159e-06	
32	-1.60000e+00	1.674952e-06	
33	-1.65000e+00	1.688725e-06	
34	-1.70000e+00	1.702484e-06	
35	-1.75000e+00	1.716232e-06	
36	-1.80000e+00	1.729971e-06	
37	-1.85000e+00	1.743705e-06	
38	-1.90000e+00	1.757437e-06	
39	-1.95000e+00	1.771168e-06	
40	-2.00000e+00	1.784901e-06	
41	-2.05000e+00	1.798639e-06	
42	-2.10000e+00	1.812383e-06	
43	-2.15000e+00	1.826135e-06	
44	-2.20000e+00	1.839897e-06	
45	-2.25000e+00	1.853670e-06	
46	-2.30000e+00	1.867457e-06	
47	-2.35000e+00	1.881258e-06	
48	-2.40000e+00	1.895075e-06	
49	-2.45000e+00	1.908909e-06	
50	-2.50000e+00	1.922761e-06	
51	-2.55000e+00	1.936633e-06	
52	-2.60000e+00	1.950526e-06	
53	-2.65000e+00	1.964440e-06	
54	-2.70000e+00	1.978377e-06	

Index   v-sweep         i(vds)          
--------------------------------------------------------------------------------
55	-2.75000e+00	1.992337e-06	
56	-2.80000e+00	2.006322e-06	
57	-2.85000e+00	2.020332e-06	
58	-2.90000e+00	2.034369e-06	
59	-2.95000e+00	2.048433e-06	
60	-3.00000e+00	2.062525e-06	
61	-3.05000e+00	2.076645e-06	
62	-3.10000e+00	2.090796e-06	
63	-3.15000e+00	2.104977e-06	
64	-3.20000e+00	2.119190e-06	
65	-3.25000e+00	2.133435e-06	
66	-3.30000e+00	2.147713e-06	
67	-3.35000e+00	2.162027e-06	
68	-3.40000e+00	2.176376e-06	
69	-3.45000e+00	2.190763e-06	
70	-3.50000e+00	2.205188e-06	
71	-3.55000e+00	2.219653e-06	
72	-3.60000e+00	2.234161e-06	
73	-3.65000e+00	2.248712e-06	
74	-3.70000e+00	2.263310e-06	
75	-3.75000e+00	2.277956e-06	
76	-3.80000e+00	2.292653e-06	
77	-3.85000e+00	2.307404e-06	
78	-3.90000e+00	2.322213e-06	
79	-3.95000e+00	2.337083e-06	
80	-4.00000e+00	2.352018e-06	
81	-4.05000e+00	2.367023e-06	
82	-4.10000e+00	2.382103e-06	
83	-4.15000e+00	2.397263e-06	
84	-4.20000e+00	2.412509e-06	
85	-4.25000e+00	2.427848e-06	
86	-4.30000e+00	2.443287e-06	
87	-4.35000e+00	2.458834e-06	
88	-4.40000e+00	2.474497e-06	
89	-4.45000e+00	2.490287e-06	
90	-4.50000e+00	2.506212e-06	
91	-4.55000e+00	2.522285e-06	
92	-4.60000e+00	2.538517e-06	
93	-4.65000e+00	2.554921e-06	
94	-4.70000e+00	2.571511e-06	
95	-4.75000e+00	2.588301e-06	
96	-4.80000e+00	2.605308e-06	
97	-4.85000e+00	2.622549e-06	
98	-4.90000e+00	2.640041e-06	
99	-4.95000e+00	2.657806e-06	
100	-5.00000e+00	2.675862e-06	
101	-5.05000e+00	2.694233e-06	
102	-5.10000e+00	2.712942e-06	
103	-5.15000e+00	2.732013e-06	
104	-5.20000e+00	2.751473e-06	
105	-5.25000e+00	2.771350e-06	
106	-5.30000e+00	2.791673e-06	
107	-5.35000e+00	2.812474e-06	
108	-5.40000e+00	2.833784e-06	
109	-5.45000e+00	2.855638e-06	
110	-5.50000e+00	2.878071e-06	
111	-5.55000e+00	2.901123e-06	
112	-5.60000e+00	2.924832e-06	

Index   v-sweep         i(vds)          
--------------------------------------------------------------------------------
113	-5.65000e+00	2.949239e-06	
114	-5.70000e+00	2.974389e-06	
115	-5.75000e+00	3.000325e-06	
116	-5.80000e+00	3.027096e-06	
117	-5.85000e+00	3.054750e-06	
118	-5.90000e+00	3.083339e-06	
119	-5.95000e+00	3.112915e-06	
120	-6.00000e+00	3.143534e-06	
121	-6.05000e+00	3.175254e-06	
122	-6.10000e+00	3.208133e-06	
123	-6.15000e+00	3.242235e-06	
124	-6.20000e+00	3.277622e-06	
125	-6.25000e+00	3.314360e-06	
126	-6.30000e+00	3.352519e-06	
127	-6.35000e+00	3.392168e-06	
128	-6.40000e+00	3.433381e-06	
129	-6.45000e+00	3.476233e-06	
130	-6.50000e+00	3.520802e-06	
131	-6.55000e+00	3.567167e-06	
132	-6.60000e+00	3.615411e-06	
133	0.000000e+00	0.000000e+00	
134	-5.00000e-02	1.751590e-05	
135	-1.00000e-01	3.375812e-05	
136	-1.50000e-01	4.875518e-05	
137	-2.00000e-01	6.253484e-05	
138	-2.50000e-01	7.512420e-05	
139	-3.00000e-01	8.654980e-05	
140	-3.50000e-01	9.683776e-05	
141	-4.00000e-01	1.060141e-04	
142	-4.50000e-01	1.141052e-04	
143	-5.00000e-01	1.211388e-04	
144	-5.50000e-01	1.271460e-04	
145	-6.00000e-01	1.321656e-04	
146	-6.50000e-01	1.362530e-04	
147	-7.00000e-01	1.394952e-04	
148	-7.50000e-01	1.420253e-04	
149	-8.00000e-01	1.440125e-04	
150	-8.50000e-01	1.456190e-04	
151	-9.00000e-01	1.469657e-04	
152	-9.50000e-01	1.481305e-04	
153	-1.00000e+00	1.491623e-04	
154	-1.05000e+00	1.500925e-04	
155	-1.10000e+00	1.509422e-04	
156	-1.15000e+00	1.517267e-04	
157	-1.20000e+00	1.524571e-04	
158	-1.25000e+00	1.531417e-04	
159	-1.30000e+00	1.537872e-04	
160	-1.35000e+00	1.543988e-04	
161	-1.40000e+00	1.549808e-04	
162	-1.45000e+00	1.555366e-04	
163	-1.50000e+00	1.560692e-04	
164	-1.55000e+00	1.565810e-04	
165	-1.60000e+00	1.570741e-04	
166	-1.65000e+00	1.575503e-04	
167	-1.70000e+00	1.580111e-04	
168	-1.75000e+00	1.584579e-04	
169	-1.80000e+00	1.588917e-04	
170	-1.85000e+00	1.593138e-04	

Index   v-sweep         i(vds)          
--------------------------------------------------------------------------------
171	-1.90000e+00	1.597249e-04	
172	-1.95000e+00	1.601260e-04	
173	-2.00000e+00	1.605176e-04	
174	-2.05000e+00	1.609005e-04	
175	-2.10000e+00	1.612753e-04	
176	-2.15000e+00	1.616425e-04	
177	-2.20000e+00	1.620025e-04	
178	-2.25000e+00	1.623558e-04	
179	-2.30000e+00	1.627029e-04	
180	-2.35000e+00	1.630440e-04	
181	-2.40000e+00	1.633795e-04	
182	-2.45000e+00	1.637097e-04	
183	-2.50000e+00	1.640349e-04	
184	-2.55000e+00	1.643553e-04	
185	-2.60000e+00	1.646713e-04	
186	-2.65000e+00	1.649830e-04	
187	-2.70000e+00	1.652906e-04	
188	-2.75000e+00	1.655943e-04	
189	-2.80000e+00	1.658943e-04	
190	-2.85000e+00	1.661908e-04	
191	-2.90000e+00	1.664839e-04	
192	-2.95000e+00	1.667738e-04	
193	-3.00000e+00	1.670607e-04	
194	-3.05000e+00	1.673445e-04	
195	-3.10000e+00	1.676255e-04	
196	-3.15000e+00	1.679038e-04	
197	-3.20000e+00	1.681795e-04	
198	-3.25000e+00	1.684527e-04	
199	-3.30000e+00	1.687235e-04	
200	-3.35000e+00	1.689920e-04	
201	-3.40000e+00	1.692582e-04	
202	-3.45000e+00	1.695223e-04	
203	-3.50000e+00	1.697844e-04	
204	-3.55000e+00	1.700445e-04	
205	-3.60000e+00	1.703026e-04	
206	-3.65000e+00	1.705590e-04	
207	-3.70000e+00	1.708136e-04	
208	-3.75000e+00	1.710665e-04	
209	-3.80000e+00	1.713179e-04	
210	-3.85000e+00	1.715677e-04	
211	-3.90000e+00	1.718161e-04	
212	-3.95000e+00	1.720632e-04	
213	-4.00000e+00	1.723090e-04	
214	-4.05000e+00	1.725537e-04	
215	-4.10000e+00	1.727972e-04	
216	-4.15000e+00	1.730399e-04	
217	-4.20000e+00	1.732817e-04	
218	-4.25000e+00	1.735228e-04	
219	-4.30000e+00	1.737634e-04	
220	-4.35000e+00	1.740036e-04	
221	-4.40000e+00	1.742436e-04	
222	-4.45000e+00	1.744835e-04	
223	-4.50000e+00	1.747236e-04	
224	-4.55000e+00	1.749641e-04	
225	-4.60000e+00	1.752052e-04	
226	-4.65000e+00	1.754473e-04	
227	-4.70000e+00	1.756906e-04	
228	-4.75000e+00	1.759355e-04	

Index   v-sweep         i(vds)          
--------------------------------------------------------------------------------
229	-4.80000e+00	1.761823e-04	
230	-4.85000e+00	1.764314e-04	
231	-4.90000e+00	1.766833e-04	
232	-4.95000e+00	1.769383e-04	
233	-5.00000e+00	1.771971e-04	
234	-5.05000e+00	1.774601e-04	
235	-5.10000e+00	1.777280e-04	
236	-5.15000e+00	1.780013e-04	
237	-5.20000e+00	1.782808e-04	
238	-5.25000e+00	1.785672e-04	
239	-5.30000e+00	1.788612e-04	
240	-5.35000e+00	1.791637e-04	
241	-5.40000e+00	1.794756e-04	
242	-5.45000e+00	1.797978e-04	
243	-5.50000e+00	1.801313e-04	
244	-5.55000e+00	1.804772e-04	
245	-5.60000e+00	1.808366e-04	
246	-5.65000e+00	1.812107e-04	
247	-5.70000e+00	1.816008e-04	
248	-5.75000e+00	1.820081e-04	
249	-5.80000e+00	1.824342e-04	
250	-5.85000e+00	1.828803e-04	
251	-5.90000e+00	1.833481e-04	
252	-5.95000e+00	1.838392e-04	
253	-6.00000e+00	1.843552e-04	
254	-6.05000e+00	1.848979e-04	
255	-6.10000e+00	1.854691e-04	
256	-6.15000e+00	1.860708e-04	
257	-6.20000e+00	1.867049e-04	
258	-6.25000e+00	1.873735e-04	
259	-6.30000e+00	1.880786e-04	
260	-6.35000e+00	1.888226e-04	
261	-6.40000e+00	1.896077e-04	
262	-6.45000e+00	1.904364e-04	
263	-6.50000e+00	1.913110e-04	
264	-6.55000e+00	1.922341e-04	
265	-6.60000e+00	1.932083e-04	
266	0.000000e+00	0.000000e+00	
267	-5.00000e-02	2.947703e-05	
268	-1.00000e-01	5.770210e-05	
269	-1.50000e-01	8.469906e-05	
270	-2.00000e-01	1.104912e-04	
271	-2.50000e-01	1.351011e-04	
272	-3.00000e-01	1.585510e-04	
273	-3.50000e-01	1.808624e-04	
274	-4.00000e-01	2.020563e-04	
275	-4.50000e-01	2.221534e-04	
276	-5.00000e-01	2.411738e-04	
277	-5.50000e-01	2.591370e-04	
278	-6.00000e-01	2.760622e-04	
279	-6.50000e-01	2.919682e-04	
280	-7.00000e-01	3.068733e-04	
281	-7.50000e-01	3.207957e-04	
282	-8.00000e-01	3.337531e-04	
283	-8.50000e-01	3.457630e-04	
284	-9.00000e-01	3.568427e-04	
285	-9.50000e-01	3.670097e-04	
286	-1.00000e+00	3.762817e-04	

Index   v-sweep         i(vds)          
--------------------------------------------------------------------------------
287	-1.05000e+00	3.846773e-04	
288	-1.10000e+00	3.922168e-04	
289	-1.15000e+00	3.989243e-04	
290	-1.20000e+00	4.048309e-04	
291	-1.25000e+00	4.099803e-04	
292	-1.30000e+00	4.144350e-04	
293	-1.35000e+00	4.182775e-04	
294	-1.40000e+00	4.216032e-04	
295	-1.45000e+00	4.245067e-04	
296	-1.50000e+00	4.270706e-04	
297	-1.55000e+00	4.293618e-04	
298	-1.60000e+00	4.314324e-04	
299	-1.65000e+00	4.333225e-04	
300	-1.70000e+00	4.350628e-04	
301	-1.75000e+00	4.366775e-04	
302	-1.80000e+00	4.381853e-04	
303	-1.85000e+00	4.396014e-04	
304	-1.90000e+00	4.409378e-04	
305	-1.95000e+00	4.422046e-04	
306	-2.00000e+00	4.434100e-04	
307	-2.05000e+00	4.445608e-04	
308	-2.10000e+00	4.456628e-04	
309	-2.15000e+00	4.467209e-04	
310	-2.20000e+00	4.477395e-04	
311	-2.25000e+00	4.487221e-04	
312	-2.30000e+00	4.496719e-04	
313	-2.35000e+00	4.505916e-04	
314	-2.40000e+00	4.514838e-04	
315	-2.45000e+00	4.523506e-04	
316	-2.50000e+00	4.531939e-04	
317	-2.55000e+00	4.540153e-04	
318	-2.60000e+00	4.548165e-04	
319	-2.65000e+00	4.555988e-04	
320	-2.70000e+00	4.563635e-04	
321	-2.75000e+00	4.571116e-04	
322	-2.80000e+00	4.578443e-04	
323	-2.85000e+00	4.585623e-04	
324	-2.90000e+00	4.592667e-04	
325	-2.95000e+00	4.599581e-04	
326	-3.00000e+00	4.606372e-04	
327	-3.05000e+00	4.613048e-04	
328	-3.10000e+00	4.619615e-04	
329	-3.15000e+00	4.626077e-04	
330	-3.20000e+00	4.632441e-04	
331	-3.25000e+00	4.638710e-04	
332	-3.30000e+00	4.644890e-04	
333	-3.35000e+00	4.650985e-04	
334	-3.40000e+00	4.656998e-04	
335	-3.45000e+00	4.662933e-04	
336	-3.50000e+00	4.668794e-04	
337	-3.55000e+00	4.674584e-04	
338	-3.60000e+00	4.680305e-04	
339	-3.65000e+00	4.685961e-04	
340	-3.70000e+00	4.691554e-04	
341	-3.75000e+00	4.697087e-04	
342	-3.80000e+00	4.702562e-04	
343	-3.85000e+00	4.707982e-04	
344	-3.90000e+00	4.713348e-04	

Index   v-sweep         i(vds)          
--------------------------------------------------------------------------------
345	-3.95000e+00	4.718662e-04	
346	-4.00000e+00	4.723927e-04	
347	-4.05000e+00	4.729145e-04	
348	-4.10000e+00	4.734317e-04	
349	-4.15000e+00	4.739445e-04	
350	-4.20000e+00	4.744532e-04	
351	-4.25000e+00	4.749578e-04	
352	-4.30000e+00	4.754586e-04	
353	-4.35000e+00	4.759557e-04	
354	-4.40000e+00	4.764494e-04	
355	-4.45000e+00	4.769399e-04	
356	-4.50000e+00	4.774273e-04	
357	-4.55000e+00	4.779119e-04	
358	-4.60000e+00	4.783940e-04	
359	-4.65000e+00	4.788737e-04	
360	-4.70000e+00	4.793515e-04	
361	-4.75000e+00	4.798275e-04	
362	-4.80000e+00	4.803022e-04	
363	-4.85000e+00	4.807760e-04	
364	-4.90000e+00	4.812492e-04	
365	-4.95000e+00	4.817223e-04	
366	-5.00000e+00	4.821958e-04	
367	-5.05000e+00	4.826703e-04	
368	-5.10000e+00	4.831464e-04	
369	-5.15000e+00	4.836248e-04	
370	-5.20000e+00	4.841063e-04	
371	-5.25000e+00	4.845915e-04	
372	-5.30000e+00	4.850816e-04	
373	-5.35000e+00	4.855774e-04	
374	-5.40000e+00	4.860800e-04	
375	-5.45000e+00	4.865906e-04	
376	-5.50000e+00	4.871104e-04	
377	-5.55000e+00	4.876408e-04	
378	-5.60000e+00	4.881834e-04	
379	-5.65000e+00	4.887396e-04	
380	-5.70000e+00	4.893113e-04	
381	-5.75000e+00	4.899002e-04	
382	-5.80000e+00	4.905085e-04	
383	-5.85000e+00	4.911381e-04	
384	-5.90000e+00	4.917913e-04	
385	-5.95000e+00	4.924707e-04	
386	-6.00000e+00	4.931786e-04	
387	-6.05000e+00	4.939180e-04	
388	-6.10000e+00	4.946916e-04	
389	-6.15000e+00	4.955025e-04	
390	-6.20000e+00	4.963540e-04	
391	-6.25000e+00	4.972494e-04	
392	-6.30000e+00	4.981924e-04	
393	-6.35000e+00	4.991867e-04	
394	-6.40000e+00	5.002362e-04	
395	-6.45000e+00	5.013452e-04	
396	-6.50000e+00	5.025180e-04	
397	-6.55000e+00	5.037591e-04	
398	-6.60000e+00	5.050732e-04	
399	0.000000e+00	0.000000e+00	
400	-5.00000e-02	3.830137e-05	
401	-1.00000e-01	7.540776e-05	
402	-1.50000e-01	1.113392e-04	

Index   v-sweep         i(vds)          
--------------------------------------------------------------------------------
403	-2.00000e-01	1.461151e-04	
404	-2.50000e-01	1.797548e-04	
405	-3.00000e-01	2.122768e-04	
406	-3.50000e-01	2.436995e-04	
407	-4.00000e-01	2.740408e-04	
408	-4.50000e-01	3.033182e-04	
409	-5.00000e-01	3.315488e-04	
410	-5.50000e-01	3.587494e-04	
411	-6.00000e-01	3.849364e-04	
412	-6.50000e-01	4.101259e-04	
413	-7.00000e-01	4.343336e-04	
414	-7.50000e-01	4.575749e-04	
415	-8.00000e-01	4.798650e-04	
416	-8.50000e-01	5.012185e-04	
417	-9.00000e-01	5.216500e-04	
418	-9.50000e-01	5.411737e-04	
419	-1.00000e+00	5.598034e-04	
420	-1.05000e+00	5.775528e-04	
421	-1.10000e+00	5.944351e-04	
422	-1.15000e+00	6.104635e-04	
423	-1.20000e+00	6.256506e-04	
424	-1.25000e+00	6.400088e-04	
425	-1.30000e+00	6.535504e-04	
426	-1.35000e+00	6.662869e-04	
427	-1.40000e+00	6.782297e-04	
428	-1.45000e+00	6.893894e-04	
429	-1.50000e+00	6.997759e-04	
430	-1.55000e+00	7.093982e-04	
431	-1.60000e+00	7.182643e-04	
432	-1.65000e+00	7.263814e-04	
433	-1.70000e+00	7.337582e-04	
434	-1.75000e+00	7.404087e-04	
435	-1.80000e+00	7.463595e-04	
436	-1.85000e+00	7.516557e-04	
437	-1.90000e+00	7.563615e-04	
438	-1.95000e+00	7.605523e-04	
439	-2.00000e+00	7.643047e-04	
440	-2.05000e+00	7.676890e-04	
441	-2.10000e+00	7.707653e-04	
442	-2.15000e+00	7.735833e-04	
443	-2.20000e+00	7.761834e-04	
444	-2.25000e+00	7.785983e-04	
445	-2.30000e+00	7.808544e-04	
446	-2.35000e+00	7.829732e-04	
447	-2.40000e+00	7.849724e-04	
448	-2.45000e+00	7.868666e-04	
449	-2.50000e+00	7.886680e-04	
450	-2.55000e+00	7.903869e-04	
451	-2.60000e+00	7.920319e-04	
452	-2.65000e+00	7.936104e-04	
453	-2.70000e+00	7.951288e-04	
454	-2.75000e+00	7.965927e-04	
455	-2.80000e+00	7.980068e-04	
456	-2.85000e+00	7.993753e-04	
457	-2.90000e+00	8.007020e-04	
458	-2.95000e+00	8.019901e-04	
459	-3.00000e+00	8.032425e-04	
460	-3.05000e+00	8.044619e-04	

Index   v-sweep         i(vds)          
--------------------------------------------------------------------------------
461	-3.10000e+00	8.056505e-04	
462	-3.15000e+00	8.068105e-04	
463	-3.20000e+00	8.079436e-04	
464	-3.25000e+00	8.090518e-04	
465	-3.30000e+00	8.101364e-04	
466	-3.35000e+00	8.111990e-04	
467	-3.40000e+00	8.122407e-04	
468	-3.45000e+00	8.132628e-04	
469	-3.50000e+00	8.142664e-04	
470	-3.55000e+00	8.152525e-04	
471	-3.60000e+00	8.162220e-04	
472	-3.65000e+00	8.171757e-04	
473	-3.70000e+00	8.181144e-04	
474	-3.75000e+00	8.190389e-04	
475	-3.80000e+00	8.199499e-04	
476	-3.85000e+00	8.208479e-04	
477	-3.90000e+00	8.217336e-04	
478	-3.95000e+00	8.226075e-04	
479	-4.00000e+00	8.234701e-04	
480	-4.05000e+00	8.243220e-04	
481	-4.10000e+00	8.251635e-04	
482	-4.15000e+00	8.259951e-04	
483	-4.20000e+00	8.268173e-04	
484	-4.25000e+00	8.276303e-04	
485	-4.30000e+00	8.284345e-04	
486	-4.35000e+00	8.292303e-04	
487	-4.40000e+00	8.300181e-04	
488	-4.45000e+00	8.307981e-04	
489	-4.50000e+00	8.315706e-04	
490	-4.55000e+00	8.323359e-04	
491	-4.60000e+00	8.330944e-04	
492	-4.65000e+00	8.338462e-04	
493	-4.70000e+00	8.345918e-04	
494	-4.75000e+00	8.353313e-04	
495	-4.80000e+00	8.360651e-04	
496	-4.85000e+00	8.367935e-04	
497	-4.90000e+00	8.375167e-04	
498	-4.95000e+00	8.382352e-04	
499	-5.00000e+00	8.389492e-04	
500	-5.05000e+00	8.396591e-04	
501	-5.10000e+00	8.403655e-04	
502	-5.15000e+00	8.410686e-04	
503	-5.20000e+00	8.417690e-04	
504	-5.25000e+00	8.424672e-04	
505	-5.30000e+00	8.431639e-04	
506	-5.35000e+00	8.438597e-04	
507	-5.40000e+00	8.445552e-04	
508	-5.45000e+00	8.452514e-04	
509	-5.50000e+00	8.459491e-04	
510	-5.55000e+00	8.466493e-04	
511	-5.60000e+00	8.473530e-04	
512	-5.65000e+00	8.480616e-04	
513	-5.70000e+00	8.487762e-04	
514	-5.75000e+00	8.494983e-04	
515	-5.80000e+00	8.502296e-04	
516	-5.85000e+00	8.509717e-04	
517	-5.90000e+00	8.517266e-04	
518	-5.95000e+00	8.524962e-04	

Index   v-sweep         i(vds)          
--------------------------------------------------------------------------------
519	-6.00000e+00	8.532829e-04	
520	-6.05000e+00	8.540890e-04	
521	-6.10000e+00	8.549172e-04	
522	-6.15000e+00	8.557703e-04	
523	-6.20000e+00	8.566512e-04	
524	-6.25000e+00	8.575634e-04	
525	-6.30000e+00	8.585102e-04	
526	-6.35000e+00	8.594953e-04	
527	-6.40000e+00	8.605229e-04	
528	-6.45000e+00	8.615971e-04	
529	-6.50000e+00	8.627225e-04	
530	-6.55000e+00	8.639038e-04	
531	-6.60000e+00	8.651461e-04	
532	0.000000e+00	0.000000e+00	
533	-5.00000e-02	4.506452e-05	
534	-1.00000e-01	8.899905e-05	
535	-1.50000e-01	1.318205e-04	
536	-2.00000e-01	1.735454e-04	
537	-2.50000e-01	2.141901e-04	
538	-3.00000e-01	2.537704e-04	
539	-3.50000e-01	2.923019e-04	
540	-4.00000e-01	3.298000e-04	
541	-4.50000e-01	3.662796e-04	
542	-5.00000e-01	4.017556e-04	
543	-5.50000e-01	4.362422e-04	
544	-6.00000e-01	4.697537e-04	
545	-6.50000e-01	5.023040e-04	
546	-7.00000e-01	5.339066e-04	
547	-7.50000e-01	5.645750e-04	
548	-8.00000e-01	5.943222e-04	
549	-8.50000e-01	6.231612e-04	
550	-9.00000e-01	6.511046e-04	
551	-9.50000e-01	6.781647e-04	
552	-1.00000e+00	7.043538e-04	
553	-1.05000e+00	7.296837e-04	
554	-1.10000e+00	7.541662e-04	
555	-1.15000e+00	7.778128e-04	
556	-1.20000e+00	8.006348e-04	
557	-1.25000e+00	8.226433e-04	
558	-1.30000e+00	8.438490e-04	
559	-1.35000e+00	8.642628e-04	
560	-1.40000e+00	8.838950e-04	
561	-1.45000e+00	9.027559e-04	
562	-1.50000e+00	9.208554e-04	
563	-1.55000e+00	9.382033e-04	
564	-1.60000e+00	9.548091e-04	
565	-1.65000e+00	9.706818e-04	
566	-1.70000e+00	9.858302e-04	
567	-1.75000e+00	1.000263e-03	
568	-1.80000e+00	1.013986e-03	
569	-1.85000e+00	1.027009e-03	
570	-1.90000e+00	1.039334e-03	
571	-1.95000e+00	1.050968e-03	
572	-2.00000e+00	1.061910e-03	
573	-2.05000e+00	1.072159e-03	
574	-2.10000e+00	1.081710e-03	
575	-2.15000e+00	1.090556e-03	
576	-2.20000e+00	1.098692e-03	

Index   v-sweep         i(vds)          
--------------------------------------------------------------------------------
577	-2.25000e+00	1.106117e-03	
578	-2.30000e+00	1.112851e-03	
579	-2.35000e+00	1.118932e-03	
580	-2.40000e+00	1.124414e-03	
581	-2.45000e+00	1.129367e-03	
582	-2.50000e+00	1.133860e-03	
583	-2.55000e+00	1.137957e-03	
584	-2.60000e+00	1.141717e-03	
585	-2.65000e+00	1.145189e-03	
586	-2.70000e+00	1.148413e-03	
587	-2.75000e+00	1.151423e-03	
588	-2.80000e+00	1.154248e-03	
589	-2.85000e+00	1.156912e-03	
590	-2.90000e+00	1.159433e-03	
591	-2.95000e+00	1.161829e-03	
592	-3.00000e+00	1.164112e-03	
593	-3.05000e+00	1.166295e-03	
594	-3.10000e+00	1.168389e-03	
595	-3.15000e+00	1.170401e-03	
596	-3.20000e+00	1.172339e-03	
597	-3.25000e+00	1.174210e-03	
598	-3.30000e+00	1.176019e-03	
599	-3.35000e+00	1.177772e-03	
600	-3.40000e+00	1.179473e-03	
601	-3.45000e+00	1.181125e-03	
602	-3.50000e+00	1.182733e-03	
603	-3.55000e+00	1.184300e-03	
604	-3.60000e+00	1.185829e-03	
605	-3.65000e+00	1.187321e-03	
606	-3.70000e+00	1.188780e-03	
607	-3.75000e+00	1.190207e-03	
608	-3.80000e+00	1.191605e-03	
609	-3.85000e+00	1.192974e-03	
610	-3.90000e+00	1.194318e-03	
611	-3.95000e+00	1.195637e-03	
612	-4.00000e+00	1.196932e-03	
613	-4.05000e+00	1.198205e-03	
614	-4.10000e+00	1.199457e-03	
615	-4.15000e+00	1.200689e-03	
616	-4.20000e+00	1.201902e-03	
617	-4.25000e+00	1.203097e-03	
618	-4.30000e+00	1.204275e-03	
619	-4.35000e+00	1.205436e-03	
620	-4.40000e+00	1.206582e-03	
621	-4.45000e+00	1.207713e-03	
622	-4.50000e+00	1.208829e-03	
623	-4.55000e+00	1.209932e-03	
624	-4.60000e+00	1.211021e-03	
625	-4.65000e+00	1.212098e-03	
626	-4.70000e+00	1.213162e-03	
627	-4.75000e+00	1.214215e-03	
628	-4.80000e+00	1.215257e-03	
629	-4.85000e+00	1.216288e-03	
630	-4.90000e+00	1.217309e-03	
631	-4.95000e+00	1.218320e-03	
632	-5.00000e+00	1.219321e-03	
633	-5.05000e+00	1.220313e-03	
634	-5.10000e+00	1.221297e-03	

Index   v-sweep         i(vds)          
--------------------------------------------------------------------------------
635	-5.15000e+00	1.222272e-03	
636	-5.20000e+00	1.223239e-03	
637	-5.25000e+00	1.224198e-03	
638	-5.30000e+00	1.225151e-03	
639	-5.35000e+00	1.226096e-03	
640	-5.40000e+00	1.227035e-03	
641	-5.45000e+00	1.227969e-03	
642	-5.50000e+00	1.228897e-03	
643	-5.55000e+00	1.229820e-03	
644	-5.60000e+00	1.230740e-03	
645	-5.65000e+00	1.231656e-03	
646	-5.70000e+00	1.232569e-03	
647	-5.75000e+00	1.233480e-03	
648	-5.80000e+00	1.234390e-03	
649	-5.85000e+00	1.235301e-03	
650	-5.90000e+00	1.236212e-03	
651	-5.95000e+00	1.237126e-03	
652	-6.00000e+00	1.238044e-03	
653	-6.05000e+00	1.238967e-03	
654	-6.10000e+00	1.239897e-03	
655	-6.15000e+00	1.240836e-03	
656	-6.20000e+00	1.241786e-03	
657	-6.25000e+00	1.242749e-03	
658	-6.30000e+00	1.243728e-03	
659	-6.35000e+00	1.244725e-03	
660	-6.40000e+00	1.245744e-03	
661	-6.45000e+00	1.246786e-03	
662	-6.50000e+00	1.247857e-03	
663	-6.55000e+00	1.248959e-03	
664	-6.60000e+00	1.250097e-03	
665	0.000000e+00	0.000000e+00	
666	-5.00000e-02	5.039177e-05	
667	-1.00000e-01	9.971830e-05	
668	-1.50000e-01	1.479940e-04	
669	-2.00000e-01	1.952331e-04	
670	-2.50000e-01	2.414494e-04	
671	-3.00000e-01	2.866566e-04	
672	-3.50000e-01	3.308681e-04	
673	-4.00000e-01	3.740972e-04	
674	-4.50000e-01	4.163567e-04	
675	-5.00000e-01	4.576595e-04	
676	-5.50000e-01	4.980179e-04	
677	-6.00000e-01	5.374443e-04	
678	-6.50000e-01	5.759508e-04	
679	-7.00000e-01	6.135492e-04	
680	-7.50000e-01	6.502511e-04	
681	-8.00000e-01	6.860681e-04	
682	-8.50000e-01	7.210113e-04	
683	-9.00000e-01	7.550920e-04	
684	-9.50000e-01	7.883208e-04	
685	-1.00000e+00	8.207087e-04	
686	-1.05000e+00	8.522659e-04	
687	-1.10000e+00	8.830030e-04	
688	-1.15000e+00	9.129301e-04	
689	-1.20000e+00	9.420571e-04	
690	-1.25000e+00	9.703940e-04	
691	-1.30000e+00	9.979503e-04	
692	-1.35000e+00	1.024736e-03	

Index   v-sweep         i(vds)          
--------------------------------------------------------------------------------
693	-1.40000e+00	1.050759e-03	
694	-1.45000e+00	1.076030e-03	
695	-1.50000e+00	1.100558e-03	
696	-1.55000e+00	1.124352e-03	
697	-1.60000e+00	1.147419e-03	
698	-1.65000e+00	1.169769e-03	
699	-1.70000e+00	1.191411e-03	
700	-1.75000e+00	1.212352e-03	
701	-1.80000e+00	1.232600e-03	
702	-1.85000e+00	1.252164e-03	
703	-1.90000e+00	1.271051e-03	
704	-1.95000e+00	1.289268e-03	
705	-2.00000e+00	1.306823e-03	
706	-2.05000e+00	1.323723e-03	
707	-2.10000e+00	1.339974e-03	
708	-2.15000e+00	1.355582e-03	
709	-2.20000e+00	1.370552e-03	
710	-2.25000e+00	1.384888e-03	
711	-2.30000e+00	1.398593e-03	
712	-2.35000e+00	1.411669e-03	
713	-2.40000e+00	1.424114e-03	
714	-2.45000e+00	1.435922e-03	
715	-2.50000e+00	1.447085e-03	
716	-2.55000e+00	1.457589e-03	
717	-2.60000e+00	1.467418e-03	
718	-2.65000e+00	1.476555e-03	
719	-2.70000e+00	1.484990e-03	
720	-2.75000e+00	1.492729e-03	
721	-2.80000e+00	1.499796e-03	
722	-2.85000e+00	1.506234e-03	
723	-2.90000e+00	1.512103e-03	
724	-2.95000e+00	1.517465e-03	
725	-3.00000e+00	1.522384e-03	
726	-3.05000e+00	1.526918e-03	
727	-3.10000e+00	1.531118e-03	
728	-3.15000e+00	1.535029e-03	
729	-3.20000e+00	1.538688e-03	
730	-3.25000e+00	1.542128e-03	
731	-3.30000e+00	1.545374e-03	
732	-3.35000e+00	1.548450e-03	
733	-3.40000e+00	1.551374e-03	
734	-3.45000e+00	1.554164e-03	
735	-3.50000e+00	1.556832e-03	
736	-3.55000e+00	1.559392e-03	
737	-3.60000e+00	1.561852e-03	
738	-3.65000e+00	1.564224e-03	
739	-3.70000e+00	1.566513e-03	
740	-3.75000e+00	1.568727e-03	
741	-3.80000e+00	1.570873e-03	
742	-3.85000e+00	1.572956e-03	
743	-3.90000e+00	1.574979e-03	
744	-3.95000e+00	1.576949e-03	
745	-4.00000e+00	1.578868e-03	
746	-4.05000e+00	1.580740e-03	
747	-4.10000e+00	1.582568e-03	
748	-4.15000e+00	1.584355e-03	
749	-4.20000e+00	1.586104e-03	
750	-4.25000e+00	1.587817e-03	

Index   v-sweep         i(vds)          
--------------------------------------------------------------------------------
751	-4.30000e+00	1.589495e-03	
752	-4.35000e+00	1.591142e-03	
753	-4.40000e+00	1.592758e-03	
754	-4.45000e+00	1.594345e-03	
755	-4.50000e+00	1.595906e-03	
756	-4.55000e+00	1.597441e-03	
757	-4.60000e+00	1.598951e-03	
758	-4.65000e+00	1.600438e-03	
759	-4.70000e+00	1.601903e-03	
760	-4.75000e+00	1.603347e-03	
761	-4.80000e+00	1.604771e-03	
762	-4.85000e+00	1.606176e-03	
763	-4.90000e+00	1.607562e-03	
764	-4.95000e+00	1.608931e-03	
765	-5.00000e+00	1.610283e-03	
766	-5.05000e+00	1.611619e-03	
767	-5.10000e+00	1.612940e-03	
768	-5.15000e+00	1.614246e-03	
769	-5.20000e+00	1.615537e-03	
770	-5.25000e+00	1.616815e-03	
771	-5.30000e+00	1.618080e-03	
772	-5.35000e+00	1.619332e-03	
773	-5.40000e+00	1.620572e-03	
774	-5.45000e+00	1.621800e-03	
775	-5.50000e+00	1.623018e-03	
776	-5.55000e+00	1.624224e-03	
777	-5.60000e+00	1.625421e-03	
778	-5.65000e+00	1.626607e-03	
779	-5.70000e+00	1.627785e-03	
780	-5.75000e+00	1.628954e-03	
781	-5.80000e+00	1.630115e-03	
782	-5.85000e+00	1.631268e-03	
783	-5.90000e+00	1.632414e-03	
784	-5.95000e+00	1.633554e-03	
785	-6.00000e+00	1.634688e-03	
786	-6.05000e+00	1.635817e-03	
787	-6.10000e+00	1.636943e-03	
788	-6.15000e+00	1.638066e-03	
789	-6.20000e+00	1.639187e-03	
790	-6.25000e+00	1.640307e-03	
791	-6.30000e+00	1.641428e-03	
792	-6.35000e+00	1.642551e-03	
793	-6.40000e+00	1.643678e-03	
794	-6.45000e+00	1.644811e-03	
795	-6.50000e+00	1.645951e-03	
796	-6.55000e+00	1.647101e-03	
797	-6.60000e+00	1.648264e-03	
Note: No ".plot", ".print", or ".fourier" lines; no simulations run
