
Note: Compatibility modes selected: hs

Warning: m=xx on .subckt line will override multiplier m hierarchy!


Circuit: ***************************

Doing analysis at TEMP = 25.000000 and TNOM = 25.000000


No. of Data Rows : 798
                          ***************************
                          DC transfer characteristic  Mon Jan  9 13:57:52  2023
--------------------------------------------------------------------------------
Index   v-sweep         i(vds)          
--------------------------------------------------------------------------------
0	0.000000e+00	0.000000e+00	
1	-5.00000e-02	1.083604e-07	
2	-1.00000e-01	1.578874e-07	
3	-1.50000e-01	1.712384e-07	
4	-2.00000e-01	1.741700e-07	
5	-2.50000e-01	1.750898e-07	
6	-3.00000e-01	1.755133e-07	
7	-3.50000e-01	1.757676e-07	
8	-4.00000e-01	1.759491e-07	
9	-4.50000e-01	1.760936e-07	
10	-5.00000e-01	1.762168e-07	
11	-5.50000e-01	1.763265e-07	
12	-6.00000e-01	1.764272e-07	
13	-6.50000e-01	1.765213e-07	
14	-7.00000e-01	1.766105e-07	
15	-7.50000e-01	1.766958e-07	
16	-8.00000e-01	1.767780e-07	
17	-8.50000e-01	1.768576e-07	
18	-9.00000e-01	1.769351e-07	
19	-9.50000e-01	1.770106e-07	
20	-1.00000e+00	1.770846e-07	
21	-1.05000e+00	1.771571e-07	
22	-1.10000e+00	1.772284e-07	
23	-1.15000e+00	1.772985e-07	
24	-1.20000e+00	1.773675e-07	
25	-1.25000e+00	1.774357e-07	
26	-1.30000e+00	1.775029e-07	
27	-1.35000e+00	1.775694e-07	
28	-1.40000e+00	1.776351e-07	
29	-1.45000e+00	1.777002e-07	
30	-1.50000e+00	1.777647e-07	
31	-1.55000e+00	1.778285e-07	
32	-1.60000e+00	1.778918e-07	
33	-1.65000e+00	1.779546e-07	
34	-1.70000e+00	1.780169e-07	
35	-1.75000e+00	1.780788e-07	
36	-1.80000e+00	1.781402e-07	
37	-1.85000e+00	1.782012e-07	
38	-1.90000e+00	1.782619e-07	
39	-1.95000e+00	1.783221e-07	
40	-2.00000e+00	1.783821e-07	
41	-2.05000e+00	1.784416e-07	
42	-2.10000e+00	1.785009e-07	
43	-2.15000e+00	1.785599e-07	
44	-2.20000e+00	1.786186e-07	
45	-2.25000e+00	1.786770e-07	
46	-2.30000e+00	1.787351e-07	
47	-2.35000e+00	1.787930e-07	
48	-2.40000e+00	1.788507e-07	
49	-2.45000e+00	1.789081e-07	
50	-2.50000e+00	1.789653e-07	
51	-2.55000e+00	1.790223e-07	
52	-2.60000e+00	1.790791e-07	
53	-2.65000e+00	1.791357e-07	
54	-2.70000e+00	1.791921e-07	

Index   v-sweep         i(vds)          
--------------------------------------------------------------------------------
55	-2.75000e+00	1.792484e-07	
56	-2.80000e+00	1.793044e-07	
57	-2.85000e+00	1.793604e-07	
58	-2.90000e+00	1.794161e-07	
59	-2.95000e+00	1.794718e-07	
60	-3.00000e+00	1.795273e-07	
61	-3.05000e+00	1.795828e-07	
62	-3.10000e+00	1.796381e-07	
63	-3.15000e+00	1.796935e-07	
64	-3.20000e+00	1.797488e-07	
65	-3.25000e+00	1.798041e-07	
66	-3.30000e+00	1.798594e-07	
67	-3.35000e+00	1.799149e-07	
68	-3.40000e+00	1.799705e-07	
69	-3.45000e+00	1.800263e-07	
70	-3.50000e+00	1.800824e-07	
71	-3.55000e+00	1.801388e-07	
72	-3.60000e+00	1.801957e-07	
73	-3.65000e+00	1.802532e-07	
74	-3.70000e+00	1.803113e-07	
75	-3.75000e+00	1.803703e-07	
76	-3.80000e+00	1.804302e-07	
77	-3.85000e+00	1.804912e-07	
78	-3.90000e+00	1.805536e-07	
79	-3.95000e+00	1.806176e-07	
80	-4.00000e+00	1.806833e-07	
81	-4.05000e+00	1.807511e-07	
82	-4.10000e+00	1.808213e-07	
83	-4.15000e+00	1.808941e-07	
84	-4.20000e+00	1.809700e-07	
85	-4.25000e+00	1.810493e-07	
86	-4.30000e+00	1.811325e-07	
87	-4.35000e+00	1.812200e-07	
88	-4.40000e+00	1.813124e-07	
89	-4.45000e+00	1.814101e-07	
90	-4.50000e+00	1.815138e-07	
91	-4.55000e+00	1.816240e-07	
92	-4.60000e+00	1.817416e-07	
93	-4.65000e+00	1.818671e-07	
94	-4.70000e+00	1.820015e-07	
95	-4.75000e+00	1.821454e-07	
96	-4.80000e+00	1.822999e-07	
97	-4.85000e+00	1.824658e-07	
98	-4.90000e+00	1.826441e-07	
99	-4.95000e+00	1.828360e-07	
100	-5.00000e+00	1.830424e-07	
101	-5.05000e+00	1.832646e-07	
102	-5.10000e+00	1.835039e-07	
103	-5.15000e+00	1.837615e-07	
104	-5.20000e+00	1.840388e-07	
105	-5.25000e+00	1.843372e-07	
106	-5.30000e+00	1.846582e-07	
107	-5.35000e+00	1.850034e-07	
108	-5.40000e+00	1.853745e-07	
109	-5.45000e+00	1.857730e-07	
110	-5.50000e+00	1.862009e-07	
111	-5.55000e+00	1.866600e-07	
112	-5.60000e+00	1.871520e-07	

Index   v-sweep         i(vds)          
--------------------------------------------------------------------------------
113	-5.65000e+00	1.876792e-07	
114	-5.70000e+00	1.882434e-07	
115	-5.75000e+00	1.888468e-07	
116	-5.80000e+00	1.894917e-07	
117	-5.85000e+00	1.901802e-07	
118	-5.90000e+00	1.909148e-07	
119	-5.95000e+00	1.916977e-07	
120	-6.00000e+00	1.925316e-07	
121	-6.05000e+00	1.934190e-07	
122	-6.10000e+00	1.943624e-07	
123	-6.15000e+00	1.953646e-07	
124	-6.20000e+00	1.964283e-07	
125	-6.25000e+00	1.975563e-07	
126	-6.30000e+00	1.987516e-07	
127	-6.35000e+00	2.000171e-07	
128	-6.40000e+00	2.013558e-07	
129	-6.45000e+00	2.027707e-07	
130	-6.50000e+00	2.042652e-07	
131	-6.55000e+00	2.058423e-07	
132	-6.60000e+00	2.075054e-07	
133	0.000000e+00	0.000000e+00	
134	-5.00000e-02	1.274008e-06	
135	-1.00000e-01	2.465175e-06	
136	-1.50000e-01	3.573568e-06	
137	-2.00000e-01	4.599259e-06	
138	-2.50000e-01	5.542332e-06	
139	-3.00000e-01	6.402884e-06	
140	-3.50000e-01	7.181034e-06	
141	-4.00000e-01	7.876943e-06	
142	-4.50000e-01	8.490835e-06	
143	-5.00000e-01	9.023059e-06	
144	-5.50000e-01	9.474190e-06	
145	-6.00000e-01	9.845259e-06	
146	-6.50000e-01	1.013821e-05	
147	-7.00000e-01	1.035687e-05	
148	-7.50000e-01	1.050849e-05	
149	-8.00000e-01	1.060522e-05	
150	-8.50000e-01	1.066309e-05	
151	-9.00000e-01	1.069737e-05	
152	-9.50000e-01	1.071879e-05	
153	-1.00000e+00	1.073342e-05	
154	-1.05000e+00	1.074436e-05	
155	-1.10000e+00	1.075320e-05	
156	-1.15000e+00	1.076074e-05	
157	-1.20000e+00	1.076745e-05	
158	-1.25000e+00	1.077358e-05	
159	-1.30000e+00	1.077929e-05	
160	-1.35000e+00	1.078469e-05	
161	-1.40000e+00	1.078985e-05	
162	-1.45000e+00	1.079481e-05	
163	-1.50000e+00	1.079961e-05	
164	-1.55000e+00	1.080427e-05	
165	-1.60000e+00	1.080882e-05	
166	-1.65000e+00	1.081326e-05	
167	-1.70000e+00	1.081762e-05	
168	-1.75000e+00	1.082190e-05	
169	-1.80000e+00	1.082611e-05	
170	-1.85000e+00	1.083025e-05	

Index   v-sweep         i(vds)          
--------------------------------------------------------------------------------
171	-1.90000e+00	1.083434e-05	
172	-1.95000e+00	1.083838e-05	
173	-2.00000e+00	1.084237e-05	
174	-2.05000e+00	1.084631e-05	
175	-2.10000e+00	1.085021e-05	
176	-2.15000e+00	1.085407e-05	
177	-2.20000e+00	1.085790e-05	
178	-2.25000e+00	1.086170e-05	
179	-2.30000e+00	1.086546e-05	
180	-2.35000e+00	1.086919e-05	
181	-2.40000e+00	1.087290e-05	
182	-2.45000e+00	1.087658e-05	
183	-2.50000e+00	1.088023e-05	
184	-2.55000e+00	1.088387e-05	
185	-2.60000e+00	1.088747e-05	
186	-2.65000e+00	1.089106e-05	
187	-2.70000e+00	1.089463e-05	
188	-2.75000e+00	1.089818e-05	
189	-2.80000e+00	1.090171e-05	
190	-2.85000e+00	1.090523e-05	
191	-2.90000e+00	1.090872e-05	
192	-2.95000e+00	1.091220e-05	
193	-3.00000e+00	1.091567e-05	
194	-3.05000e+00	1.091912e-05	
195	-3.10000e+00	1.092256e-05	
196	-3.15000e+00	1.092598e-05	
197	-3.20000e+00	1.092939e-05	
198	-3.25000e+00	1.093279e-05	
199	-3.30000e+00	1.093618e-05	
200	-3.35000e+00	1.093955e-05	
201	-3.40000e+00	1.094292e-05	
202	-3.45000e+00	1.094627e-05	
203	-3.50000e+00	1.094962e-05	
204	-3.55000e+00	1.095295e-05	
205	-3.60000e+00	1.095628e-05	
206	-3.65000e+00	1.095960e-05	
207	-3.70000e+00	1.096292e-05	
208	-3.75000e+00	1.096623e-05	
209	-3.80000e+00	1.096953e-05	
210	-3.85000e+00	1.097284e-05	
211	-3.90000e+00	1.097614e-05	
212	-3.95000e+00	1.097944e-05	
213	-4.00000e+00	1.098275e-05	
214	-4.05000e+00	1.098607e-05	
215	-4.10000e+00	1.098939e-05	
216	-4.15000e+00	1.099273e-05	
217	-4.20000e+00	1.099609e-05	
218	-4.25000e+00	1.099947e-05	
219	-4.30000e+00	1.100288e-05	
220	-4.35000e+00	1.100632e-05	
221	-4.40000e+00	1.100981e-05	
222	-4.45000e+00	1.101335e-05	
223	-4.50000e+00	1.101696e-05	
224	-4.55000e+00	1.102063e-05	
225	-4.60000e+00	1.102439e-05	
226	-4.65000e+00	1.102825e-05	
227	-4.70000e+00	1.103223e-05	
228	-4.75000e+00	1.103633e-05	

Index   v-sweep         i(vds)          
--------------------------------------------------------------------------------
229	-4.80000e+00	1.104058e-05	
230	-4.85000e+00	1.104501e-05	
231	-4.90000e+00	1.104962e-05	
232	-4.95000e+00	1.105445e-05	
233	-5.00000e+00	1.105952e-05	
234	-5.05000e+00	1.106487e-05	
235	-5.10000e+00	1.107051e-05	
236	-5.15000e+00	1.107650e-05	
237	-5.20000e+00	1.108286e-05	
238	-5.25000e+00	1.108963e-05	
239	-5.30000e+00	1.109685e-05	
240	-5.35000e+00	1.110458e-05	
241	-5.40000e+00	1.111285e-05	
242	-5.45000e+00	1.112172e-05	
243	-5.50000e+00	1.113125e-05	
244	-5.55000e+00	1.114150e-05	
245	-5.60000e+00	1.115251e-05	
246	-5.65000e+00	1.116437e-05	
247	-5.70000e+00	1.117714e-05	
248	-5.75000e+00	1.119089e-05	
249	-5.80000e+00	1.120569e-05	
250	-5.85000e+00	1.122164e-05	
251	-5.90000e+00	1.123881e-05	
252	-5.95000e+00	1.125729e-05	
253	-6.00000e+00	1.127717e-05	
254	-6.05000e+00	1.129856e-05	
255	-6.10000e+00	1.132154e-05	
256	-6.15000e+00	1.134623e-05	
257	-6.20000e+00	1.137274e-05	
258	-6.25000e+00	1.140118e-05	
259	-6.30000e+00	1.143166e-05	
260	-6.35000e+00	1.146431e-05	
261	-6.40000e+00	1.149926e-05	
262	-6.45000e+00	1.153663e-05	
263	-6.50000e+00	1.157656e-05	
264	-6.55000e+00	1.161920e-05	
265	-6.60000e+00	1.166467e-05	
266	0.000000e+00	0.000000e+00	
267	-5.00000e-02	2.261759e-06	
268	-1.00000e-01	4.446991e-06	
269	-1.50000e-01	6.555741e-06	
270	-2.00000e-01	8.588058e-06	
271	-2.50000e-01	1.054399e-05	
272	-3.00000e-01	1.242358e-05	
273	-3.50000e-01	1.422688e-05	
274	-4.00000e-01	1.595394e-05	
275	-4.50000e-01	1.760480e-05	
276	-5.00000e-01	1.917953e-05	
277	-5.50000e-01	2.067816e-05	
278	-6.00000e-01	2.210077e-05	
279	-6.50000e-01	2.344740e-05	
280	-7.00000e-01	2.471813e-05	
281	-7.50000e-01	2.591301e-05	
282	-8.00000e-01	2.703213e-05	
283	-8.50000e-01	2.807557e-05	
284	-9.00000e-01	2.904344e-05	
285	-9.50000e-01	2.993585e-05	
286	-1.00000e+00	3.075298e-05	

Index   v-sweep         i(vds)          
--------------------------------------------------------------------------------
287	-1.05000e+00	3.149504e-05	
288	-1.10000e+00	3.216231e-05	
289	-1.15000e+00	3.275522e-05	
290	-1.20000e+00	3.327440e-05	
291	-1.25000e+00	3.372086e-05	
292	-1.30000e+00	3.409616e-05	
293	-1.35000e+00	3.440288e-05	
294	-1.40000e+00	3.464516e-05	
295	-1.45000e+00	3.482933e-05	
296	-1.50000e+00	3.496429e-05	
297	-1.55000e+00	3.506079e-05	
298	-1.60000e+00	3.512970e-05	
299	-1.65000e+00	3.518017e-05	
300	-1.70000e+00	3.521882e-05	
301	-1.75000e+00	3.524998e-05	
302	-1.80000e+00	3.527629e-05	
303	-1.85000e+00	3.529940e-05	
304	-1.90000e+00	3.532028e-05	
305	-1.95000e+00	3.533957e-05	
306	-2.00000e+00	3.535769e-05	
307	-2.05000e+00	3.537489e-05	
308	-2.10000e+00	3.539138e-05	
309	-2.15000e+00	3.540728e-05	
310	-2.20000e+00	3.542270e-05	
311	-2.25000e+00	3.543771e-05	
312	-2.30000e+00	3.545236e-05	
313	-2.35000e+00	3.546671e-05	
314	-2.40000e+00	3.548079e-05	
315	-2.45000e+00	3.549462e-05	
316	-2.50000e+00	3.550824e-05	
317	-2.55000e+00	3.552167e-05	
318	-2.60000e+00	3.553491e-05	
319	-2.65000e+00	3.554800e-05	
320	-2.70000e+00	3.556093e-05	
321	-2.75000e+00	3.557372e-05	
322	-2.80000e+00	3.558639e-05	
323	-2.85000e+00	3.559894e-05	
324	-2.90000e+00	3.561137e-05	
325	-2.95000e+00	3.562370e-05	
326	-3.00000e+00	3.563594e-05	
327	-3.05000e+00	3.564808e-05	
328	-3.10000e+00	3.566013e-05	
329	-3.15000e+00	3.567210e-05	
330	-3.20000e+00	3.568399e-05	
331	-3.25000e+00	3.569581e-05	
332	-3.30000e+00	3.570756e-05	
333	-3.35000e+00	3.571925e-05	
334	-3.40000e+00	3.573087e-05	
335	-3.45000e+00	3.574243e-05	
336	-3.50000e+00	3.575393e-05	
337	-3.55000e+00	3.576538e-05	
338	-3.60000e+00	3.577677e-05	
339	-3.65000e+00	3.578812e-05	
340	-3.70000e+00	3.579941e-05	
341	-3.75000e+00	3.581066e-05	
342	-3.80000e+00	3.582187e-05	
343	-3.85000e+00	3.583303e-05	
344	-3.90000e+00	3.584415e-05	

Index   v-sweep         i(vds)          
--------------------------------------------------------------------------------
345	-3.95000e+00	3.585524e-05	
346	-4.00000e+00	3.586628e-05	
347	-4.05000e+00	3.587729e-05	
348	-4.10000e+00	3.588827e-05	
349	-4.15000e+00	3.589921e-05	
350	-4.20000e+00	3.591012e-05	
351	-4.25000e+00	3.592101e-05	
352	-4.30000e+00	3.593186e-05	
353	-4.35000e+00	3.594270e-05	
354	-4.40000e+00	3.595352e-05	
355	-4.45000e+00	3.596431e-05	
356	-4.50000e+00	3.597510e-05	
357	-4.55000e+00	3.598588e-05	
358	-4.60000e+00	3.599665e-05	
359	-4.65000e+00	3.600743e-05	
360	-4.70000e+00	3.601823e-05	
361	-4.75000e+00	3.602904e-05	
362	-4.80000e+00	3.603988e-05	
363	-4.85000e+00	3.605077e-05	
364	-4.90000e+00	3.606172e-05	
365	-4.95000e+00	3.607274e-05	
366	-5.00000e+00	3.608386e-05	
367	-5.05000e+00	3.609508e-05	
368	-5.10000e+00	3.610645e-05	
369	-5.15000e+00	3.611798e-05	
370	-5.20000e+00	3.612971e-05	
371	-5.25000e+00	3.614167e-05	
372	-5.30000e+00	3.615390e-05	
373	-5.35000e+00	3.616645e-05	
374	-5.40000e+00	3.617936e-05	
375	-5.45000e+00	3.619269e-05	
376	-5.50000e+00	3.620649e-05	
377	-5.55000e+00	3.622084e-05	
378	-5.60000e+00	3.623580e-05	
379	-5.65000e+00	3.625146e-05	
380	-5.70000e+00	3.626789e-05	
381	-5.75000e+00	3.628519e-05	
382	-5.80000e+00	3.630347e-05	
383	-5.85000e+00	3.632283e-05	
384	-5.90000e+00	3.634339e-05	
385	-5.95000e+00	3.636528e-05	
386	-6.00000e+00	3.638863e-05	
387	-6.05000e+00	3.641359e-05	
388	-6.10000e+00	3.644032e-05	
389	-6.15000e+00	3.646899e-05	
390	-6.20000e+00	3.649976e-05	
391	-6.25000e+00	3.653284e-05	
392	-6.30000e+00	3.656841e-05	
393	-6.35000e+00	3.660670e-05	
394	-6.40000e+00	3.664792e-05	
395	-6.45000e+00	3.669231e-05	
396	-6.50000e+00	3.674012e-05	
397	-6.55000e+00	3.679161e-05	
398	-6.60000e+00	3.684706e-05	
399	0.000000e+00	0.000000e+00	
400	-5.00000e-02	3.083183e-06	
401	-1.00000e-01	6.096297e-06	
402	-1.50000e-01	9.039383e-06	

Index   v-sweep         i(vds)          
--------------------------------------------------------------------------------
403	-2.00000e-01	1.191248e-05	
404	-2.50000e-01	1.471562e-05	
405	-3.00000e-01	1.744885e-05	
406	-3.50000e-01	2.011221e-05	
407	-4.00000e-01	2.270574e-05	
408	-4.50000e-01	2.522947e-05	
409	-5.00000e-01	2.768344e-05	
410	-5.50000e-01	3.006770e-05	
411	-6.00000e-01	3.238228e-05	
412	-6.50000e-01	3.462722e-05	
413	-7.00000e-01	3.680257e-05	
414	-7.50000e-01	3.890837e-05	
415	-8.00000e-01	4.094465e-05	
416	-8.50000e-01	4.291146e-05	
417	-9.00000e-01	4.480884e-05	
418	-9.50000e-01	4.663683e-05	
419	-1.00000e+00	4.839548e-05	
420	-1.05000e+00	5.008483e-05	
421	-1.10000e+00	5.170493e-05	
422	-1.15000e+00	5.325583e-05	
423	-1.20000e+00	5.473758e-05	
424	-1.25000e+00	5.615023e-05	
425	-1.30000e+00	5.749384e-05	
426	-1.35000e+00	5.876848e-05	
427	-1.40000e+00	5.997421e-05	
428	-1.45000e+00	6.111111e-05	
429	-1.50000e+00	6.217928e-05	
430	-1.55000e+00	6.317881e-05	
431	-1.60000e+00	6.410985e-05	
432	-1.65000e+00	6.497254e-05	
433	-1.70000e+00	6.576710e-05	
434	-1.75000e+00	6.649379e-05	
435	-1.80000e+00	6.715300e-05	
436	-1.85000e+00	6.774522e-05	
437	-1.90000e+00	6.827119e-05	
438	-1.95000e+00	6.873199e-05	
439	-2.00000e+00	6.912918e-05	
440	-2.05000e+00	6.946510e-05	
441	-2.10000e+00	6.974317e-05	
442	-2.15000e+00	6.996820e-05	
443	-2.20000e+00	7.014658e-05	
444	-2.25000e+00	7.028603e-05	
445	-2.30000e+00	7.039482e-05	
446	-2.35000e+00	7.048076e-05	
447	-2.40000e+00	7.055037e-05	
448	-2.45000e+00	7.060859e-05	
449	-2.50000e+00	7.065889e-05	
450	-2.55000e+00	7.070363e-05	
451	-2.60000e+00	7.074440e-05	
452	-2.65000e+00	7.078224e-05	
453	-2.70000e+00	7.081787e-05	
454	-2.75000e+00	7.085179e-05	
455	-2.80000e+00	7.088433e-05	
456	-2.85000e+00	7.091576e-05	
457	-2.90000e+00	7.094626e-05	
458	-2.95000e+00	7.097597e-05	
459	-3.00000e+00	7.100501e-05	
460	-3.05000e+00	7.103345e-05	

Index   v-sweep         i(vds)          
--------------------------------------------------------------------------------
461	-3.10000e+00	7.106138e-05	
462	-3.15000e+00	7.108883e-05	
463	-3.20000e+00	7.111588e-05	
464	-3.25000e+00	7.114254e-05	
465	-3.30000e+00	7.116886e-05	
466	-3.35000e+00	7.119486e-05	
467	-3.40000e+00	7.122058e-05	
468	-3.45000e+00	7.124603e-05	
469	-3.50000e+00	7.127123e-05	
470	-3.55000e+00	7.129619e-05	
471	-3.60000e+00	7.132094e-05	
472	-3.65000e+00	7.134549e-05	
473	-3.70000e+00	7.136985e-05	
474	-3.75000e+00	7.139403e-05	
475	-3.80000e+00	7.141804e-05	
476	-3.85000e+00	7.144189e-05	
477	-3.90000e+00	7.146559e-05	
478	-3.95000e+00	7.148914e-05	
479	-4.00000e+00	7.151257e-05	
480	-4.05000e+00	7.153586e-05	
481	-4.10000e+00	7.155902e-05	
482	-4.15000e+00	7.158207e-05	
483	-4.20000e+00	7.160501e-05	
484	-4.25000e+00	7.162784e-05	
485	-4.30000e+00	7.165057e-05	
486	-4.35000e+00	7.167319e-05	
487	-4.40000e+00	7.169573e-05	
488	-4.45000e+00	7.171817e-05	
489	-4.50000e+00	7.174053e-05	
490	-4.55000e+00	7.176280e-05	
491	-4.60000e+00	7.178499e-05	
492	-4.65000e+00	7.180711e-05	
493	-4.70000e+00	7.182915e-05	
494	-4.75000e+00	7.185113e-05	
495	-4.80000e+00	7.187303e-05	
496	-4.85000e+00	7.189487e-05	
497	-4.90000e+00	7.191665e-05	
498	-4.95000e+00	7.193838e-05	
499	-5.00000e+00	7.196005e-05	
500	-5.05000e+00	7.198168e-05	
501	-5.10000e+00	7.200326e-05	
502	-5.15000e+00	7.202481e-05	
503	-5.20000e+00	7.204634e-05	
504	-5.25000e+00	7.206784e-05	
505	-5.30000e+00	7.208934e-05	
506	-5.35000e+00	7.211084e-05	
507	-5.40000e+00	7.213235e-05	
508	-5.45000e+00	7.215390e-05	
509	-5.50000e+00	7.217551e-05	
510	-5.55000e+00	7.219719e-05	
511	-5.60000e+00	7.221898e-05	
512	-5.65000e+00	7.224090e-05	
513	-5.70000e+00	7.226298e-05	
514	-5.75000e+00	7.228528e-05	
515	-5.80000e+00	7.230783e-05	
516	-5.85000e+00	7.233068e-05	
517	-5.90000e+00	7.235390e-05	
518	-5.95000e+00	7.237754e-05	

Index   v-sweep         i(vds)          
--------------------------------------------------------------------------------
519	-6.00000e+00	7.240170e-05	
520	-6.05000e+00	7.242643e-05	
521	-6.10000e+00	7.245185e-05	
522	-6.15000e+00	7.247805e-05	
523	-6.20000e+00	7.250514e-05	
524	-6.25000e+00	7.253325e-05	
525	-6.30000e+00	7.256252e-05	
526	-6.35000e+00	7.259310e-05	
527	-6.40000e+00	7.262515e-05	
528	-6.45000e+00	7.265885e-05	
529	-6.50000e+00	7.269440e-05	
530	-6.55000e+00	7.273200e-05	
531	-6.60000e+00	7.277188e-05	
532	0.000000e+00	0.000000e+00	
533	-5.00000e-02	3.771741e-06	
534	-1.00000e-01	7.479280e-06	
535	-1.50000e-01	1.112265e-05	
536	-2.00000e-01	1.470189e-05	
537	-2.50000e-01	1.821702e-05	
538	-3.00000e-01	2.166809e-05	
539	-3.50000e-01	2.505512e-05	
540	-4.00000e-01	2.837816e-05	
541	-4.50000e-01	3.163722e-05	
542	-5.00000e-01	3.483235e-05	
543	-5.50000e-01	3.796358e-05	
544	-6.00000e-01	4.103094e-05	
545	-6.50000e-01	4.403446e-05	
546	-7.00000e-01	4.697419e-05	
547	-7.50000e-01	4.985015e-05	
548	-8.00000e-01	5.266237e-05	
549	-8.50000e-01	5.541090e-05	
550	-9.00000e-01	5.809576e-05	
551	-9.50000e-01	6.071699e-05	
552	-1.00000e+00	6.327462e-05	
553	-1.05000e+00	6.576868e-05	
554	-1.10000e+00	6.819922e-05	
555	-1.15000e+00	7.056626e-05	
556	-1.20000e+00	7.286985e-05	
557	-1.25000e+00	7.511001e-05	
558	-1.30000e+00	7.728678e-05	
559	-1.35000e+00	7.940019e-05	
560	-1.40000e+00	8.145029e-05	
561	-1.45000e+00	8.343711e-05	
562	-1.50000e+00	8.536069e-05	
563	-1.55000e+00	8.722106e-05	
564	-1.60000e+00	8.901827e-05	
565	-1.65000e+00	9.075236e-05	
566	-1.70000e+00	9.242336e-05	
567	-1.75000e+00	9.403132e-05	
568	-1.80000e+00	9.557629e-05	
569	-1.85000e+00	9.705831e-05	
570	-1.90000e+00	9.847743e-05	
571	-1.95000e+00	9.983372e-05	
572	-2.00000e+00	1.011272e-04	
573	-2.05000e+00	1.023580e-04	
574	-2.10000e+00	1.035262e-04	
575	-2.15000e+00	1.046317e-04	
576	-2.20000e+00	1.056749e-04	

Index   v-sweep         i(vds)          
--------------------------------------------------------------------------------
577	-2.25000e+00	1.066557e-04	
578	-2.30000e+00	1.075742e-04	
579	-2.35000e+00	1.084308e-04	
580	-2.40000e+00	1.092256e-04	
581	-2.45000e+00	1.099588e-04	
582	-2.50000e+00	1.106308e-04	
583	-2.55000e+00	1.112423e-04	
584	-2.60000e+00	1.117937e-04	
585	-2.65000e+00	1.122861e-04	
586	-2.70000e+00	1.127207e-04	
587	-2.75000e+00	1.130995e-04	
588	-2.80000e+00	1.134249e-04	
589	-2.85000e+00	1.137004e-04	
590	-2.90000e+00	1.139304e-04	
591	-2.95000e+00	1.141206e-04	
592	-3.00000e+00	1.142771e-04	
593	-3.05000e+00	1.144065e-04	
594	-3.10000e+00	1.145148e-04	
595	-3.15000e+00	1.146074e-04	
596	-3.20000e+00	1.146882e-04	
597	-3.25000e+00	1.147606e-04	
598	-3.30000e+00	1.148266e-04	
599	-3.35000e+00	1.148879e-04	
600	-3.40000e+00	1.149455e-04	
601	-3.45000e+00	1.150004e-04	
602	-3.50000e+00	1.150530e-04	
603	-3.55000e+00	1.151038e-04	
604	-3.60000e+00	1.151531e-04	
605	-3.65000e+00	1.152011e-04	
606	-3.70000e+00	1.152481e-04	
607	-3.75000e+00	1.152940e-04	
608	-3.80000e+00	1.153391e-04	
609	-3.85000e+00	1.153835e-04	
610	-3.90000e+00	1.154272e-04	
611	-3.95000e+00	1.154703e-04	
612	-4.00000e+00	1.155129e-04	
613	-4.05000e+00	1.155549e-04	
614	-4.10000e+00	1.155965e-04	
615	-4.15000e+00	1.156376e-04	
616	-4.20000e+00	1.156784e-04	
617	-4.25000e+00	1.157188e-04	
618	-4.30000e+00	1.157588e-04	
619	-4.35000e+00	1.157985e-04	
620	-4.40000e+00	1.158379e-04	
621	-4.45000e+00	1.158771e-04	
622	-4.50000e+00	1.159159e-04	
623	-4.55000e+00	1.159545e-04	
624	-4.60000e+00	1.159929e-04	
625	-4.65000e+00	1.160310e-04	
626	-4.70000e+00	1.160689e-04	
627	-4.75000e+00	1.161066e-04	
628	-4.80000e+00	1.161441e-04	
629	-4.85000e+00	1.161814e-04	
630	-4.90000e+00	1.162186e-04	
631	-4.95000e+00	1.162555e-04	
632	-5.00000e+00	1.162923e-04	
633	-5.05000e+00	1.163290e-04	
634	-5.10000e+00	1.163655e-04	

Index   v-sweep         i(vds)          
--------------------------------------------------------------------------------
635	-5.15000e+00	1.164018e-04	
636	-5.20000e+00	1.164380e-04	
637	-5.25000e+00	1.164741e-04	
638	-5.30000e+00	1.165101e-04	
639	-5.35000e+00	1.165459e-04	
640	-5.40000e+00	1.165816e-04	
641	-5.45000e+00	1.166172e-04	
642	-5.50000e+00	1.166527e-04	
643	-5.55000e+00	1.166880e-04	
644	-5.60000e+00	1.167233e-04	
645	-5.65000e+00	1.167585e-04	
646	-5.70000e+00	1.167936e-04	
647	-5.75000e+00	1.168286e-04	
648	-5.80000e+00	1.168636e-04	
649	-5.85000e+00	1.168985e-04	
650	-5.90000e+00	1.169333e-04	
651	-5.95000e+00	1.169681e-04	
652	-6.00000e+00	1.170029e-04	
653	-6.05000e+00	1.170377e-04	
654	-6.10000e+00	1.170724e-04	
655	-6.15000e+00	1.171072e-04	
656	-6.20000e+00	1.171421e-04	
657	-6.25000e+00	1.171771e-04	
658	-6.30000e+00	1.172122e-04	
659	-6.35000e+00	1.172475e-04	
660	-6.40000e+00	1.172830e-04	
661	-6.45000e+00	1.173188e-04	
662	-6.50000e+00	1.173550e-04	
663	-6.55000e+00	1.173915e-04	
664	-6.60000e+00	1.174286e-04	
665	0.000000e+00	0.000000e+00	
666	-5.00000e-02	4.352996e-06	
667	-1.00000e-01	8.647024e-06	
668	-1.50000e-01	1.288211e-05	
669	-2.00000e-01	1.705829e-05	
670	-2.50000e-01	2.117559e-05	
671	-3.00000e-01	2.523404e-05	
672	-3.50000e-01	2.923366e-05	
673	-4.00000e-01	3.317450e-05	
674	-4.50000e-01	3.705656e-05	
675	-5.00000e-01	4.087989e-05	
676	-5.50000e-01	4.464451e-05	
677	-6.00000e-01	4.835045e-05	
678	-6.50000e-01	5.199774e-05	
679	-7.00000e-01	5.558642e-05	
680	-7.50000e-01	5.911649e-05	
681	-8.00000e-01	6.258801e-05	
682	-8.50000e-01	6.600099e-05	
683	-9.00000e-01	6.935547e-05	
684	-9.50000e-01	7.265147e-05	
685	-1.00000e+00	7.588902e-05	
686	-1.05000e+00	7.906816e-05	
687	-1.10000e+00	8.218890e-05	
688	-1.15000e+00	8.525128e-05	
689	-1.20000e+00	8.825534e-05	
690	-1.25000e+00	9.120109e-05	
691	-1.30000e+00	9.408857e-05	
692	-1.35000e+00	9.691780e-05	

Index   v-sweep         i(vds)          
--------------------------------------------------------------------------------
693	-1.40000e+00	9.968882e-05	
694	-1.45000e+00	1.024017e-04	
695	-1.50000e+00	1.050563e-04	
696	-1.55000e+00	1.076529e-04	
697	-1.60000e+00	1.101914e-04	
698	-1.65000e+00	1.126718e-04	
699	-1.70000e+00	1.150941e-04	
700	-1.75000e+00	1.174585e-04	
701	-1.80000e+00	1.197649e-04	
702	-1.85000e+00	1.220133e-04	
703	-1.90000e+00	1.242038e-04	
704	-1.95000e+00	1.263365e-04	
705	-2.00000e+00	1.284113e-04	
706	-2.05000e+00	1.304282e-04	
707	-2.10000e+00	1.323874e-04	
708	-2.15000e+00	1.342889e-04	
709	-2.20000e+00	1.361326e-04	
710	-2.25000e+00	1.379187e-04	
711	-2.30000e+00	1.396471e-04	
712	-2.35000e+00	1.413179e-04	
713	-2.40000e+00	1.429312e-04	
714	-2.45000e+00	1.444869e-04	
715	-2.50000e+00	1.459851e-04	
716	-2.55000e+00	1.474259e-04	
717	-2.60000e+00	1.488093e-04	
718	-2.65000e+00	1.501354e-04	
719	-2.70000e+00	1.514043e-04	
720	-2.75000e+00	1.526159e-04	
721	-2.80000e+00	1.537704e-04	
722	-2.85000e+00	1.548678e-04	
723	-2.90000e+00	1.559083e-04	
724	-2.95000e+00	1.568920e-04	
725	-3.00000e+00	1.578189e-04	
726	-3.05000e+00	1.586893e-04	
727	-3.10000e+00	1.595034e-04	
728	-3.15000e+00	1.602615e-04	
729	-3.20000e+00	1.609637e-04	
730	-3.25000e+00	1.616107e-04	
731	-3.30000e+00	1.622029e-04	
732	-3.35000e+00	1.627410e-04	
733	-3.40000e+00	1.632261e-04	
734	-3.45000e+00	1.636595e-04	
735	-3.50000e+00	1.640429e-04	
736	-3.55000e+00	1.643787e-04	
737	-3.60000e+00	1.646699e-04	
738	-3.65000e+00	1.649202e-04	
739	-3.70000e+00	1.651343e-04	
740	-3.75000e+00	1.653171e-04	
741	-3.80000e+00	1.654741e-04	
742	-3.85000e+00	1.656101e-04	
743	-3.90000e+00	1.657298e-04	
744	-3.95000e+00	1.658369e-04	
745	-4.00000e+00	1.659344e-04	
746	-4.05000e+00	1.660246e-04	
747	-4.10000e+00	1.661092e-04	
748	-4.15000e+00	1.661894e-04	
749	-4.20000e+00	1.662661e-04	
750	-4.25000e+00	1.663400e-04	

Index   v-sweep         i(vds)          
--------------------------------------------------------------------------------
751	-4.30000e+00	1.664115e-04	
752	-4.35000e+00	1.664811e-04	
753	-4.40000e+00	1.665490e-04	
754	-4.45000e+00	1.666156e-04	
755	-4.50000e+00	1.666808e-04	
756	-4.55000e+00	1.667450e-04	
757	-4.60000e+00	1.668082e-04	
758	-4.65000e+00	1.668704e-04	
759	-4.70000e+00	1.669319e-04	
760	-4.75000e+00	1.669927e-04	
761	-4.80000e+00	1.670527e-04	
762	-4.85000e+00	1.671122e-04	
763	-4.90000e+00	1.671710e-04	
764	-4.95000e+00	1.672294e-04	
765	-5.00000e+00	1.672872e-04	
766	-5.05000e+00	1.673445e-04	
767	-5.10000e+00	1.674015e-04	
768	-5.15000e+00	1.674580e-04	
769	-5.20000e+00	1.675141e-04	
770	-5.25000e+00	1.675698e-04	
771	-5.30000e+00	1.676252e-04	
772	-5.35000e+00	1.676803e-04	
773	-5.40000e+00	1.677351e-04	
774	-5.45000e+00	1.677895e-04	
775	-5.50000e+00	1.678437e-04	
776	-5.55000e+00	1.678976e-04	
777	-5.60000e+00	1.679512e-04	
778	-5.65000e+00	1.680046e-04	
779	-5.70000e+00	1.680578e-04	
780	-5.75000e+00	1.681107e-04	
781	-5.80000e+00	1.681634e-04	
782	-5.85000e+00	1.682159e-04	
783	-5.90000e+00	1.682682e-04	
784	-5.95000e+00	1.683203e-04	
785	-6.00000e+00	1.683722e-04	
786	-6.05000e+00	1.684239e-04	
787	-6.10000e+00	1.684755e-04	
788	-6.15000e+00	1.685269e-04	
789	-6.20000e+00	1.685781e-04	
790	-6.25000e+00	1.686292e-04	
791	-6.30000e+00	1.686802e-04	
792	-6.35000e+00	1.687310e-04	
793	-6.40000e+00	1.687817e-04	
794	-6.45000e+00	1.688322e-04	
795	-6.50000e+00	1.688827e-04	
796	-6.55000e+00	1.689330e-04	
797	-6.60000e+00	1.689833e-04	
Note: No ".plot", ".print", or ".fourier" lines; no simulations run
