
Note: Compatibility modes selected: hs

Warning: m=xx on .subckt line will override multiplier m hierarchy!


Circuit: ***************************

Doing analysis at TEMP = 125.000000 and TNOM = 125.000000


No. of Data Rows : 798
                          ***************************
                          DC transfer characteristic  Mon Jan  9 13:57:53  2023
--------------------------------------------------------------------------------
Index   v-sweep         i(vds)          
--------------------------------------------------------------------------------
0	0.000000e+00	0.000000e+00	
1	-5.00000e-02	2.941462e-07	
2	-1.00000e-01	4.474793e-07	
3	-1.50000e-01	5.314742e-07	
4	-2.00000e-01	5.697786e-07	
5	-2.50000e-01	5.828478e-07	
6	-3.00000e-01	5.870145e-07	
7	-3.50000e-01	5.886585e-07	
8	-4.00000e-01	5.895029e-07	
9	-4.50000e-01	5.900385e-07	
10	-5.00000e-01	5.904323e-07	
11	-5.50000e-01	5.907516e-07	
12	-6.00000e-01	5.910273e-07	
13	-6.50000e-01	5.912753e-07	
14	-7.00000e-01	5.915045e-07	
15	-7.50000e-01	5.917202e-07	
16	-8.00000e-01	5.919256e-07	
17	-8.50000e-01	5.921232e-07	
18	-9.00000e-01	5.923143e-07	
19	-9.50000e-01	5.925002e-07	
20	-1.00000e+00	5.926816e-07	
21	-1.05000e+00	5.928592e-07	
22	-1.10000e+00	5.930335e-07	
23	-1.15000e+00	5.932048e-07	
24	-1.20000e+00	5.933735e-07	
25	-1.25000e+00	5.935399e-07	
26	-1.30000e+00	5.937041e-07	
27	-1.35000e+00	5.938664e-07	
28	-1.40000e+00	5.940269e-07	
29	-1.45000e+00	5.941858e-07	
30	-1.50000e+00	5.943431e-07	
31	-1.55000e+00	5.944990e-07	
32	-1.60000e+00	5.946536e-07	
33	-1.65000e+00	5.948069e-07	
34	-1.70000e+00	5.949591e-07	
35	-1.75000e+00	5.951102e-07	
36	-1.80000e+00	5.952603e-07	
37	-1.85000e+00	5.954094e-07	
38	-1.90000e+00	5.955576e-07	
39	-1.95000e+00	5.957049e-07	
40	-2.00000e+00	5.958513e-07	
41	-2.05000e+00	5.959970e-07	
42	-2.10000e+00	5.961419e-07	
43	-2.15000e+00	5.962862e-07	
44	-2.20000e+00	5.964297e-07	
45	-2.25000e+00	5.965725e-07	
46	-2.30000e+00	5.967148e-07	
47	-2.35000e+00	5.968564e-07	
48	-2.40000e+00	5.969975e-07	
49	-2.45000e+00	5.971380e-07	
50	-2.50000e+00	5.972780e-07	
51	-2.55000e+00	5.974175e-07	
52	-2.60000e+00	5.975564e-07	
53	-2.65000e+00	5.976950e-07	
54	-2.70000e+00	5.978330e-07	

Index   v-sweep         i(vds)          
--------------------------------------------------------------------------------
55	-2.75000e+00	5.979707e-07	
56	-2.80000e+00	5.981079e-07	
57	-2.85000e+00	5.982447e-07	
58	-2.90000e+00	5.983812e-07	
59	-2.95000e+00	5.985174e-07	
60	-3.00000e+00	5.986532e-07	
61	-3.05000e+00	5.987888e-07	
62	-3.10000e+00	5.989241e-07	
63	-3.15000e+00	5.990592e-07	
64	-3.20000e+00	5.991942e-07	
65	-3.25000e+00	5.993291e-07	
66	-3.30000e+00	5.994640e-07	
67	-3.35000e+00	5.995990e-07	
68	-3.40000e+00	5.997341e-07	
69	-3.45000e+00	5.998695e-07	
70	-3.50000e+00	6.000053e-07	
71	-3.55000e+00	6.001417e-07	
72	-3.60000e+00	6.002788e-07	
73	-3.65000e+00	6.004169e-07	
74	-3.70000e+00	6.005562e-07	
75	-3.75000e+00	6.006969e-07	
76	-3.80000e+00	6.008394e-07	
77	-3.85000e+00	6.009839e-07	
78	-3.90000e+00	6.011310e-07	
79	-3.95000e+00	6.012810e-07	
80	-4.00000e+00	6.014344e-07	
81	-4.05000e+00	6.015918e-07	
82	-4.10000e+00	6.017538e-07	
83	-4.15000e+00	6.019210e-07	
84	-4.20000e+00	6.020942e-07	
85	-4.25000e+00	6.022743e-07	
86	-4.30000e+00	6.024621e-07	
87	-4.35000e+00	6.026586e-07	
88	-4.40000e+00	6.028649e-07	
89	-4.45000e+00	6.030822e-07	
90	-4.50000e+00	6.033116e-07	
91	-4.55000e+00	6.035547e-07	
92	-4.60000e+00	6.038129e-07	
93	-4.65000e+00	6.040877e-07	
94	-4.70000e+00	6.043808e-07	
95	-4.75000e+00	6.046942e-07	
96	-4.80000e+00	6.050297e-07	
97	-4.85000e+00	6.053895e-07	
98	-4.90000e+00	6.057757e-07	
99	-4.95000e+00	6.061908e-07	
100	-5.00000e+00	6.066371e-07	
101	-5.05000e+00	6.071175e-07	
102	-5.10000e+00	6.076345e-07	
103	-5.15000e+00	6.081913e-07	
104	-5.20000e+00	6.087908e-07	
105	-5.25000e+00	6.094364e-07	
106	-5.30000e+00	6.101315e-07	
107	-5.35000e+00	6.108796e-07	
108	-5.40000e+00	6.116846e-07	
109	-5.45000e+00	6.125502e-07	
110	-5.50000e+00	6.134806e-07	
111	-5.55000e+00	6.144801e-07	
112	-5.60000e+00	6.155530e-07	

Index   v-sweep         i(vds)          
--------------------------------------------------------------------------------
113	-5.65000e+00	6.167040e-07	
114	-5.70000e+00	6.179378e-07	
115	-5.75000e+00	6.192595e-07	
116	-5.80000e+00	6.206740e-07	
117	-5.85000e+00	6.221868e-07	
118	-5.90000e+00	6.238032e-07	
119	-5.95000e+00	6.255290e-07	
120	-6.00000e+00	6.273699e-07	
121	-6.05000e+00	6.293320e-07	
122	-6.10000e+00	6.314215e-07	
123	-6.15000e+00	6.336446e-07	
124	-6.20000e+00	6.360080e-07	
125	-6.25000e+00	6.385183e-07	
126	-6.30000e+00	6.411823e-07	
127	-6.35000e+00	6.440071e-07	
128	-6.40000e+00	6.470000e-07	
129	-6.45000e+00	6.501682e-07	
130	-6.50000e+00	6.535193e-07	
131	-6.55000e+00	6.570610e-07	
132	-6.60000e+00	6.608011e-07	
133	0.000000e+00	0.000000e+00	
134	-5.00000e-02	1.110365e-06	
135	-1.00000e-01	2.073611e-06	
136	-1.50000e-01	2.959134e-06	
137	-2.00000e-01	3.783115e-06	
138	-2.50000e-01	4.549348e-06	
139	-3.00000e-01	5.258745e-06	
140	-3.50000e-01	5.911554e-06	
141	-4.00000e-01	6.507880e-06	
142	-4.50000e-01	7.047808e-06	
143	-5.00000e-01	7.531446e-06	
144	-5.50000e-01	7.958952e-06	
145	-6.00000e-01	8.330576e-06	
146	-6.50000e-01	8.646737e-06	
147	-7.00000e-01	8.908181e-06	
148	-7.50000e-01	9.116288e-06	
149	-8.00000e-01	9.273662e-06	
150	-8.50000e-01	9.385075e-06	
151	-9.00000e-01	9.458319e-06	
152	-9.50000e-01	9.503666e-06	
153	-1.00000e+00	9.531305e-06	
154	-1.05000e+00	9.548837e-06	
155	-1.10000e+00	9.560851e-06	
156	-1.15000e+00	9.569820e-06	
157	-1.20000e+00	9.577039e-06	
158	-1.25000e+00	9.583195e-06	
159	-1.30000e+00	9.588668e-06	
160	-1.35000e+00	9.593679e-06	
161	-1.40000e+00	9.598362e-06	
162	-1.45000e+00	9.602802e-06	
163	-1.50000e+00	9.607055e-06	
164	-1.55000e+00	9.611160e-06	
165	-1.60000e+00	9.615145e-06	
166	-1.65000e+00	9.619028e-06	
167	-1.70000e+00	9.622826e-06	
168	-1.75000e+00	9.626551e-06	
169	-1.80000e+00	9.630210e-06	
170	-1.85000e+00	9.633812e-06	

Index   v-sweep         i(vds)          
--------------------------------------------------------------------------------
171	-1.90000e+00	9.637363e-06	
172	-1.95000e+00	9.640867e-06	
173	-2.00000e+00	9.644330e-06	
174	-2.05000e+00	9.647753e-06	
175	-2.10000e+00	9.651142e-06	
176	-2.15000e+00	9.654497e-06	
177	-2.20000e+00	9.657823e-06	
178	-2.25000e+00	9.661119e-06	
179	-2.30000e+00	9.664390e-06	
180	-2.35000e+00	9.667635e-06	
181	-2.40000e+00	9.670858e-06	
182	-2.45000e+00	9.674058e-06	
183	-2.50000e+00	9.677237e-06	
184	-2.55000e+00	9.680397e-06	
185	-2.60000e+00	9.683538e-06	
186	-2.65000e+00	9.686662e-06	
187	-2.70000e+00	9.689768e-06	
188	-2.75000e+00	9.692859e-06	
189	-2.80000e+00	9.695934e-06	
190	-2.85000e+00	9.698995e-06	
191	-2.90000e+00	9.702042e-06	
192	-2.95000e+00	9.705075e-06	
193	-3.00000e+00	9.708095e-06	
194	-3.05000e+00	9.711104e-06	
195	-3.10000e+00	9.714100e-06	
196	-3.15000e+00	9.717085e-06	
197	-3.20000e+00	9.720059e-06	
198	-3.25000e+00	9.723023e-06	
199	-3.30000e+00	9.725977e-06	
200	-3.35000e+00	9.728921e-06	
201	-3.40000e+00	9.731856e-06	
202	-3.45000e+00	9.734782e-06	
203	-3.50000e+00	9.737699e-06	
204	-3.55000e+00	9.740609e-06	
205	-3.60000e+00	9.743511e-06	
206	-3.65000e+00	9.746407e-06	
207	-3.70000e+00	9.749296e-06	
208	-3.75000e+00	9.752179e-06	
209	-3.80000e+00	9.755058e-06	
210	-3.85000e+00	9.757933e-06	
211	-3.90000e+00	9.760805e-06	
212	-3.95000e+00	9.763675e-06	
213	-4.00000e+00	9.766545e-06	
214	-4.05000e+00	9.769417e-06	
215	-4.10000e+00	9.772293e-06	
216	-4.15000e+00	9.775175e-06	
217	-4.20000e+00	9.778066e-06	
218	-4.25000e+00	9.780969e-06	
219	-4.30000e+00	9.783889e-06	
220	-4.35000e+00	9.786829e-06	
221	-4.40000e+00	9.789794e-06	
222	-4.45000e+00	9.792790e-06	
223	-4.50000e+00	9.795825e-06	
224	-4.55000e+00	9.798904e-06	
225	-4.60000e+00	9.802038e-06	
226	-4.65000e+00	9.805234e-06	
227	-4.70000e+00	9.808504e-06	
228	-4.75000e+00	9.811859e-06	

Index   v-sweep         i(vds)          
--------------------------------------------------------------------------------
229	-4.80000e+00	9.815312e-06	
230	-4.85000e+00	9.818878e-06	
231	-4.90000e+00	9.822574e-06	
232	-4.95000e+00	9.826416e-06	
233	-5.00000e+00	9.830423e-06	
234	-5.05000e+00	9.834618e-06	
235	-5.10000e+00	9.839023e-06	
236	-5.15000e+00	9.843663e-06	
237	-5.20000e+00	9.848566e-06	
238	-5.25000e+00	9.853760e-06	
239	-5.30000e+00	9.859279e-06	
240	-5.35000e+00	9.865154e-06	
241	-5.40000e+00	9.871425e-06	
242	-5.45000e+00	9.878129e-06	
243	-5.50000e+00	9.885309e-06	
244	-5.55000e+00	9.893009e-06	
245	-5.60000e+00	9.901278e-06	
246	-5.65000e+00	9.910166e-06	
247	-5.70000e+00	9.919726e-06	
248	-5.75000e+00	9.930016e-06	
249	-5.80000e+00	9.941095e-06	
250	-5.85000e+00	9.953027e-06	
251	-5.90000e+00	9.965878e-06	
252	-5.95000e+00	9.979718e-06	
253	-6.00000e+00	9.994622e-06	
254	-6.05000e+00	1.001067e-05	
255	-6.10000e+00	1.002793e-05	
256	-6.15000e+00	1.004650e-05	
257	-6.20000e+00	1.006646e-05	
258	-6.25000e+00	1.008790e-05	
259	-6.30000e+00	1.011093e-05	
260	-6.35000e+00	1.013563e-05	
261	-6.40000e+00	1.016211e-05	
262	-6.45000e+00	1.019048e-05	
263	-6.50000e+00	1.022085e-05	
264	-6.55000e+00	1.025333e-05	
265	-6.60000e+00	1.028803e-05	
266	0.000000e+00	0.000000e+00	
267	-5.00000e-02	1.799834e-06	
268	-1.00000e-01	3.456432e-06	
269	-1.50000e-01	5.039184e-06	
270	-2.00000e-01	6.564259e-06	
271	-2.50000e-01	8.035437e-06	
272	-3.00000e-01	9.453612e-06	
273	-3.50000e-01	1.081901e-05	
274	-4.00000e-01	1.213169e-05	
275	-4.50000e-01	1.339169e-05	
276	-5.00000e-01	1.459902e-05	
277	-5.50000e-01	1.575372e-05	
278	-6.00000e-01	1.685581e-05	
279	-6.50000e-01	1.790529e-05	
280	-7.00000e-01	1.890222e-05	
281	-7.50000e-01	1.984660e-05	
282	-8.00000e-01	2.073847e-05	
283	-8.50000e-01	2.157787e-05	
284	-9.00000e-01	2.236483e-05	
285	-9.50000e-01	2.309941e-05	
286	-1.00000e+00	2.378166e-05	

Index   v-sweep         i(vds)          
--------------------------------------------------------------------------------
287	-1.05000e+00	2.441167e-05	
288	-1.10000e+00	2.498953e-05	
289	-1.15000e+00	2.551537e-05	
290	-1.20000e+00	2.598940e-05	
291	-1.25000e+00	2.641190e-05	
292	-1.30000e+00	2.678328e-05	
293	-1.35000e+00	2.710421e-05	
294	-1.40000e+00	2.737573e-05	
295	-1.45000e+00	2.759951e-05	
296	-1.50000e+00	2.777819e-05	
297	-1.55000e+00	2.791582e-05	
298	-1.60000e+00	2.801811e-05	
299	-1.65000e+00	2.809211e-05	
300	-1.70000e+00	2.814526e-05	
301	-1.75000e+00	2.818413e-05	
302	-1.80000e+00	2.821369e-05	
303	-1.85000e+00	2.823731e-05	
304	-1.90000e+00	2.825711e-05	
305	-1.95000e+00	2.827441e-05	
306	-2.00000e+00	2.829001e-05	
307	-2.05000e+00	2.830441e-05	
308	-2.10000e+00	2.831796e-05	
309	-2.15000e+00	2.833085e-05	
310	-2.20000e+00	2.834323e-05	
311	-2.25000e+00	2.835521e-05	
312	-2.30000e+00	2.836685e-05	
313	-2.35000e+00	2.837822e-05	
314	-2.40000e+00	2.838935e-05	
315	-2.45000e+00	2.840028e-05	
316	-2.50000e+00	2.841103e-05	
317	-2.55000e+00	2.842162e-05	
318	-2.60000e+00	2.843206e-05	
319	-2.65000e+00	2.844238e-05	
320	-2.70000e+00	2.845257e-05	
321	-2.75000e+00	2.846266e-05	
322	-2.80000e+00	2.847266e-05	
323	-2.85000e+00	2.848255e-05	
324	-2.90000e+00	2.849237e-05	
325	-2.95000e+00	2.850210e-05	
326	-3.00000e+00	2.851176e-05	
327	-3.05000e+00	2.852135e-05	
328	-3.10000e+00	2.853087e-05	
329	-3.15000e+00	2.854034e-05	
330	-3.20000e+00	2.854974e-05	
331	-3.25000e+00	2.855909e-05	
332	-3.30000e+00	2.856838e-05	
333	-3.35000e+00	2.857762e-05	
334	-3.40000e+00	2.858682e-05	
335	-3.45000e+00	2.859597e-05	
336	-3.50000e+00	2.860508e-05	
337	-3.55000e+00	2.861414e-05	
338	-3.60000e+00	2.862317e-05	
339	-3.65000e+00	2.863215e-05	
340	-3.70000e+00	2.864110e-05	
341	-3.75000e+00	2.865002e-05	
342	-3.80000e+00	2.865890e-05	
343	-3.85000e+00	2.866775e-05	
344	-3.90000e+00	2.867657e-05	

Index   v-sweep         i(vds)          
--------------------------------------------------------------------------------
345	-3.95000e+00	2.868535e-05	
346	-4.00000e+00	2.869411e-05	
347	-4.05000e+00	2.870284e-05	
348	-4.10000e+00	2.871155e-05	
349	-4.15000e+00	2.872023e-05	
350	-4.20000e+00	2.872888e-05	
351	-4.25000e+00	2.873752e-05	
352	-4.30000e+00	2.874613e-05	
353	-4.35000e+00	2.875472e-05	
354	-4.40000e+00	2.876329e-05	
355	-4.45000e+00	2.877185e-05	
356	-4.50000e+00	2.878039e-05	
357	-4.55000e+00	2.878892e-05	
358	-4.60000e+00	2.879744e-05	
359	-4.65000e+00	2.880595e-05	
360	-4.70000e+00	2.881447e-05	
361	-4.75000e+00	2.882299e-05	
362	-4.80000e+00	2.883152e-05	
363	-4.85000e+00	2.884007e-05	
364	-4.90000e+00	2.884864e-05	
365	-4.95000e+00	2.885724e-05	
366	-5.00000e+00	2.886589e-05	
367	-5.05000e+00	2.887460e-05	
368	-5.10000e+00	2.888338e-05	
369	-5.15000e+00	2.889225e-05	
370	-5.20000e+00	2.890122e-05	
371	-5.25000e+00	2.891032e-05	
372	-5.30000e+00	2.891958e-05	
373	-5.35000e+00	2.892901e-05	
374	-5.40000e+00	2.893865e-05	
375	-5.45000e+00	2.894854e-05	
376	-5.50000e+00	2.895870e-05	
377	-5.55000e+00	2.896919e-05	
378	-5.60000e+00	2.898005e-05	
379	-5.65000e+00	2.899133e-05	
380	-5.70000e+00	2.900308e-05	
381	-5.75000e+00	2.901537e-05	
382	-5.80000e+00	2.902827e-05	
383	-5.85000e+00	2.904184e-05	
384	-5.90000e+00	2.905616e-05	
385	-5.95000e+00	2.907133e-05	
386	-6.00000e+00	2.908744e-05	
387	-6.05000e+00	2.910457e-05	
388	-6.10000e+00	2.912285e-05	
389	-6.15000e+00	2.914238e-05	
390	-6.20000e+00	2.916329e-05	
391	-6.25000e+00	2.918570e-05	
392	-6.30000e+00	2.920976e-05	
393	-6.35000e+00	2.923562e-05	
394	-6.40000e+00	2.926343e-05	
395	-6.45000e+00	2.929336e-05	
396	-6.50000e+00	2.932558e-05	
397	-6.55000e+00	2.936028e-05	
398	-6.60000e+00	2.939766e-05	
399	0.000000e+00	0.000000e+00	
400	-5.00000e-02	2.397566e-06	
401	-1.00000e-01	4.655699e-06	
402	-1.50000e-01	6.843785e-06	

Index   v-sweep         i(vds)          
--------------------------------------------------------------------------------
403	-2.00000e-01	8.977991e-06	
404	-2.50000e-01	1.106210e-05	
405	-3.00000e-01	1.309699e-05	
406	-3.50000e-01	1.508289e-05	
407	-4.00000e-01	1.701986e-05	
408	-4.50000e-01	1.890793e-05	
409	-5.00000e-01	2.074711e-05	
410	-5.50000e-01	2.253742e-05	
411	-6.00000e-01	2.427888e-05	
412	-6.50000e-01	2.597151e-05	
413	-7.00000e-01	2.761531e-05	
414	-7.50000e-01	2.921031e-05	
415	-8.00000e-01	3.075652e-05	
416	-8.50000e-01	3.225396e-05	
417	-9.00000e-01	3.370265e-05	
418	-9.50000e-01	3.510259e-05	
419	-1.00000e+00	3.645382e-05	
420	-1.05000e+00	3.775635e-05	
421	-1.10000e+00	3.901020e-05	
422	-1.15000e+00	4.021539e-05	
423	-1.20000e+00	4.137194e-05	
424	-1.25000e+00	4.247987e-05	
425	-1.30000e+00	4.353922e-05	
426	-1.35000e+00	4.454999e-05	
427	-1.40000e+00	4.551223e-05	
428	-1.45000e+00	4.642597e-05	
429	-1.50000e+00	4.729124e-05	
430	-1.55000e+00	4.810809e-05	
431	-1.60000e+00	4.887657e-05	
432	-1.65000e+00	4.959675e-05	
433	-1.70000e+00	5.026870e-05	
434	-1.75000e+00	5.089252e-05	
435	-1.80000e+00	5.146834e-05	
436	-1.85000e+00	5.199635e-05	
437	-1.90000e+00	5.247677e-05	
438	-1.95000e+00	5.290993e-05	
439	-2.00000e+00	5.329631e-05	
440	-2.05000e+00	5.363659e-05	
441	-2.10000e+00	5.393176e-05	
442	-2.15000e+00	5.418329e-05	
443	-2.20000e+00	5.439332e-05	
444	-2.25000e+00	5.456488e-05	
445	-2.30000e+00	5.470205e-05	
446	-2.35000e+00	5.480991e-05	
447	-2.40000e+00	5.489413e-05	
448	-2.45000e+00	5.496033e-05	
449	-2.50000e+00	5.501344e-05	
450	-2.55000e+00	5.505735e-05	
451	-2.60000e+00	5.509489e-05	
452	-2.65000e+00	5.512802e-05	
453	-2.70000e+00	5.515804e-05	
454	-2.75000e+00	5.518583e-05	
455	-2.80000e+00	5.521197e-05	
456	-2.85000e+00	5.523687e-05	
457	-2.90000e+00	5.526080e-05	
458	-2.95000e+00	5.528396e-05	
459	-3.00000e+00	5.530648e-05	
460	-3.05000e+00	5.532848e-05	

Index   v-sweep         i(vds)          
--------------------------------------------------------------------------------
461	-3.10000e+00	5.535002e-05	
462	-3.15000e+00	5.537118e-05	
463	-3.20000e+00	5.539200e-05	
464	-3.25000e+00	5.541252e-05	
465	-3.30000e+00	5.543277e-05	
466	-3.35000e+00	5.545278e-05	
467	-3.40000e+00	5.547256e-05	
468	-3.45000e+00	5.549214e-05	
469	-3.50000e+00	5.551154e-05	
470	-3.55000e+00	5.553076e-05	
471	-3.60000e+00	5.554982e-05	
472	-3.65000e+00	5.556873e-05	
473	-3.70000e+00	5.558750e-05	
474	-3.75000e+00	5.560614e-05	
475	-3.80000e+00	5.562465e-05	
476	-3.85000e+00	5.564305e-05	
477	-3.90000e+00	5.566133e-05	
478	-3.95000e+00	5.567951e-05	
479	-4.00000e+00	5.569759e-05	
480	-4.05000e+00	5.571558e-05	
481	-4.10000e+00	5.573347e-05	
482	-4.15000e+00	5.575128e-05	
483	-4.20000e+00	5.576901e-05	
484	-4.25000e+00	5.578666e-05	
485	-4.30000e+00	5.580423e-05	
486	-4.35000e+00	5.582173e-05	
487	-4.40000e+00	5.583916e-05	
488	-4.45000e+00	5.585652e-05	
489	-4.50000e+00	5.587382e-05	
490	-4.55000e+00	5.589105e-05	
491	-4.60000e+00	5.590823e-05	
492	-4.65000e+00	5.592535e-05	
493	-4.70000e+00	5.594241e-05	
494	-4.75000e+00	5.595943e-05	
495	-4.80000e+00	5.597639e-05	
496	-4.85000e+00	5.599330e-05	
497	-4.90000e+00	5.601017e-05	
498	-4.95000e+00	5.602699e-05	
499	-5.00000e+00	5.604377e-05	
500	-5.05000e+00	5.606051e-05	
501	-5.10000e+00	5.607721e-05	
502	-5.15000e+00	5.609389e-05	
503	-5.20000e+00	5.611053e-05	
504	-5.25000e+00	5.612715e-05	
505	-5.30000e+00	5.614375e-05	
506	-5.35000e+00	5.616033e-05	
507	-5.40000e+00	5.617692e-05	
508	-5.45000e+00	5.619350e-05	
509	-5.50000e+00	5.621010e-05	
510	-5.55000e+00	5.622672e-05	
511	-5.60000e+00	5.624338e-05	
512	-5.65000e+00	5.626010e-05	
513	-5.70000e+00	5.627689e-05	
514	-5.75000e+00	5.629378e-05	
515	-5.80000e+00	5.631079e-05	
516	-5.85000e+00	5.632795e-05	
517	-5.90000e+00	5.634530e-05	
518	-5.95000e+00	5.636287e-05	

Index   v-sweep         i(vds)          
--------------------------------------------------------------------------------
519	-6.00000e+00	5.638071e-05	
520	-6.05000e+00	5.639886e-05	
521	-6.10000e+00	5.641739e-05	
522	-6.15000e+00	5.643634e-05	
523	-6.20000e+00	5.645580e-05	
524	-6.25000e+00	5.647584e-05	
525	-6.30000e+00	5.649653e-05	
526	-6.35000e+00	5.651798e-05	
527	-6.40000e+00	5.654029e-05	
528	-6.45000e+00	5.656357e-05	
529	-6.50000e+00	5.658794e-05	
530	-6.55000e+00	5.661354e-05	
531	-6.60000e+00	5.664052e-05	
532	0.000000e+00	0.000000e+00	
533	-5.00000e-02	2.929565e-06	
534	-1.00000e-01	5.723005e-06	
535	-1.50000e-01	8.449703e-06	
536	-2.00000e-01	1.112583e-05	
537	-2.50000e-01	1.375515e-05	
538	-3.00000e-01	1.633856e-05	
539	-3.50000e-01	1.887628e-05	
540	-4.00000e-01	2.136836e-05	
541	-4.50000e-01	2.381484e-05	
542	-5.00000e-01	2.621572e-05	
543	-5.50000e-01	2.857103e-05	
544	-6.00000e-01	3.088078e-05	
545	-6.50000e-01	3.314497e-05	
546	-7.00000e-01	3.536363e-05	
547	-7.50000e-01	3.753676e-05	
548	-8.00000e-01	3.966439e-05	
549	-8.50000e-01	4.174652e-05	
550	-9.00000e-01	4.378317e-05	
551	-9.50000e-01	4.577436e-05	
552	-1.00000e+00	4.772009e-05	
553	-1.05000e+00	4.962038e-05	
554	-1.10000e+00	5.147525e-05	
555	-1.15000e+00	5.328471e-05	
556	-1.20000e+00	5.504877e-05	
557	-1.25000e+00	5.676746e-05	
558	-1.30000e+00	5.844077e-05	
559	-1.35000e+00	6.006874e-05	
560	-1.40000e+00	6.165137e-05	
561	-1.45000e+00	6.318868e-05	
562	-1.50000e+00	6.468069e-05	
563	-1.55000e+00	6.612742e-05	
564	-1.60000e+00	6.752887e-05	
565	-1.65000e+00	6.888507e-05	
566	-1.70000e+00	7.019603e-05	
567	-1.75000e+00	7.146178e-05	
568	-1.80000e+00	7.268234e-05	
569	-1.85000e+00	7.385772e-05	
570	-1.90000e+00	7.498794e-05	
571	-1.95000e+00	7.607305e-05	
572	-2.00000e+00	7.711304e-05	
573	-2.05000e+00	7.810797e-05	
574	-2.10000e+00	7.905786e-05	
575	-2.15000e+00	7.996275e-05	
576	-2.20000e+00	8.082267e-05	

Index   v-sweep         i(vds)          
--------------------------------------------------------------------------------
577	-2.25000e+00	8.163769e-05	
578	-2.30000e+00	8.240785e-05	
579	-2.35000e+00	8.313324e-05	
580	-2.40000e+00	8.381393e-05	
581	-2.45000e+00	8.445003e-05	
582	-2.50000e+00	8.504169e-05	
583	-2.55000e+00	8.558908e-05	
584	-2.60000e+00	8.609244e-05	
585	-2.65000e+00	8.655207e-05	
586	-2.70000e+00	8.696842e-05	
587	-2.75000e+00	8.734206e-05	
588	-2.80000e+00	8.767380e-05	
589	-2.85000e+00	8.796478e-05	
590	-2.90000e+00	8.821657e-05	
591	-2.95000e+00	8.843130e-05	
592	-3.00000e+00	8.861181e-05	
593	-3.05000e+00	8.876168e-05	
594	-3.10000e+00	8.888514e-05	
595	-3.15000e+00	8.898680e-05	
596	-3.20000e+00	8.907122e-05	
597	-3.25000e+00	8.914248e-05	
598	-3.30000e+00	8.920401e-05	
599	-3.35000e+00	8.925843e-05	
600	-3.40000e+00	8.930767e-05	
601	-3.45000e+00	8.935312e-05	
602	-3.50000e+00	8.939575e-05	
603	-3.55000e+00	8.943623e-05	
604	-3.60000e+00	8.947506e-05	
605	-3.65000e+00	8.951257e-05	
606	-3.70000e+00	8.954902e-05	
607	-3.75000e+00	8.958458e-05	
608	-3.80000e+00	8.961940e-05	
609	-3.85000e+00	8.965359e-05	
610	-3.90000e+00	8.968722e-05	
611	-3.95000e+00	8.972036e-05	
612	-4.00000e+00	8.975306e-05	
613	-4.05000e+00	8.978537e-05	
614	-4.10000e+00	8.981733e-05	
615	-4.15000e+00	8.984896e-05	
616	-4.20000e+00	8.988029e-05	
617	-4.25000e+00	8.991134e-05	
618	-4.30000e+00	8.994214e-05	
619	-4.35000e+00	8.997270e-05	
620	-4.40000e+00	9.000303e-05	
621	-4.45000e+00	9.003315e-05	
622	-4.50000e+00	9.006308e-05	
623	-4.55000e+00	9.009282e-05	
624	-4.60000e+00	9.012238e-05	
625	-4.65000e+00	9.015177e-05	
626	-4.70000e+00	9.018101e-05	
627	-4.75000e+00	9.021009e-05	
628	-4.80000e+00	9.023903e-05	
629	-4.85000e+00	9.026783e-05	
630	-4.90000e+00	9.029650e-05	
631	-4.95000e+00	9.032504e-05	
632	-5.00000e+00	9.035347e-05	
633	-5.05000e+00	9.038177e-05	
634	-5.10000e+00	9.040997e-05	

Index   v-sweep         i(vds)          
--------------------------------------------------------------------------------
635	-5.15000e+00	9.043806e-05	
636	-5.20000e+00	9.046604e-05	
637	-5.25000e+00	9.049393e-05	
638	-5.30000e+00	9.052172e-05	
639	-5.35000e+00	9.054942e-05	
640	-5.40000e+00	9.057704e-05	
641	-5.45000e+00	9.060456e-05	
642	-5.50000e+00	9.063201e-05	
643	-5.55000e+00	9.065938e-05	
644	-5.60000e+00	9.068667e-05	
645	-5.65000e+00	9.071389e-05	
646	-5.70000e+00	9.074104e-05	
647	-5.75000e+00	9.076813e-05	
648	-5.80000e+00	9.079516e-05	
649	-5.85000e+00	9.082213e-05	
650	-5.90000e+00	9.084905e-05	
651	-5.95000e+00	9.087593e-05	
652	-6.00000e+00	9.090277e-05	
653	-6.05000e+00	9.092958e-05	
654	-6.10000e+00	9.095637e-05	
655	-6.15000e+00	9.098316e-05	
656	-6.20000e+00	9.100995e-05	
657	-6.25000e+00	9.103677e-05	
658	-6.30000e+00	9.106362e-05	
659	-6.35000e+00	9.109055e-05	
660	-6.40000e+00	9.111756e-05	
661	-6.45000e+00	9.114470e-05	
662	-6.50000e+00	9.117200e-05	
663	-6.55000e+00	9.119949e-05	
664	-6.60000e+00	9.122724e-05	
665	0.000000e+00	0.000000e+00	
666	-5.00000e-02	3.413931e-06	
667	-1.00000e-01	6.694568e-06	
668	-1.50000e-01	9.911294e-06	
669	-2.00000e-01	1.308027e-05	
670	-2.50000e-01	1.620528e-05	
671	-3.00000e-01	1.928720e-05	
672	-3.50000e-01	2.232626e-05	
673	-4.00000e-01	2.532250e-05	
674	-4.50000e-01	2.827596e-05	
675	-5.00000e-01	3.118665e-05	
676	-5.50000e-01	3.405458e-05	
677	-6.00000e-01	3.687977e-05	
678	-6.50000e-01	3.966223e-05	
679	-7.00000e-01	4.240196e-05	
680	-7.50000e-01	4.509899e-05	
681	-8.00000e-01	4.775333e-05	
682	-8.50000e-01	5.036498e-05	
683	-9.00000e-01	5.293396e-05	
684	-9.50000e-01	5.546028e-05	
685	-1.00000e+00	5.794395e-05	
686	-1.05000e+00	6.038500e-05	
687	-1.10000e+00	6.278342e-05	
688	-1.15000e+00	6.513924e-05	
689	-1.20000e+00	6.745246e-05	
690	-1.25000e+00	6.972309e-05	
691	-1.30000e+00	7.195116e-05	
692	-1.35000e+00	7.413667e-05	

Index   v-sweep         i(vds)          
--------------------------------------------------------------------------------
693	-1.40000e+00	7.627964e-05	
694	-1.45000e+00	7.838007e-05	
695	-1.50000e+00	8.043799e-05	
696	-1.55000e+00	8.245340e-05	
697	-1.60000e+00	8.442632e-05	
698	-1.65000e+00	8.635675e-05	
699	-1.70000e+00	8.824473e-05	
700	-1.75000e+00	9.009024e-05	
701	-1.80000e+00	9.189333e-05	
702	-1.85000e+00	9.365398e-05	
703	-1.90000e+00	9.537222e-05	
704	-1.95000e+00	9.704807e-05	
705	-2.00000e+00	9.868153e-05	
706	-2.05000e+00	1.002726e-04	
707	-2.10000e+00	1.018214e-04	
708	-2.15000e+00	1.033278e-04	
709	-2.20000e+00	1.047918e-04	
710	-2.25000e+00	1.062136e-04	
711	-2.30000e+00	1.075931e-04	
712	-2.35000e+00	1.089303e-04	
713	-2.40000e+00	1.102253e-04	
714	-2.45000e+00	1.114780e-04	
715	-2.50000e+00	1.126885e-04	
716	-2.55000e+00	1.138568e-04	
717	-2.60000e+00	1.149830e-04	
718	-2.65000e+00	1.160670e-04	
719	-2.70000e+00	1.171089e-04	
720	-2.75000e+00	1.181087e-04	
721	-2.80000e+00	1.190664e-04	
722	-2.85000e+00	1.199822e-04	
723	-2.90000e+00	1.208559e-04	
724	-2.95000e+00	1.216878e-04	
725	-3.00000e+00	1.224778e-04	
726	-3.05000e+00	1.232260e-04	
727	-3.10000e+00	1.239325e-04	
728	-3.15000e+00	1.245974e-04	
729	-3.20000e+00	1.252208e-04	
730	-3.25000e+00	1.258029e-04	
731	-3.30000e+00	1.263439e-04	
732	-3.35000e+00	1.268441e-04	
733	-3.40000e+00	1.273038e-04	
734	-3.45000e+00	1.277234e-04	
735	-3.50000e+00	1.281036e-04	
736	-3.55000e+00	1.284452e-04	
737	-3.60000e+00	1.287493e-04	
738	-3.65000e+00	1.290172e-04	
739	-3.70000e+00	1.292509e-04	
740	-3.75000e+00	1.294528e-04	
741	-3.80000e+00	1.296259e-04	
742	-3.85000e+00	1.297735e-04	
743	-3.90000e+00	1.298996e-04	
744	-3.95000e+00	1.300079e-04	
745	-4.00000e+00	1.301021e-04	
746	-4.05000e+00	1.301853e-04	
747	-4.10000e+00	1.302603e-04	
748	-4.15000e+00	1.303290e-04	
749	-4.20000e+00	1.303929e-04	
750	-4.25000e+00	1.304533e-04	

Index   v-sweep         i(vds)          
--------------------------------------------------------------------------------
751	-4.30000e+00	1.305109e-04	
752	-4.35000e+00	1.305663e-04	
753	-4.40000e+00	1.306199e-04	
754	-4.45000e+00	1.306721e-04	
755	-4.50000e+00	1.307232e-04	
756	-4.55000e+00	1.307733e-04	
757	-4.60000e+00	1.308224e-04	
758	-4.65000e+00	1.308709e-04	
759	-4.70000e+00	1.309187e-04	
760	-4.75000e+00	1.309659e-04	
761	-4.80000e+00	1.310125e-04	
762	-4.85000e+00	1.310587e-04	
763	-4.90000e+00	1.311044e-04	
764	-4.95000e+00	1.311498e-04	
765	-5.00000e+00	1.311947e-04	
766	-5.05000e+00	1.312393e-04	
767	-5.10000e+00	1.312836e-04	
768	-5.15000e+00	1.313275e-04	
769	-5.20000e+00	1.313712e-04	
770	-5.25000e+00	1.314146e-04	
771	-5.30000e+00	1.314578e-04	
772	-5.35000e+00	1.315006e-04	
773	-5.40000e+00	1.315433e-04	
774	-5.45000e+00	1.315857e-04	
775	-5.50000e+00	1.316280e-04	
776	-5.55000e+00	1.316700e-04	
777	-5.60000e+00	1.317118e-04	
778	-5.65000e+00	1.317535e-04	
779	-5.70000e+00	1.317950e-04	
780	-5.75000e+00	1.318363e-04	
781	-5.80000e+00	1.318774e-04	
782	-5.85000e+00	1.319184e-04	
783	-5.90000e+00	1.319592e-04	
784	-5.95000e+00	1.319999e-04	
785	-6.00000e+00	1.320405e-04	
786	-6.05000e+00	1.320809e-04	
787	-6.10000e+00	1.321212e-04	
788	-6.15000e+00	1.321614e-04	
789	-6.20000e+00	1.322014e-04	
790	-6.25000e+00	1.322413e-04	
791	-6.30000e+00	1.322812e-04	
792	-6.35000e+00	1.323209e-04	
793	-6.40000e+00	1.323605e-04	
794	-6.45000e+00	1.324000e-04	
795	-6.50000e+00	1.324394e-04	
796	-6.55000e+00	1.324788e-04	
797	-6.60000e+00	1.325180e-04	
Note: No ".plot", ".print", or ".fourier" lines; no simulations run
