
Note: Compatibility modes selected: hs

Warning: m=xx on .subckt line will override multiplier m hierarchy!


Circuit: ***************************

Doing analysis at TEMP = 25.000000 and TNOM = 25.000000


No. of Data Rows : 798
                          ***************************
                          DC transfer characteristic  Mon Jan  9 13:57:53  2023
--------------------------------------------------------------------------------
Index   v-sweep         i(vds)          
--------------------------------------------------------------------------------
0	0.000000e+00	0.000000e+00	
1	-5.00000e-02	2.292962e-08	
2	-1.00000e-01	3.418305e-08	
3	-1.50000e-01	3.758378e-08	
4	-2.00000e-01	3.836721e-08	
5	-2.50000e-01	3.861447e-08	
6	-3.00000e-01	3.873158e-08	
7	-3.50000e-01	3.880490e-08	
8	-4.00000e-01	3.885924e-08	
9	-4.50000e-01	3.890372e-08	
10	-5.00000e-01	3.894233e-08	
11	-5.50000e-01	3.897708e-08	
12	-6.00000e-01	3.900908e-08	
13	-6.50000e-01	3.903902e-08	
14	-7.00000e-01	3.906733e-08	
15	-7.50000e-01	3.909431e-08	
16	-8.00000e-01	3.912019e-08	
17	-8.50000e-01	3.914513e-08	
18	-9.00000e-01	3.916924e-08	
19	-9.50000e-01	3.919264e-08	
20	-1.00000e+00	3.921540e-08	
21	-1.05000e+00	3.923758e-08	
22	-1.10000e+00	3.925925e-08	
23	-1.15000e+00	3.928044e-08	
24	-1.20000e+00	3.930121e-08	
25	-1.25000e+00	3.932158e-08	
26	-1.30000e+00	3.934158e-08	
27	-1.35000e+00	3.936125e-08	
28	-1.40000e+00	3.938060e-08	
29	-1.45000e+00	3.939966e-08	
30	-1.50000e+00	3.941845e-08	
31	-1.55000e+00	3.943698e-08	
32	-1.60000e+00	3.945526e-08	
33	-1.65000e+00	3.947332e-08	
34	-1.70000e+00	3.949117e-08	
35	-1.75000e+00	3.950881e-08	
36	-1.80000e+00	3.952626e-08	
37	-1.85000e+00	3.954353e-08	
38	-1.90000e+00	3.956063e-08	
39	-1.95000e+00	3.957757e-08	
40	-2.00000e+00	3.959434e-08	
41	-2.05000e+00	3.961097e-08	
42	-2.10000e+00	3.962746e-08	
43	-2.15000e+00	3.964381e-08	
44	-2.20000e+00	3.966003e-08	
45	-2.25000e+00	3.967612e-08	
46	-2.30000e+00	3.969210e-08	
47	-2.35000e+00	3.970796e-08	
48	-2.40000e+00	3.972372e-08	
49	-2.45000e+00	3.973936e-08	
50	-2.50000e+00	3.975491e-08	
51	-2.55000e+00	3.977036e-08	
52	-2.60000e+00	3.978572e-08	
53	-2.65000e+00	3.980098e-08	
54	-2.70000e+00	3.981616e-08	

Index   v-sweep         i(vds)          
--------------------------------------------------------------------------------
55	-2.75000e+00	3.983126e-08	
56	-2.80000e+00	3.984628e-08	
57	-2.85000e+00	3.986122e-08	
58	-2.90000e+00	3.987610e-08	
59	-2.95000e+00	3.989090e-08	
60	-3.00000e+00	3.990564e-08	
61	-3.05000e+00	3.992033e-08	
62	-3.10000e+00	3.993496e-08	
63	-3.15000e+00	3.994955e-08	
64	-3.20000e+00	3.996410e-08	
65	-3.25000e+00	3.997861e-08	
66	-3.30000e+00	3.999310e-08	
67	-3.35000e+00	4.000758e-08	
68	-3.40000e+00	4.002205e-08	
69	-3.45000e+00	4.003654e-08	
70	-3.50000e+00	4.005106e-08	
71	-3.55000e+00	4.006562e-08	
72	-3.60000e+00	4.008024e-08	
73	-3.65000e+00	4.009495e-08	
74	-3.70000e+00	4.010977e-08	
75	-3.75000e+00	4.012474e-08	
76	-3.80000e+00	4.013988e-08	
77	-3.85000e+00	4.015523e-08	
78	-3.90000e+00	4.017083e-08	
79	-3.95000e+00	4.018673e-08	
80	-4.00000e+00	4.020298e-08	
81	-4.05000e+00	4.021964e-08	
82	-4.10000e+00	4.023676e-08	
83	-4.15000e+00	4.025443e-08	
84	-4.20000e+00	4.027270e-08	
85	-4.25000e+00	4.029168e-08	
86	-4.30000e+00	4.031143e-08	
87	-4.35000e+00	4.033208e-08	
88	-4.40000e+00	4.035372e-08	
89	-4.45000e+00	4.037646e-08	
90	-4.50000e+00	4.040044e-08	
91	-4.55000e+00	4.042579e-08	
92	-4.60000e+00	4.045264e-08	
93	-4.65000e+00	4.048117e-08	
94	-4.70000e+00	4.051153e-08	
95	-4.75000e+00	4.054391e-08	
96	-4.80000e+00	4.057848e-08	
97	-4.85000e+00	4.061546e-08	
98	-4.90000e+00	4.065505e-08	
99	-4.95000e+00	4.069748e-08	
100	-5.00000e+00	4.074299e-08	
101	-5.05000e+00	4.079184e-08	
102	-5.10000e+00	4.084428e-08	
103	-5.15000e+00	4.090060e-08	
104	-5.20000e+00	4.096110e-08	
105	-5.25000e+00	4.102607e-08	
106	-5.30000e+00	4.109585e-08	
107	-5.35000e+00	4.117077e-08	
108	-5.40000e+00	4.125118e-08	
109	-5.45000e+00	4.133744e-08	
110	-5.50000e+00	4.142996e-08	
111	-5.55000e+00	4.152911e-08	
112	-5.60000e+00	4.163531e-08	

Index   v-sweep         i(vds)          
--------------------------------------------------------------------------------
113	-5.65000e+00	4.174900e-08	
114	-5.70000e+00	4.187062e-08	
115	-5.75000e+00	4.200062e-08	
116	-5.80000e+00	4.213948e-08	
117	-5.85000e+00	4.228770e-08	
118	-5.90000e+00	4.244578e-08	
119	-5.95000e+00	4.261424e-08	
120	-6.00000e+00	4.279363e-08	
121	-6.05000e+00	4.298449e-08	
122	-6.10000e+00	4.318740e-08	
123	-6.15000e+00	4.340294e-08	
124	-6.20000e+00	4.363170e-08	
125	-6.25000e+00	4.387432e-08	
126	-6.30000e+00	4.413140e-08	
127	-6.35000e+00	4.440361e-08	
128	-6.40000e+00	4.469160e-08	
129	-6.45000e+00	4.499604e-08	
130	-6.50000e+00	4.531762e-08	
131	-6.55000e+00	4.565705e-08	
132	-6.60000e+00	4.601504e-08	
133	0.000000e+00	0.000000e+00	
134	-5.00000e-02	2.474652e-07	
135	-1.00000e-01	4.790302e-07	
136	-1.50000e-01	6.947165e-07	
137	-2.00000e-01	8.945465e-07	
138	-2.50000e-01	1.078544e-06	
139	-3.00000e-01	1.246736e-06	
140	-3.50000e-01	1.399153e-06	
141	-4.00000e-01	1.535832e-06	
142	-4.50000e-01	1.656823e-06	
143	-5.00000e-01	1.762195e-06	
144	-5.50000e-01	1.852058e-06	
145	-6.00000e-01	1.926597e-06	
146	-6.50000e-01	1.986151e-06	
147	-7.00000e-01	2.031375e-06	
148	-7.50000e-01	2.063508e-06	
149	-8.00000e-01	2.084684e-06	
150	-8.50000e-01	2.097844e-06	
151	-9.00000e-01	2.105968e-06	
152	-9.50000e-01	2.111266e-06	
153	-1.00000e+00	2.115036e-06	
154	-1.05000e+00	2.117957e-06	
155	-1.10000e+00	2.120377e-06	
156	-1.15000e+00	2.122480e-06	
157	-1.20000e+00	2.124369e-06	
158	-1.25000e+00	2.126103e-06	
159	-1.30000e+00	2.127721e-06	
160	-1.35000e+00	2.129248e-06	
161	-1.40000e+00	2.130701e-06	
162	-1.45000e+00	2.132092e-06	
163	-1.50000e+00	2.133430e-06	
164	-1.55000e+00	2.134723e-06	
165	-1.60000e+00	2.135977e-06	
166	-1.65000e+00	2.137195e-06	
167	-1.70000e+00	2.138382e-06	
168	-1.75000e+00	2.139541e-06	
169	-1.80000e+00	2.140673e-06	
170	-1.85000e+00	2.141783e-06	

Index   v-sweep         i(vds)          
--------------------------------------------------------------------------------
171	-1.90000e+00	2.142870e-06	
172	-1.95000e+00	2.143938e-06	
173	-2.00000e+00	2.144988e-06	
174	-2.05000e+00	2.146020e-06	
175	-2.10000e+00	2.147037e-06	
176	-2.15000e+00	2.148038e-06	
177	-2.20000e+00	2.149026e-06	
178	-2.25000e+00	2.150001e-06	
179	-2.30000e+00	2.150963e-06	
180	-2.35000e+00	2.151914e-06	
181	-2.40000e+00	2.152854e-06	
182	-2.45000e+00	2.153784e-06	
183	-2.50000e+00	2.154704e-06	
184	-2.55000e+00	2.155614e-06	
185	-2.60000e+00	2.156516e-06	
186	-2.65000e+00	2.157409e-06	
187	-2.70000e+00	2.158294e-06	
188	-2.75000e+00	2.159172e-06	
189	-2.80000e+00	2.160042e-06	
190	-2.85000e+00	2.160905e-06	
191	-2.90000e+00	2.161762e-06	
192	-2.95000e+00	2.162612e-06	
193	-3.00000e+00	2.163456e-06	
194	-3.05000e+00	2.164294e-06	
195	-3.10000e+00	2.165126e-06	
196	-3.15000e+00	2.165953e-06	
197	-3.20000e+00	2.166775e-06	
198	-3.25000e+00	2.167592e-06	
199	-3.30000e+00	2.168404e-06	
200	-3.35000e+00	2.169211e-06	
201	-3.40000e+00	2.170014e-06	
202	-3.45000e+00	2.170813e-06	
203	-3.50000e+00	2.171607e-06	
204	-3.55000e+00	2.172398e-06	
205	-3.60000e+00	2.173185e-06	
206	-3.65000e+00	2.173968e-06	
207	-3.70000e+00	2.174749e-06	
208	-3.75000e+00	2.175526e-06	
209	-3.80000e+00	2.176301e-06	
210	-3.85000e+00	2.177074e-06	
211	-3.90000e+00	2.177844e-06	
212	-3.95000e+00	2.178613e-06	
213	-4.00000e+00	2.179381e-06	
214	-4.05000e+00	2.180149e-06	
215	-4.10000e+00	2.180916e-06	
216	-4.15000e+00	2.181685e-06	
217	-4.20000e+00	2.182455e-06	
218	-4.25000e+00	2.183229e-06	
219	-4.30000e+00	2.184006e-06	
220	-4.35000e+00	2.184788e-06	
221	-4.40000e+00	2.185577e-06	
222	-4.45000e+00	2.186374e-06	
223	-4.50000e+00	2.187181e-06	
224	-4.55000e+00	2.188000e-06	
225	-4.60000e+00	2.188833e-06	
226	-4.65000e+00	2.189684e-06	
227	-4.70000e+00	2.190554e-06	
228	-4.75000e+00	2.191447e-06	

Index   v-sweep         i(vds)          
--------------------------------------------------------------------------------
229	-4.80000e+00	2.192367e-06	
230	-4.85000e+00	2.193316e-06	
231	-4.90000e+00	2.194301e-06	
232	-4.95000e+00	2.195324e-06	
233	-5.00000e+00	2.196391e-06	
234	-5.05000e+00	2.197508e-06	
235	-5.10000e+00	2.198681e-06	
236	-5.15000e+00	2.199915e-06	
237	-5.20000e+00	2.201218e-06	
238	-5.25000e+00	2.202598e-06	
239	-5.30000e+00	2.204061e-06	
240	-5.35000e+00	2.205618e-06	
241	-5.40000e+00	2.207276e-06	
242	-5.45000e+00	2.209047e-06	
243	-5.50000e+00	2.210940e-06	
244	-5.55000e+00	2.212966e-06	
245	-5.60000e+00	2.215137e-06	
246	-5.65000e+00	2.217466e-06	
247	-5.70000e+00	2.219965e-06	
248	-5.75000e+00	2.222650e-06	
249	-5.80000e+00	2.225533e-06	
250	-5.85000e+00	2.228631e-06	
251	-5.90000e+00	2.231960e-06	
252	-5.95000e+00	2.235537e-06	
253	-6.00000e+00	2.239380e-06	
254	-6.05000e+00	2.243506e-06	
255	-6.10000e+00	2.247936e-06	
256	-6.15000e+00	2.252689e-06	
257	-6.20000e+00	2.257788e-06	
258	-6.25000e+00	2.263252e-06	
259	-6.30000e+00	2.269106e-06	
260	-6.35000e+00	2.275372e-06	
261	-6.40000e+00	2.282076e-06	
262	-6.45000e+00	2.289241e-06	
263	-6.50000e+00	2.296895e-06	
264	-6.55000e+00	2.305064e-06	
265	-6.60000e+00	2.313777e-06	
266	0.000000e+00	0.000000e+00	
267	-5.00000e-02	4.405719e-07	
268	-1.00000e-01	8.662494e-07	
269	-1.50000e-01	1.277049e-06	
270	-2.00000e-01	1.672986e-06	
271	-2.50000e-01	2.054078e-06	
272	-3.00000e-01	2.420342e-06	
273	-3.50000e-01	2.771793e-06	
274	-4.00000e-01	3.108449e-06	
275	-4.50000e-01	3.430326e-06	
276	-5.00000e-01	3.737442e-06	
277	-5.50000e-01	4.029813e-06	
278	-6.00000e-01	4.307459e-06	
279	-6.50000e-01	4.570398e-06	
280	-7.00000e-01	4.818648e-06	
281	-7.50000e-01	5.052231e-06	
282	-8.00000e-01	5.271167e-06	
283	-8.50000e-01	5.475481e-06	
284	-9.00000e-01	5.665199e-06	
285	-9.50000e-01	5.840353e-06	
286	-1.00000e+00	6.000979e-06	

Index   v-sweep         i(vds)          
--------------------------------------------------------------------------------
287	-1.05000e+00	6.147126e-06	
288	-1.10000e+00	6.278855e-06	
289	-1.15000e+00	6.396252e-06	
290	-1.20000e+00	6.499444e-06	
291	-1.25000e+00	6.588623e-06	
292	-1.30000e+00	6.664091e-06	
293	-1.35000e+00	6.726335e-06	
294	-1.40000e+00	6.776132e-06	
295	-1.45000e+00	6.814675e-06	
296	-1.50000e+00	6.843636e-06	
297	-1.55000e+00	6.865044e-06	
298	-1.60000e+00	6.880967e-06	
299	-1.65000e+00	6.893157e-06	
300	-1.70000e+00	6.902896e-06	
301	-1.75000e+00	6.911026e-06	
302	-1.80000e+00	6.918077e-06	
303	-1.85000e+00	6.924377e-06	
304	-1.90000e+00	6.930134e-06	
305	-1.95000e+00	6.935481e-06	
306	-2.00000e+00	6.940509e-06	
307	-2.05000e+00	6.945278e-06	
308	-2.10000e+00	6.949835e-06	
309	-2.15000e+00	6.954212e-06	
310	-2.20000e+00	6.958435e-06	
311	-2.25000e+00	6.962523e-06	
312	-2.30000e+00	6.966493e-06	
313	-2.35000e+00	6.970357e-06	
314	-2.40000e+00	6.974126e-06	
315	-2.45000e+00	6.977810e-06	
316	-2.50000e+00	6.981416e-06	
317	-2.55000e+00	6.984949e-06	
318	-2.60000e+00	6.988418e-06	
319	-2.65000e+00	6.991825e-06	
320	-2.70000e+00	6.995176e-06	
321	-2.75000e+00	6.998475e-06	
322	-2.80000e+00	7.001725e-06	
323	-2.85000e+00	7.004929e-06	
324	-2.90000e+00	7.008090e-06	
325	-2.95000e+00	7.011211e-06	
326	-3.00000e+00	7.014295e-06	
327	-3.05000e+00	7.017342e-06	
328	-3.10000e+00	7.020355e-06	
329	-3.15000e+00	7.023337e-06	
330	-3.20000e+00	7.026288e-06	
331	-3.25000e+00	7.029210e-06	
332	-3.30000e+00	7.032105e-06	
333	-3.35000e+00	7.034973e-06	
334	-3.40000e+00	7.037817e-06	
335	-3.45000e+00	7.040637e-06	
336	-3.50000e+00	7.043434e-06	
337	-3.55000e+00	7.046209e-06	
338	-3.60000e+00	7.048964e-06	
339	-3.65000e+00	7.051698e-06	
340	-3.70000e+00	7.054413e-06	
341	-3.75000e+00	7.057110e-06	
342	-3.80000e+00	7.059790e-06	
343	-3.85000e+00	7.062452e-06	
344	-3.90000e+00	7.065098e-06	

Index   v-sweep         i(vds)          
--------------------------------------------------------------------------------
345	-3.95000e+00	7.067728e-06	
346	-4.00000e+00	7.070343e-06	
347	-4.05000e+00	7.072944e-06	
348	-4.10000e+00	7.075531e-06	
349	-4.15000e+00	7.078104e-06	
350	-4.20000e+00	7.080665e-06	
351	-4.25000e+00	7.083214e-06	
352	-4.30000e+00	7.085751e-06	
353	-4.35000e+00	7.088277e-06	
354	-4.40000e+00	7.090794e-06	
355	-4.45000e+00	7.093301e-06	
356	-4.50000e+00	7.095801e-06	
357	-4.55000e+00	7.098293e-06	
358	-4.60000e+00	7.100779e-06	
359	-4.65000e+00	7.103260e-06	
360	-4.70000e+00	7.105739e-06	
361	-4.75000e+00	7.108216e-06	
362	-4.80000e+00	7.110695e-06	
363	-4.85000e+00	7.113176e-06	
364	-4.90000e+00	7.115664e-06	
365	-4.95000e+00	7.118161e-06	
366	-5.00000e+00	7.120670e-06	
367	-5.05000e+00	7.123197e-06	
368	-5.10000e+00	7.125745e-06	
369	-5.15000e+00	7.128320e-06	
370	-5.20000e+00	7.130928e-06	
371	-5.25000e+00	7.133575e-06	
372	-5.30000e+00	7.136269e-06	
373	-5.35000e+00	7.139018e-06	
374	-5.40000e+00	7.141832e-06	
375	-5.45000e+00	7.144720e-06	
376	-5.50000e+00	7.147694e-06	
377	-5.55000e+00	7.150766e-06	
378	-5.60000e+00	7.153951e-06	
379	-5.65000e+00	7.157262e-06	
380	-5.70000e+00	7.160717e-06	
381	-5.75000e+00	7.164333e-06	
382	-5.80000e+00	7.168129e-06	
383	-5.85000e+00	7.172126e-06	
384	-5.90000e+00	7.176347e-06	
385	-5.95000e+00	7.180815e-06	
386	-6.00000e+00	7.185557e-06	
387	-6.05000e+00	7.190601e-06	
388	-6.10000e+00	7.195977e-06	
389	-6.15000e+00	7.201715e-06	
390	-6.20000e+00	7.207852e-06	
391	-6.25000e+00	7.214421e-06	
392	-6.30000e+00	7.221462e-06	
393	-6.35000e+00	7.229015e-06	
394	-6.40000e+00	7.237123e-06	
395	-6.45000e+00	7.245831e-06	
396	-6.50000e+00	7.255187e-06	
397	-6.55000e+00	7.265240e-06	
398	-6.60000e+00	7.276044e-06	
399	0.000000e+00	0.000000e+00	
400	-5.00000e-02	6.048377e-07	
401	-1.00000e-01	1.195843e-06	
402	-1.50000e-01	1.773029e-06	

Index   v-sweep         i(vds)          
--------------------------------------------------------------------------------
403	-2.00000e-01	2.336410e-06	
404	-2.50000e-01	2.886000e-06	
405	-3.00000e-01	3.421813e-06	
406	-3.50000e-01	3.943862e-06	
407	-4.00000e-01	4.452163e-06	
408	-4.50000e-01	4.946729e-06	
409	-5.00000e-01	5.427573e-06	
410	-5.50000e-01	5.894710e-06	
411	-6.00000e-01	6.348153e-06	
412	-6.50000e-01	6.787918e-06	
413	-7.00000e-01	7.214017e-06	
414	-7.50000e-01	7.626466e-06	
415	-8.00000e-01	8.025278e-06	
416	-8.50000e-01	8.410467e-06	
417	-9.00000e-01	8.782049e-06	
418	-9.50000e-01	9.140037e-06	
419	-1.00000e+00	9.484446e-06	
420	-1.05000e+00	9.815293e-06	
421	-1.10000e+00	1.013259e-05	
422	-1.15000e+00	1.043636e-05	
423	-1.20000e+00	1.072660e-05	
424	-1.25000e+00	1.100335e-05	
425	-1.30000e+00	1.126662e-05	
426	-1.35000e+00	1.151642e-05	
427	-1.40000e+00	1.175278e-05	
428	-1.45000e+00	1.197572e-05	
429	-1.50000e+00	1.218525e-05	
430	-1.55000e+00	1.238142e-05	
431	-1.60000e+00	1.256425e-05	
432	-1.65000e+00	1.273377e-05	
433	-1.70000e+00	1.289004e-05	
434	-1.75000e+00	1.303312e-05	
435	-1.80000e+00	1.316309e-05	
436	-1.85000e+00	1.328005e-05	
437	-1.90000e+00	1.338418e-05	
438	-1.95000e+00	1.347568e-05	
439	-2.00000e+00	1.355491e-05	
440	-2.05000e+00	1.362233e-05	
441	-2.10000e+00	1.367868e-05	
442	-2.15000e+00	1.372492e-05	
443	-2.20000e+00	1.376235e-05	
444	-2.25000e+00	1.379248e-05	
445	-2.30000e+00	1.381686e-05	
446	-2.35000e+00	1.383695e-05	
447	-2.40000e+00	1.385391e-05	
448	-2.45000e+00	1.386862e-05	
449	-2.50000e+00	1.388171e-05	
450	-2.55000e+00	1.389360e-05	
451	-2.60000e+00	1.390458e-05	
452	-2.65000e+00	1.391486e-05	
453	-2.70000e+00	1.392458e-05	
454	-2.75000e+00	1.393383e-05	
455	-2.80000e+00	1.394270e-05	
456	-2.85000e+00	1.395123e-05	
457	-2.90000e+00	1.395949e-05	
458	-2.95000e+00	1.396749e-05	
459	-3.00000e+00	1.397527e-05	
460	-3.05000e+00	1.398285e-05	

Index   v-sweep         i(vds)          
--------------------------------------------------------------------------------
461	-3.10000e+00	1.399026e-05	
462	-3.15000e+00	1.399750e-05	
463	-3.20000e+00	1.400460e-05	
464	-3.25000e+00	1.401156e-05	
465	-3.30000e+00	1.401839e-05	
466	-3.35000e+00	1.402511e-05	
467	-3.40000e+00	1.403172e-05	
468	-3.45000e+00	1.403823e-05	
469	-3.50000e+00	1.404465e-05	
470	-3.55000e+00	1.405098e-05	
471	-3.60000e+00	1.405723e-05	
472	-3.65000e+00	1.406341e-05	
473	-3.70000e+00	1.406951e-05	
474	-3.75000e+00	1.407554e-05	
475	-3.80000e+00	1.408150e-05	
476	-3.85000e+00	1.408741e-05	
477	-3.90000e+00	1.409325e-05	
478	-3.95000e+00	1.409904e-05	
479	-4.00000e+00	1.410478e-05	
480	-4.05000e+00	1.411047e-05	
481	-4.10000e+00	1.411610e-05	
482	-4.15000e+00	1.412170e-05	
483	-4.20000e+00	1.412724e-05	
484	-4.25000e+00	1.413275e-05	
485	-4.30000e+00	1.413822e-05	
486	-4.35000e+00	1.414365e-05	
487	-4.40000e+00	1.414904e-05	
488	-4.45000e+00	1.415439e-05	
489	-4.50000e+00	1.415971e-05	
490	-4.55000e+00	1.416500e-05	
491	-4.60000e+00	1.417026e-05	
492	-4.65000e+00	1.417548e-05	
493	-4.70000e+00	1.418068e-05	
494	-4.75000e+00	1.418585e-05	
495	-4.80000e+00	1.419099e-05	
496	-4.85000e+00	1.419611e-05	
497	-4.90000e+00	1.420120e-05	
498	-4.95000e+00	1.420626e-05	
499	-5.00000e+00	1.421131e-05	
500	-5.05000e+00	1.421633e-05	
501	-5.10000e+00	1.422134e-05	
502	-5.15000e+00	1.422633e-05	
503	-5.20000e+00	1.423130e-05	
504	-5.25000e+00	1.423626e-05	
505	-5.30000e+00	1.424120e-05	
506	-5.35000e+00	1.424614e-05	
507	-5.40000e+00	1.425107e-05	
508	-5.45000e+00	1.425600e-05	
509	-5.50000e+00	1.426093e-05	
510	-5.55000e+00	1.426586e-05	
511	-5.60000e+00	1.427081e-05	
512	-5.65000e+00	1.427578e-05	
513	-5.70000e+00	1.428077e-05	
514	-5.75000e+00	1.428579e-05	
515	-5.80000e+00	1.429085e-05	
516	-5.85000e+00	1.429597e-05	
517	-5.90000e+00	1.430115e-05	
518	-5.95000e+00	1.430641e-05	

Index   v-sweep         i(vds)          
--------------------------------------------------------------------------------
519	-6.00000e+00	1.431175e-05	
520	-6.05000e+00	1.431721e-05	
521	-6.10000e+00	1.432279e-05	
522	-6.15000e+00	1.432852e-05	
523	-6.20000e+00	1.433441e-05	
524	-6.25000e+00	1.434050e-05	
525	-6.30000e+00	1.434680e-05	
526	-6.35000e+00	1.435335e-05	
527	-6.40000e+00	1.436019e-05	
528	-6.45000e+00	1.436734e-05	
529	-6.50000e+00	1.437484e-05	
530	-6.55000e+00	1.438274e-05	
531	-6.60000e+00	1.439107e-05	
532	0.000000e+00	0.000000e+00	
533	-5.00000e-02	7.461310e-07	
534	-1.00000e-01	1.479406e-06	
535	-1.50000e-01	2.199836e-06	
536	-2.00000e-01	2.907435e-06	
537	-2.50000e-01	3.602213e-06	
538	-3.00000e-01	4.284183e-06	
539	-3.50000e-01	4.953358e-06	
540	-4.00000e-01	5.609749e-06	
541	-4.50000e-01	6.253369e-06	
542	-5.00000e-01	6.884229e-06	
543	-5.50000e-01	7.502341e-06	
544	-6.00000e-01	8.107718e-06	
545	-6.50000e-01	8.700372e-06	
546	-7.00000e-01	9.280314e-06	
547	-7.50000e-01	9.847557e-06	
548	-8.00000e-01	1.040211e-05	
549	-8.50000e-01	1.094399e-05	
550	-9.00000e-01	1.147321e-05	
551	-9.50000e-01	1.198978e-05	
552	-1.00000e+00	1.249371e-05	
553	-1.05000e+00	1.298501e-05	
554	-1.10000e+00	1.346369e-05	
555	-1.15000e+00	1.392978e-05	
556	-1.20000e+00	1.438327e-05	
557	-1.25000e+00	1.482419e-05	
558	-1.30000e+00	1.525254e-05	
559	-1.35000e+00	1.566834e-05	
560	-1.40000e+00	1.607160e-05	
561	-1.45000e+00	1.646233e-05	
562	-1.50000e+00	1.684054e-05	
563	-1.55000e+00	1.720625e-05	
564	-1.60000e+00	1.755948e-05	
565	-1.65000e+00	1.790022e-05	
566	-1.70000e+00	1.822851e-05	
567	-1.75000e+00	1.854434e-05	
568	-1.80000e+00	1.884774e-05	
569	-1.85000e+00	1.913872e-05	
570	-1.90000e+00	1.941730e-05	
571	-1.95000e+00	1.968349e-05	
572	-2.00000e+00	1.993731e-05	
573	-2.05000e+00	2.017878e-05	
574	-2.10000e+00	2.040792e-05	
575	-2.15000e+00	2.062475e-05	
576	-2.20000e+00	2.082929e-05	

Index   v-sweep         i(vds)          
--------------------------------------------------------------------------------
577	-2.25000e+00	2.102159e-05	
578	-2.30000e+00	2.120166e-05	
579	-2.35000e+00	2.136956e-05	
580	-2.40000e+00	2.152534e-05	
581	-2.45000e+00	2.166907e-05	
582	-2.50000e+00	2.180084e-05	
583	-2.55000e+00	2.192075e-05	
584	-2.60000e+00	2.202899e-05	
585	-2.65000e+00	2.212575e-05	
586	-2.70000e+00	2.221137e-05	
587	-2.75000e+00	2.228626e-05	
588	-2.80000e+00	2.235101e-05	
589	-2.85000e+00	2.240640e-05	
590	-2.90000e+00	2.245342e-05	
591	-2.95000e+00	2.249320e-05	
592	-3.00000e+00	2.252698e-05	
593	-3.05000e+00	2.255598e-05	
594	-3.10000e+00	2.258125e-05	
595	-3.15000e+00	2.260367e-05	
596	-3.20000e+00	2.262393e-05	
597	-3.25000e+00	2.264252e-05	
598	-3.30000e+00	2.265981e-05	
599	-3.35000e+00	2.267607e-05	
600	-3.40000e+00	2.269149e-05	
601	-3.45000e+00	2.270621e-05	
602	-3.50000e+00	2.272034e-05	
603	-3.55000e+00	2.273397e-05	
604	-3.60000e+00	2.274717e-05	
605	-3.65000e+00	2.275997e-05	
606	-3.70000e+00	2.277244e-05	
607	-3.75000e+00	2.278460e-05	
608	-3.80000e+00	2.279648e-05	
609	-3.85000e+00	2.280811e-05	
610	-3.90000e+00	2.281951e-05	
611	-3.95000e+00	2.283070e-05	
612	-4.00000e+00	2.284169e-05	
613	-4.05000e+00	2.285250e-05	
614	-4.10000e+00	2.286314e-05	
615	-4.15000e+00	2.287363e-05	
616	-4.20000e+00	2.288397e-05	
617	-4.25000e+00	2.289417e-05	
618	-4.30000e+00	2.290424e-05	
619	-4.35000e+00	2.291419e-05	
620	-4.40000e+00	2.292403e-05	
621	-4.45000e+00	2.293376e-05	
622	-4.50000e+00	2.294338e-05	
623	-4.55000e+00	2.295291e-05	
624	-4.60000e+00	2.296235e-05	
625	-4.65000e+00	2.297170e-05	
626	-4.70000e+00	2.298096e-05	
627	-4.75000e+00	2.299015e-05	
628	-4.80000e+00	2.299925e-05	
629	-4.85000e+00	2.300829e-05	
630	-4.90000e+00	2.301726e-05	
631	-4.95000e+00	2.302616e-05	
632	-5.00000e+00	2.303499e-05	
633	-5.05000e+00	2.304377e-05	
634	-5.10000e+00	2.305248e-05	

Index   v-sweep         i(vds)          
--------------------------------------------------------------------------------
635	-5.15000e+00	2.306114e-05	
636	-5.20000e+00	2.306975e-05	
637	-5.25000e+00	2.307830e-05	
638	-5.30000e+00	2.308680e-05	
639	-5.35000e+00	2.309526e-05	
640	-5.40000e+00	2.310367e-05	
641	-5.45000e+00	2.311203e-05	
642	-5.50000e+00	2.312035e-05	
643	-5.55000e+00	2.312863e-05	
644	-5.60000e+00	2.313687e-05	
645	-5.65000e+00	2.314507e-05	
646	-5.70000e+00	2.315324e-05	
647	-5.75000e+00	2.316138e-05	
648	-5.80000e+00	2.316948e-05	
649	-5.85000e+00	2.317755e-05	
650	-5.90000e+00	2.318560e-05	
651	-5.95000e+00	2.319362e-05	
652	-6.00000e+00	2.320163e-05	
653	-6.05000e+00	2.320962e-05	
654	-6.10000e+00	2.321760e-05	
655	-6.15000e+00	2.322557e-05	
656	-6.20000e+00	2.323354e-05	
657	-6.25000e+00	2.324152e-05	
658	-6.30000e+00	2.324952e-05	
659	-6.35000e+00	2.325754e-05	
660	-6.40000e+00	2.326560e-05	
661	-6.45000e+00	2.327371e-05	
662	-6.50000e+00	2.328188e-05	
663	-6.55000e+00	2.329013e-05	
664	-6.60000e+00	2.329847e-05	
665	0.000000e+00	0.000000e+00	
666	-5.00000e-02	8.688730e-07	
667	-1.00000e-01	1.725769e-06	
668	-1.50000e-01	2.570699e-06	
669	-2.00000e-01	3.403674e-06	
670	-2.50000e-01	4.224704e-06	
671	-3.00000e-01	5.033799e-06	
672	-3.50000e-01	5.830972e-06	
673	-4.00000e-01	6.616231e-06	
674	-4.50000e-01	7.389587e-06	
675	-5.00000e-01	8.151052e-06	
676	-5.50000e-01	8.900636e-06	
677	-6.00000e-01	9.638349e-06	
678	-6.50000e-01	1.036420e-05	
679	-7.00000e-01	1.107820e-05	
680	-7.50000e-01	1.178037e-05	
681	-8.00000e-01	1.247070e-05	
682	-8.50000e-01	1.314922e-05	
683	-9.00000e-01	1.381593e-05	
684	-9.50000e-01	1.447085e-05	
685	-1.00000e+00	1.511397e-05	
686	-1.05000e+00	1.574532e-05	
687	-1.10000e+00	1.636491e-05	
688	-1.15000e+00	1.697274e-05	
689	-1.20000e+00	1.756883e-05	
690	-1.25000e+00	1.815318e-05	
691	-1.30000e+00	1.872581e-05	
692	-1.35000e+00	1.928673e-05	

Index   v-sweep         i(vds)          
--------------------------------------------------------------------------------
693	-1.40000e+00	1.983594e-05	
694	-1.45000e+00	2.037346e-05	
695	-1.50000e+00	2.089931e-05	
696	-1.55000e+00	2.141348e-05	
697	-1.60000e+00	2.191599e-05	
698	-1.65000e+00	2.240685e-05	
699	-1.70000e+00	2.288608e-05	
700	-1.75000e+00	2.335367e-05	
701	-1.80000e+00	2.380965e-05	
702	-1.85000e+00	2.425402e-05	
703	-1.90000e+00	2.468680e-05	
704	-1.95000e+00	2.510799e-05	
705	-2.00000e+00	2.551761e-05	
706	-2.05000e+00	2.591567e-05	
707	-2.10000e+00	2.630218e-05	
708	-2.15000e+00	2.667714e-05	
709	-2.20000e+00	2.704058e-05	
710	-2.25000e+00	2.739250e-05	
711	-2.30000e+00	2.773292e-05	
712	-2.35000e+00	2.806184e-05	
713	-2.40000e+00	2.837929e-05	
714	-2.45000e+00	2.868527e-05	
715	-2.50000e+00	2.897979e-05	
716	-2.55000e+00	2.926288e-05	
717	-2.60000e+00	2.953454e-05	
718	-2.65000e+00	2.979480e-05	
719	-2.70000e+00	3.004366e-05	
720	-2.75000e+00	3.028116e-05	
721	-2.80000e+00	3.050730e-05	
722	-2.85000e+00	3.072212e-05	
723	-2.90000e+00	3.092563e-05	
724	-2.95000e+00	3.111787e-05	
725	-3.00000e+00	3.129888e-05	
726	-3.05000e+00	3.146870e-05	
727	-3.10000e+00	3.162739e-05	
728	-3.15000e+00	3.177500e-05	
729	-3.20000e+00	3.191163e-05	
730	-3.25000e+00	3.203740e-05	
731	-3.30000e+00	3.215243e-05	
732	-3.35000e+00	3.225694e-05	
733	-3.40000e+00	3.235119e-05	
734	-3.45000e+00	3.243551e-05	
735	-3.50000e+00	3.251037e-05	
736	-3.55000e+00	3.257637e-05	
737	-3.60000e+00	3.263423e-05	
738	-3.65000e+00	3.268485e-05	
739	-3.70000e+00	3.272919e-05	
740	-3.75000e+00	3.276825e-05	
741	-3.80000e+00	3.280300e-05	
742	-3.85000e+00	3.283429e-05	
743	-3.90000e+00	3.286283e-05	
744	-3.95000e+00	3.288919e-05	
745	-4.00000e+00	3.291380e-05	
746	-4.05000e+00	3.293701e-05	
747	-4.10000e+00	3.295905e-05	
748	-4.15000e+00	3.298013e-05	
749	-4.20000e+00	3.300039e-05	
750	-4.25000e+00	3.301994e-05	

Index   v-sweep         i(vds)          
--------------------------------------------------------------------------------
751	-4.30000e+00	3.303888e-05	
752	-4.35000e+00	3.305727e-05	
753	-4.40000e+00	3.307518e-05	
754	-4.45000e+00	3.309266e-05	
755	-4.50000e+00	3.310975e-05	
756	-4.55000e+00	3.312648e-05	
757	-4.60000e+00	3.314289e-05	
758	-4.65000e+00	3.315900e-05	
759	-4.70000e+00	3.317483e-05	
760	-4.75000e+00	3.319040e-05	
761	-4.80000e+00	3.320574e-05	
762	-4.85000e+00	3.322085e-05	
763	-4.90000e+00	3.323575e-05	
764	-4.95000e+00	3.325046e-05	
765	-5.00000e+00	3.326499e-05	
766	-5.05000e+00	3.327934e-05	
767	-5.10000e+00	3.329353e-05	
768	-5.15000e+00	3.330757e-05	
769	-5.20000e+00	3.332146e-05	
770	-5.25000e+00	3.333521e-05	
771	-5.30000e+00	3.334883e-05	
772	-5.35000e+00	3.336232e-05	
773	-5.40000e+00	3.337570e-05	
774	-5.45000e+00	3.338896e-05	
775	-5.50000e+00	3.340211e-05	
776	-5.55000e+00	3.341516e-05	
777	-5.60000e+00	3.342811e-05	
778	-5.65000e+00	3.344096e-05	
779	-5.70000e+00	3.345373e-05	
780	-5.75000e+00	3.346641e-05	
781	-5.80000e+00	3.347900e-05	
782	-5.85000e+00	3.349151e-05	
783	-5.90000e+00	3.350395e-05	
784	-5.95000e+00	3.351631e-05	
785	-6.00000e+00	3.352859e-05	
786	-6.05000e+00	3.354081e-05	
787	-6.10000e+00	3.355297e-05	
788	-6.15000e+00	3.356506e-05	
789	-6.20000e+00	3.357708e-05	
790	-6.25000e+00	3.358905e-05	
791	-6.30000e+00	3.360096e-05	
792	-6.35000e+00	3.361282e-05	
793	-6.40000e+00	3.362463e-05	
794	-6.45000e+00	3.363639e-05	
795	-6.50000e+00	3.364810e-05	
796	-6.55000e+00	3.365977e-05	
797	-6.60000e+00	3.367140e-05	
Note: No ".plot", ".print", or ".fourier" lines; no simulations run
