
Note: Compatibility modes selected: hs

Warning: m=xx on .subckt line will override multiplier m hierarchy!


Circuit: ***************************

Doing analysis at TEMP = 125.000000 and TNOM = 125.000000


No. of Data Rows : 798
                          ***************************
                          DC transfer characteristic  Mon Jan  9 13:57:53  2023
--------------------------------------------------------------------------------
Index   v-sweep         i(vds)          
--------------------------------------------------------------------------------
0	0.000000e+00	0.000000e+00	
1	-5.00000e-02	9.036989e-09	
2	-1.00000e-01	1.387344e-08	
3	-1.50000e-01	1.664004e-08	
4	-2.00000e-01	1.799768e-08	
5	-2.50000e-01	1.849877e-08	
6	-3.00000e-01	1.866103e-08	
7	-3.50000e-01	1.872310e-08	
8	-4.00000e-01	1.875389e-08	
9	-4.50000e-01	1.877289e-08	
10	-5.00000e-01	1.878662e-08	
11	-5.50000e-01	1.879762e-08	
12	-6.00000e-01	1.880704e-08	
13	-6.50000e-01	1.881548e-08	
14	-7.00000e-01	1.882325e-08	
15	-7.50000e-01	1.883054e-08	
16	-8.00000e-01	1.883748e-08	
17	-8.50000e-01	1.884413e-08	
18	-9.00000e-01	1.885057e-08	
19	-9.50000e-01	1.885681e-08	
20	-1.00000e+00	1.886291e-08	
21	-1.05000e+00	1.886887e-08	
22	-1.10000e+00	1.887471e-08	
23	-1.15000e+00	1.888045e-08	
24	-1.20000e+00	1.888610e-08	
25	-1.25000e+00	1.889167e-08	
26	-1.30000e+00	1.889717e-08	
27	-1.35000e+00	1.890259e-08	
28	-1.40000e+00	1.890795e-08	
29	-1.45000e+00	1.891326e-08	
30	-1.50000e+00	1.891851e-08	
31	-1.55000e+00	1.892372e-08	
32	-1.60000e+00	1.892888e-08	
33	-1.65000e+00	1.893399e-08	
34	-1.70000e+00	1.893906e-08	
35	-1.75000e+00	1.894410e-08	
36	-1.80000e+00	1.894910e-08	
37	-1.85000e+00	1.895407e-08	
38	-1.90000e+00	1.895900e-08	
39	-1.95000e+00	1.896391e-08	
40	-2.00000e+00	1.896878e-08	
41	-2.05000e+00	1.897363e-08	
42	-2.10000e+00	1.897845e-08	
43	-2.15000e+00	1.898325e-08	
44	-2.20000e+00	1.898802e-08	
45	-2.25000e+00	1.899277e-08	
46	-2.30000e+00	1.899750e-08	
47	-2.35000e+00	1.900221e-08	
48	-2.40000e+00	1.900689e-08	
49	-2.45000e+00	1.901156e-08	
50	-2.50000e+00	1.901621e-08	
51	-2.55000e+00	1.902084e-08	
52	-2.60000e+00	1.902546e-08	
53	-2.65000e+00	1.903005e-08	
54	-2.70000e+00	1.903464e-08	

Index   v-sweep         i(vds)          
--------------------------------------------------------------------------------
55	-2.75000e+00	1.903920e-08	
56	-2.80000e+00	1.904376e-08	
57	-2.85000e+00	1.904830e-08	
58	-2.90000e+00	1.905282e-08	
59	-2.95000e+00	1.905734e-08	
60	-3.00000e+00	1.906184e-08	
61	-3.05000e+00	1.906633e-08	
62	-3.10000e+00	1.907082e-08	
63	-3.15000e+00	1.907529e-08	
64	-3.20000e+00	1.907976e-08	
65	-3.25000e+00	1.908422e-08	
66	-3.30000e+00	1.908868e-08	
67	-3.35000e+00	1.909314e-08	
68	-3.40000e+00	1.909760e-08	
69	-3.45000e+00	1.910206e-08	
70	-3.50000e+00	1.910654e-08	
71	-3.55000e+00	1.911102e-08	
72	-3.60000e+00	1.911552e-08	
73	-3.65000e+00	1.912004e-08	
74	-3.70000e+00	1.912459e-08	
75	-3.75000e+00	1.912918e-08	
76	-3.80000e+00	1.913381e-08	
77	-3.85000e+00	1.913849e-08	
78	-3.90000e+00	1.914324e-08	
79	-3.95000e+00	1.914806e-08	
80	-4.00000e+00	1.915297e-08	
81	-4.05000e+00	1.915798e-08	
82	-4.10000e+00	1.916312e-08	
83	-4.15000e+00	1.916839e-08	
84	-4.20000e+00	1.917382e-08	
85	-4.25000e+00	1.917944e-08	
86	-4.30000e+00	1.918526e-08	
87	-4.35000e+00	1.919131e-08	
88	-4.40000e+00	1.919763e-08	
89	-4.45000e+00	1.920425e-08	
90	-4.50000e+00	1.921120e-08	
91	-4.55000e+00	1.921852e-08	
92	-4.60000e+00	1.922625e-08	
93	-4.65000e+00	1.923444e-08	
94	-4.70000e+00	1.924313e-08	
95	-4.75000e+00	1.925238e-08	
96	-4.80000e+00	1.926225e-08	
97	-4.85000e+00	1.927278e-08	
98	-4.90000e+00	1.928405e-08	
99	-4.95000e+00	1.929613e-08	
100	-5.00000e+00	1.930907e-08	
101	-5.05000e+00	1.932297e-08	
102	-5.10000e+00	1.933790e-08	
103	-5.15000e+00	1.935394e-08	
104	-5.20000e+00	1.937119e-08	
105	-5.25000e+00	1.938974e-08	
106	-5.30000e+00	1.940968e-08	
107	-5.35000e+00	1.943113e-08	
108	-5.40000e+00	1.945419e-08	
109	-5.45000e+00	1.947898e-08	
110	-5.50000e+00	1.950561e-08	
111	-5.55000e+00	1.953421e-08	
112	-5.60000e+00	1.956491e-08	

Index   v-sweep         i(vds)          
--------------------------------------------------------------------------------
113	-5.65000e+00	1.959784e-08	
114	-5.70000e+00	1.963315e-08	
115	-5.75000e+00	1.967098e-08	
116	-5.80000e+00	1.971148e-08	
117	-5.85000e+00	1.975482e-08	
118	-5.90000e+00	1.980114e-08	
119	-5.95000e+00	1.985062e-08	
120	-6.00000e+00	1.990343e-08	
121	-6.05000e+00	1.995975e-08	
122	-6.10000e+00	2.001977e-08	
123	-6.15000e+00	2.008367e-08	
124	-6.20000e+00	2.015165e-08	
125	-6.25000e+00	2.022390e-08	
126	-6.30000e+00	2.030065e-08	
127	-6.35000e+00	2.038208e-08	
128	-6.40000e+00	2.046843e-08	
129	-6.45000e+00	2.055991e-08	
130	-6.50000e+00	2.065676e-08	
131	-6.55000e+00	2.075919e-08	
132	-6.60000e+00	2.086745e-08	
133	0.000000e+00	0.000000e+00	
134	-5.00000e-02	3.359695e-08	
135	-1.00000e-01	6.276405e-08	
136	-1.50000e-01	8.958297e-08	
137	-2.00000e-01	1.145389e-07	
138	-2.50000e-01	1.377453e-07	
139	-3.00000e-01	1.592295e-07	
140	-3.50000e-01	1.789985e-07	
141	-4.00000e-01	1.970553e-07	
142	-4.50000e-01	2.134023e-07	
143	-5.00000e-01	2.280424e-07	
144	-5.50000e-01	2.409802e-07	
145	-6.00000e-01	2.522232e-07	
146	-6.50000e-01	2.617840e-07	
147	-7.00000e-01	2.696853e-07	
148	-7.50000e-01	2.759692e-07	
149	-8.00000e-01	2.807160e-07	
150	-8.50000e-01	2.840722e-07	
151	-9.00000e-01	2.862766e-07	
152	-9.50000e-01	2.876422e-07	
153	-1.00000e+00	2.884769e-07	
154	-1.05000e+00	2.890092e-07	
155	-1.10000e+00	2.893763e-07	
156	-1.15000e+00	2.896519e-07	
157	-1.20000e+00	2.898747e-07	
158	-1.25000e+00	2.900654e-07	
159	-1.30000e+00	2.902352e-07	
160	-1.35000e+00	2.903909e-07	
161	-1.40000e+00	2.905365e-07	
162	-1.45000e+00	2.906746e-07	
163	-1.50000e+00	2.908068e-07	
164	-1.55000e+00	2.909343e-07	
165	-1.60000e+00	2.910580e-07	
166	-1.65000e+00	2.911786e-07	
167	-1.70000e+00	2.912964e-07	
168	-1.75000e+00	2.914119e-07	
169	-1.80000e+00	2.915253e-07	
170	-1.85000e+00	2.916368e-07	

Index   v-sweep         i(vds)          
--------------------------------------------------------------------------------
171	-1.90000e+00	2.917468e-07	
172	-1.95000e+00	2.918552e-07	
173	-2.00000e+00	2.919622e-07	
174	-2.05000e+00	2.920680e-07	
175	-2.10000e+00	2.921727e-07	
176	-2.15000e+00	2.922763e-07	
177	-2.20000e+00	2.923790e-07	
178	-2.25000e+00	2.924807e-07	
179	-2.30000e+00	2.925815e-07	
180	-2.35000e+00	2.926816e-07	
181	-2.40000e+00	2.927809e-07	
182	-2.45000e+00	2.928794e-07	
183	-2.50000e+00	2.929773e-07	
184	-2.55000e+00	2.930746e-07	
185	-2.60000e+00	2.931713e-07	
186	-2.65000e+00	2.932674e-07	
187	-2.70000e+00	2.933629e-07	
188	-2.75000e+00	2.934580e-07	
189	-2.80000e+00	2.935525e-07	
190	-2.85000e+00	2.936465e-07	
191	-2.90000e+00	2.937401e-07	
192	-2.95000e+00	2.938333e-07	
193	-3.00000e+00	2.939261e-07	
194	-3.05000e+00	2.940184e-07	
195	-3.10000e+00	2.941104e-07	
196	-3.15000e+00	2.942020e-07	
197	-3.20000e+00	2.942933e-07	
198	-3.25000e+00	2.943842e-07	
199	-3.30000e+00	2.944748e-07	
200	-3.35000e+00	2.945651e-07	
201	-3.40000e+00	2.946550e-07	
202	-3.45000e+00	2.947447e-07	
203	-3.50000e+00	2.948341e-07	
204	-3.55000e+00	2.949233e-07	
205	-3.60000e+00	2.950122e-07	
206	-3.65000e+00	2.951009e-07	
207	-3.70000e+00	2.951893e-07	
208	-3.75000e+00	2.952776e-07	
209	-3.80000e+00	2.953657e-07	
210	-3.85000e+00	2.954536e-07	
211	-3.90000e+00	2.955414e-07	
212	-3.95000e+00	2.956291e-07	
213	-4.00000e+00	2.957168e-07	
214	-4.05000e+00	2.958044e-07	
215	-4.10000e+00	2.958921e-07	
216	-4.15000e+00	2.959799e-07	
217	-4.20000e+00	2.960679e-07	
218	-4.25000e+00	2.961562e-07	
219	-4.30000e+00	2.962448e-07	
220	-4.35000e+00	2.963339e-07	
221	-4.40000e+00	2.964235e-07	
222	-4.45000e+00	2.965140e-07	
223	-4.50000e+00	2.966053e-07	
224	-4.55000e+00	2.966978e-07	
225	-4.60000e+00	2.967916e-07	
226	-4.65000e+00	2.968869e-07	
227	-4.70000e+00	2.969841e-07	
228	-4.75000e+00	2.970834e-07	

Index   v-sweep         i(vds)          
--------------------------------------------------------------------------------
229	-4.80000e+00	2.971853e-07	
230	-4.85000e+00	2.972900e-07	
231	-4.90000e+00	2.973980e-07	
232	-4.95000e+00	2.975097e-07	
233	-5.00000e+00	2.976257e-07	
234	-5.05000e+00	2.977466e-07	
235	-5.10000e+00	2.978728e-07	
236	-5.15000e+00	2.980052e-07	
237	-5.20000e+00	2.981444e-07	
238	-5.25000e+00	2.982912e-07	
239	-5.30000e+00	2.984464e-07	
240	-5.35000e+00	2.986110e-07	
241	-5.40000e+00	2.987860e-07	
242	-5.45000e+00	2.989723e-07	
243	-5.50000e+00	2.991712e-07	
244	-5.55000e+00	2.993839e-07	
245	-5.60000e+00	2.996115e-07	
246	-5.65000e+00	2.998556e-07	
247	-5.70000e+00	3.001175e-07	
248	-5.75000e+00	3.003988e-07	
249	-5.80000e+00	3.007011e-07	
250	-5.85000e+00	3.010262e-07	
251	-5.90000e+00	3.013758e-07	
252	-5.95000e+00	3.017519e-07	
253	-6.00000e+00	3.021565e-07	
254	-6.05000e+00	3.025917e-07	
255	-6.10000e+00	3.030597e-07	
256	-6.15000e+00	3.035628e-07	
257	-6.20000e+00	3.041035e-07	
258	-6.25000e+00	3.046842e-07	
259	-6.30000e+00	3.053077e-07	
260	-6.35000e+00	3.059765e-07	
261	-6.40000e+00	3.066936e-07	
262	-6.45000e+00	3.074619e-07	
263	-6.50000e+00	3.082845e-07	
264	-6.55000e+00	3.091646e-07	
265	-6.60000e+00	3.101053e-07	
266	0.000000e+00	0.000000e+00	
267	-5.00000e-02	5.630820e-08	
268	-1.00000e-01	1.082360e-07	
269	-1.50000e-01	1.578647e-07	
270	-2.00000e-01	2.056794e-07	
271	-2.50000e-01	2.517931e-07	
272	-3.00000e-01	2.962325e-07	
273	-3.50000e-01	3.390040e-07	
274	-4.00000e-01	3.801093e-07	
275	-4.50000e-01	4.195493e-07	
276	-5.00000e-01	4.573244e-07	
277	-5.50000e-01	4.934349e-07	
278	-6.00000e-01	5.278814e-07	
279	-6.50000e-01	5.606644e-07	
280	-7.00000e-01	5.917844e-07	
281	-7.50000e-01	6.212420e-07	
282	-8.00000e-01	6.490381e-07	
283	-8.50000e-01	6.751735e-07	
284	-9.00000e-01	6.996492e-07	
285	-9.50000e-01	7.224668e-07	
286	-1.00000e+00	7.436278e-07	

Index   v-sweep         i(vds)          
--------------------------------------------------------------------------------
287	-1.05000e+00	7.631348e-07	
288	-1.10000e+00	7.809907e-07	
289	-1.15000e+00	7.972002e-07	
290	-1.20000e+00	8.117698e-07	
291	-1.25000e+00	8.247090e-07	
292	-1.30000e+00	8.360329e-07	
293	-1.35000e+00	8.457646e-07	
294	-1.40000e+00	8.539416e-07	
295	-1.45000e+00	8.606239e-07	
296	-1.50000e+00	8.659068e-07	
297	-1.55000e+00	8.699333e-07	
298	-1.60000e+00	8.728992e-07	
299	-1.65000e+00	8.750368e-07	
300	-1.70000e+00	8.765783e-07	
301	-1.75000e+00	8.777187e-07	
302	-1.80000e+00	8.786001e-07	
303	-1.85000e+00	8.793161e-07	
304	-1.90000e+00	8.799252e-07	
305	-1.95000e+00	8.804633e-07	
306	-2.00000e+00	8.809525e-07	
307	-2.05000e+00	8.814069e-07	
308	-2.10000e+00	8.818356e-07	
309	-2.15000e+00	8.822446e-07	
310	-2.20000e+00	8.826381e-07	
311	-2.25000e+00	8.830191e-07	
312	-2.30000e+00	8.833897e-07	
313	-2.35000e+00	8.837515e-07	
314	-2.40000e+00	8.841058e-07	
315	-2.45000e+00	8.844535e-07	
316	-2.50000e+00	8.847954e-07	
317	-2.55000e+00	8.851321e-07	
318	-2.60000e+00	8.854642e-07	
319	-2.65000e+00	8.857920e-07	
320	-2.70000e+00	8.861159e-07	
321	-2.75000e+00	8.864363e-07	
322	-2.80000e+00	8.867535e-07	
323	-2.85000e+00	8.870676e-07	
324	-2.90000e+00	8.873788e-07	
325	-2.95000e+00	8.876875e-07	
326	-3.00000e+00	8.879936e-07	
327	-3.05000e+00	8.882974e-07	
328	-3.10000e+00	8.885991e-07	
329	-3.15000e+00	8.888986e-07	
330	-3.20000e+00	8.891962e-07	
331	-3.25000e+00	8.894920e-07	
332	-3.30000e+00	8.897860e-07	
333	-3.35000e+00	8.900783e-07	
334	-3.40000e+00	8.903691e-07	
335	-3.45000e+00	8.906583e-07	
336	-3.50000e+00	8.909461e-07	
337	-3.55000e+00	8.912325e-07	
338	-3.60000e+00	8.915175e-07	
339	-3.65000e+00	8.918013e-07	
340	-3.70000e+00	8.920839e-07	
341	-3.75000e+00	8.923653e-07	
342	-3.80000e+00	8.926455e-07	
343	-3.85000e+00	8.929247e-07	
344	-3.90000e+00	8.932029e-07	

Index   v-sweep         i(vds)          
--------------------------------------------------------------------------------
345	-3.95000e+00	8.934800e-07	
346	-4.00000e+00	8.937562e-07	
347	-4.05000e+00	8.940315e-07	
348	-4.10000e+00	8.943059e-07	
349	-4.15000e+00	8.945794e-07	
350	-4.20000e+00	8.948521e-07	
351	-4.25000e+00	8.951241e-07	
352	-4.30000e+00	8.953953e-07	
353	-4.35000e+00	8.956658e-07	
354	-4.40000e+00	8.959357e-07	
355	-4.45000e+00	8.962050e-07	
356	-4.50000e+00	8.964738e-07	
357	-4.55000e+00	8.967421e-07	
358	-4.60000e+00	8.970101e-07	
359	-4.65000e+00	8.972778e-07	
360	-4.70000e+00	8.975454e-07	
361	-4.75000e+00	8.978130e-07	
362	-4.80000e+00	8.980807e-07	
363	-4.85000e+00	8.983487e-07	
364	-4.90000e+00	8.986173e-07	
365	-4.95000e+00	8.988868e-07	
366	-5.00000e+00	8.991573e-07	
367	-5.05000e+00	8.994293e-07	
368	-5.10000e+00	8.997031e-07	
369	-5.15000e+00	8.999792e-07	
370	-5.20000e+00	9.002581e-07	
371	-5.25000e+00	9.005404e-07	
372	-5.30000e+00	9.008267e-07	
373	-5.35000e+00	9.011178e-07	
374	-5.40000e+00	9.014146e-07	
375	-5.45000e+00	9.017178e-07	
376	-5.50000e+00	9.020287e-07	
377	-5.55000e+00	9.023484e-07	
378	-5.60000e+00	9.026780e-07	
379	-5.65000e+00	9.030192e-07	
380	-5.70000e+00	9.033733e-07	
381	-5.75000e+00	9.037421e-07	
382	-5.80000e+00	9.041275e-07	
383	-5.85000e+00	9.045315e-07	
384	-5.90000e+00	9.049563e-07	
385	-5.95000e+00	9.054042e-07	
386	-6.00000e+00	9.058780e-07	
387	-6.05000e+00	9.063803e-07	
388	-6.10000e+00	9.069143e-07	
389	-6.15000e+00	9.074830e-07	
390	-6.20000e+00	9.080899e-07	
391	-6.25000e+00	9.087388e-07	
392	-6.30000e+00	9.094335e-07	
393	-6.35000e+00	9.101783e-07	
394	-6.40000e+00	9.109776e-07	
395	-6.45000e+00	9.118360e-07	
396	-6.50000e+00	9.127587e-07	
397	-6.55000e+00	9.137508e-07	
398	-6.60000e+00	9.148179e-07	
399	0.000000e+00	0.000000e+00	
400	-5.00000e-02	7.776788e-08	
401	-1.00000e-01	1.512131e-07	
402	-1.50000e-01	2.224171e-07	

Index   v-sweep         i(vds)          
--------------------------------------------------------------------------------
403	-2.00000e-01	2.918647e-07	
404	-2.50000e-01	3.596691e-07	
405	-3.00000e-01	4.258566e-07	
406	-3.50000e-01	4.904337e-07	
407	-4.00000e-01	5.534022e-07	
408	-4.50000e-01	6.147626e-07	
409	-5.00000e-01	6.745152e-07	
410	-5.50000e-01	7.326603e-07	
411	-6.00000e-01	7.891983e-07	
412	-6.50000e-01	8.441294e-07	
413	-7.00000e-01	8.974538e-07	
414	-7.50000e-01	9.491720e-07	
415	-8.00000e-01	9.992842e-07	
416	-8.50000e-01	1.047791e-06	
417	-9.00000e-01	1.094692e-06	
418	-9.50000e-01	1.139988e-06	
419	-1.00000e+00	1.183679e-06	
420	-1.05000e+00	1.225767e-06	
421	-1.10000e+00	1.266250e-06	
422	-1.15000e+00	1.305130e-06	
423	-1.20000e+00	1.342407e-06	
424	-1.25000e+00	1.378082e-06	
425	-1.30000e+00	1.412155e-06	
426	-1.35000e+00	1.444626e-06	
427	-1.40000e+00	1.475498e-06	
428	-1.45000e+00	1.504770e-06	
429	-1.50000e+00	1.532444e-06	
430	-1.55000e+00	1.558520e-06	
431	-1.60000e+00	1.583002e-06	
432	-1.65000e+00	1.605890e-06	
433	-1.70000e+00	1.627187e-06	
434	-1.75000e+00	1.646898e-06	
435	-1.80000e+00	1.665027e-06	
436	-1.85000e+00	1.681580e-06	
437	-1.90000e+00	1.696566e-06	
438	-1.95000e+00	1.709999e-06	
439	-2.00000e+00	1.721897e-06	
440	-2.05000e+00	1.732287e-06	
441	-2.10000e+00	1.741212e-06	
442	-2.15000e+00	1.748731e-06	
443	-2.20000e+00	1.754930e-06	
444	-2.25000e+00	1.759930e-06	
445	-2.30000e+00	1.763887e-06	
446	-2.35000e+00	1.766982e-06	
447	-2.40000e+00	1.769407e-06	
448	-2.45000e+00	1.771336e-06	
449	-2.50000e+00	1.772912e-06	
450	-2.55000e+00	1.774243e-06	
451	-2.60000e+00	1.775404e-06	
452	-2.65000e+00	1.776446e-06	
453	-2.70000e+00	1.777403e-06	
454	-2.75000e+00	1.778297e-06	
455	-2.80000e+00	1.779144e-06	
456	-2.85000e+00	1.779955e-06	
457	-2.90000e+00	1.780737e-06	
458	-2.95000e+00	1.781495e-06	
459	-3.00000e+00	1.782234e-06	
460	-3.05000e+00	1.782956e-06	

Index   v-sweep         i(vds)          
--------------------------------------------------------------------------------
461	-3.10000e+00	1.783664e-06	
462	-3.15000e+00	1.784359e-06	
463	-3.20000e+00	1.785043e-06	
464	-3.25000e+00	1.785717e-06	
465	-3.30000e+00	1.786382e-06	
466	-3.35000e+00	1.787039e-06	
467	-3.40000e+00	1.787688e-06	
468	-3.45000e+00	1.788331e-06	
469	-3.50000e+00	1.788967e-06	
470	-3.55000e+00	1.789598e-06	
471	-3.60000e+00	1.790223e-06	
472	-3.65000e+00	1.790842e-06	
473	-3.70000e+00	1.791458e-06	
474	-3.75000e+00	1.792068e-06	
475	-3.80000e+00	1.792674e-06	
476	-3.85000e+00	1.793277e-06	
477	-3.90000e+00	1.793875e-06	
478	-3.95000e+00	1.794470e-06	
479	-4.00000e+00	1.795062e-06	
480	-4.05000e+00	1.795650e-06	
481	-4.10000e+00	1.796235e-06	
482	-4.15000e+00	1.796817e-06	
483	-4.20000e+00	1.797396e-06	
484	-4.25000e+00	1.797973e-06	
485	-4.30000e+00	1.798547e-06	
486	-4.35000e+00	1.799118e-06	
487	-4.40000e+00	1.799687e-06	
488	-4.45000e+00	1.800254e-06	
489	-4.50000e+00	1.800819e-06	
490	-4.55000e+00	1.801381e-06	
491	-4.60000e+00	1.801942e-06	
492	-4.65000e+00	1.802500e-06	
493	-4.70000e+00	1.803057e-06	
494	-4.75000e+00	1.803611e-06	
495	-4.80000e+00	1.804164e-06	
496	-4.85000e+00	1.804716e-06	
497	-4.90000e+00	1.805265e-06	
498	-4.95000e+00	1.805813e-06	
499	-5.00000e+00	1.806360e-06	
500	-5.05000e+00	1.806906e-06	
501	-5.10000e+00	1.807450e-06	
502	-5.15000e+00	1.807993e-06	
503	-5.20000e+00	1.808534e-06	
504	-5.25000e+00	1.809075e-06	
505	-5.30000e+00	1.809616e-06	
506	-5.35000e+00	1.810155e-06	
507	-5.40000e+00	1.810694e-06	
508	-5.45000e+00	1.811234e-06	
509	-5.50000e+00	1.811773e-06	
510	-5.55000e+00	1.812313e-06	
511	-5.60000e+00	1.812854e-06	
512	-5.65000e+00	1.813397e-06	
513	-5.70000e+00	1.813941e-06	
514	-5.75000e+00	1.814489e-06	
515	-5.80000e+00	1.815039e-06	
516	-5.85000e+00	1.815594e-06	
517	-5.90000e+00	1.816155e-06	
518	-5.95000e+00	1.816722e-06	

Index   v-sweep         i(vds)          
--------------------------------------------------------------------------------
519	-6.00000e+00	1.817296e-06	
520	-6.05000e+00	1.817880e-06	
521	-6.10000e+00	1.818474e-06	
522	-6.15000e+00	1.819081e-06	
523	-6.20000e+00	1.819703e-06	
524	-6.25000e+00	1.820342e-06	
525	-6.30000e+00	1.820999e-06	
526	-6.35000e+00	1.821680e-06	
527	-6.40000e+00	1.822385e-06	
528	-6.45000e+00	1.823118e-06	
529	-6.50000e+00	1.823884e-06	
530	-6.55000e+00	1.824686e-06	
531	-6.60000e+00	1.825529e-06	
532	0.000000e+00	0.000000e+00	
533	-5.00000e-02	9.845105e-08	
534	-1.00000e-01	1.926313e-07	
535	-1.50000e-01	2.846221e-07	
536	-2.00000e-01	3.749083e-07	
537	-2.50000e-01	4.636029e-07	
538	-3.00000e-01	5.507325e-07	
539	-3.50000e-01	6.363034e-07	
540	-4.00000e-01	7.203172e-07	
541	-4.50000e-01	8.027746e-07	
542	-5.00000e-01	8.836758e-07	
543	-5.50000e-01	9.630210e-07	
544	-6.00000e-01	1.040811e-06	
545	-6.50000e-01	1.117045e-06	
546	-7.00000e-01	1.191724e-06	
547	-7.50000e-01	1.264848e-06	
548	-8.00000e-01	1.336417e-06	
549	-8.50000e-01	1.406432e-06	
550	-9.00000e-01	1.474893e-06	
551	-9.50000e-01	1.541799e-06	
552	-1.00000e+00	1.607152e-06	
553	-1.05000e+00	1.670952e-06	
554	-1.10000e+00	1.733198e-06	
555	-1.15000e+00	1.793892e-06	
556	-1.20000e+00	1.853033e-06	
557	-1.25000e+00	1.910621e-06	
558	-1.30000e+00	1.966657e-06	
559	-1.35000e+00	2.021142e-06	
560	-1.40000e+00	2.074075e-06	
561	-1.45000e+00	2.125457e-06	
562	-1.50000e+00	2.175288e-06	
563	-1.55000e+00	2.223568e-06	
564	-1.60000e+00	2.270299e-06	
565	-1.65000e+00	2.315479e-06	
566	-1.70000e+00	2.359111e-06	
567	-1.75000e+00	2.401193e-06	
568	-1.80000e+00	2.441727e-06	
569	-1.85000e+00	2.480713e-06	
570	-1.90000e+00	2.518152e-06	
571	-1.95000e+00	2.554044e-06	
572	-2.00000e+00	2.588391e-06	
573	-2.05000e+00	2.621192e-06	
574	-2.10000e+00	2.652449e-06	
575	-2.15000e+00	2.682164e-06	
576	-2.20000e+00	2.710337e-06	

Index   v-sweep         i(vds)          
--------------------------------------------------------------------------------
577	-2.25000e+00	2.736971e-06	
578	-2.30000e+00	2.762066e-06	
579	-2.35000e+00	2.785627e-06	
580	-2.40000e+00	2.807657e-06	
581	-2.45000e+00	2.828159e-06	
582	-2.50000e+00	2.847140e-06	
583	-2.55000e+00	2.864606e-06	
584	-2.60000e+00	2.880569e-06	
585	-2.65000e+00	2.895042e-06	
586	-2.70000e+00	2.908043e-06	
587	-2.75000e+00	2.919601e-06	
588	-2.80000e+00	2.929752e-06	
589	-2.85000e+00	2.938547e-06	
590	-2.90000e+00	2.946060e-06	
591	-2.95000e+00	2.952384e-06	
592	-3.00000e+00	2.957642e-06	
593	-3.05000e+00	2.961977e-06	
594	-3.10000e+00	2.965549e-06	
595	-3.15000e+00	2.968514e-06	
596	-3.20000e+00	2.971016e-06	
597	-3.25000e+00	2.973175e-06	
598	-3.30000e+00	2.975082e-06	
599	-3.35000e+00	2.976805e-06	
600	-3.40000e+00	2.978392e-06	
601	-3.45000e+00	2.979879e-06	
602	-3.50000e+00	2.981289e-06	
603	-3.55000e+00	2.982638e-06	
604	-3.60000e+00	2.983940e-06	
605	-3.65000e+00	2.985203e-06	
606	-3.70000e+00	2.986434e-06	
607	-3.75000e+00	2.987637e-06	
608	-3.80000e+00	2.988816e-06	
609	-3.85000e+00	2.989975e-06	
610	-3.90000e+00	2.991116e-06	
611	-3.95000e+00	2.992240e-06	
612	-4.00000e+00	2.993350e-06	
613	-4.05000e+00	2.994446e-06	
614	-4.10000e+00	2.995530e-06	
615	-4.15000e+00	2.996603e-06	
616	-4.20000e+00	2.997666e-06	
617	-4.25000e+00	2.998719e-06	
618	-4.30000e+00	2.999763e-06	
619	-4.35000e+00	3.000799e-06	
620	-4.40000e+00	3.001827e-06	
621	-4.45000e+00	3.002847e-06	
622	-4.50000e+00	3.003861e-06	
623	-4.55000e+00	3.004868e-06	
624	-4.60000e+00	3.005868e-06	
625	-4.65000e+00	3.006863e-06	
626	-4.70000e+00	3.007852e-06	
627	-4.75000e+00	3.008836e-06	
628	-4.80000e+00	3.009814e-06	
629	-4.85000e+00	3.010788e-06	
630	-4.90000e+00	3.011757e-06	
631	-4.95000e+00	3.012722e-06	
632	-5.00000e+00	3.013682e-06	
633	-5.05000e+00	3.014638e-06	
634	-5.10000e+00	3.015591e-06	

Index   v-sweep         i(vds)          
--------------------------------------------------------------------------------
635	-5.15000e+00	3.016539e-06	
636	-5.20000e+00	3.017484e-06	
637	-5.25000e+00	3.018425e-06	
638	-5.30000e+00	3.019363e-06	
639	-5.35000e+00	3.020298e-06	
640	-5.40000e+00	3.021229e-06	
641	-5.45000e+00	3.022158e-06	
642	-5.50000e+00	3.023083e-06	
643	-5.55000e+00	3.024006e-06	
644	-5.60000e+00	3.024927e-06	
645	-5.65000e+00	3.025844e-06	
646	-5.70000e+00	3.026759e-06	
647	-5.75000e+00	3.027672e-06	
648	-5.80000e+00	3.028583e-06	
649	-5.85000e+00	3.029492e-06	
650	-5.90000e+00	3.030399e-06	
651	-5.95000e+00	3.031304e-06	
652	-6.00000e+00	3.032208e-06	
653	-6.05000e+00	3.033111e-06	
654	-6.10000e+00	3.034013e-06	
655	-6.15000e+00	3.034915e-06	
656	-6.20000e+00	3.035817e-06	
657	-6.25000e+00	3.036719e-06	
658	-6.30000e+00	3.037623e-06	
659	-6.35000e+00	3.038529e-06	
660	-6.40000e+00	3.039437e-06	
661	-6.45000e+00	3.040349e-06	
662	-6.50000e+00	3.041267e-06	
663	-6.55000e+00	3.042191e-06	
664	-6.60000e+00	3.043122e-06	
665	0.000000e+00	0.000000e+00	
666	-5.00000e-02	1.187059e-07	
667	-1.00000e-01	2.331853e-07	
668	-1.50000e-01	3.455197e-07	
669	-2.00000e-01	4.561937e-07	
670	-2.50000e-01	5.653205e-07	
671	-3.00000e-01	6.729265e-07	
672	-3.50000e-01	7.790181e-07	
673	-4.00000e-01	8.835969e-07	
674	-4.50000e-01	9.866635e-07	
675	-5.00000e-01	1.088218e-06	
676	-5.50000e-01	1.188261e-06	
677	-6.00000e-01	1.286792e-06	
678	-6.50000e-01	1.383813e-06	
679	-7.00000e-01	1.479322e-06	
680	-7.50000e-01	1.573320e-06	
681	-8.00000e-01	1.665807e-06	
682	-8.50000e-01	1.756785e-06	
683	-9.00000e-01	1.846252e-06	
684	-9.50000e-01	1.934209e-06	
685	-1.00000e+00	2.020656e-06	
686	-1.05000e+00	2.105594e-06	
687	-1.10000e+00	2.189022e-06	
688	-1.15000e+00	2.270941e-06	
689	-1.20000e+00	2.351352e-06	
690	-1.25000e+00	2.430254e-06	
691	-1.30000e+00	2.507647e-06	
692	-1.35000e+00	2.583533e-06	

Index   v-sweep         i(vds)          
--------------------------------------------------------------------------------
693	-1.40000e+00	2.657910e-06	
694	-1.45000e+00	2.730780e-06	
695	-1.50000e+00	2.802142e-06	
696	-1.55000e+00	2.871998e-06	
697	-1.60000e+00	2.940346e-06	
698	-1.65000e+00	3.007187e-06	
699	-1.70000e+00	3.072522e-06	
700	-1.75000e+00	3.136351e-06	
701	-1.80000e+00	3.198674e-06	
702	-1.85000e+00	3.259491e-06	
703	-1.90000e+00	3.318803e-06	
704	-1.95000e+00	3.376610e-06	
705	-2.00000e+00	3.432912e-06	
706	-2.05000e+00	3.487710e-06	
707	-2.10000e+00	3.541004e-06	
708	-2.15000e+00	3.592793e-06	
709	-2.20000e+00	3.643080e-06	
710	-2.25000e+00	3.691863e-06	
711	-2.30000e+00	3.739143e-06	
712	-2.35000e+00	3.784922e-06	
713	-2.40000e+00	3.829198e-06	
714	-2.45000e+00	3.871974e-06	
715	-2.50000e+00	3.913248e-06	
716	-2.55000e+00	3.953023e-06	
717	-2.60000e+00	3.991298e-06	
718	-2.65000e+00	4.028075e-06	
719	-2.70000e+00	4.063354e-06	
720	-2.75000e+00	4.097136e-06	
721	-2.80000e+00	4.129422e-06	
722	-2.85000e+00	4.160215e-06	
723	-2.90000e+00	4.189514e-06	
724	-2.95000e+00	4.217324e-06	
725	-3.00000e+00	4.243645e-06	
726	-3.05000e+00	4.268480e-06	
727	-3.10000e+00	4.291834e-06	
728	-3.15000e+00	4.313711e-06	
729	-3.20000e+00	4.334116e-06	
730	-3.25000e+00	4.353058e-06	
731	-3.30000e+00	4.370546e-06	
732	-3.35000e+00	4.386592e-06	
733	-3.40000e+00	4.401215e-06	
734	-3.45000e+00	4.414437e-06	
735	-3.50000e+00	4.426288e-06	
736	-3.55000e+00	4.436810e-06	
737	-3.60000e+00	4.446059e-06	
738	-3.65000e+00	4.454107e-06	
739	-3.70000e+00	4.461044e-06	
740	-3.75000e+00	4.466983e-06	
741	-3.80000e+00	4.472051e-06	
742	-3.85000e+00	4.476386e-06	
743	-3.90000e+00	4.480126e-06	
744	-3.95000e+00	4.483395e-06	
745	-4.00000e+00	4.486301e-06	
746	-4.05000e+00	4.488932e-06	
747	-4.10000e+00	4.491354e-06	
748	-4.15000e+00	4.493618e-06	
749	-4.20000e+00	4.495759e-06	
750	-4.25000e+00	4.497806e-06	

Index   v-sweep         i(vds)          
--------------------------------------------------------------------------------
751	-4.30000e+00	4.499776e-06	
752	-4.35000e+00	4.501685e-06	
753	-4.40000e+00	4.503544e-06	
754	-4.45000e+00	4.505360e-06	
755	-4.50000e+00	4.507139e-06	
756	-4.55000e+00	4.508887e-06	
757	-4.60000e+00	4.510607e-06	
758	-4.65000e+00	4.512302e-06	
759	-4.70000e+00	4.513975e-06	
760	-4.75000e+00	4.515627e-06	
761	-4.80000e+00	4.517261e-06	
762	-4.85000e+00	4.518879e-06	
763	-4.90000e+00	4.520480e-06	
764	-4.95000e+00	4.522068e-06	
765	-5.00000e+00	4.523642e-06	
766	-5.05000e+00	4.525203e-06	
767	-5.10000e+00	4.526752e-06	
768	-5.15000e+00	4.528290e-06	
769	-5.20000e+00	4.529818e-06	
770	-5.25000e+00	4.531336e-06	
771	-5.30000e+00	4.532845e-06	
772	-5.35000e+00	4.534344e-06	
773	-5.40000e+00	4.535835e-06	
774	-5.45000e+00	4.537318e-06	
775	-5.50000e+00	4.538794e-06	
776	-5.55000e+00	4.540262e-06	
777	-5.60000e+00	4.541723e-06	
778	-5.65000e+00	4.543177e-06	
779	-5.70000e+00	4.544625e-06	
780	-5.75000e+00	4.546067e-06	
781	-5.80000e+00	4.547502e-06	
782	-5.85000e+00	4.548932e-06	
783	-5.90000e+00	4.550357e-06	
784	-5.95000e+00	4.551776e-06	
785	-6.00000e+00	4.553190e-06	
786	-6.05000e+00	4.554600e-06	
787	-6.10000e+00	4.556004e-06	
788	-6.15000e+00	4.557404e-06	
789	-6.20000e+00	4.558800e-06	
790	-6.25000e+00	4.560192e-06	
791	-6.30000e+00	4.561579e-06	
792	-6.35000e+00	4.562963e-06	
793	-6.40000e+00	4.564342e-06	
794	-6.45000e+00	4.565719e-06	
795	-6.50000e+00	4.567092e-06	
796	-6.55000e+00	4.568462e-06	
797	-6.60000e+00	4.569828e-06	
Note: No ".plot", ".print", or ".fourier" lines; no simulations run
