
Note: Compatibility modes selected: hs

Warning: m=xx on .subckt line will override multiplier m hierarchy!


Circuit: ***************************

Doing analysis at TEMP = 125.000000 and TNOM = 125.000000


No. of Data Rows : 798
                          ***************************
                          DC transfer characteristic  Mon Jan  9 13:57:53  2023
--------------------------------------------------------------------------------
Index   v-sweep         i(vds)          
--------------------------------------------------------------------------------
0	0.000000e+00	0.000000e+00	
1	-5.00000e-02	4.777426e-07	
2	-1.00000e-01	7.639371e-07	
3	-1.50000e-01	9.319397e-07	
4	-2.00000e-01	1.011988e-06	
5	-2.50000e-01	1.040302e-06	
6	-3.00000e-01	1.049573e-06	
7	-3.50000e-01	1.053359e-06	
8	-4.00000e-01	1.055398e-06	
9	-4.50000e-01	1.056756e-06	
10	-5.00000e-01	1.057796e-06	
11	-5.50000e-01	1.058665e-06	
12	-6.00000e-01	1.059429e-06	
13	-6.50000e-01	1.060125e-06	
14	-7.00000e-01	1.060771e-06	
15	-7.50000e-01	1.061381e-06	
16	-8.00000e-01	1.061962e-06	
17	-8.50000e-01	1.062520e-06	
18	-9.00000e-01	1.063058e-06	
19	-9.50000e-01	1.063579e-06	
20	-1.00000e+00	1.064086e-06	
21	-1.05000e+00	1.064580e-06	
22	-1.10000e+00	1.065062e-06	
23	-1.15000e+00	1.065534e-06	
24	-1.20000e+00	1.065996e-06	
25	-1.25000e+00	1.066450e-06	
26	-1.30000e+00	1.066897e-06	
27	-1.35000e+00	1.067335e-06	
28	-1.40000e+00	1.067768e-06	
29	-1.45000e+00	1.068194e-06	
30	-1.50000e+00	1.068614e-06	
31	-1.55000e+00	1.069028e-06	
32	-1.60000e+00	1.069438e-06	
33	-1.65000e+00	1.069842e-06	
34	-1.70000e+00	1.070242e-06	
35	-1.75000e+00	1.070638e-06	
36	-1.80000e+00	1.071029e-06	
37	-1.85000e+00	1.071417e-06	
38	-1.90000e+00	1.071801e-06	
39	-1.95000e+00	1.072182e-06	
40	-2.00000e+00	1.072559e-06	
41	-2.05000e+00	1.072933e-06	
42	-2.10000e+00	1.073304e-06	
43	-2.15000e+00	1.073672e-06	
44	-2.20000e+00	1.074037e-06	
45	-2.25000e+00	1.074400e-06	
46	-2.30000e+00	1.074760e-06	
47	-2.35000e+00	1.075118e-06	
48	-2.40000e+00	1.075473e-06	
49	-2.45000e+00	1.075826e-06	
50	-2.50000e+00	1.076177e-06	
51	-2.55000e+00	1.076526e-06	
52	-2.60000e+00	1.076872e-06	
53	-2.65000e+00	1.077217e-06	
54	-2.70000e+00	1.077560e-06	

Index   v-sweep         i(vds)          
--------------------------------------------------------------------------------
55	-2.75000e+00	1.077901e-06	
56	-2.80000e+00	1.078241e-06	
57	-2.85000e+00	1.078578e-06	
58	-2.90000e+00	1.078915e-06	
59	-2.95000e+00	1.079249e-06	
60	-3.00000e+00	1.079582e-06	
61	-3.05000e+00	1.079914e-06	
62	-3.10000e+00	1.080245e-06	
63	-3.15000e+00	1.080575e-06	
64	-3.20000e+00	1.080904e-06	
65	-3.25000e+00	1.081231e-06	
66	-3.30000e+00	1.081559e-06	
67	-3.35000e+00	1.081885e-06	
68	-3.40000e+00	1.082212e-06	
69	-3.45000e+00	1.082538e-06	
70	-3.50000e+00	1.082865e-06	
71	-3.55000e+00	1.083192e-06	
72	-3.60000e+00	1.083520e-06	
73	-3.65000e+00	1.083850e-06	
74	-3.70000e+00	1.084182e-06	
75	-3.75000e+00	1.084516e-06	
76	-3.80000e+00	1.084853e-06	
77	-3.85000e+00	1.085194e-06	
78	-3.90000e+00	1.085540e-06	
79	-3.95000e+00	1.085891e-06	
80	-4.00000e+00	1.086249e-06	
81	-4.05000e+00	1.086615e-06	
82	-4.10000e+00	1.086990e-06	
83	-4.15000e+00	1.087375e-06	
84	-4.20000e+00	1.087773e-06	
85	-4.25000e+00	1.088184e-06	
86	-4.30000e+00	1.088611e-06	
87	-4.35000e+00	1.089055e-06	
88	-4.40000e+00	1.089520e-06	
89	-4.45000e+00	1.090006e-06	
90	-4.50000e+00	1.090518e-06	
91	-4.55000e+00	1.091058e-06	
92	-4.60000e+00	1.091628e-06	
93	-4.65000e+00	1.092233e-06	
94	-4.70000e+00	1.092876e-06	
95	-4.75000e+00	1.093560e-06	
96	-4.80000e+00	1.094290e-06	
97	-4.85000e+00	1.095070e-06	
98	-4.90000e+00	1.095905e-06	
99	-4.95000e+00	1.096799e-06	
100	-5.00000e+00	1.097759e-06	
101	-5.05000e+00	1.098788e-06	
102	-5.10000e+00	1.099894e-06	
103	-5.15000e+00	1.101082e-06	
104	-5.20000e+00	1.102358e-06	
105	-5.25000e+00	1.103730e-06	
106	-5.30000e+00	1.105205e-06	
107	-5.35000e+00	1.106790e-06	
108	-5.40000e+00	1.108493e-06	
109	-5.45000e+00	1.110323e-06	
110	-5.50000e+00	1.112286e-06	
111	-5.55000e+00	1.114394e-06	
112	-5.60000e+00	1.116654e-06	

Index   v-sweep         i(vds)          
--------------------------------------------------------------------------------
113	-5.65000e+00	1.119076e-06	
114	-5.70000e+00	1.121671e-06	
115	-5.75000e+00	1.124448e-06	
116	-5.80000e+00	1.127419e-06	
117	-5.85000e+00	1.130594e-06	
118	-5.90000e+00	1.133985e-06	
119	-5.95000e+00	1.137604e-06	
120	-6.00000e+00	1.141463e-06	
121	-6.05000e+00	1.145574e-06	
122	-6.10000e+00	1.149950e-06	
123	-6.15000e+00	1.154605e-06	
124	-6.20000e+00	1.159552e-06	
125	-6.25000e+00	1.164805e-06	
126	-6.30000e+00	1.170379e-06	
127	-6.35000e+00	1.176288e-06	
128	-6.40000e+00	1.182547e-06	
129	-6.45000e+00	1.189172e-06	
130	-6.50000e+00	1.196179e-06	
131	-6.55000e+00	1.203582e-06	
132	-6.60000e+00	1.211400e-06	
133	0.000000e+00	0.000000e+00	
134	-5.00000e-02	2.123341e-06	
135	-1.00000e-01	4.042528e-06	
136	-1.50000e-01	5.827021e-06	
137	-2.00000e-01	7.493067e-06	
138	-2.50000e-01	9.044531e-06	
139	-3.00000e-01	1.048240e-05	
140	-3.50000e-01	1.180700e-05	
141	-4.00000e-01	1.301853e-05	
142	-4.50000e-01	1.411719e-05	
143	-5.00000e-01	1.510321e-05	
144	-5.50000e-01	1.597694e-05	
145	-6.00000e-01	1.673888e-05	
146	-6.50000e-01	1.738987e-05	
147	-7.00000e-01	1.793133e-05	
148	-7.50000e-01	1.836586e-05	
149	-8.00000e-01	1.869829e-05	
150	-8.50000e-01	1.893752e-05	
151	-9.00000e-01	1.909828e-05	
152	-9.50000e-01	1.920057e-05	
153	-1.00000e+00	1.926493e-05	
154	-1.05000e+00	1.930725e-05	
155	-1.10000e+00	1.933734e-05	
156	-1.15000e+00	1.936058e-05	
157	-1.20000e+00	1.937980e-05	
158	-1.25000e+00	1.939651e-05	
159	-1.30000e+00	1.941156e-05	
160	-1.35000e+00	1.942544e-05	
161	-1.40000e+00	1.943845e-05	
162	-1.45000e+00	1.945079e-05	
163	-1.50000e+00	1.946260e-05	
164	-1.55000e+00	1.947397e-05	
165	-1.60000e+00	1.948497e-05	
166	-1.65000e+00	1.949564e-05	
167	-1.70000e+00	1.950604e-05	
168	-1.75000e+00	1.951619e-05	
169	-1.80000e+00	1.952611e-05	
170	-1.85000e+00	1.953583e-05	

Index   v-sweep         i(vds)          
--------------------------------------------------------------------------------
171	-1.90000e+00	1.954537e-05	
172	-1.95000e+00	1.955474e-05	
173	-2.00000e+00	1.956396e-05	
174	-2.05000e+00	1.957303e-05	
175	-2.10000e+00	1.958197e-05	
176	-2.15000e+00	1.959079e-05	
177	-2.20000e+00	1.959949e-05	
178	-2.25000e+00	1.960808e-05	
179	-2.30000e+00	1.961657e-05	
180	-2.35000e+00	1.962497e-05	
181	-2.40000e+00	1.963327e-05	
182	-2.45000e+00	1.964149e-05	
183	-2.50000e+00	1.964962e-05	
184	-2.55000e+00	1.965768e-05	
185	-2.60000e+00	1.966567e-05	
186	-2.65000e+00	1.967358e-05	
187	-2.70000e+00	1.968143e-05	
188	-2.75000e+00	1.968921e-05	
189	-2.80000e+00	1.969693e-05	
190	-2.85000e+00	1.970460e-05	
191	-2.90000e+00	1.971220e-05	
192	-2.95000e+00	1.971976e-05	
193	-3.00000e+00	1.972726e-05	
194	-3.05000e+00	1.973471e-05	
195	-3.10000e+00	1.974212e-05	
196	-3.15000e+00	1.974948e-05	
197	-3.20000e+00	1.975680e-05	
198	-3.25000e+00	1.976407e-05	
199	-3.30000e+00	1.977130e-05	
200	-3.35000e+00	1.977849e-05	
201	-3.40000e+00	1.978565e-05	
202	-3.45000e+00	1.979277e-05	
203	-3.50000e+00	1.979985e-05	
204	-3.55000e+00	1.980691e-05	
205	-3.60000e+00	1.981393e-05	
206	-3.65000e+00	1.982091e-05	
207	-3.70000e+00	1.982788e-05	
208	-3.75000e+00	1.983481e-05	
209	-3.80000e+00	1.984172e-05	
210	-3.85000e+00	1.984861e-05	
211	-3.90000e+00	1.985547e-05	
212	-3.95000e+00	1.986232e-05	
213	-4.00000e+00	1.986916e-05	
214	-4.05000e+00	1.987599e-05	
215	-4.10000e+00	1.988281e-05	
216	-4.15000e+00	1.988963e-05	
217	-4.20000e+00	1.989646e-05	
218	-4.25000e+00	1.990330e-05	
219	-4.30000e+00	1.991017e-05	
220	-4.35000e+00	1.991706e-05	
221	-4.40000e+00	1.992400e-05	
222	-4.45000e+00	1.993098e-05	
223	-4.50000e+00	1.993803e-05	
224	-4.55000e+00	1.994517e-05	
225	-4.60000e+00	1.995240e-05	
226	-4.65000e+00	1.995975e-05	
227	-4.70000e+00	1.996724e-05	
228	-4.75000e+00	1.997490e-05	

Index   v-sweep         i(vds)          
--------------------------------------------------------------------------------
229	-4.80000e+00	1.998274e-05	
230	-4.85000e+00	1.999080e-05	
231	-4.90000e+00	1.999912e-05	
232	-4.95000e+00	2.000773e-05	
233	-5.00000e+00	2.001666e-05	
234	-5.05000e+00	2.002597e-05	
235	-5.10000e+00	2.003569e-05	
236	-5.15000e+00	2.004589e-05	
237	-5.20000e+00	2.005661e-05	
238	-5.25000e+00	2.006791e-05	
239	-5.30000e+00	2.007987e-05	
240	-5.35000e+00	2.009255e-05	
241	-5.40000e+00	2.010602e-05	
242	-5.45000e+00	2.012037e-05	
243	-5.50000e+00	2.013568e-05	
244	-5.55000e+00	2.015205e-05	
245	-5.60000e+00	2.016956e-05	
246	-5.65000e+00	2.018833e-05	
247	-5.70000e+00	2.020847e-05	
248	-5.75000e+00	2.023009e-05	
249	-5.80000e+00	2.025331e-05	
250	-5.85000e+00	2.027826e-05	
251	-5.90000e+00	2.030509e-05	
252	-5.95000e+00	2.033393e-05	
253	-6.00000e+00	2.036493e-05	
254	-6.05000e+00	2.039826e-05	
255	-6.10000e+00	2.043407e-05	
256	-6.15000e+00	2.047254e-05	
257	-6.20000e+00	2.051386e-05	
258	-6.25000e+00	2.055820e-05	
259	-6.30000e+00	2.060576e-05	
260	-6.35000e+00	2.065675e-05	
261	-6.40000e+00	2.071138e-05	
262	-6.45000e+00	2.076986e-05	
263	-6.50000e+00	2.083242e-05	
264	-6.55000e+00	2.089930e-05	
265	-6.60000e+00	2.097073e-05	
266	0.000000e+00	0.000000e+00	
267	-5.00000e-02	3.507133e-06	
268	-1.00000e-01	6.817665e-06	
269	-1.50000e-01	1.000104e-05	
270	-2.00000e-01	1.307347e-05	
271	-2.50000e-01	1.603880e-05	
272	-3.00000e-01	1.889796e-05	
273	-3.50000e-01	2.165124e-05	
274	-4.00000e-01	2.429875e-05	
275	-4.50000e-01	2.684058e-05	
276	-5.00000e-01	2.927681e-05	
277	-5.50000e-01	3.160750e-05	
278	-6.00000e-01	3.383275e-05	
279	-6.50000e-01	3.595262e-05	
280	-7.00000e-01	3.796720e-05	
281	-7.50000e-01	3.987659e-05	
282	-8.00000e-01	4.168087e-05	
283	-8.50000e-01	4.338015e-05	
284	-9.00000e-01	4.497453e-05	
285	-9.50000e-01	4.646416e-05	
286	-1.00000e+00	4.784918e-05	

Index   v-sweep         i(vds)          
--------------------------------------------------------------------------------
287	-1.05000e+00	4.912977e-05	
288	-1.10000e+00	5.030616e-05	
289	-1.15000e+00	5.137866e-05	
290	-1.20000e+00	5.234766e-05	
291	-1.25000e+00	5.321375e-05	
292	-1.30000e+00	5.397778e-05	
293	-1.35000e+00	5.464103e-05	
294	-1.40000e+00	5.520554e-05	
295	-1.45000e+00	5.567450e-05	
296	-1.50000e+00	5.605303e-05	
297	-1.55000e+00	5.634889e-05	
298	-1.60000e+00	5.657312e-05	
299	-1.65000e+00	5.673953e-05	
300	-1.70000e+00	5.686282e-05	
301	-1.75000e+00	5.695618e-05	
302	-1.80000e+00	5.702970e-05	
303	-1.85000e+00	5.709029e-05	
304	-1.90000e+00	5.714239e-05	
305	-1.95000e+00	5.718872e-05	
306	-2.00000e+00	5.723101e-05	
307	-2.05000e+00	5.727035e-05	
308	-2.10000e+00	5.730745e-05	
309	-2.15000e+00	5.734278e-05	
310	-2.20000e+00	5.737668e-05	
311	-2.25000e+00	5.740939e-05	
312	-2.30000e+00	5.744109e-05	
313	-2.35000e+00	5.747191e-05	
314	-2.40000e+00	5.750197e-05	
315	-2.45000e+00	5.753134e-05	
316	-2.50000e+00	5.756010e-05	
317	-2.55000e+00	5.758830e-05	
318	-2.60000e+00	5.761599e-05	
319	-2.65000e+00	5.764322e-05	
320	-2.70000e+00	5.767002e-05	
321	-2.75000e+00	5.769643e-05	
322	-2.80000e+00	5.772246e-05	
323	-2.85000e+00	5.774814e-05	
324	-2.90000e+00	5.777350e-05	
325	-2.95000e+00	5.779856e-05	
326	-3.00000e+00	5.782333e-05	
327	-3.05000e+00	5.784783e-05	
328	-3.10000e+00	5.787208e-05	
329	-3.15000e+00	5.789608e-05	
330	-3.20000e+00	5.791986e-05	
331	-3.25000e+00	5.794341e-05	
332	-3.30000e+00	5.796676e-05	
333	-3.35000e+00	5.798991e-05	
334	-3.40000e+00	5.801287e-05	
335	-3.45000e+00	5.803565e-05	
336	-3.50000e+00	5.805826e-05	
337	-3.55000e+00	5.808070e-05	
338	-3.60000e+00	5.810298e-05	
339	-3.65000e+00	5.812511e-05	
340	-3.70000e+00	5.814709e-05	
341	-3.75000e+00	5.816894e-05	
342	-3.80000e+00	5.819065e-05	
343	-3.85000e+00	5.821223e-05	
344	-3.90000e+00	5.823368e-05	

Index   v-sweep         i(vds)          
--------------------------------------------------------------------------------
345	-3.95000e+00	5.825501e-05	
346	-4.00000e+00	5.827623e-05	
347	-4.05000e+00	5.829734e-05	
348	-4.10000e+00	5.831834e-05	
349	-4.15000e+00	5.833923e-05	
350	-4.20000e+00	5.836003e-05	
351	-4.25000e+00	5.838073e-05	
352	-4.30000e+00	5.840134e-05	
353	-4.35000e+00	5.842186e-05	
354	-4.40000e+00	5.844230e-05	
355	-4.45000e+00	5.846266e-05	
356	-4.50000e+00	5.848296e-05	
357	-4.55000e+00	5.850319e-05	
358	-4.60000e+00	5.852336e-05	
359	-4.65000e+00	5.854348e-05	
360	-4.70000e+00	5.856357e-05	
361	-4.75000e+00	5.858362e-05	
362	-4.80000e+00	5.860366e-05	
363	-4.85000e+00	5.862370e-05	
364	-4.90000e+00	5.864376e-05	
365	-4.95000e+00	5.866385e-05	
366	-5.00000e+00	5.868400e-05	
367	-5.05000e+00	5.870424e-05	
368	-5.10000e+00	5.872458e-05	
369	-5.15000e+00	5.874508e-05	
370	-5.20000e+00	5.876577e-05	
371	-5.25000e+00	5.878668e-05	
372	-5.30000e+00	5.880788e-05	
373	-5.35000e+00	5.882941e-05	
374	-5.40000e+00	5.885134e-05	
375	-5.45000e+00	5.887373e-05	
376	-5.50000e+00	5.889667e-05	
377	-5.55000e+00	5.892023e-05	
378	-5.60000e+00	5.894453e-05	
379	-5.65000e+00	5.896964e-05	
380	-5.70000e+00	5.899570e-05	
381	-5.75000e+00	5.902283e-05	
382	-5.80000e+00	5.905116e-05	
383	-5.85000e+00	5.908084e-05	
384	-5.90000e+00	5.911204e-05	
385	-5.95000e+00	5.914492e-05	
386	-6.00000e+00	5.917967e-05	
387	-6.05000e+00	5.921651e-05	
388	-6.10000e+00	5.925564e-05	
389	-6.15000e+00	5.929730e-05	
390	-6.20000e+00	5.934173e-05	
391	-6.25000e+00	5.938922e-05	
392	-6.30000e+00	5.944003e-05	
393	-6.35000e+00	5.949448e-05	
394	-6.40000e+00	5.955288e-05	
395	-6.45000e+00	5.961557e-05	
396	-6.50000e+00	5.968291e-05	
397	-6.55000e+00	5.975528e-05	
398	-6.60000e+00	5.983307e-05	
399	0.000000e+00	0.000000e+00	
400	-5.00000e-02	4.703569e-06	
401	-1.00000e-01	9.217933e-06	
402	-1.50000e-01	1.361252e-05	

Index   v-sweep         i(vds)          
--------------------------------------------------------------------------------
403	-2.00000e-01	1.790355e-05	
404	-2.50000e-01	2.209484e-05	
405	-3.00000e-01	2.618733e-05	
406	-3.50000e-01	3.018128e-05	
407	-4.00000e-01	3.407680e-05	
408	-4.50000e-01	3.787397e-05	
409	-5.00000e-01	4.157284e-05	
410	-5.50000e-01	4.517348e-05	
411	-6.00000e-01	4.867595e-05	
412	-6.50000e-01	5.208031e-05	
413	-7.00000e-01	5.538663e-05	
414	-7.50000e-01	5.859496e-05	
415	-8.00000e-01	6.170537e-05	
416	-8.50000e-01	6.471793e-05	
417	-9.00000e-01	6.763269e-05	
418	-9.50000e-01	7.044972e-05	
419	-1.00000e+00	7.316909e-05	
420	-1.05000e+00	7.579087e-05	
421	-1.10000e+00	7.831512e-05	
422	-1.15000e+00	8.074191e-05	
423	-1.20000e+00	8.307132e-05	
424	-1.25000e+00	8.530341e-05	
425	-1.30000e+00	8.743828e-05	
426	-1.35000e+00	8.947599e-05	
427	-1.40000e+00	9.141665e-05	
428	-1.45000e+00	9.326034e-05	
429	-1.50000e+00	9.500717e-05	
430	-1.55000e+00	9.665725e-05	
431	-1.60000e+00	9.821073e-05	
432	-1.65000e+00	9.966775e-05	
433	-1.70000e+00	1.010285e-04	
434	-1.75000e+00	1.022932e-04	
435	-1.80000e+00	1.034622e-04	
436	-1.85000e+00	1.045358e-04	
437	-1.90000e+00	1.055145e-04	
438	-1.95000e+00	1.063991e-04	
439	-2.00000e+00	1.071905e-04	
440	-2.05000e+00	1.078901e-04	
441	-2.10000e+00	1.084999e-04	
442	-2.15000e+00	1.090229e-04	
443	-2.20000e+00	1.094634e-04	
444	-2.25000e+00	1.098276e-04	
445	-2.30000e+00	1.101235e-04	
446	-2.35000e+00	1.103613e-04	
447	-2.40000e+00	1.105522e-04	
448	-2.45000e+00	1.107071e-04	
449	-2.50000e+00	1.108355e-04	
450	-2.55000e+00	1.109452e-04	
451	-2.60000e+00	1.110414e-04	
452	-2.65000e+00	1.111281e-04	
453	-2.70000e+00	1.112078e-04	
454	-2.75000e+00	1.112822e-04	
455	-2.80000e+00	1.113527e-04	
456	-2.85000e+00	1.114198e-04	
457	-2.90000e+00	1.114844e-04	
458	-2.95000e+00	1.115468e-04	
459	-3.00000e+00	1.116073e-04	
460	-3.05000e+00	1.116663e-04	

Index   v-sweep         i(vds)          
--------------------------------------------------------------------------------
461	-3.10000e+00	1.117237e-04	
462	-3.15000e+00	1.117800e-04	
463	-3.20000e+00	1.118350e-04	
464	-3.25000e+00	1.118891e-04	
465	-3.30000e+00	1.119422e-04	
466	-3.35000e+00	1.119945e-04	
467	-3.40000e+00	1.120459e-04	
468	-3.45000e+00	1.120966e-04	
469	-3.50000e+00	1.121466e-04	
470	-3.55000e+00	1.121960e-04	
471	-3.60000e+00	1.122448e-04	
472	-3.65000e+00	1.122930e-04	
473	-3.70000e+00	1.123406e-04	
474	-3.75000e+00	1.123878e-04	
475	-3.80000e+00	1.124345e-04	
476	-3.85000e+00	1.124807e-04	
477	-3.90000e+00	1.125265e-04	
478	-3.95000e+00	1.125719e-04	
479	-4.00000e+00	1.126169e-04	
480	-4.05000e+00	1.126615e-04	
481	-4.10000e+00	1.127058e-04	
482	-4.15000e+00	1.127497e-04	
483	-4.20000e+00	1.127933e-04	
484	-4.25000e+00	1.128366e-04	
485	-4.30000e+00	1.128796e-04	
486	-4.35000e+00	1.129223e-04	
487	-4.40000e+00	1.129647e-04	
488	-4.45000e+00	1.130069e-04	
489	-4.50000e+00	1.130488e-04	
490	-4.55000e+00	1.130905e-04	
491	-4.60000e+00	1.131319e-04	
492	-4.65000e+00	1.131731e-04	
493	-4.70000e+00	1.132141e-04	
494	-4.75000e+00	1.132549e-04	
495	-4.80000e+00	1.132954e-04	
496	-4.85000e+00	1.133358e-04	
497	-4.90000e+00	1.133760e-04	
498	-4.95000e+00	1.134160e-04	
499	-5.00000e+00	1.134558e-04	
500	-5.05000e+00	1.134955e-04	
501	-5.10000e+00	1.135350e-04	
502	-5.15000e+00	1.135744e-04	
503	-5.20000e+00	1.136136e-04	
504	-5.25000e+00	1.136527e-04	
505	-5.30000e+00	1.136917e-04	
506	-5.35000e+00	1.137306e-04	
507	-5.40000e+00	1.137694e-04	
508	-5.45000e+00	1.138081e-04	
509	-5.50000e+00	1.138468e-04	
510	-5.55000e+00	1.138855e-04	
511	-5.60000e+00	1.139243e-04	
512	-5.65000e+00	1.139630e-04	
513	-5.70000e+00	1.140019e-04	
514	-5.75000e+00	1.140409e-04	
515	-5.80000e+00	1.140801e-04	
516	-5.85000e+00	1.141196e-04	
517	-5.90000e+00	1.141594e-04	
518	-5.95000e+00	1.141996e-04	

Index   v-sweep         i(vds)          
--------------------------------------------------------------------------------
519	-6.00000e+00	1.142403e-04	
520	-6.05000e+00	1.142816e-04	
521	-6.10000e+00	1.143236e-04	
522	-6.15000e+00	1.143665e-04	
523	-6.20000e+00	1.144103e-04	
524	-6.25000e+00	1.144553e-04	
525	-6.30000e+00	1.145016e-04	
526	-6.35000e+00	1.145494e-04	
527	-6.40000e+00	1.145989e-04	
528	-6.45000e+00	1.146504e-04	
529	-6.50000e+00	1.147040e-04	
530	-6.55000e+00	1.147602e-04	
531	-6.60000e+00	1.148191e-04	
532	0.000000e+00	0.000000e+00	
533	-5.00000e-02	5.766236e-06	
534	-1.00000e-01	1.134968e-05	
535	-1.50000e-01	1.681976e-05	
536	-2.00000e-01	2.219268e-05	
537	-2.50000e-01	2.747226e-05	
538	-3.00000e-01	3.265942e-05	
539	-3.50000e-01	3.775443e-05	
540	-4.00000e-01	4.275739e-05	
541	-4.50000e-01	4.766837e-05	
542	-5.00000e-01	5.248741e-05	
543	-5.50000e-01	5.721458e-05	
544	-6.00000e-01	6.184993e-05	
545	-6.50000e-01	6.639351e-05	
546	-7.00000e-01	7.084538e-05	
547	-7.50000e-01	7.520560e-05	
548	-8.00000e-01	7.947422e-05	
549	-8.50000e-01	8.365129e-05	
550	-9.00000e-01	8.773686e-05	
551	-9.50000e-01	9.173101e-05	
552	-1.00000e+00	9.563377e-05	
553	-1.05000e+00	9.944520e-05	
554	-1.10000e+00	1.031654e-04	
555	-1.15000e+00	1.067943e-04	
556	-1.20000e+00	1.103321e-04	
557	-1.25000e+00	1.137788e-04	
558	-1.30000e+00	1.171344e-04	
559	-1.35000e+00	1.203991e-04	
560	-1.40000e+00	1.235728e-04	
561	-1.45000e+00	1.266557e-04	
562	-1.50000e+00	1.296477e-04	
563	-1.55000e+00	1.325490e-04	
564	-1.60000e+00	1.353596e-04	
565	-1.65000e+00	1.380796e-04	
566	-1.70000e+00	1.407089e-04	
567	-1.75000e+00	1.432478e-04	
568	-1.80000e+00	1.456963e-04	
569	-1.85000e+00	1.480543e-04	
570	-1.90000e+00	1.503221e-04	
571	-1.95000e+00	1.524997e-04	
572	-2.00000e+00	1.545871e-04	
573	-2.05000e+00	1.565845e-04	
574	-2.10000e+00	1.584919e-04	
575	-2.15000e+00	1.603094e-04	
576	-2.20000e+00	1.620372e-04	

Index   v-sweep         i(vds)          
--------------------------------------------------------------------------------
577	-2.25000e+00	1.636754e-04	
578	-2.30000e+00	1.652241e-04	
579	-2.35000e+00	1.666835e-04	
580	-2.40000e+00	1.680538e-04	
581	-2.45000e+00	1.693353e-04	
582	-2.50000e+00	1.705282e-04	
583	-2.55000e+00	1.716330e-04	
584	-2.60000e+00	1.726503e-04	
585	-2.65000e+00	1.735806e-04	
586	-2.70000e+00	1.744250e-04	
587	-2.75000e+00	1.751846e-04	
588	-2.80000e+00	1.758614e-04	
589	-2.85000e+00	1.764577e-04	
590	-2.90000e+00	1.769768e-04	
591	-2.95000e+00	1.774235e-04	
592	-3.00000e+00	1.778036e-04	
593	-3.05000e+00	1.781245e-04	
594	-3.10000e+00	1.783948e-04	
595	-3.15000e+00	1.786236e-04	
596	-3.20000e+00	1.788195e-04	
597	-3.25000e+00	1.789903e-04	
598	-3.30000e+00	1.791421e-04	
599	-3.35000e+00	1.792797e-04	
600	-3.40000e+00	1.794066e-04	
601	-3.45000e+00	1.795254e-04	
602	-3.50000e+00	1.796377e-04	
603	-3.55000e+00	1.797450e-04	
604	-3.60000e+00	1.798481e-04	
605	-3.65000e+00	1.799478e-04	
606	-3.70000e+00	1.800445e-04	
607	-3.75000e+00	1.801386e-04	
608	-3.80000e+00	1.802305e-04	
609	-3.85000e+00	1.803203e-04	
610	-3.90000e+00	1.804084e-04	
611	-3.95000e+00	1.804949e-04	
612	-4.00000e+00	1.805799e-04	
613	-4.05000e+00	1.806635e-04	
614	-4.10000e+00	1.807458e-04	
615	-4.15000e+00	1.808270e-04	
616	-4.20000e+00	1.809071e-04	
617	-4.25000e+00	1.809862e-04	
618	-4.30000e+00	1.810644e-04	
619	-4.35000e+00	1.811416e-04	
620	-4.40000e+00	1.812180e-04	
621	-4.45000e+00	1.812936e-04	
622	-4.50000e+00	1.813684e-04	
623	-4.55000e+00	1.814426e-04	
624	-4.60000e+00	1.815160e-04	
625	-4.65000e+00	1.815888e-04	
626	-4.70000e+00	1.816610e-04	
627	-4.75000e+00	1.817326e-04	
628	-4.80000e+00	1.818036e-04	
629	-4.85000e+00	1.818741e-04	
630	-4.90000e+00	1.819441e-04	
631	-4.95000e+00	1.820136e-04	
632	-5.00000e+00	1.820826e-04	
633	-5.05000e+00	1.821512e-04	
634	-5.10000e+00	1.822193e-04	

Index   v-sweep         i(vds)          
--------------------------------------------------------------------------------
635	-5.15000e+00	1.822870e-04	
636	-5.20000e+00	1.823543e-04	
637	-5.25000e+00	1.824213e-04	
638	-5.30000e+00	1.824878e-04	
639	-5.35000e+00	1.825540e-04	
640	-5.40000e+00	1.826198e-04	
641	-5.45000e+00	1.826853e-04	
642	-5.50000e+00	1.827505e-04	
643	-5.55000e+00	1.828154e-04	
644	-5.60000e+00	1.828799e-04	
645	-5.65000e+00	1.829442e-04	
646	-5.70000e+00	1.830082e-04	
647	-5.75000e+00	1.830719e-04	
648	-5.80000e+00	1.831354e-04	
649	-5.85000e+00	1.831987e-04	
650	-5.90000e+00	1.832617e-04	
651	-5.95000e+00	1.833245e-04	
652	-6.00000e+00	1.833871e-04	
653	-6.05000e+00	1.834496e-04	
654	-6.10000e+00	1.835119e-04	
655	-6.15000e+00	1.835741e-04	
656	-6.20000e+00	1.836362e-04	
657	-6.25000e+00	1.836983e-04	
658	-6.30000e+00	1.837604e-04	
659	-6.35000e+00	1.838225e-04	
660	-6.40000e+00	1.838847e-04	
661	-6.45000e+00	1.839472e-04	
662	-6.50000e+00	1.840098e-04	
663	-6.55000e+00	1.840728e-04	
664	-6.60000e+00	1.841363e-04	
665	0.000000e+00	0.000000e+00	
666	-5.00000e-02	6.732168e-06	
667	-1.00000e-01	1.328702e-05	
668	-1.50000e-01	1.973397e-05	
669	-2.00000e-01	2.608922e-05	
670	-2.50000e-01	3.235659e-05	
671	-3.00000e-01	3.853700e-05	
672	-3.50000e-01	4.463070e-05	
673	-4.00000e-01	5.063780e-05	
674	-4.50000e-01	5.655835e-05	
675	-5.00000e-01	6.239240e-05	
676	-5.50000e-01	6.814001e-05	
677	-6.00000e-01	7.380122e-05	
678	-6.50000e-01	7.937609e-05	
679	-7.00000e-01	8.486466e-05	
680	-7.50000e-01	9.026699e-05	
681	-8.00000e-01	9.558311e-05	
682	-8.50000e-01	1.008131e-04	
683	-9.00000e-01	1.059570e-04	
684	-9.50000e-01	1.110148e-04	
685	-1.00000e+00	1.159867e-04	
686	-1.05000e+00	1.208726e-04	
687	-1.10000e+00	1.256725e-04	
688	-1.15000e+00	1.303867e-04	
689	-1.20000e+00	1.350150e-04	
690	-1.25000e+00	1.395576e-04	
691	-1.30000e+00	1.440145e-04	
692	-1.35000e+00	1.483858e-04	

Index   v-sweep         i(vds)          
--------------------------------------------------------------------------------
693	-1.40000e+00	1.526714e-04	
694	-1.45000e+00	1.568715e-04	
695	-1.50000e+00	1.609862e-04	
696	-1.55000e+00	1.650153e-04	
697	-1.60000e+00	1.689591e-04	
698	-1.65000e+00	1.728175e-04	
699	-1.70000e+00	1.765906e-04	
700	-1.75000e+00	1.802785e-04	
701	-1.80000e+00	1.838812e-04	
702	-1.85000e+00	1.873987e-04	
703	-1.90000e+00	1.908312e-04	
704	-1.95000e+00	1.941786e-04	
705	-2.00000e+00	1.974411e-04	
706	-2.05000e+00	2.006186e-04	
707	-2.10000e+00	2.037112e-04	
708	-2.15000e+00	2.067190e-04	
709	-2.20000e+00	2.096421e-04	
710	-2.25000e+00	2.124804e-04	
711	-2.30000e+00	2.152341e-04	
712	-2.35000e+00	2.179033e-04	
713	-2.40000e+00	2.204878e-04	
714	-2.45000e+00	2.229880e-04	
715	-2.50000e+00	2.254037e-04	
716	-2.55000e+00	2.277351e-04	
717	-2.60000e+00	2.299822e-04	
718	-2.65000e+00	2.321452e-04	
719	-2.70000e+00	2.342240e-04	
720	-2.75000e+00	2.362189e-04	
721	-2.80000e+00	2.381298e-04	
722	-2.85000e+00	2.399569e-04	
723	-2.90000e+00	2.417003e-04	
724	-2.95000e+00	2.433601e-04	
725	-3.00000e+00	2.449366e-04	
726	-3.05000e+00	2.464298e-04	
727	-3.10000e+00	2.478400e-04	
728	-3.15000e+00	2.491674e-04	
729	-3.20000e+00	2.504123e-04	
730	-3.25000e+00	2.515752e-04	
731	-3.30000e+00	2.526564e-04	
732	-3.35000e+00	2.536567e-04	
733	-3.40000e+00	2.545769e-04	
734	-3.45000e+00	2.554179e-04	
735	-3.50000e+00	2.561813e-04	
736	-3.55000e+00	2.568689e-04	
737	-3.60000e+00	2.574833e-04	
738	-3.65000e+00	2.580277e-04	
739	-3.70000e+00	2.585064e-04	
740	-3.75000e+00	2.589247e-04	
741	-3.80000e+00	2.592891e-04	
742	-3.85000e+00	2.596067e-04	
743	-3.90000e+00	2.598850e-04	
744	-3.95000e+00	2.601312e-04	
745	-4.00000e+00	2.603520e-04	
746	-4.05000e+00	2.605529e-04	
747	-4.10000e+00	2.607383e-04	
748	-4.15000e+00	2.609115e-04	
749	-4.20000e+00	2.610753e-04	
750	-4.25000e+00	2.612314e-04	

Index   v-sweep         i(vds)          
--------------------------------------------------------------------------------
751	-4.30000e+00	2.613812e-04	
752	-4.35000e+00	2.615259e-04	
753	-4.40000e+00	2.616662e-04	
754	-4.45000e+00	2.618027e-04	
755	-4.50000e+00	2.619359e-04	
756	-4.55000e+00	2.620661e-04	
757	-4.60000e+00	2.621938e-04	
758	-4.65000e+00	2.623191e-04	
759	-4.70000e+00	2.624422e-04	
760	-4.75000e+00	2.625634e-04	
761	-4.80000e+00	2.626827e-04	
762	-4.85000e+00	2.628003e-04	
763	-4.90000e+00	2.629164e-04	
764	-4.95000e+00	2.630310e-04	
765	-5.00000e+00	2.631442e-04	
766	-5.05000e+00	2.632562e-04	
767	-5.10000e+00	2.633669e-04	
768	-5.15000e+00	2.634765e-04	
769	-5.20000e+00	2.635849e-04	
770	-5.25000e+00	2.636924e-04	
771	-5.30000e+00	2.637988e-04	
772	-5.35000e+00	2.639044e-04	
773	-5.40000e+00	2.640090e-04	
774	-5.45000e+00	2.641128e-04	
775	-5.50000e+00	2.642158e-04	
776	-5.55000e+00	2.643180e-04	
777	-5.60000e+00	2.644194e-04	
778	-5.65000e+00	2.645202e-04	
779	-5.70000e+00	2.646202e-04	
780	-5.75000e+00	2.647196e-04	
781	-5.80000e+00	2.648184e-04	
782	-5.85000e+00	2.649166e-04	
783	-5.90000e+00	2.650142e-04	
784	-5.95000e+00	2.651112e-04	
785	-6.00000e+00	2.652077e-04	
786	-6.05000e+00	2.653037e-04	
787	-6.10000e+00	2.653992e-04	
788	-6.15000e+00	2.654941e-04	
789	-6.20000e+00	2.655886e-04	
790	-6.25000e+00	2.656827e-04	
791	-6.30000e+00	2.657763e-04	
792	-6.35000e+00	2.658695e-04	
793	-6.40000e+00	2.659623e-04	
794	-6.45000e+00	2.660547e-04	
795	-6.50000e+00	2.661468e-04	
796	-6.55000e+00	2.662385e-04	
797	-6.60000e+00	2.663298e-04	
Note: No ".plot", ".print", or ".fourier" lines; no simulations run
