
Note: Compatibility modes selected: hs

Warning: m=xx on .subckt line will override multiplier m hierarchy!


Circuit: ***************************

Doing analysis at TEMP = 25.000000 and TNOM = 25.000000


No. of Data Rows : 798
                          ***************************
                          DC transfer characteristic  Mon Jan  9 13:57:53  2023
--------------------------------------------------------------------------------
Index   v-sweep         i(vds)          
--------------------------------------------------------------------------------
0	0.000000e+00	0.000000e+00	
1	-5.00000e-02	6.067833e-08	
2	-1.00000e-01	9.955144e-08	
3	-1.50000e-01	1.190408e-07	
4	-2.00000e-01	1.259941e-07	
5	-2.50000e-01	1.283738e-07	
6	-3.00000e-01	1.295646e-07	
7	-3.50000e-01	1.303944e-07	
8	-4.00000e-01	1.310746e-07	
9	-4.50000e-01	1.316739e-07	
10	-5.00000e-01	1.322204e-07	
11	-5.50000e-01	1.327283e-07	
12	-6.00000e-01	1.332054e-07	
13	-6.50000e-01	1.336568e-07	
14	-7.00000e-01	1.340863e-07	
15	-7.50000e-01	1.344965e-07	
16	-8.00000e-01	1.348896e-07	
17	-8.50000e-01	1.352673e-07	
18	-9.00000e-01	1.356310e-07	
19	-9.50000e-01	1.359820e-07	
20	-1.00000e+00	1.363212e-07	
21	-1.05000e+00	1.366496e-07	
22	-1.10000e+00	1.369681e-07	
23	-1.15000e+00	1.372773e-07	
24	-1.20000e+00	1.375778e-07	
25	-1.25000e+00	1.378703e-07	
26	-1.30000e+00	1.381552e-07	
27	-1.35000e+00	1.384330e-07	
28	-1.40000e+00	1.387041e-07	
29	-1.45000e+00	1.389689e-07	
30	-1.50000e+00	1.392278e-07	
31	-1.55000e+00	1.394811e-07	
32	-1.60000e+00	1.397291e-07	
33	-1.65000e+00	1.399720e-07	
34	-1.70000e+00	1.402101e-07	
35	-1.75000e+00	1.404437e-07	
36	-1.80000e+00	1.406729e-07	
37	-1.85000e+00	1.408980e-07	
38	-1.90000e+00	1.411191e-07	
39	-1.95000e+00	1.413365e-07	
40	-2.00000e+00	1.415502e-07	
41	-2.05000e+00	1.417605e-07	
42	-2.10000e+00	1.419675e-07	
43	-2.15000e+00	1.421712e-07	
44	-2.20000e+00	1.423720e-07	
45	-2.25000e+00	1.425698e-07	
46	-2.30000e+00	1.427648e-07	
47	-2.35000e+00	1.429570e-07	
48	-2.40000e+00	1.431467e-07	
49	-2.45000e+00	1.433339e-07	
50	-2.50000e+00	1.435186e-07	
51	-2.55000e+00	1.437010e-07	
52	-2.60000e+00	1.438811e-07	
53	-2.65000e+00	1.440590e-07	
54	-2.70000e+00	1.442349e-07	

Index   v-sweep         i(vds)          
--------------------------------------------------------------------------------
55	-2.75000e+00	1.444086e-07	
56	-2.80000e+00	1.445805e-07	
57	-2.85000e+00	1.447504e-07	
58	-2.90000e+00	1.449185e-07	
59	-2.95000e+00	1.450848e-07	
60	-3.00000e+00	1.452493e-07	
61	-3.05000e+00	1.454122e-07	
62	-3.10000e+00	1.455736e-07	
63	-3.15000e+00	1.457333e-07	
64	-3.20000e+00	1.458916e-07	
65	-3.25000e+00	1.460484e-07	
66	-3.30000e+00	1.462038e-07	
67	-3.35000e+00	1.463580e-07	
68	-3.40000e+00	1.465109e-07	
69	-3.45000e+00	1.466626e-07	
70	-3.50000e+00	1.468131e-07	
71	-3.55000e+00	1.469627e-07	
72	-3.60000e+00	1.471113e-07	
73	-3.65000e+00	1.472590e-07	
74	-3.70000e+00	1.474059e-07	
75	-3.75000e+00	1.475522e-07	
76	-3.80000e+00	1.476979e-07	
77	-3.85000e+00	1.478432e-07	
78	-3.90000e+00	1.479881e-07	
79	-3.95000e+00	1.481330e-07	
80	-4.00000e+00	1.482778e-07	
81	-4.05000e+00	1.484229e-07	
82	-4.10000e+00	1.485683e-07	
83	-4.15000e+00	1.487144e-07	
84	-4.20000e+00	1.488613e-07	
85	-4.25000e+00	1.490093e-07	
86	-4.30000e+00	1.491587e-07	
87	-4.35000e+00	1.493098e-07	
88	-4.40000e+00	1.494630e-07	
89	-4.45000e+00	1.496185e-07	
90	-4.50000e+00	1.497768e-07	
91	-4.55000e+00	1.499384e-07	
92	-4.60000e+00	1.501035e-07	
93	-4.65000e+00	1.502729e-07	
94	-4.70000e+00	1.504469e-07	
95	-4.75000e+00	1.506261e-07	
96	-4.80000e+00	1.508111e-07	
97	-4.85000e+00	1.510026e-07	
98	-4.90000e+00	1.512013e-07	
99	-4.95000e+00	1.514078e-07	
100	-5.00000e+00	1.516230e-07	
101	-5.05000e+00	1.518476e-07	
102	-5.10000e+00	1.520825e-07	
103	-5.15000e+00	1.523287e-07	
104	-5.20000e+00	1.525870e-07	
105	-5.25000e+00	1.528584e-07	
106	-5.30000e+00	1.531441e-07	
107	-5.35000e+00	1.534452e-07	
108	-5.40000e+00	1.537627e-07	
109	-5.45000e+00	1.540979e-07	
110	-5.50000e+00	1.544522e-07	
111	-5.55000e+00	1.548267e-07	
112	-5.60000e+00	1.552230e-07	

Index   v-sweep         i(vds)          
--------------------------------------------------------------------------------
113	-5.65000e+00	1.556423e-07	
114	-5.70000e+00	1.560863e-07	
115	-5.75000e+00	1.565565e-07	
116	-5.80000e+00	1.570544e-07	
117	-5.85000e+00	1.575818e-07	
118	-5.90000e+00	1.581404e-07	
119	-5.95000e+00	1.587320e-07	
120	-6.00000e+00	1.593584e-07	
121	-6.05000e+00	1.600214e-07	
122	-6.10000e+00	1.607232e-07	
123	-6.15000e+00	1.614657e-07	
124	-6.20000e+00	1.622509e-07	
125	-6.25000e+00	1.630811e-07	
126	-6.30000e+00	1.639584e-07	
127	-6.35000e+00	1.648850e-07	
128	-6.40000e+00	1.658634e-07	
129	-6.45000e+00	1.668958e-07	
130	-6.50000e+00	1.679847e-07	
131	-6.55000e+00	1.691325e-07	
132	-6.60000e+00	1.703419e-07	
133	0.000000e+00	0.000000e+00	
134	-5.00000e-02	4.383860e-07	
135	-1.00000e-01	8.502574e-07	
136	-1.50000e-01	1.235773e-06	
137	-2.00000e-01	1.595091e-06	
138	-2.50000e-01	1.928371e-06	
139	-3.00000e-01	2.235774e-06	
140	-3.50000e-01	2.517464e-06	
141	-4.00000e-01	2.773612e-06	
142	-4.50000e-01	3.004397e-06	
143	-5.00000e-01	3.210019e-06	
144	-5.50000e-01	3.390710e-06	
145	-6.00000e-01	3.546766e-06	
146	-6.50000e-01	3.678605e-06	
147	-7.00000e-01	3.786891e-06	
148	-7.50000e-01	3.872773e-06	
149	-8.00000e-01	3.938274e-06	
150	-8.50000e-01	3.986683e-06	
151	-9.00000e-01	4.022360e-06	
152	-9.50000e-01	4.049646e-06	
153	-1.00000e+00	4.071780e-06	
154	-1.05000e+00	4.090734e-06	
155	-1.10000e+00	4.107599e-06	
156	-1.15000e+00	4.122980e-06	
157	-1.20000e+00	4.137232e-06	
158	-1.25000e+00	4.150577e-06	
159	-1.30000e+00	4.163165e-06	
160	-1.35000e+00	4.175105e-06	
161	-1.40000e+00	4.186478e-06	
162	-1.45000e+00	4.197349e-06	
163	-1.50000e+00	4.207769e-06	
164	-1.55000e+00	4.217783e-06	
165	-1.60000e+00	4.227427e-06	
166	-1.65000e+00	4.236732e-06	
167	-1.70000e+00	4.245726e-06	
168	-1.75000e+00	4.254432e-06	
169	-1.80000e+00	4.262873e-06	
170	-1.85000e+00	4.271066e-06	

Index   v-sweep         i(vds)          
--------------------------------------------------------------------------------
171	-1.90000e+00	4.279028e-06	
172	-1.95000e+00	4.286774e-06	
173	-2.00000e+00	4.294319e-06	
174	-2.05000e+00	4.301674e-06	
175	-2.10000e+00	4.308851e-06	
176	-2.15000e+00	4.315859e-06	
177	-2.20000e+00	4.322709e-06	
178	-2.25000e+00	4.329408e-06	
179	-2.30000e+00	4.335965e-06	
180	-2.35000e+00	4.342388e-06	
181	-2.40000e+00	4.348681e-06	
182	-2.45000e+00	4.354853e-06	
183	-2.50000e+00	4.360909e-06	
184	-2.55000e+00	4.366854e-06	
185	-2.60000e+00	4.372693e-06	
186	-2.65000e+00	4.378431e-06	
187	-2.70000e+00	4.384073e-06	
188	-2.75000e+00	4.389622e-06	
189	-2.80000e+00	4.395082e-06	
190	-2.85000e+00	4.400457e-06	
191	-2.90000e+00	4.405750e-06	
192	-2.95000e+00	4.410965e-06	
193	-3.00000e+00	4.416104e-06	
194	-3.05000e+00	4.421171e-06	
195	-3.10000e+00	4.426168e-06	
196	-3.15000e+00	4.431097e-06	
197	-3.20000e+00	4.435962e-06	
198	-3.25000e+00	4.440763e-06	
199	-3.30000e+00	4.445504e-06	
200	-3.35000e+00	4.450187e-06	
201	-3.40000e+00	4.454813e-06	
202	-3.45000e+00	4.459385e-06	
203	-3.50000e+00	4.463904e-06	
204	-3.55000e+00	4.468372e-06	
205	-3.60000e+00	4.472790e-06	
206	-3.65000e+00	4.477161e-06	
207	-3.70000e+00	4.481486e-06	
208	-3.75000e+00	4.485766e-06	
209	-3.80000e+00	4.490004e-06	
210	-3.85000e+00	4.494200e-06	
211	-3.90000e+00	4.498356e-06	
212	-3.95000e+00	4.502474e-06	
213	-4.00000e+00	4.506556e-06	
214	-4.05000e+00	4.510602e-06	
215	-4.10000e+00	4.514616e-06	
216	-4.15000e+00	4.518599e-06	
217	-4.20000e+00	4.522553e-06	
218	-4.25000e+00	4.526481e-06	
219	-4.30000e+00	4.530384e-06	
220	-4.35000e+00	4.534265e-06	
221	-4.40000e+00	4.538127e-06	
222	-4.45000e+00	4.541974e-06	
223	-4.50000e+00	4.545808e-06	
224	-4.55000e+00	4.549634e-06	
225	-4.60000e+00	4.553455e-06	
226	-4.65000e+00	4.557277e-06	
227	-4.70000e+00	4.561104e-06	
228	-4.75000e+00	4.564942e-06	

Index   v-sweep         i(vds)          
--------------------------------------------------------------------------------
229	-4.80000e+00	4.568797e-06	
230	-4.85000e+00	4.572675e-06	
231	-4.90000e+00	4.576585e-06	
232	-4.95000e+00	4.580533e-06	
233	-5.00000e+00	4.584529e-06	
234	-5.05000e+00	4.588581e-06	
235	-5.10000e+00	4.592701e-06	
236	-5.15000e+00	4.596900e-06	
237	-5.20000e+00	4.601189e-06	
238	-5.25000e+00	4.605581e-06	
239	-5.30000e+00	4.610091e-06	
240	-5.35000e+00	4.614734e-06	
241	-5.40000e+00	4.619525e-06	
242	-5.45000e+00	4.624482e-06	
243	-5.50000e+00	4.629623e-06	
244	-5.55000e+00	4.634969e-06	
245	-5.60000e+00	4.640539e-06	
246	-5.65000e+00	4.646357e-06	
247	-5.70000e+00	4.652446e-06	
248	-5.75000e+00	4.658831e-06	
249	-5.80000e+00	4.665537e-06	
250	-5.85000e+00	4.672595e-06	
251	-5.90000e+00	4.680031e-06	
252	-5.95000e+00	4.687879e-06	
253	-6.00000e+00	4.696169e-06	
254	-6.05000e+00	4.704936e-06	
255	-6.10000e+00	4.714216e-06	
256	-6.15000e+00	4.724046e-06	
257	-6.20000e+00	4.734464e-06	
258	-6.25000e+00	4.745513e-06	
259	-6.30000e+00	4.757233e-06	
260	-6.35000e+00	4.769670e-06	
261	-6.40000e+00	4.782868e-06	
262	-6.45000e+00	4.796875e-06	
263	-6.50000e+00	4.811742e-06	
264	-6.55000e+00	4.827518e-06	
265	-6.60000e+00	4.844256e-06	
266	0.000000e+00	0.000000e+00	
267	-5.00000e-02	7.563865e-07	
268	-1.00000e-01	1.487113e-06	
269	-1.50000e-01	2.192312e-06	
270	-2.00000e-01	2.872113e-06	
271	-2.50000e-01	3.526645e-06	
272	-3.00000e-01	4.156037e-06	
273	-3.50000e-01	4.760418e-06	
274	-4.00000e-01	5.339916e-06	
275	-4.50000e-01	5.894656e-06	
276	-5.00000e-01	6.424767e-06	
277	-5.50000e-01	6.930374e-06	
278	-6.00000e-01	7.411603e-06	
279	-6.50000e-01	7.868581e-06	
280	-7.00000e-01	8.301435e-06	
281	-7.50000e-01	8.710290e-06	
282	-8.00000e-01	9.095277e-06	
283	-8.50000e-01	9.456526e-06	
284	-9.00000e-01	9.794172e-06	
285	-9.50000e-01	1.010835e-05	
286	-1.00000e+00	1.039922e-05	

Index   v-sweep         i(vds)          
--------------------------------------------------------------------------------
287	-1.05000e+00	1.066694e-05	
288	-1.10000e+00	1.091168e-05	
289	-1.15000e+00	1.113367e-05	
290	-1.20000e+00	1.133319e-05	
291	-1.25000e+00	1.151059e-05	
292	-1.30000e+00	1.166641e-05	
293	-1.35000e+00	1.180143e-05	
294	-1.40000e+00	1.191686e-05	
295	-1.45000e+00	1.201447e-05	
296	-1.50000e+00	1.209668e-05	
297	-1.55000e+00	1.216637e-05	
298	-1.60000e+00	1.222643e-05	
299	-1.65000e+00	1.227931e-05	
300	-1.70000e+00	1.232684e-05	
301	-1.75000e+00	1.237029e-05	
302	-1.80000e+00	1.241053e-05	
303	-1.85000e+00	1.244814e-05	
304	-1.90000e+00	1.248355e-05	
305	-1.95000e+00	1.251708e-05	
306	-2.00000e+00	1.254896e-05	
307	-2.05000e+00	1.257938e-05	
308	-2.10000e+00	1.260850e-05	
309	-2.15000e+00	1.263645e-05	
310	-2.20000e+00	1.266333e-05	
311	-2.25000e+00	1.268925e-05	
312	-2.30000e+00	1.271427e-05	
313	-2.35000e+00	1.273846e-05	
314	-2.40000e+00	1.276191e-05	
315	-2.45000e+00	1.278464e-05	
316	-2.50000e+00	1.280672e-05	
317	-2.55000e+00	1.282820e-05	
318	-2.60000e+00	1.284910e-05	
319	-2.65000e+00	1.286946e-05	
320	-2.70000e+00	1.288932e-05	
321	-2.75000e+00	1.290871e-05	
322	-2.80000e+00	1.292766e-05	
323	-2.85000e+00	1.294618e-05	
324	-2.90000e+00	1.296430e-05	
325	-2.95000e+00	1.298204e-05	
326	-3.00000e+00	1.299943e-05	
327	-3.05000e+00	1.301647e-05	
328	-3.10000e+00	1.303320e-05	
329	-3.15000e+00	1.304961e-05	
330	-3.20000e+00	1.306573e-05	
331	-3.25000e+00	1.308156e-05	
332	-3.30000e+00	1.309713e-05	
333	-3.35000e+00	1.311244e-05	
334	-3.40000e+00	1.312751e-05	
335	-3.45000e+00	1.314233e-05	
336	-3.50000e+00	1.315694e-05	
337	-3.55000e+00	1.317132e-05	
338	-3.60000e+00	1.318550e-05	
339	-3.65000e+00	1.319947e-05	
340	-3.70000e+00	1.321326e-05	
341	-3.75000e+00	1.322685e-05	
342	-3.80000e+00	1.324027e-05	
343	-3.85000e+00	1.325351e-05	
344	-3.90000e+00	1.326659e-05	

Index   v-sweep         i(vds)          
--------------------------------------------------------------------------------
345	-3.95000e+00	1.327951e-05	
346	-4.00000e+00	1.329227e-05	
347	-4.05000e+00	1.330488e-05	
348	-4.10000e+00	1.331734e-05	
349	-4.15000e+00	1.332967e-05	
350	-4.20000e+00	1.334186e-05	
351	-4.25000e+00	1.335392e-05	
352	-4.30000e+00	1.336585e-05	
353	-4.35000e+00	1.337766e-05	
354	-4.40000e+00	1.338935e-05	
355	-4.45000e+00	1.340093e-05	
356	-4.50000e+00	1.341239e-05	
357	-4.55000e+00	1.342376e-05	
358	-4.60000e+00	1.343502e-05	
359	-4.65000e+00	1.344618e-05	
360	-4.70000e+00	1.345726e-05	
361	-4.75000e+00	1.346825e-05	
362	-4.80000e+00	1.347915e-05	
363	-4.85000e+00	1.348999e-05	
364	-4.90000e+00	1.350075e-05	
365	-4.95000e+00	1.351145e-05	
366	-5.00000e+00	1.352210e-05	
367	-5.05000e+00	1.353270e-05	
368	-5.10000e+00	1.354327e-05	
369	-5.15000e+00	1.355380e-05	
370	-5.20000e+00	1.356433e-05	
371	-5.25000e+00	1.357485e-05	
372	-5.30000e+00	1.358538e-05	
373	-5.35000e+00	1.359593e-05	
374	-5.40000e+00	1.360653e-05	
375	-5.45000e+00	1.361718e-05	
376	-5.50000e+00	1.362791e-05	
377	-5.55000e+00	1.363875e-05	
378	-5.60000e+00	1.364971e-05	
379	-5.65000e+00	1.366082e-05	
380	-5.70000e+00	1.367210e-05	
381	-5.75000e+00	1.368360e-05	
382	-5.80000e+00	1.369534e-05	
383	-5.85000e+00	1.370735e-05	
384	-5.90000e+00	1.371968e-05	
385	-5.95000e+00	1.373237e-05	
386	-6.00000e+00	1.374546e-05	
387	-6.05000e+00	1.375900e-05	
388	-6.10000e+00	1.377304e-05	
389	-6.15000e+00	1.378764e-05	
390	-6.20000e+00	1.380285e-05	
391	-6.25000e+00	1.381874e-05	
392	-6.30000e+00	1.383538e-05	
393	-6.35000e+00	1.385282e-05	
394	-6.40000e+00	1.387116e-05	
395	-6.45000e+00	1.389046e-05	
396	-6.50000e+00	1.391081e-05	
397	-6.55000e+00	1.393230e-05	
398	-6.60000e+00	1.395501e-05	
399	0.000000e+00	0.000000e+00	
400	-5.00000e-02	1.028963e-06	
401	-1.00000e-01	2.033372e-06	
402	-1.50000e-01	3.013337e-06	

Index   v-sweep         i(vds)          
--------------------------------------------------------------------------------
403	-2.00000e-01	3.968969e-06	
404	-2.50000e-01	4.900378e-06	
405	-3.00000e-01	5.807674e-06	
406	-3.50000e-01	6.690966e-06	
407	-4.00000e-01	7.550361e-06	
408	-4.50000e-01	8.385968e-06	
409	-5.00000e-01	9.197893e-06	
410	-5.50000e-01	9.986244e-06	
411	-6.00000e-01	1.075113e-05	
412	-6.50000e-01	1.149264e-05	
413	-7.00000e-01	1.221090e-05	
414	-7.50000e-01	1.290601e-05	
415	-8.00000e-01	1.357806e-05	
416	-8.50000e-01	1.422717e-05	
417	-9.00000e-01	1.485344e-05	
418	-9.50000e-01	1.545697e-05	
419	-1.00000e+00	1.603785e-05	
420	-1.05000e+00	1.659621e-05	
421	-1.10000e+00	1.713213e-05	
422	-1.15000e+00	1.764572e-05	
423	-1.20000e+00	1.813709e-05	
424	-1.25000e+00	1.860633e-05	
425	-1.30000e+00	1.905356e-05	
426	-1.35000e+00	1.947887e-05	
427	-1.40000e+00	1.988239e-05	
428	-1.45000e+00	2.026421e-05	
429	-1.50000e+00	2.062446e-05	
430	-1.55000e+00	2.096325e-05	
431	-1.60000e+00	2.128073e-05	
432	-1.65000e+00	2.157705e-05	
433	-1.70000e+00	2.185236e-05	
434	-1.75000e+00	2.210688e-05	
435	-1.80000e+00	2.234087e-05	
436	-1.85000e+00	2.255465e-05	
437	-1.90000e+00	2.274867e-05	
438	-1.95000e+00	2.292358e-05	
439	-2.00000e+00	2.308026e-05	
440	-2.05000e+00	2.321995e-05	
441	-2.10000e+00	2.334426e-05	
442	-2.15000e+00	2.345513e-05	
443	-2.20000e+00	2.355466e-05	
444	-2.25000e+00	2.364483e-05	
445	-2.30000e+00	2.372736e-05	
446	-2.35000e+00	2.380365e-05	
447	-2.40000e+00	2.387476e-05	
448	-2.45000e+00	2.394149e-05	
449	-2.50000e+00	2.400447e-05	
450	-2.55000e+00	2.406418e-05	
451	-2.60000e+00	2.412101e-05	
452	-2.65000e+00	2.417529e-05	
453	-2.70000e+00	2.422726e-05	
454	-2.75000e+00	2.427716e-05	
455	-2.80000e+00	2.432517e-05	
456	-2.85000e+00	2.437146e-05	
457	-2.90000e+00	2.441616e-05	
458	-2.95000e+00	2.445940e-05	
459	-3.00000e+00	2.450129e-05	
460	-3.05000e+00	2.454193e-05	

Index   v-sweep         i(vds)          
--------------------------------------------------------------------------------
461	-3.10000e+00	2.458140e-05	
462	-3.15000e+00	2.461979e-05	
463	-3.20000e+00	2.465716e-05	
464	-3.25000e+00	2.469358e-05	
465	-3.30000e+00	2.472910e-05	
466	-3.35000e+00	2.476378e-05	
467	-3.40000e+00	2.479767e-05	
468	-3.45000e+00	2.483081e-05	
469	-3.50000e+00	2.486324e-05	
470	-3.55000e+00	2.489500e-05	
471	-3.60000e+00	2.492612e-05	
472	-3.65000e+00	2.495664e-05	
473	-3.70000e+00	2.498658e-05	
474	-3.75000e+00	2.501598e-05	
475	-3.80000e+00	2.504485e-05	
476	-3.85000e+00	2.507322e-05	
477	-3.90000e+00	2.510111e-05	
478	-3.95000e+00	2.512855e-05	
479	-4.00000e+00	2.515556e-05	
480	-4.05000e+00	2.518214e-05	
481	-4.10000e+00	2.520833e-05	
482	-4.15000e+00	2.523413e-05	
483	-4.20000e+00	2.525955e-05	
484	-4.25000e+00	2.528463e-05	
485	-4.30000e+00	2.530936e-05	
486	-4.35000e+00	2.533376e-05	
487	-4.40000e+00	2.535784e-05	
488	-4.45000e+00	2.538162e-05	
489	-4.50000e+00	2.540511e-05	
490	-4.55000e+00	2.542830e-05	
491	-4.60000e+00	2.545123e-05	
492	-4.65000e+00	2.547388e-05	
493	-4.70000e+00	2.549629e-05	
494	-4.75000e+00	2.551844e-05	
495	-4.80000e+00	2.554035e-05	
496	-4.85000e+00	2.556203e-05	
497	-4.90000e+00	2.558349e-05	
498	-4.95000e+00	2.560473e-05	
499	-5.00000e+00	2.562576e-05	
500	-5.05000e+00	2.564659e-05	
501	-5.10000e+00	2.566722e-05	
502	-5.15000e+00	2.568767e-05	
503	-5.20000e+00	2.570794e-05	
504	-5.25000e+00	2.572804e-05	
505	-5.30000e+00	2.574798e-05	
506	-5.35000e+00	2.576777e-05	
507	-5.40000e+00	2.578741e-05	
508	-5.45000e+00	2.580693e-05	
509	-5.50000e+00	2.582632e-05	
510	-5.55000e+00	2.584560e-05	
511	-5.60000e+00	2.586478e-05	
512	-5.65000e+00	2.588389e-05	
513	-5.70000e+00	2.590293e-05	
514	-5.75000e+00	2.592192e-05	
515	-5.80000e+00	2.594089e-05	
516	-5.85000e+00	2.595985e-05	
517	-5.90000e+00	2.597883e-05	
518	-5.95000e+00	2.599786e-05	

Index   v-sweep         i(vds)          
--------------------------------------------------------------------------------
519	-6.00000e+00	2.601697e-05	
520	-6.05000e+00	2.603618e-05	
521	-6.10000e+00	2.605554e-05	
522	-6.15000e+00	2.607509e-05	
523	-6.20000e+00	2.609486e-05	
524	-6.25000e+00	2.611490e-05	
525	-6.30000e+00	2.613528e-05	
526	-6.35000e+00	2.615603e-05	
527	-6.40000e+00	2.617722e-05	
528	-6.45000e+00	2.619893e-05	
529	-6.50000e+00	2.622121e-05	
530	-6.55000e+00	2.624415e-05	
531	-6.60000e+00	2.626782e-05	
532	0.000000e+00	0.000000e+00	
533	-5.00000e-02	1.267508e-06	
534	-1.00000e-01	2.511554e-06	
535	-1.50000e-01	3.732233e-06	
536	-2.00000e-01	4.929642e-06	
537	-2.50000e-01	6.103875e-06	
538	-3.00000e-01	7.255026e-06	
539	-3.50000e-01	8.383190e-06	
540	-4.00000e-01	9.488459e-06	
541	-4.50000e-01	1.057093e-05	
542	-5.00000e-01	1.163069e-05	
543	-5.50000e-01	1.266783e-05	
544	-6.00000e-01	1.368244e-05	
545	-6.50000e-01	1.467463e-05	
546	-7.00000e-01	1.564446e-05	
547	-7.50000e-01	1.659205e-05	
548	-8.00000e-01	1.751747e-05	
549	-8.50000e-01	1.842081e-05	
550	-9.00000e-01	1.930217e-05	
551	-9.50000e-01	2.016163e-05	
552	-1.00000e+00	2.099928e-05	
553	-1.05000e+00	2.181521e-05	
554	-1.10000e+00	2.260950e-05	
555	-1.15000e+00	2.338225e-05	
556	-1.20000e+00	2.413353e-05	
557	-1.25000e+00	2.486344e-05	
558	-1.30000e+00	2.557206e-05	
559	-1.35000e+00	2.625947e-05	
560	-1.40000e+00	2.692577e-05	
561	-1.45000e+00	2.757104e-05	
562	-1.50000e+00	2.819535e-05	
563	-1.55000e+00	2.879881e-05	
564	-1.60000e+00	2.938148e-05	
565	-1.65000e+00	2.994347e-05	
566	-1.70000e+00	3.048485e-05	
567	-1.75000e+00	3.100571e-05	
568	-1.80000e+00	3.150614e-05	
569	-1.85000e+00	3.198623e-05	
570	-1.90000e+00	3.244606e-05	
571	-1.95000e+00	3.288573e-05	
572	-2.00000e+00	3.330533e-05	
573	-2.05000e+00	3.370497e-05	
574	-2.10000e+00	3.408474e-05	
575	-2.15000e+00	3.444477e-05	
576	-2.20000e+00	3.478516e-05	

Index   v-sweep         i(vds)          
--------------------------------------------------------------------------------
577	-2.25000e+00	3.510607e-05	
578	-2.30000e+00	3.540765e-05	
579	-2.35000e+00	3.569010e-05	
580	-2.40000e+00	3.595366e-05	
581	-2.45000e+00	3.619864e-05	
582	-2.50000e+00	3.642543e-05	
583	-2.55000e+00	3.663458e-05	
584	-2.60000e+00	3.682681e-05	
585	-2.65000e+00	3.700307e-05	
586	-2.70000e+00	3.716454e-05	
587	-2.75000e+00	3.731263e-05	
588	-2.80000e+00	3.744886e-05	
589	-2.85000e+00	3.757477e-05	
590	-2.90000e+00	3.769177e-05	
591	-2.95000e+00	3.780111e-05	
592	-3.00000e+00	3.790380e-05	
593	-3.05000e+00	3.800073e-05	
594	-3.10000e+00	3.809258e-05	
595	-3.15000e+00	3.817994e-05	
596	-3.20000e+00	3.826329e-05	
597	-3.25000e+00	3.834304e-05	
598	-3.30000e+00	3.841953e-05	
599	-3.35000e+00	3.849306e-05	
600	-3.40000e+00	3.856388e-05	
601	-3.45000e+00	3.863223e-05	
602	-3.50000e+00	3.869830e-05	
603	-3.55000e+00	3.876226e-05	
604	-3.60000e+00	3.882427e-05	
605	-3.65000e+00	3.888447e-05	
606	-3.70000e+00	3.894297e-05	
607	-3.75000e+00	3.899990e-05	
608	-3.80000e+00	3.905535e-05	
609	-3.85000e+00	3.910942e-05	
610	-3.90000e+00	3.916218e-05	
611	-3.95000e+00	3.921372e-05	
612	-4.00000e+00	3.926410e-05	
613	-4.05000e+00	3.931338e-05	
614	-4.10000e+00	3.936164e-05	
615	-4.15000e+00	3.940891e-05	
616	-4.20000e+00	3.945525e-05	
617	-4.25000e+00	3.950071e-05	
618	-4.30000e+00	3.954533e-05	
619	-4.35000e+00	3.958915e-05	
620	-4.40000e+00	3.963220e-05	
621	-4.45000e+00	3.967452e-05	
622	-4.50000e+00	3.971615e-05	
623	-4.55000e+00	3.975711e-05	
624	-4.60000e+00	3.979743e-05	
625	-4.65000e+00	3.983714e-05	
626	-4.70000e+00	3.987626e-05	
627	-4.75000e+00	3.991481e-05	
628	-4.80000e+00	3.995283e-05	
629	-4.85000e+00	3.999033e-05	
630	-4.90000e+00	4.002732e-05	
631	-4.95000e+00	4.006383e-05	
632	-5.00000e+00	4.009988e-05	
633	-5.05000e+00	4.013547e-05	
634	-5.10000e+00	4.017064e-05	

Index   v-sweep         i(vds)          
--------------------------------------------------------------------------------
635	-5.15000e+00	4.020539e-05	
636	-5.20000e+00	4.023973e-05	
637	-5.25000e+00	4.027369e-05	
638	-5.30000e+00	4.030727e-05	
639	-5.35000e+00	4.034048e-05	
640	-5.40000e+00	4.037334e-05	
641	-5.45000e+00	4.040587e-05	
642	-5.50000e+00	4.043806e-05	
643	-5.55000e+00	4.046994e-05	
644	-5.60000e+00	4.050151e-05	
645	-5.65000e+00	4.053278e-05	
646	-5.70000e+00	4.056378e-05	
647	-5.75000e+00	4.059450e-05	
648	-5.80000e+00	4.062495e-05	
649	-5.85000e+00	4.065516e-05	
650	-5.90000e+00	4.068514e-05	
651	-5.95000e+00	4.071489e-05	
652	-6.00000e+00	4.074443e-05	
653	-6.05000e+00	4.077378e-05	
654	-6.10000e+00	4.080296e-05	
655	-6.15000e+00	4.083198e-05	
656	-6.20000e+00	4.086086e-05	
657	-6.25000e+00	4.088963e-05	
658	-6.30000e+00	4.091831e-05	
659	-6.35000e+00	4.094693e-05	
660	-6.40000e+00	4.097552e-05	
661	-6.45000e+00	4.100411e-05	
662	-6.50000e+00	4.103274e-05	
663	-6.55000e+00	4.106146e-05	
664	-6.60000e+00	4.109030e-05	
665	0.000000e+00	0.000000e+00	
666	-5.00000e-02	1.479803e-06	
667	-1.00000e-01	2.937171e-06	
668	-1.50000e-01	4.372189e-06	
669	-2.00000e-01	5.784939e-06	
670	-2.50000e-01	7.175504e-06	
671	-3.00000e-01	8.543965e-06	
672	-3.50000e-01	9.890406e-06	
673	-4.00000e-01	1.121491e-05	
674	-4.50000e-01	1.251755e-05	
675	-5.00000e-01	1.379841e-05	
676	-5.50000e-01	1.505758e-05	
677	-6.00000e-01	1.629513e-05	
678	-6.50000e-01	1.751114e-05	
679	-7.00000e-01	1.870569e-05	
680	-7.50000e-01	1.987886e-05	
681	-8.00000e-01	2.103073e-05	
682	-8.50000e-01	2.216137e-05	
683	-9.00000e-01	2.327087e-05	
684	-9.50000e-01	2.435930e-05	
685	-1.00000e+00	2.542674e-05	
686	-1.05000e+00	2.647326e-05	
687	-1.10000e+00	2.749894e-05	
688	-1.15000e+00	2.850386e-05	
689	-1.20000e+00	2.948809e-05	
690	-1.25000e+00	3.045171e-05	
691	-1.30000e+00	3.139479e-05	
692	-1.35000e+00	3.231741e-05	

Index   v-sweep         i(vds)          
--------------------------------------------------------------------------------
693	-1.40000e+00	3.321964e-05	
694	-1.45000e+00	3.410156e-05	
695	-1.50000e+00	3.496324e-05	
696	-1.55000e+00	3.580475e-05	
697	-1.60000e+00	3.662616e-05	
698	-1.65000e+00	3.742756e-05	
699	-1.70000e+00	3.820900e-05	
700	-1.75000e+00	3.897057e-05	
701	-1.80000e+00	3.971234e-05	
702	-1.85000e+00	4.043438e-05	
703	-1.90000e+00	4.113676e-05	
704	-1.95000e+00	4.181955e-05	
705	-2.00000e+00	4.248283e-05	
706	-2.05000e+00	4.312667e-05	
707	-2.10000e+00	4.375113e-05	
708	-2.15000e+00	4.435630e-05	
709	-2.20000e+00	4.494225e-05	
710	-2.25000e+00	4.550904e-05	
711	-2.30000e+00	4.605675e-05	
712	-2.35000e+00	4.658546e-05	
713	-2.40000e+00	4.709525e-05	
714	-2.45000e+00	4.758618e-05	
715	-2.50000e+00	4.805835e-05	
716	-2.55000e+00	4.851182e-05	
717	-2.60000e+00	4.894669e-05	
718	-2.65000e+00	4.936305e-05	
719	-2.70000e+00	4.976100e-05	
720	-2.75000e+00	5.014063e-05	
721	-2.80000e+00	5.050207e-05	
722	-2.85000e+00	5.084544e-05	
723	-2.90000e+00	5.117091e-05	
724	-2.95000e+00	5.147866e-05	
725	-3.00000e+00	5.176891e-05	
726	-3.05000e+00	5.204195e-05	
727	-3.10000e+00	5.229814e-05	
728	-3.15000e+00	5.253795e-05	
729	-3.20000e+00	5.276197e-05	
730	-3.25000e+00	5.297096e-05	
731	-3.30000e+00	5.316583e-05	
732	-3.35000e+00	5.334764e-05	
733	-3.40000e+00	5.351753e-05	
734	-3.45000e+00	5.367668e-05	
735	-3.50000e+00	5.382623e-05	
736	-3.55000e+00	5.396722e-05	
737	-3.60000e+00	5.410059e-05	
738	-3.65000e+00	5.422715e-05	
739	-3.70000e+00	5.434762e-05	
740	-3.75000e+00	5.446260e-05	
741	-3.80000e+00	5.457262e-05	
742	-3.85000e+00	5.467814e-05	
743	-3.90000e+00	5.477957e-05	
744	-3.95000e+00	5.487724e-05	
745	-4.00000e+00	5.497147e-05	
746	-4.05000e+00	5.506253e-05	
747	-4.10000e+00	5.515066e-05	
748	-4.15000e+00	5.523607e-05	
749	-4.20000e+00	5.531897e-05	
750	-4.25000e+00	5.539952e-05	

Index   v-sweep         i(vds)          
--------------------------------------------------------------------------------
751	-4.30000e+00	5.547787e-05	
752	-4.35000e+00	5.555418e-05	
753	-4.40000e+00	5.562856e-05	
754	-4.45000e+00	5.570114e-05	
755	-4.50000e+00	5.577201e-05	
756	-4.55000e+00	5.584129e-05	
757	-4.60000e+00	5.590905e-05	
758	-4.65000e+00	5.597538e-05	
759	-4.70000e+00	5.604036e-05	
760	-4.75000e+00	5.610405e-05	
761	-4.80000e+00	5.616651e-05	
762	-4.85000e+00	5.622782e-05	
763	-4.90000e+00	5.628803e-05	
764	-4.95000e+00	5.634717e-05	
765	-5.00000e+00	5.640532e-05	
766	-5.05000e+00	5.646250e-05	
767	-5.10000e+00	5.651877e-05	
768	-5.15000e+00	5.657415e-05	
769	-5.20000e+00	5.662869e-05	
770	-5.25000e+00	5.668243e-05	
771	-5.30000e+00	5.673539e-05	
772	-5.35000e+00	5.678761e-05	
773	-5.40000e+00	5.683911e-05	
774	-5.45000e+00	5.688992e-05	
775	-5.50000e+00	5.694007e-05	
776	-5.55000e+00	5.698959e-05	
777	-5.60000e+00	5.703848e-05	
778	-5.65000e+00	5.708679e-05	
779	-5.70000e+00	5.713452e-05	
780	-5.75000e+00	5.718170e-05	
781	-5.80000e+00	5.722835e-05	
782	-5.85000e+00	5.727448e-05	
783	-5.90000e+00	5.732011e-05	
784	-5.95000e+00	5.736526e-05	
785	-6.00000e+00	5.740994e-05	
786	-6.05000e+00	5.745417e-05	
787	-6.10000e+00	5.749797e-05	
788	-6.15000e+00	5.754135e-05	
789	-6.20000e+00	5.758432e-05	
790	-6.25000e+00	5.762690e-05	
791	-6.30000e+00	5.766911e-05	
792	-6.35000e+00	5.771096e-05	
793	-6.40000e+00	5.775246e-05	
794	-6.45000e+00	5.779363e-05	
795	-6.50000e+00	5.783450e-05	
796	-6.55000e+00	5.787507e-05	
797	-6.60000e+00	5.791537e-05	
Note: No ".plot", ".print", or ".fourier" lines; no simulations run
