
Note: Compatibility modes selected: hs

Warning: m=xx on .subckt line will override multiplier m hierarchy!


Circuit: ***************************

Doing analysis at TEMP = -40.000000 and TNOM = -40.000000


No. of Data Rows : 798
                          ***************************
                          DC transfer characteristic  Mon Jan  9 13:57:53  2023
--------------------------------------------------------------------------------
Index   v-sweep         i(vds)          
--------------------------------------------------------------------------------
0	0.000000e+00	0.000000e+00	
1	-5.00000e-02	2.294420e-08	
2	-1.00000e-01	2.703698e-08	
3	-1.50000e-01	2.761570e-08	
4	-2.00000e-01	2.777415e-08	
5	-2.50000e-01	2.784508e-08	
6	-3.00000e-01	2.788765e-08	
7	-3.50000e-01	2.791814e-08	
8	-4.00000e-01	2.794249e-08	
9	-4.50000e-01	2.796328e-08	
10	-5.00000e-01	2.798180e-08	
11	-5.50000e-01	2.799875e-08	
12	-6.00000e-01	2.801458e-08	
13	-6.50000e-01	2.802954e-08	
14	-7.00000e-01	2.804382e-08	
15	-7.50000e-01	2.805756e-08	
16	-8.00000e-01	2.807083e-08	
17	-8.50000e-01	2.808372e-08	
18	-9.00000e-01	2.809628e-08	
19	-9.50000e-01	2.810855e-08	
20	-1.00000e+00	2.812056e-08	
21	-1.05000e+00	2.813235e-08	
22	-1.10000e+00	2.814394e-08	
23	-1.15000e+00	2.815534e-08	
24	-1.20000e+00	2.816658e-08	
25	-1.25000e+00	2.817767e-08	
26	-1.30000e+00	2.818862e-08	
27	-1.35000e+00	2.819944e-08	
28	-1.40000e+00	2.821014e-08	
29	-1.45000e+00	2.822073e-08	
30	-1.50000e+00	2.823122e-08	
31	-1.55000e+00	2.824161e-08	
32	-1.60000e+00	2.825191e-08	
33	-1.65000e+00	2.826213e-08	
34	-1.70000e+00	2.827227e-08	
35	-1.75000e+00	2.828233e-08	
36	-1.80000e+00	2.829233e-08	
37	-1.85000e+00	2.830226e-08	
38	-1.90000e+00	2.831212e-08	
39	-1.95000e+00	2.832193e-08	
40	-2.00000e+00	2.833167e-08	
41	-2.05000e+00	2.834137e-08	
42	-2.10000e+00	2.835101e-08	
43	-2.15000e+00	2.836061e-08	
44	-2.20000e+00	2.837015e-08	
45	-2.25000e+00	2.837966e-08	
46	-2.30000e+00	2.838911e-08	
47	-2.35000e+00	2.839853e-08	
48	-2.40000e+00	2.840791e-08	
49	-2.45000e+00	2.841725e-08	
50	-2.50000e+00	2.842656e-08	
51	-2.55000e+00	2.843583e-08	
52	-2.60000e+00	2.844507e-08	
53	-2.65000e+00	2.845428e-08	
54	-2.70000e+00	2.846345e-08	

Index   v-sweep         i(vds)          
--------------------------------------------------------------------------------
55	-2.75000e+00	2.847260e-08	
56	-2.80000e+00	2.848173e-08	
57	-2.85000e+00	2.849083e-08	
58	-2.90000e+00	2.849991e-08	
59	-2.95000e+00	2.850897e-08	
60	-3.00000e+00	2.851801e-08	
61	-3.05000e+00	2.852704e-08	
62	-3.10000e+00	2.853606e-08	
63	-3.15000e+00	2.854508e-08	
64	-3.20000e+00	2.855409e-08	
65	-3.25000e+00	2.856312e-08	
66	-3.30000e+00	2.857216e-08	
67	-3.35000e+00	2.858122e-08	
68	-3.40000e+00	2.859031e-08	
69	-3.45000e+00	2.859944e-08	
70	-3.50000e+00	2.860864e-08	
71	-3.55000e+00	2.861790e-08	
72	-3.60000e+00	2.862725e-08	
73	-3.65000e+00	2.863671e-08	
74	-3.70000e+00	2.864630e-08	
75	-3.75000e+00	2.865604e-08	
76	-3.80000e+00	2.866596e-08	
77	-3.85000e+00	2.867609e-08	
78	-3.90000e+00	2.868647e-08	
79	-3.95000e+00	2.869714e-08	
80	-4.00000e+00	2.870813e-08	
81	-4.05000e+00	2.871950e-08	
82	-4.10000e+00	2.873129e-08	
83	-4.15000e+00	2.874357e-08	
84	-4.20000e+00	2.875639e-08	
85	-4.25000e+00	2.876983e-08	
86	-4.30000e+00	2.878395e-08	
87	-4.35000e+00	2.879884e-08	
88	-4.40000e+00	2.881459e-08	
89	-4.45000e+00	2.883128e-08	
90	-4.50000e+00	2.884902e-08	
91	-4.55000e+00	2.886791e-08	
92	-4.60000e+00	2.888808e-08	
93	-4.65000e+00	2.890964e-08	
94	-4.70000e+00	2.893273e-08	
95	-4.75000e+00	2.895749e-08	
96	-4.80000e+00	2.898406e-08	
97	-4.85000e+00	2.901261e-08	
98	-4.90000e+00	2.904331e-08	
99	-4.95000e+00	2.907632e-08	
100	-5.00000e+00	2.911184e-08	
101	-5.05000e+00	2.915007e-08	
102	-5.10000e+00	2.919121e-08	
103	-5.15000e+00	2.923547e-08	
104	-5.20000e+00	2.928309e-08	
105	-5.25000e+00	2.933430e-08	
106	-5.30000e+00	2.938935e-08	
107	-5.35000e+00	2.944851e-08	
108	-5.40000e+00	2.951203e-08	
109	-5.45000e+00	2.958021e-08	
110	-5.50000e+00	2.965333e-08	
111	-5.55000e+00	2.973171e-08	
112	-5.60000e+00	2.981564e-08	

Index   v-sweep         i(vds)          
--------------------------------------------------------------------------------
113	-5.65000e+00	2.990547e-08	
114	-5.70000e+00	3.000152e-08	
115	-5.75000e+00	3.010415e-08	
116	-5.80000e+00	3.021371e-08	
117	-5.85000e+00	3.033058e-08	
118	-5.90000e+00	3.045514e-08	
119	-5.95000e+00	3.058778e-08	
120	-6.00000e+00	3.072891e-08	
121	-6.05000e+00	3.087894e-08	
122	-6.10000e+00	3.103830e-08	
123	-6.15000e+00	3.120743e-08	
124	-6.20000e+00	3.138677e-08	
125	-6.25000e+00	3.157678e-08	
126	-6.30000e+00	3.177794e-08	
127	-6.35000e+00	3.199072e-08	
128	-6.40000e+00	3.221562e-08	
129	-6.45000e+00	3.245313e-08	
130	-6.50000e+00	3.270377e-08	
131	-6.55000e+00	3.296805e-08	
132	-6.60000e+00	3.324651e-08	
133	0.000000e+00	0.000000e+00	
134	-5.00000e-02	7.912425e-07	
135	-1.00000e-01	1.525873e-06	
136	-1.50000e-01	2.203962e-06	
137	-2.00000e-01	2.825586e-06	
138	-2.50000e-01	3.390830e-06	
139	-3.00000e-01	3.899798e-06	
140	-3.50000e-01	4.352619e-06	
141	-4.00000e-01	4.749475e-06	
142	-4.50000e-01	5.090638e-06	
143	-5.00000e-01	5.376565e-06	
144	-5.50000e-01	5.608082e-06	
145	-6.00000e-01	5.786804e-06	
146	-6.50000e-01	5.915965e-06	
147	-7.00000e-01	6.001719e-06	
148	-7.50000e-01	6.053879e-06	
149	-8.00000e-01	6.084041e-06	
150	-8.50000e-01	6.101827e-06	
151	-9.00000e-01	6.113176e-06	
152	-9.50000e-01	6.121167e-06	
153	-1.00000e+00	6.127316e-06	
154	-1.05000e+00	6.132382e-06	
155	-1.10000e+00	6.136769e-06	
156	-1.15000e+00	6.140699e-06	
157	-1.20000e+00	6.144306e-06	
158	-1.25000e+00	6.147674e-06	
159	-1.30000e+00	6.150859e-06	
160	-1.35000e+00	6.153899e-06	
161	-1.40000e+00	6.156819e-06	
162	-1.45000e+00	6.159641e-06	
163	-1.50000e+00	6.162378e-06	
164	-1.55000e+00	6.165044e-06	
165	-1.60000e+00	6.167647e-06	
166	-1.65000e+00	6.170194e-06	
167	-1.70000e+00	6.172693e-06	
168	-1.75000e+00	6.175147e-06	
169	-1.80000e+00	6.177561e-06	
170	-1.85000e+00	6.179939e-06	

Index   v-sweep         i(vds)          
--------------------------------------------------------------------------------
171	-1.90000e+00	6.182284e-06	
172	-1.95000e+00	6.184599e-06	
173	-2.00000e+00	6.186886e-06	
174	-2.05000e+00	6.189147e-06	
175	-2.10000e+00	6.191384e-06	
176	-2.15000e+00	6.193599e-06	
177	-2.20000e+00	6.195793e-06	
178	-2.25000e+00	6.197968e-06	
179	-2.30000e+00	6.200124e-06	
180	-2.35000e+00	6.202263e-06	
181	-2.40000e+00	6.204386e-06	
182	-2.45000e+00	6.206493e-06	
183	-2.50000e+00	6.208587e-06	
184	-2.55000e+00	6.210666e-06	
185	-2.60000e+00	6.212733e-06	
186	-2.65000e+00	6.214787e-06	
187	-2.70000e+00	6.216829e-06	
188	-2.75000e+00	6.218860e-06	
189	-2.80000e+00	6.220881e-06	
190	-2.85000e+00	6.222891e-06	
191	-2.90000e+00	6.224892e-06	
192	-2.95000e+00	6.226883e-06	
193	-3.00000e+00	6.228866e-06	
194	-3.05000e+00	6.230840e-06	
195	-3.10000e+00	6.232806e-06	
196	-3.15000e+00	6.234764e-06	
197	-3.20000e+00	6.236714e-06	
198	-3.25000e+00	6.238657e-06	
199	-3.30000e+00	6.240594e-06	
200	-3.35000e+00	6.242524e-06	
201	-3.40000e+00	6.244448e-06	
202	-3.45000e+00	6.246366e-06	
203	-3.50000e+00	6.248279e-06	
204	-3.55000e+00	6.250187e-06	
205	-3.60000e+00	6.252091e-06	
206	-3.65000e+00	6.253991e-06	
207	-3.70000e+00	6.255889e-06	
208	-3.75000e+00	6.257783e-06	
209	-3.80000e+00	6.259677e-06	
210	-3.85000e+00	6.261570e-06	
211	-3.90000e+00	6.263465e-06	
212	-3.95000e+00	6.265362e-06	
213	-4.00000e+00	6.267263e-06	
214	-4.05000e+00	6.269170e-06	
215	-4.10000e+00	6.271086e-06	
216	-4.15000e+00	6.273013e-06	
217	-4.20000e+00	6.274955e-06	
218	-4.25000e+00	6.276914e-06	
219	-4.30000e+00	6.278895e-06	
220	-4.35000e+00	6.280902e-06	
221	-4.40000e+00	6.282941e-06	
222	-4.45000e+00	6.285017e-06	
223	-4.50000e+00	6.287137e-06	
224	-4.55000e+00	6.289307e-06	
225	-4.60000e+00	6.291537e-06	
226	-4.65000e+00	6.293835e-06	
227	-4.70000e+00	6.296210e-06	
228	-4.75000e+00	6.298674e-06	

Index   v-sweep         i(vds)          
--------------------------------------------------------------------------------
229	-4.80000e+00	6.301239e-06	
230	-4.85000e+00	6.303918e-06	
231	-4.90000e+00	6.306725e-06	
232	-4.95000e+00	6.309676e-06	
233	-5.00000e+00	6.312788e-06	
234	-5.05000e+00	6.316079e-06	
235	-5.10000e+00	6.319570e-06	
236	-5.15000e+00	6.323280e-06	
237	-5.20000e+00	6.327234e-06	
238	-5.25000e+00	6.331457e-06	
239	-5.30000e+00	6.335973e-06	
240	-5.35000e+00	6.340813e-06	
241	-5.40000e+00	6.346005e-06	
242	-5.45000e+00	6.351581e-06	
243	-5.50000e+00	6.357577e-06	
244	-5.55000e+00	6.364026e-06	
245	-5.60000e+00	6.370968e-06	
246	-5.65000e+00	6.378442e-06	
247	-5.70000e+00	6.386491e-06	
248	-5.75000e+00	6.395158e-06	
249	-5.80000e+00	6.404491e-06	
250	-5.85000e+00	6.414538e-06	
251	-5.90000e+00	6.425351e-06	
252	-5.95000e+00	6.436983e-06	
253	-6.00000e+00	6.449490e-06	
254	-6.05000e+00	6.462930e-06	
255	-6.10000e+00	6.477363e-06	
256	-6.15000e+00	6.492853e-06	
257	-6.20000e+00	6.509466e-06	
258	-6.25000e+00	6.527268e-06	
259	-6.30000e+00	6.546331e-06	
260	-6.35000e+00	6.566728e-06	
261	-6.40000e+00	6.588533e-06	
262	-6.45000e+00	6.611825e-06	
263	-6.50000e+00	6.636683e-06	
264	-6.55000e+00	6.663191e-06	
265	-6.60000e+00	6.691433e-06	
266	0.000000e+00	0.000000e+00	
267	-5.00000e-02	1.456830e-06	
268	-1.00000e-01	2.861621e-06	
269	-1.50000e-01	4.214421e-06	
270	-2.00000e-01	5.515280e-06	
271	-2.50000e-01	6.764245e-06	
272	-3.00000e-01	7.961368e-06	
273	-3.50000e-01	9.106698e-06	
274	-4.00000e-01	1.020029e-05	
275	-4.50000e-01	1.124218e-05	
276	-5.00000e-01	1.223244e-05	
277	-5.50000e-01	1.317112e-05	
278	-6.00000e-01	1.405827e-05	
279	-6.50000e-01	1.489395e-05	
280	-7.00000e-01	1.567823e-05	
281	-7.50000e-01	1.641118e-05	
282	-8.00000e-01	1.709287e-05	
283	-8.50000e-01	1.772339e-05	
284	-9.00000e-01	1.830285e-05	
285	-9.50000e-01	1.883138e-05	
286	-1.00000e+00	1.930915e-05	

Index   v-sweep         i(vds)          
--------------------------------------------------------------------------------
287	-1.05000e+00	1.973640e-05	
288	-1.10000e+00	2.011347e-05	
289	-1.15000e+00	2.044088e-05	
290	-1.20000e+00	2.071943e-05	
291	-1.25000e+00	2.095044e-05	
292	-1.30000e+00	2.113605e-05	
293	-1.35000e+00	2.127972e-05	
294	-1.40000e+00	2.138660e-05	
295	-1.45000e+00	2.146352e-05	
296	-1.50000e+00	2.151809e-05	
297	-1.55000e+00	2.155732e-05	
298	-1.60000e+00	2.158660e-05	
299	-1.65000e+00	2.160956e-05	
300	-1.70000e+00	2.162849e-05	
301	-1.75000e+00	2.164475e-05	
302	-1.80000e+00	2.165920e-05	
303	-1.85000e+00	2.167236e-05	
304	-1.90000e+00	2.168457e-05	
305	-1.95000e+00	2.169605e-05	
306	-2.00000e+00	2.170697e-05	
307	-2.05000e+00	2.171742e-05	
308	-2.10000e+00	2.172749e-05	
309	-2.15000e+00	2.173725e-05	
310	-2.20000e+00	2.174673e-05	
311	-2.25000e+00	2.175597e-05	
312	-2.30000e+00	2.176501e-05	
313	-2.35000e+00	2.177386e-05	
314	-2.40000e+00	2.178255e-05	
315	-2.45000e+00	2.179110e-05	
316	-2.50000e+00	2.179951e-05	
317	-2.55000e+00	2.180779e-05	
318	-2.60000e+00	2.181597e-05	
319	-2.65000e+00	2.182405e-05	
320	-2.70000e+00	2.183203e-05	
321	-2.75000e+00	2.183992e-05	
322	-2.80000e+00	2.184774e-05	
323	-2.85000e+00	2.185548e-05	
324	-2.90000e+00	2.186315e-05	
325	-2.95000e+00	2.187075e-05	
326	-3.00000e+00	2.187829e-05	
327	-3.05000e+00	2.188577e-05	
328	-3.10000e+00	2.189320e-05	
329	-3.15000e+00	2.190057e-05	
330	-3.20000e+00	2.190790e-05	
331	-3.25000e+00	2.191518e-05	
332	-3.30000e+00	2.192241e-05	
333	-3.35000e+00	2.192961e-05	
334	-3.40000e+00	2.193676e-05	
335	-3.45000e+00	2.194388e-05	
336	-3.50000e+00	2.195095e-05	
337	-3.55000e+00	2.195800e-05	
338	-3.60000e+00	2.196501e-05	
339	-3.65000e+00	2.197199e-05	
340	-3.70000e+00	2.197894e-05	
341	-3.75000e+00	2.198585e-05	
342	-3.80000e+00	2.199275e-05	
343	-3.85000e+00	2.199961e-05	
344	-3.90000e+00	2.200645e-05	

Index   v-sweep         i(vds)          
--------------------------------------------------------------------------------
345	-3.95000e+00	2.201326e-05	
346	-4.00000e+00	2.202006e-05	
347	-4.05000e+00	2.202682e-05	
348	-4.10000e+00	2.203357e-05	
349	-4.15000e+00	2.204030e-05	
350	-4.20000e+00	2.204701e-05	
351	-4.25000e+00	2.205371e-05	
352	-4.30000e+00	2.206039e-05	
353	-4.35000e+00	2.206705e-05	
354	-4.40000e+00	2.207371e-05	
355	-4.45000e+00	2.208036e-05	
356	-4.50000e+00	2.208700e-05	
357	-4.55000e+00	2.209365e-05	
358	-4.60000e+00	2.210029e-05	
359	-4.65000e+00	2.210695e-05	
360	-4.70000e+00	2.211362e-05	
361	-4.75000e+00	2.212032e-05	
362	-4.80000e+00	2.212704e-05	
363	-4.85000e+00	2.213380e-05	
364	-4.90000e+00	2.214061e-05	
365	-4.95000e+00	2.214749e-05	
366	-5.00000e+00	2.215444e-05	
367	-5.05000e+00	2.216148e-05	
368	-5.10000e+00	2.216864e-05	
369	-5.15000e+00	2.217592e-05	
370	-5.20000e+00	2.218335e-05	
371	-5.25000e+00	2.219097e-05	
372	-5.30000e+00	2.219879e-05	
373	-5.35000e+00	2.220684e-05	
374	-5.40000e+00	2.221517e-05	
375	-5.45000e+00	2.222381e-05	
376	-5.50000e+00	2.223280e-05	
377	-5.55000e+00	2.224219e-05	
378	-5.60000e+00	2.225203e-05	
379	-5.65000e+00	2.226237e-05	
380	-5.70000e+00	2.227328e-05	
381	-5.75000e+00	2.228481e-05	
382	-5.80000e+00	2.229704e-05	
383	-5.85000e+00	2.231004e-05	
384	-5.90000e+00	2.232389e-05	
385	-5.95000e+00	2.233868e-05	
386	-6.00000e+00	2.235450e-05	
387	-6.05000e+00	2.237145e-05	
388	-6.10000e+00	2.238964e-05	
389	-6.15000e+00	2.240917e-05	
390	-6.20000e+00	2.243017e-05	
391	-6.25000e+00	2.245277e-05	
392	-6.30000e+00	2.247708e-05	
393	-6.35000e+00	2.250327e-05	
394	-6.40000e+00	2.253147e-05	
395	-6.45000e+00	2.256183e-05	
396	-6.50000e+00	2.259453e-05	
397	-6.55000e+00	2.262974e-05	
398	-6.60000e+00	2.266763e-05	
399	0.000000e+00	0.000000e+00	
400	-5.00000e-02	1.996511e-06	
401	-1.00000e-01	3.945738e-06	
402	-1.50000e-01	5.847722e-06	

Index   v-sweep         i(vds)          
--------------------------------------------------------------------------------
403	-2.00000e-01	7.702502e-06	
404	-2.50000e-01	9.510119e-06	
405	-3.00000e-01	1.127061e-05	
406	-3.50000e-01	1.298402e-05	
407	-4.00000e-01	1.465039e-05	
408	-4.50000e-01	1.626976e-05	
409	-5.00000e-01	1.784216e-05	
410	-5.50000e-01	1.936764e-05	
411	-6.00000e-01	2.084624e-05	
412	-6.50000e-01	2.227800e-05	
413	-7.00000e-01	2.366296e-05	
414	-7.50000e-01	2.500117e-05	
415	-8.00000e-01	2.629266e-05	
416	-8.50000e-01	2.753747e-05	
417	-9.00000e-01	2.873565e-05	
418	-9.50000e-01	2.988725e-05	
419	-1.00000e+00	3.099230e-05	
420	-1.05000e+00	3.205085e-05	
421	-1.10000e+00	3.306296e-05	
422	-1.15000e+00	3.402865e-05	
423	-1.20000e+00	3.494800e-05	
424	-1.25000e+00	3.582104e-05	
425	-1.30000e+00	3.664784e-05	
426	-1.35000e+00	3.742845e-05	
427	-1.40000e+00	3.816295e-05	
428	-1.45000e+00	3.885142e-05	
429	-1.50000e+00	3.949393e-05	
430	-1.55000e+00	4.009061e-05	
431	-1.60000e+00	4.064157e-05	
432	-1.65000e+00	4.114700e-05	
433	-1.70000e+00	4.160710e-05	
434	-1.75000e+00	4.202218e-05	
435	-1.80000e+00	4.239266e-05	
436	-1.85000e+00	4.271913e-05	
437	-1.90000e+00	4.300249e-05	
438	-1.95000e+00	4.324406e-05	
439	-2.00000e+00	4.344579e-05	
440	-2.05000e+00	4.361050e-05	
441	-2.10000e+00	4.374207e-05	
442	-2.15000e+00	4.384539e-05	
443	-2.20000e+00	4.392598e-05	
444	-2.25000e+00	4.398930e-05	
445	-2.30000e+00	4.404009e-05	
446	-2.35000e+00	4.408205e-05	
447	-2.40000e+00	4.411784e-05	
448	-2.45000e+00	4.414929e-05	
449	-2.50000e+00	4.417761e-05	
450	-2.55000e+00	4.420363e-05	
451	-2.60000e+00	4.422792e-05	
452	-2.65000e+00	4.425085e-05	
453	-2.70000e+00	4.427270e-05	
454	-2.75000e+00	4.429367e-05	
455	-2.80000e+00	4.431392e-05	
456	-2.85000e+00	4.433354e-05	
457	-2.90000e+00	4.435264e-05	
458	-2.95000e+00	4.437128e-05	
459	-3.00000e+00	4.438951e-05	
460	-3.05000e+00	4.440738e-05	

Index   v-sweep         i(vds)          
--------------------------------------------------------------------------------
461	-3.10000e+00	4.442494e-05	
462	-3.15000e+00	4.444220e-05	
463	-3.20000e+00	4.445921e-05	
464	-3.25000e+00	4.447597e-05	
465	-3.30000e+00	4.449252e-05	
466	-3.35000e+00	4.450887e-05	
467	-3.40000e+00	4.452503e-05	
468	-3.45000e+00	4.454102e-05	
469	-3.50000e+00	4.455684e-05	
470	-3.55000e+00	4.457252e-05	
471	-3.60000e+00	4.458806e-05	
472	-3.65000e+00	4.460347e-05	
473	-3.70000e+00	4.461876e-05	
474	-3.75000e+00	4.463393e-05	
475	-3.80000e+00	4.464899e-05	
476	-3.85000e+00	4.466395e-05	
477	-3.90000e+00	4.467881e-05	
478	-3.95000e+00	4.469358e-05	
479	-4.00000e+00	4.470826e-05	
480	-4.05000e+00	4.472286e-05	
481	-4.10000e+00	4.473738e-05	
482	-4.15000e+00	4.475182e-05	
483	-4.20000e+00	4.476619e-05	
484	-4.25000e+00	4.478049e-05	
485	-4.30000e+00	4.479472e-05	
486	-4.35000e+00	4.480889e-05	
487	-4.40000e+00	4.482300e-05	
488	-4.45000e+00	4.483705e-05	
489	-4.50000e+00	4.485105e-05	
490	-4.55000e+00	4.486499e-05	
491	-4.60000e+00	4.487888e-05	
492	-4.65000e+00	4.489272e-05	
493	-4.70000e+00	4.490652e-05	
494	-4.75000e+00	4.492027e-05	
495	-4.80000e+00	4.493398e-05	
496	-4.85000e+00	4.494765e-05	
497	-4.90000e+00	4.496128e-05	
498	-4.95000e+00	4.497488e-05	
499	-5.00000e+00	4.498845e-05	
500	-5.05000e+00	4.500199e-05	
501	-5.10000e+00	4.501552e-05	
502	-5.15000e+00	4.502902e-05	
503	-5.20000e+00	4.504252e-05	
504	-5.25000e+00	4.505601e-05	
505	-5.30000e+00	4.506951e-05	
506	-5.35000e+00	4.508302e-05	
507	-5.40000e+00	4.509657e-05	
508	-5.45000e+00	4.511015e-05	
509	-5.50000e+00	4.512379e-05	
510	-5.55000e+00	4.513750e-05	
511	-5.60000e+00	4.515130e-05	
512	-5.65000e+00	4.516523e-05	
513	-5.70000e+00	4.517930e-05	
514	-5.75000e+00	4.519355e-05	
515	-5.80000e+00	4.520801e-05	
516	-5.85000e+00	4.522272e-05	
517	-5.90000e+00	4.523772e-05	
518	-5.95000e+00	4.525307e-05	

Index   v-sweep         i(vds)          
--------------------------------------------------------------------------------
519	-6.00000e+00	4.526882e-05	
520	-6.05000e+00	4.528503e-05	
521	-6.10000e+00	4.530178e-05	
522	-6.15000e+00	4.531912e-05	
523	-6.20000e+00	4.533716e-05	
524	-6.25000e+00	4.535598e-05	
525	-6.30000e+00	4.537567e-05	
526	-6.35000e+00	4.539635e-05	
527	-6.40000e+00	4.541813e-05	
528	-6.45000e+00	4.544115e-05	
529	-6.50000e+00	4.546553e-05	
530	-6.55000e+00	4.549144e-05	
531	-6.60000e+00	4.551902e-05	
532	0.000000e+00	0.000000e+00	
533	-5.00000e-02	2.432615e-06	
534	-1.00000e-01	4.822333e-06	
535	-1.50000e-01	7.169188e-06	
536	-2.00000e-01	9.473213e-06	
537	-2.50000e-01	1.173444e-05	
538	-3.00000e-01	1.395291e-05	
539	-3.50000e-01	1.612864e-05	
540	-4.00000e-01	1.826168e-05	
541	-4.50000e-01	2.035206e-05	
542	-5.00000e-01	2.239981e-05	
543	-5.50000e-01	2.440496e-05	
544	-6.00000e-01	2.636755e-05	
545	-6.50000e-01	2.828762e-05	
546	-7.00000e-01	3.016519e-05	
547	-7.50000e-01	3.200030e-05	
548	-8.00000e-01	3.379298e-05	
549	-8.50000e-01	3.554326e-05	
550	-9.00000e-01	3.725119e-05	
551	-9.50000e-01	3.891679e-05	
552	-1.00000e+00	4.054010e-05	
553	-1.05000e+00	4.212115e-05	
554	-1.10000e+00	4.365998e-05	
555	-1.15000e+00	4.515661e-05	
556	-1.20000e+00	4.661109e-05	
557	-1.25000e+00	4.802345e-05	
558	-1.30000e+00	4.939373e-05	
559	-1.35000e+00	5.072195e-05	
560	-1.40000e+00	5.200816e-05	
561	-1.45000e+00	5.325239e-05	
562	-1.50000e+00	5.445467e-05	
563	-1.55000e+00	5.561505e-05	
564	-1.60000e+00	5.673357e-05	
565	-1.65000e+00	5.781025e-05	
566	-1.70000e+00	5.884515e-05	
567	-1.75000e+00	5.983829e-05	
568	-1.80000e+00	6.078974e-05	
569	-1.85000e+00	6.169952e-05	
570	-1.90000e+00	6.256769e-05	
571	-1.95000e+00	6.339431e-05	
572	-2.00000e+00	6.417942e-05	
573	-2.05000e+00	6.492310e-05	
574	-2.10000e+00	6.562540e-05	
575	-2.15000e+00	6.628642e-05	
576	-2.20000e+00	6.690624e-05	

Index   v-sweep         i(vds)          
--------------------------------------------------------------------------------
577	-2.25000e+00	6.748499e-05	
578	-2.30000e+00	6.802280e-05	
579	-2.35000e+00	6.851985e-05	
580	-2.40000e+00	6.897637e-05	
581	-2.45000e+00	6.939267e-05	
582	-2.50000e+00	6.976914e-05	
583	-2.55000e+00	7.010637e-05	
584	-2.60000e+00	7.040513e-05	
585	-2.65000e+00	7.066652e-05	
586	-2.70000e+00	7.089209e-05	
587	-2.75000e+00	7.108393e-05	
588	-2.80000e+00	7.124484e-05	
589	-2.85000e+00	7.137832e-05	
590	-2.90000e+00	7.148844e-05	
591	-2.95000e+00	7.157950e-05	
592	-3.00000e+00	7.165561e-05	
593	-3.05000e+00	7.172038e-05	
594	-3.10000e+00	7.177670e-05	
595	-3.15000e+00	7.182675e-05	
596	-3.20000e+00	7.187213e-05	
597	-3.25000e+00	7.191398e-05	
598	-3.30000e+00	7.195311e-05	
599	-3.35000e+00	7.199010e-05	
600	-3.40000e+00	7.202539e-05	
601	-3.45000e+00	7.205927e-05	
602	-3.50000e+00	7.209199e-05	
603	-3.55000e+00	7.212372e-05	
604	-3.60000e+00	7.215460e-05	
605	-3.65000e+00	7.218475e-05	
606	-3.70000e+00	7.221425e-05	
607	-3.75000e+00	7.224318e-05	
608	-3.80000e+00	7.227159e-05	
609	-3.85000e+00	7.229955e-05	
610	-3.90000e+00	7.232708e-05	
611	-3.95000e+00	7.235423e-05	
612	-4.00000e+00	7.238103e-05	
613	-4.05000e+00	7.240752e-05	
614	-4.10000e+00	7.243370e-05	
615	-4.15000e+00	7.245961e-05	
616	-4.20000e+00	7.248526e-05	
617	-4.25000e+00	7.251067e-05	
618	-4.30000e+00	7.253586e-05	
619	-4.35000e+00	7.256084e-05	
620	-4.40000e+00	7.258563e-05	
621	-4.45000e+00	7.261023e-05	
622	-4.50000e+00	7.263465e-05	
623	-4.55000e+00	7.265891e-05	
624	-4.60000e+00	7.268301e-05	
625	-4.65000e+00	7.270696e-05	
626	-4.70000e+00	7.273077e-05	
627	-4.75000e+00	7.275445e-05	
628	-4.80000e+00	7.277800e-05	
629	-4.85000e+00	7.280142e-05	
630	-4.90000e+00	7.282474e-05	
631	-4.95000e+00	7.284794e-05	
632	-5.00000e+00	7.287103e-05	
633	-5.05000e+00	7.289402e-05	
634	-5.10000e+00	7.291692e-05	

Index   v-sweep         i(vds)          
--------------------------------------------------------------------------------
635	-5.15000e+00	7.293972e-05	
636	-5.20000e+00	7.296243e-05	
637	-5.25000e+00	7.298505e-05	
638	-5.30000e+00	7.300760e-05	
639	-5.35000e+00	7.303006e-05	
640	-5.40000e+00	7.305245e-05	
641	-5.45000e+00	7.307477e-05	
642	-5.50000e+00	7.309702e-05	
643	-5.55000e+00	7.311920e-05	
644	-5.60000e+00	7.314132e-05	
645	-5.65000e+00	7.316339e-05	
646	-5.70000e+00	7.318541e-05	
647	-5.75000e+00	7.320739e-05	
648	-5.80000e+00	7.322932e-05	
649	-5.85000e+00	7.325123e-05	
650	-5.90000e+00	7.327311e-05	
651	-5.95000e+00	7.329498e-05	
652	-6.00000e+00	7.331686e-05	
653	-6.05000e+00	7.333875e-05	
654	-6.10000e+00	7.336067e-05	
655	-6.15000e+00	7.338265e-05	
656	-6.20000e+00	7.340470e-05	
657	-6.25000e+00	7.342686e-05	
658	-6.30000e+00	7.344914e-05	
659	-6.35000e+00	7.347160e-05	
660	-6.40000e+00	7.349426e-05	
661	-6.45000e+00	7.351718e-05	
662	-6.50000e+00	7.354041e-05	
663	-6.55000e+00	7.356400e-05	
664	-6.60000e+00	7.358802e-05	
665	0.000000e+00	0.000000e+00	
666	-5.00000e-02	2.783965e-06	
667	-1.00000e-01	5.528988e-06	
668	-1.50000e-01	8.235096e-06	
669	-2.00000e-01	1.090232e-05	
670	-2.50000e-01	1.353068e-05	
671	-3.00000e-01	1.612022e-05	
672	-3.50000e-01	1.867095e-05	
673	-4.00000e-01	2.118291e-05	
674	-4.50000e-01	2.365612e-05	
675	-5.00000e-01	2.609062e-05	
676	-5.50000e-01	2.848643e-05	
677	-6.00000e-01	3.084358e-05	
678	-6.50000e-01	3.316209e-05	
679	-7.00000e-01	3.544201e-05	
680	-7.50000e-01	3.768334e-05	
681	-8.00000e-01	3.988613e-05	
682	-8.50000e-01	4.205040e-05	
683	-9.00000e-01	4.417618e-05	
684	-9.50000e-01	4.626349e-05	
685	-1.00000e+00	4.831237e-05	
686	-1.05000e+00	5.032284e-05	
687	-1.10000e+00	5.229493e-05	
688	-1.15000e+00	5.422867e-05	
689	-1.20000e+00	5.612409e-05	
690	-1.25000e+00	5.798121e-05	
691	-1.30000e+00	5.980007e-05	
692	-1.35000e+00	6.158069e-05	

Index   v-sweep         i(vds)          
--------------------------------------------------------------------------------
693	-1.40000e+00	6.332310e-05	
694	-1.45000e+00	6.502733e-05	
695	-1.50000e+00	6.669341e-05	
696	-1.55000e+00	6.832136e-05	
697	-1.60000e+00	6.991122e-05	
698	-1.65000e+00	7.146301e-05	
699	-1.70000e+00	7.297677e-05	
700	-1.75000e+00	7.445251e-05	
701	-1.80000e+00	7.589028e-05	
702	-1.85000e+00	7.729009e-05	
703	-1.90000e+00	7.865199e-05	
704	-1.95000e+00	7.997599e-05	
705	-2.00000e+00	8.126213e-05	
706	-2.05000e+00	8.251045e-05	
707	-2.10000e+00	8.372096e-05	
708	-2.15000e+00	8.489371e-05	
709	-2.20000e+00	8.602873e-05	
710	-2.25000e+00	8.712604e-05	
711	-2.30000e+00	8.818569e-05	
712	-2.35000e+00	8.920770e-05	
713	-2.40000e+00	9.019212e-05	
714	-2.45000e+00	9.113898e-05	
715	-2.50000e+00	9.204832e-05	
716	-2.55000e+00	9.292019e-05	
717	-2.60000e+00	9.375463e-05	
718	-2.65000e+00	9.455168e-05	
719	-2.70000e+00	9.531142e-05	
720	-2.75000e+00	9.603389e-05	
721	-2.80000e+00	9.671916e-05	
722	-2.85000e+00	9.736732e-05	
723	-2.90000e+00	9.797846e-05	
724	-2.95000e+00	9.855268e-05	
725	-3.00000e+00	9.909012e-05	
726	-3.05000e+00	9.959095e-05	
727	-3.10000e+00	1.000554e-04	
728	-3.15000e+00	1.004837e-04	
729	-3.20000e+00	1.008762e-04	
730	-3.25000e+00	1.012334e-04	
731	-3.30000e+00	1.015558e-04	
732	-3.35000e+00	1.018444e-04	
733	-3.40000e+00	1.021002e-04	
734	-3.45000e+00	1.023248e-04	
735	-3.50000e+00	1.025199e-04	
736	-3.55000e+00	1.026882e-04	
737	-3.60000e+00	1.028324e-04	
738	-3.65000e+00	1.029558e-04	
739	-3.70000e+00	1.030619e-04	
740	-3.75000e+00	1.031540e-04	
741	-3.80000e+00	1.032351e-04	
742	-3.85000e+00	1.033075e-04	
743	-3.90000e+00	1.033733e-04	
744	-3.95000e+00	1.034340e-04	
745	-4.00000e+00	1.034907e-04	
746	-4.05000e+00	1.035442e-04	
747	-4.10000e+00	1.035952e-04	
748	-4.15000e+00	1.036441e-04	
749	-4.20000e+00	1.036913e-04	
750	-4.25000e+00	1.037370e-04	

Index   v-sweep         i(vds)          
--------------------------------------------------------------------------------
751	-4.30000e+00	1.037814e-04	
752	-4.35000e+00	1.038248e-04	
753	-4.40000e+00	1.038673e-04	
754	-4.45000e+00	1.039089e-04	
755	-4.50000e+00	1.039497e-04	
756	-4.55000e+00	1.039899e-04	
757	-4.60000e+00	1.040295e-04	
758	-4.65000e+00	1.040686e-04	
759	-4.70000e+00	1.041071e-04	
760	-4.75000e+00	1.041451e-04	
761	-4.80000e+00	1.041828e-04	
762	-4.85000e+00	1.042200e-04	
763	-4.90000e+00	1.042569e-04	
764	-4.95000e+00	1.042934e-04	
765	-5.00000e+00	1.043296e-04	
766	-5.05000e+00	1.043655e-04	
767	-5.10000e+00	1.044011e-04	
768	-5.15000e+00	1.044365e-04	
769	-5.20000e+00	1.044716e-04	
770	-5.25000e+00	1.045064e-04	
771	-5.30000e+00	1.045411e-04	
772	-5.35000e+00	1.045755e-04	
773	-5.40000e+00	1.046097e-04	
774	-5.45000e+00	1.046437e-04	
775	-5.50000e+00	1.046776e-04	
776	-5.55000e+00	1.047112e-04	
777	-5.60000e+00	1.047447e-04	
778	-5.65000e+00	1.047781e-04	
779	-5.70000e+00	1.048112e-04	
780	-5.75000e+00	1.048443e-04	
781	-5.80000e+00	1.048772e-04	
782	-5.85000e+00	1.049099e-04	
783	-5.90000e+00	1.049426e-04	
784	-5.95000e+00	1.049751e-04	
785	-6.00000e+00	1.050075e-04	
786	-6.05000e+00	1.050398e-04	
787	-6.10000e+00	1.050719e-04	
788	-6.15000e+00	1.051040e-04	
789	-6.20000e+00	1.051360e-04	
790	-6.25000e+00	1.051678e-04	
791	-6.30000e+00	1.051996e-04	
792	-6.35000e+00	1.052313e-04	
793	-6.40000e+00	1.052630e-04	
794	-6.45000e+00	1.052945e-04	
795	-6.50000e+00	1.053260e-04	
796	-6.55000e+00	1.053575e-04	
797	-6.60000e+00	1.053889e-04	
Note: No ".plot", ".print", or ".fourier" lines; no simulations run
