
Note: Compatibility modes selected: hs

Warning: m=xx on .subckt line will override multiplier m hierarchy!


Circuit: ***************************

Doing analysis at TEMP = -40.000000 and TNOM = -40.000000


No. of Data Rows : 798
                          ***************************
                          DC transfer characteristic  Mon Jan  9 13:57:53  2023
--------------------------------------------------------------------------------
Index   v-sweep         i(vds)          
--------------------------------------------------------------------------------
0	0.000000e+00	0.000000e+00	
1	-5.00000e-02	1.587117e-06	
2	-1.00000e-01	2.053750e-06	
3	-1.50000e-01	2.164577e-06	
4	-2.00000e-01	2.219948e-06	
5	-2.50000e-01	2.262966e-06	
6	-3.00000e-01	2.301120e-06	
7	-3.50000e-01	2.336562e-06	
8	-4.00000e-01	2.370189e-06	
9	-4.50000e-01	2.402476e-06	
10	-5.00000e-01	2.433718e-06	
11	-5.50000e-01	2.464118e-06	
12	-6.00000e-01	2.493823e-06	
13	-6.50000e-01	2.522946e-06	
14	-7.00000e-01	2.551576e-06	
15	-7.50000e-01	2.579786e-06	
16	-8.00000e-01	2.607634e-06	
17	-8.50000e-01	2.635169e-06	
18	-9.00000e-01	2.662433e-06	
19	-9.50000e-01	2.689462e-06	
20	-1.00000e+00	2.716285e-06	
21	-1.05000e+00	2.742930e-06	
22	-1.10000e+00	2.769419e-06	
23	-1.15000e+00	2.795772e-06	
24	-1.20000e+00	2.822008e-06	
25	-1.25000e+00	2.848142e-06	
26	-1.30000e+00	2.874189e-06	
27	-1.35000e+00	2.900161e-06	
28	-1.40000e+00	2.926069e-06	
29	-1.45000e+00	2.951925e-06	
30	-1.50000e+00	2.977736e-06	
31	-1.55000e+00	3.003513e-06	
32	-1.60000e+00	3.029262e-06	
33	-1.65000e+00	3.054990e-06	
34	-1.70000e+00	3.080704e-06	
35	-1.75000e+00	3.106411e-06	
36	-1.80000e+00	3.132115e-06	
37	-1.85000e+00	3.157821e-06	
38	-1.90000e+00	3.183535e-06	
39	-1.95000e+00	3.209260e-06	
40	-2.00000e+00	3.235001e-06	
41	-2.05000e+00	3.260761e-06	
42	-2.10000e+00	3.286544e-06	
43	-2.15000e+00	3.312353e-06	
44	-2.20000e+00	3.338192e-06	
45	-2.25000e+00	3.364062e-06	
46	-2.30000e+00	3.389967e-06	
47	-2.35000e+00	3.415910e-06	
48	-2.40000e+00	3.441892e-06	
49	-2.45000e+00	3.467916e-06	
50	-2.50000e+00	3.493984e-06	
51	-2.55000e+00	3.520099e-06	
52	-2.60000e+00	3.546261e-06	
53	-2.65000e+00	3.572473e-06	
54	-2.70000e+00	3.598737e-06	

Index   v-sweep         i(vds)          
--------------------------------------------------------------------------------
55	-2.75000e+00	3.625054e-06	
56	-2.80000e+00	3.651426e-06	
57	-2.85000e+00	3.677855e-06	
58	-2.90000e+00	3.704341e-06	
59	-2.95000e+00	3.730887e-06	
60	-3.00000e+00	3.757495e-06	
61	-3.05000e+00	3.784165e-06	
62	-3.10000e+00	3.810899e-06	
63	-3.15000e+00	3.837699e-06	
64	-3.20000e+00	3.864567e-06	
65	-3.25000e+00	3.891504e-06	
66	-3.30000e+00	3.918512e-06	
67	-3.35000e+00	3.945594e-06	
68	-3.40000e+00	3.972751e-06	
69	-3.45000e+00	3.999986e-06	
70	-3.50000e+00	4.027301e-06	
71	-3.55000e+00	4.054700e-06	
72	-3.60000e+00	4.082186e-06	
73	-3.65000e+00	4.109762e-06	
74	-3.70000e+00	4.137433e-06	
75	-3.75000e+00	4.165203e-06	
76	-3.80000e+00	4.193076e-06	
77	-3.85000e+00	4.221059e-06	
78	-3.90000e+00	4.249158e-06	
79	-3.95000e+00	4.277379e-06	
80	-4.00000e+00	4.305731e-06	
81	-4.05000e+00	4.334221e-06	
82	-4.10000e+00	4.362858e-06	
83	-4.15000e+00	4.391654e-06	
84	-4.20000e+00	4.420620e-06	
85	-4.25000e+00	4.449767e-06	
86	-4.30000e+00	4.479110e-06	
87	-4.35000e+00	4.508662e-06	
88	-4.40000e+00	4.538441e-06	
89	-4.45000e+00	4.568464e-06	
90	-4.50000e+00	4.598750e-06	
91	-4.55000e+00	4.629320e-06	
92	-4.60000e+00	4.660195e-06	
93	-4.65000e+00	4.691401e-06	
94	-4.70000e+00	4.722962e-06	
95	-4.75000e+00	4.754907e-06	
96	-4.80000e+00	4.787267e-06	
97	-4.85000e+00	4.820072e-06	
98	-4.90000e+00	4.853357e-06	
99	-4.95000e+00	4.887159e-06	
100	-5.00000e+00	4.921517e-06	
101	-5.05000e+00	4.956471e-06	
102	-5.10000e+00	4.992067e-06	
103	-5.15000e+00	5.028350e-06	
104	-5.20000e+00	5.065371e-06	
105	-5.25000e+00	5.103181e-06	
106	-5.30000e+00	5.141835e-06	
107	-5.35000e+00	5.181391e-06	
108	-5.40000e+00	5.221912e-06	
109	-5.45000e+00	5.263460e-06	
110	-5.50000e+00	5.306104e-06	
111	-5.55000e+00	5.349915e-06	
112	-5.60000e+00	5.394967e-06	

Index   v-sweep         i(vds)          
--------------------------------------------------------------------------------
113	-5.65000e+00	5.441337e-06	
114	-5.70000e+00	5.489108e-06	
115	-5.75000e+00	5.538363e-06	
116	-5.80000e+00	5.589192e-06	
117	-5.85000e+00	5.641688e-06	
118	-5.90000e+00	5.695945e-06	
119	-5.95000e+00	5.752066e-06	
120	-6.00000e+00	5.810152e-06	
121	-6.05000e+00	5.870313e-06	
122	-6.10000e+00	5.932661e-06	
123	-6.15000e+00	5.997311e-06	
124	-6.20000e+00	6.064385e-06	
125	-6.25000e+00	6.134007e-06	
126	-6.30000e+00	6.206305e-06	
127	-6.35000e+00	6.281413e-06	
128	-6.40000e+00	6.359469e-06	
129	-6.45000e+00	6.440614e-06	
130	-6.50000e+00	6.524995e-06	
131	-6.55000e+00	6.612762e-06	
132	-6.60000e+00	6.704071e-06	
133	0.000000e+00	0.000000e+00	
134	-5.00000e-02	3.521264e-05	
135	-1.00000e-01	6.785496e-05	
136	-1.50000e-01	9.798434e-05	
137	-2.00000e-01	1.256567e-04	
138	-2.50000e-01	1.509266e-04	
139	-3.00000e-01	1.738475e-04	
140	-3.50000e-01	1.944721e-04	
141	-4.00000e-01	2.128528e-04	
142	-4.50000e-01	2.290429e-04	
143	-5.00000e-01	2.430985e-04	
144	-5.50000e-01	2.550830e-04	
145	-6.00000e-01	2.650758e-04	
146	-6.50000e-01	2.731914e-04	
147	-7.00000e-01	2.796103e-04	
148	-7.50000e-01	2.846073e-04	
149	-8.00000e-01	2.885269e-04	
150	-8.50000e-01	2.916942e-04	
151	-9.00000e-01	2.943486e-04	
152	-9.50000e-01	2.966438e-04	
153	-1.00000e+00	2.986761e-04	
154	-1.05000e+00	3.005076e-04	
155	-1.10000e+00	3.021805e-04	
156	-1.15000e+00	3.037246e-04	
157	-1.20000e+00	3.051621e-04	
158	-1.25000e+00	3.065095e-04	
159	-1.30000e+00	3.077801e-04	
160	-1.35000e+00	3.089840e-04	
161	-1.40000e+00	3.101297e-04	
162	-1.45000e+00	3.112241e-04	
163	-1.50000e+00	3.122730e-04	
164	-1.55000e+00	3.132811e-04	
165	-1.60000e+00	3.142526e-04	
166	-1.65000e+00	3.151909e-04	
167	-1.70000e+00	3.160991e-04	
168	-1.75000e+00	3.169798e-04	
169	-1.80000e+00	3.178354e-04	
170	-1.85000e+00	3.186678e-04	

Index   v-sweep         i(vds)          
--------------------------------------------------------------------------------
171	-1.90000e+00	3.194789e-04	
172	-1.95000e+00	3.202702e-04	
173	-2.00000e+00	3.210433e-04	
174	-2.05000e+00	3.217992e-04	
175	-2.10000e+00	3.225393e-04	
176	-2.15000e+00	3.232645e-04	
177	-2.20000e+00	3.239757e-04	
178	-2.25000e+00	3.246740e-04	
179	-2.30000e+00	3.253599e-04	
180	-2.35000e+00	3.260343e-04	
181	-2.40000e+00	3.266977e-04	
182	-2.45000e+00	3.273508e-04	
183	-2.50000e+00	3.279942e-04	
184	-2.55000e+00	3.286283e-04	
185	-2.60000e+00	3.292537e-04	
186	-2.65000e+00	3.298707e-04	
187	-2.70000e+00	3.304798e-04	
188	-2.75000e+00	3.310813e-04	
189	-2.80000e+00	3.316756e-04	
190	-2.85000e+00	3.322631e-04	
191	-2.90000e+00	3.328439e-04	
192	-2.95000e+00	3.334185e-04	
193	-3.00000e+00	3.339872e-04	
194	-3.05000e+00	3.345500e-04	
195	-3.10000e+00	3.351073e-04	
196	-3.15000e+00	3.356594e-04	
197	-3.20000e+00	3.362064e-04	
198	-3.25000e+00	3.367485e-04	
199	-3.30000e+00	3.372859e-04	
200	-3.35000e+00	3.378188e-04	
201	-3.40000e+00	3.383475e-04	
202	-3.45000e+00	3.388719e-04	
203	-3.50000e+00	3.393924e-04	
204	-3.55000e+00	3.399090e-04	
205	-3.60000e+00	3.404219e-04	
206	-3.65000e+00	3.409313e-04	
207	-3.70000e+00	3.414373e-04	
208	-3.75000e+00	3.419401e-04	
209	-3.80000e+00	3.424398e-04	
210	-3.85000e+00	3.429366e-04	
211	-3.90000e+00	3.434306e-04	
212	-3.95000e+00	3.439221e-04	
213	-4.00000e+00	3.444111e-04	
214	-4.05000e+00	3.448979e-04	
215	-4.10000e+00	3.453827e-04	
216	-4.15000e+00	3.458657e-04	
217	-4.20000e+00	3.463472e-04	
218	-4.25000e+00	3.468273e-04	
219	-4.30000e+00	3.473065e-04	
220	-4.35000e+00	3.477850e-04	
221	-4.40000e+00	3.482632e-04	
222	-4.45000e+00	3.487414e-04	
223	-4.50000e+00	3.492201e-04	
224	-4.55000e+00	3.496997e-04	
225	-4.60000e+00	3.501808e-04	
226	-4.65000e+00	3.506638e-04	
227	-4.70000e+00	3.511495e-04	
228	-4.75000e+00	3.516384e-04	

Index   v-sweep         i(vds)          
--------------------------------------------------------------------------------
229	-4.80000e+00	3.521314e-04	
230	-4.85000e+00	3.526292e-04	
231	-4.90000e+00	3.531326e-04	
232	-4.95000e+00	3.536427e-04	
233	-5.00000e+00	3.541604e-04	
234	-5.05000e+00	3.546868e-04	
235	-5.10000e+00	3.552231e-04	
236	-5.15000e+00	3.557707e-04	
237	-5.20000e+00	3.563308e-04	
238	-5.25000e+00	3.569049e-04	
239	-5.30000e+00	3.574947e-04	
240	-5.35000e+00	3.581017e-04	
241	-5.40000e+00	3.587279e-04	
242	-5.45000e+00	3.593751e-04	
243	-5.50000e+00	3.600453e-04	
244	-5.55000e+00	3.607406e-04	
245	-5.60000e+00	3.614634e-04	
246	-5.65000e+00	3.622161e-04	
247	-5.70000e+00	3.630012e-04	
248	-5.75000e+00	3.638213e-04	
249	-5.80000e+00	3.646793e-04	
250	-5.85000e+00	3.655782e-04	
251	-5.90000e+00	3.665209e-04	
252	-5.95000e+00	3.675108e-04	
253	-6.00000e+00	3.685512e-04	
254	-6.05000e+00	3.696457e-04	
255	-6.10000e+00	3.707980e-04	
256	-6.15000e+00	3.720119e-04	
257	-6.20000e+00	3.732913e-04	
258	-6.25000e+00	3.746406e-04	
259	-6.30000e+00	3.760639e-04	
260	-6.35000e+00	3.775657e-04	
261	-6.40000e+00	3.791507e-04	
262	-6.45000e+00	3.808237e-04	
263	-6.50000e+00	3.825895e-04	
264	-6.55000e+00	3.844534e-04	
265	-6.60000e+00	3.864206e-04	
266	0.000000e+00	0.000000e+00	
267	-5.00000e-02	5.934605e-05	
268	-1.00000e-01	1.161688e-04	
269	-1.50000e-01	1.705162e-04	
270	-2.00000e-01	2.224350e-04	
271	-2.50000e-01	2.719708e-04	
272	-3.00000e-01	3.191681e-04	
273	-3.50000e-01	3.640702e-04	
274	-4.00000e-01	4.067197e-04	
275	-4.50000e-01	4.471577e-04	
276	-5.00000e-01	4.854247e-04	
277	-5.50000e-01	5.215602e-04	
278	-6.00000e-01	5.556028e-04	
279	-6.50000e-01	5.875902e-04	
280	-7.00000e-01	6.175593e-04	
281	-7.50000e-01	6.455466e-04	
282	-8.00000e-01	6.715876e-04	
283	-8.50000e-01	6.957175e-04	
284	-9.00000e-01	7.179714e-04	
285	-9.50000e-01	7.383840e-04	
286	-1.00000e+00	7.569910e-04	

Index   v-sweep         i(vds)          
--------------------------------------------------------------------------------
287	-1.05000e+00	7.738295e-04	
288	-1.10000e+00	7.889403e-04	
289	-1.15000e+00	8.023713e-04	
290	-1.20000e+00	8.141850e-04	
291	-1.25000e+00	8.244696e-04	
292	-1.30000e+00	8.333517e-04	
293	-1.35000e+00	8.409999e-04	
294	-1.40000e+00	8.476084e-04	
295	-1.45000e+00	8.533692e-04	
296	-1.50000e+00	8.584498e-04	
297	-1.55000e+00	8.629854e-04	
298	-1.60000e+00	8.670809e-04	
299	-1.65000e+00	8.708168e-04	
300	-1.70000e+00	8.742551e-04	
301	-1.75000e+00	8.774439e-04	
302	-1.80000e+00	8.804208e-04	
303	-1.85000e+00	8.832159e-04	
304	-1.90000e+00	8.858535e-04	
305	-1.95000e+00	8.883534e-04	
306	-2.00000e+00	8.907319e-04	
307	-2.05000e+00	8.930027e-04	
308	-2.10000e+00	8.951773e-04	
309	-2.15000e+00	8.972655e-04	
310	-2.20000e+00	8.992757e-04	
311	-2.25000e+00	9.012150e-04	
312	-2.30000e+00	9.030898e-04	
313	-2.35000e+00	9.049055e-04	
314	-2.40000e+00	9.066670e-04	
315	-2.45000e+00	9.083785e-04	
316	-2.50000e+00	9.100439e-04	
317	-2.55000e+00	9.116664e-04	
318	-2.60000e+00	9.132491e-04	
319	-2.65000e+00	9.147947e-04	
320	-2.70000e+00	9.163057e-04	
321	-2.75000e+00	9.177843e-04	
322	-2.80000e+00	9.192325e-04	
323	-2.85000e+00	9.206521e-04	
324	-2.90000e+00	9.220448e-04	
325	-2.95000e+00	9.234121e-04	
326	-3.00000e+00	9.247555e-04	
327	-3.05000e+00	9.260762e-04	
328	-3.10000e+00	9.273754e-04	
329	-3.15000e+00	9.286542e-04	
330	-3.20000e+00	9.299137e-04	
331	-3.25000e+00	9.311547e-04	
332	-3.30000e+00	9.323783e-04	
333	-3.35000e+00	9.335851e-04	
334	-3.40000e+00	9.347760e-04	
335	-3.45000e+00	9.359516e-04	
336	-3.50000e+00	9.371127e-04	
337	-3.55000e+00	9.382599e-04	
338	-3.60000e+00	9.393937e-04	
339	-3.65000e+00	9.405147e-04	
340	-3.70000e+00	9.416234e-04	
341	-3.75000e+00	9.427204e-04	
342	-3.80000e+00	9.438060e-04	
343	-3.85000e+00	9.448808e-04	
344	-3.90000e+00	9.459451e-04	

Index   v-sweep         i(vds)          
--------------------------------------------------------------------------------
345	-3.95000e+00	9.469994e-04	
346	-4.00000e+00	9.480440e-04	
347	-4.05000e+00	9.490794e-04	
348	-4.10000e+00	9.501058e-04	
349	-4.15000e+00	9.511237e-04	
350	-4.20000e+00	9.521334e-04	
351	-4.25000e+00	9.531353e-04	
352	-4.30000e+00	9.541298e-04	
353	-4.35000e+00	9.551171e-04	
354	-4.40000e+00	9.560978e-04	
355	-4.45000e+00	9.570722e-04	
356	-4.50000e+00	9.580407e-04	
357	-4.55000e+00	9.590037e-04	
358	-4.60000e+00	9.599619e-04	
359	-4.65000e+00	9.609157e-04	
360	-4.70000e+00	9.618657e-04	
361	-4.75000e+00	9.628125e-04	
362	-4.80000e+00	9.637568e-04	
363	-4.85000e+00	9.646995e-04	
364	-4.90000e+00	9.656413e-04	
365	-4.95000e+00	9.665831e-04	
366	-5.00000e+00	9.675261e-04	
367	-5.05000e+00	9.684714e-04	
368	-5.10000e+00	9.694201e-04	
369	-5.15000e+00	9.703738e-04	
370	-5.20000e+00	9.713339e-04	
371	-5.25000e+00	9.723021e-04	
372	-5.30000e+00	9.732802e-04	
373	-5.35000e+00	9.742702e-04	
374	-5.40000e+00	9.752743e-04	
375	-5.45000e+00	9.762949e-04	
376	-5.50000e+00	9.773345e-04	
377	-5.55000e+00	9.783959e-04	
378	-5.60000e+00	9.794822e-04	
379	-5.65000e+00	9.805966e-04	
380	-5.70000e+00	9.817425e-04	
381	-5.75000e+00	9.829238e-04	
382	-5.80000e+00	9.841445e-04	
383	-5.85000e+00	9.854088e-04	
384	-5.90000e+00	9.867214e-04	
385	-5.95000e+00	9.880872e-04	
386	-6.00000e+00	9.895114e-04	
387	-6.05000e+00	9.909995e-04	
388	-6.10000e+00	9.925574e-04	
389	-6.15000e+00	9.941912e-04	
390	-6.20000e+00	9.959076e-04	
391	-6.25000e+00	9.977134e-04	
392	-6.30000e+00	9.996158e-04	
393	-6.35000e+00	1.001623e-03	
394	-6.40000e+00	1.003742e-03	
395	-6.45000e+00	1.005982e-03	
396	-6.50000e+00	1.008351e-03	
397	-6.55000e+00	1.010859e-03	
398	-6.60000e+00	1.013516e-03	
399	0.000000e+00	0.000000e+00	
400	-5.00000e-02	7.707824e-05	
401	-1.00000e-01	1.517510e-04	
402	-1.50000e-01	2.240585e-04	

Index   v-sweep         i(vds)          
--------------------------------------------------------------------------------
403	-2.00000e-01	2.940400e-04	
404	-2.50000e-01	3.617339e-04	
405	-3.00000e-01	4.271777e-04	
406	-3.50000e-01	4.904083e-04	
407	-4.00000e-01	5.514616e-04	
408	-4.50000e-01	6.103728e-04	
409	-5.00000e-01	6.671762e-04	
410	-5.50000e-01	7.219057e-04	
411	-6.00000e-01	7.745943e-04	
412	-6.50000e-01	8.252741e-04	
413	-7.00000e-01	8.739768e-04	
414	-7.50000e-01	9.207335e-04	
415	-8.00000e-01	9.655744e-04	
416	-8.50000e-01	1.008529e-03	
417	-9.00000e-01	1.049627e-03	
418	-9.50000e-01	1.088896e-03	
419	-1.00000e+00	1.126365e-03	
420	-1.05000e+00	1.162060e-03	
421	-1.10000e+00	1.196009e-03	
422	-1.15000e+00	1.228238e-03	
423	-1.20000e+00	1.258772e-03	
424	-1.25000e+00	1.287636e-03	
425	-1.30000e+00	1.314854e-03	
426	-1.35000e+00	1.340450e-03	
427	-1.40000e+00	1.364446e-03	
428	-1.45000e+00	1.386863e-03	
429	-1.50000e+00	1.407721e-03	
430	-1.55000e+00	1.427036e-03	
431	-1.60000e+00	1.444824e-03	
432	-1.65000e+00	1.461099e-03	
433	-1.70000e+00	1.475875e-03	
434	-1.75000e+00	1.489180e-03	
435	-1.80000e+00	1.501067e-03	
436	-1.85000e+00	1.511630e-03	
437	-1.90000e+00	1.521000e-03	
438	-1.95000e+00	1.529331e-03	
439	-2.00000e+00	1.536781e-03	
440	-2.05000e+00	1.543493e-03	
441	-2.10000e+00	1.549587e-03	
442	-2.15000e+00	1.555166e-03	
443	-2.20000e+00	1.560310e-03	
444	-2.25000e+00	1.565084e-03	
445	-2.30000e+00	1.569543e-03	
446	-2.35000e+00	1.573730e-03	
447	-2.40000e+00	1.577679e-03	
448	-2.45000e+00	1.581420e-03	
449	-2.50000e+00	1.584977e-03	
450	-2.55000e+00	1.588371e-03	
451	-2.60000e+00	1.591618e-03	
452	-2.65000e+00	1.594735e-03	
453	-2.70000e+00	1.597732e-03	
454	-2.75000e+00	1.600622e-03	
455	-2.80000e+00	1.603414e-03	
456	-2.85000e+00	1.606116e-03	
457	-2.90000e+00	1.608736e-03	
458	-2.95000e+00	1.611279e-03	
459	-3.00000e+00	1.613753e-03	
460	-3.05000e+00	1.616161e-03	

Index   v-sweep         i(vds)          
--------------------------------------------------------------------------------
461	-3.10000e+00	1.618509e-03	
462	-3.15000e+00	1.620800e-03	
463	-3.20000e+00	1.623039e-03	
464	-3.25000e+00	1.625229e-03	
465	-3.30000e+00	1.627372e-03	
466	-3.35000e+00	1.629472e-03	
467	-3.40000e+00	1.631531e-03	
468	-3.45000e+00	1.633552e-03	
469	-3.50000e+00	1.635536e-03	
470	-3.55000e+00	1.637486e-03	
471	-3.60000e+00	1.639403e-03	
472	-3.65000e+00	1.641289e-03	
473	-3.70000e+00	1.643146e-03	
474	-3.75000e+00	1.644975e-03	
475	-3.80000e+00	1.646778e-03	
476	-3.85000e+00	1.648555e-03	
477	-3.90000e+00	1.650308e-03	
478	-3.95000e+00	1.652038e-03	
479	-4.00000e+00	1.653746e-03	
480	-4.05000e+00	1.655433e-03	
481	-4.10000e+00	1.657099e-03	
482	-4.15000e+00	1.658746e-03	
483	-4.20000e+00	1.660374e-03	
484	-4.25000e+00	1.661985e-03	
485	-4.30000e+00	1.663579e-03	
486	-4.35000e+00	1.665156e-03	
487	-4.40000e+00	1.666717e-03	
488	-4.45000e+00	1.668263e-03	
489	-4.50000e+00	1.669794e-03	
490	-4.55000e+00	1.671311e-03	
491	-4.60000e+00	1.672815e-03	
492	-4.65000e+00	1.674306e-03	
493	-4.70000e+00	1.675785e-03	
494	-4.75000e+00	1.677252e-03	
495	-4.80000e+00	1.678708e-03	
496	-4.85000e+00	1.680153e-03	
497	-4.90000e+00	1.681588e-03	
498	-4.95000e+00	1.683014e-03	
499	-5.00000e+00	1.684432e-03	
500	-5.05000e+00	1.685841e-03	
501	-5.10000e+00	1.687244e-03	
502	-5.15000e+00	1.688640e-03	
503	-5.20000e+00	1.690032e-03	
504	-5.25000e+00	1.691419e-03	
505	-5.30000e+00	1.692804e-03	
506	-5.35000e+00	1.694187e-03	
507	-5.40000e+00	1.695570e-03	
508	-5.45000e+00	1.696955e-03	
509	-5.50000e+00	1.698343e-03	
510	-5.55000e+00	1.699736e-03	
511	-5.60000e+00	1.701138e-03	
512	-5.65000e+00	1.702549e-03	
513	-5.70000e+00	1.703973e-03	
514	-5.75000e+00	1.705413e-03	
515	-5.80000e+00	1.706872e-03	
516	-5.85000e+00	1.708353e-03	
517	-5.90000e+00	1.709860e-03	
518	-5.95000e+00	1.711398e-03	

Index   v-sweep         i(vds)          
--------------------------------------------------------------------------------
519	-6.00000e+00	1.712970e-03	
520	-6.05000e+00	1.714583e-03	
521	-6.10000e+00	1.716241e-03	
522	-6.15000e+00	1.717949e-03	
523	-6.20000e+00	1.719715e-03	
524	-6.25000e+00	1.721544e-03	
525	-6.30000e+00	1.723444e-03	
526	-6.35000e+00	1.725423e-03	
527	-6.40000e+00	1.727487e-03	
528	-6.45000e+00	1.729647e-03	
529	-6.50000e+00	1.731911e-03	
530	-6.55000e+00	1.734289e-03	
531	-6.60000e+00	1.736791e-03	
532	0.000000e+00	0.000000e+00	
533	-5.00000e-02	9.060809e-05	
534	-1.00000e-01	1.789443e-04	
535	-1.50000e-01	2.650425e-04	
536	-2.00000e-01	3.489361e-04	
537	-2.50000e-01	4.306574e-04	
538	-3.00000e-01	5.102387e-04	
539	-3.50000e-01	5.877111e-04	
540	-4.00000e-01	6.631053e-04	
541	-4.50000e-01	7.364516e-04	
542	-5.00000e-01	8.077795e-04	
543	-5.50000e-01	8.771179e-04	
544	-6.00000e-01	9.444953e-04	
545	-6.50000e-01	1.009939e-03	
546	-7.00000e-01	1.073478e-03	
547	-7.50000e-01	1.135137e-03	
548	-8.00000e-01	1.194944e-03	
549	-8.50000e-01	1.252924e-03	
550	-9.00000e-01	1.309103e-03	
551	-9.50000e-01	1.363505e-03	
552	-1.00000e+00	1.416155e-03	
553	-1.05000e+00	1.467077e-03	
554	-1.10000e+00	1.516294e-03	
555	-1.15000e+00	1.563830e-03	
556	-1.20000e+00	1.609707e-03	
557	-1.25000e+00	1.653948e-03	
558	-1.30000e+00	1.696574e-03	
559	-1.35000e+00	1.737606e-03	
560	-1.40000e+00	1.777066e-03	
561	-1.45000e+00	1.814974e-03	
562	-1.50000e+00	1.851350e-03	
563	-1.55000e+00	1.886213e-03	
564	-1.60000e+00	1.919584e-03	
565	-1.65000e+00	1.951479e-03	
566	-1.70000e+00	1.981916e-03	
567	-1.75000e+00	2.010911e-03	
568	-1.80000e+00	2.038481e-03	
569	-1.85000e+00	2.064636e-03	
570	-1.90000e+00	2.089389e-03	
571	-1.95000e+00	2.112746e-03	
572	-2.00000e+00	2.134708e-03	
573	-2.05000e+00	2.155271e-03	
574	-2.10000e+00	2.174423e-03	
575	-2.15000e+00	2.192148e-03	
576	-2.20000e+00	2.208433e-03	

Index   v-sweep         i(vds)          
--------------------------------------------------------------------------------
577	-2.25000e+00	2.223280e-03	
578	-2.30000e+00	2.236725e-03	
579	-2.35000e+00	2.248846e-03	
580	-2.40000e+00	2.259761e-03	
581	-2.45000e+00	2.269608e-03	
582	-2.50000e+00	2.278528e-03	
583	-2.55000e+00	2.286656e-03	
584	-2.60000e+00	2.294107e-03	
585	-2.65000e+00	2.300982e-03	
586	-2.70000e+00	2.307362e-03	
587	-2.75000e+00	2.313316e-03	
588	-2.80000e+00	2.318902e-03	
589	-2.85000e+00	2.324166e-03	
590	-2.90000e+00	2.329147e-03	
591	-2.95000e+00	2.333879e-03	
592	-3.00000e+00	2.338389e-03	
593	-3.05000e+00	2.342700e-03	
594	-3.10000e+00	2.346834e-03	
595	-3.15000e+00	2.350806e-03	
596	-3.20000e+00	2.354633e-03	
597	-3.25000e+00	2.358326e-03	
598	-3.30000e+00	2.361898e-03	
599	-3.35000e+00	2.365359e-03	
600	-3.40000e+00	2.368717e-03	
601	-3.45000e+00	2.371980e-03	
602	-3.50000e+00	2.375156e-03	
603	-3.55000e+00	2.378250e-03	
604	-3.60000e+00	2.381268e-03	
605	-3.65000e+00	2.384216e-03	
606	-3.70000e+00	2.387097e-03	
607	-3.75000e+00	2.389916e-03	
608	-3.80000e+00	2.392677e-03	
609	-3.85000e+00	2.395384e-03	
610	-3.90000e+00	2.398038e-03	
611	-3.95000e+00	2.400644e-03	
612	-4.00000e+00	2.403205e-03	
613	-4.05000e+00	2.405721e-03	
614	-4.10000e+00	2.408196e-03	
615	-4.15000e+00	2.410632e-03	
616	-4.20000e+00	2.413031e-03	
617	-4.25000e+00	2.415394e-03	
618	-4.30000e+00	2.417723e-03	
619	-4.35000e+00	2.420020e-03	
620	-4.40000e+00	2.422286e-03	
621	-4.45000e+00	2.424523e-03	
622	-4.50000e+00	2.426732e-03	
623	-4.55000e+00	2.428914e-03	
624	-4.60000e+00	2.431070e-03	
625	-4.65000e+00	2.433201e-03	
626	-4.70000e+00	2.435309e-03	
627	-4.75000e+00	2.437393e-03	
628	-4.80000e+00	2.439456e-03	
629	-4.85000e+00	2.441498e-03	
630	-4.90000e+00	2.443520e-03	
631	-4.95000e+00	2.445522e-03	
632	-5.00000e+00	2.447506e-03	
633	-5.05000e+00	2.449471e-03	
634	-5.10000e+00	2.451420e-03	

Index   v-sweep         i(vds)          
--------------------------------------------------------------------------------
635	-5.15000e+00	2.453352e-03	
636	-5.20000e+00	2.455269e-03	
637	-5.25000e+00	2.457171e-03	
638	-5.30000e+00	2.459059e-03	
639	-5.35000e+00	2.460934e-03	
640	-5.40000e+00	2.462796e-03	
641	-5.45000e+00	2.464648e-03	
642	-5.50000e+00	2.466489e-03	
643	-5.55000e+00	2.468321e-03	
644	-5.60000e+00	2.470145e-03	
645	-5.65000e+00	2.471963e-03	
646	-5.70000e+00	2.473775e-03	
647	-5.75000e+00	2.475585e-03	
648	-5.80000e+00	2.477393e-03	
649	-5.85000e+00	2.479201e-03	
650	-5.90000e+00	2.481013e-03	
651	-5.95000e+00	2.482830e-03	
652	-6.00000e+00	2.484655e-03	
653	-6.05000e+00	2.486491e-03	
654	-6.10000e+00	2.488342e-03	
655	-6.15000e+00	2.490212e-03	
656	-6.20000e+00	2.492104e-03	
657	-6.25000e+00	2.494024e-03	
658	-6.30000e+00	2.495975e-03	
659	-6.35000e+00	2.497965e-03	
660	-6.40000e+00	2.499997e-03	
661	-6.45000e+00	2.502080e-03	
662	-6.50000e+00	2.504220e-03	
663	-6.55000e+00	2.506424e-03	
664	-6.60000e+00	2.508701e-03	
665	0.000000e+00	0.000000e+00	
666	-5.00000e-02	1.012123e-04	
667	-1.00000e-01	2.002855e-04	
668	-1.50000e-01	2.972483e-04	
669	-2.00000e-01	3.921292e-04	
670	-2.50000e-01	4.849562e-04	
671	-3.00000e-01	5.757565e-04	
672	-3.50000e-01	6.645572e-04	
673	-4.00000e-01	7.513846e-04	
674	-4.50000e-01	8.362648e-04	
675	-5.00000e-01	9.192233e-04	
676	-5.50000e-01	1.000285e-03	
677	-6.00000e-01	1.079475e-03	
678	-6.50000e-01	1.156817e-03	
679	-7.00000e-01	1.232335e-03	
680	-7.50000e-01	1.306052e-03	
681	-8.00000e-01	1.377992e-03	
682	-8.50000e-01	1.448177e-03	
683	-9.00000e-01	1.516628e-03	
684	-9.50000e-01	1.583369e-03	
685	-1.00000e+00	1.648420e-03	
686	-1.05000e+00	1.711803e-03	
687	-1.10000e+00	1.773538e-03	
688	-1.15000e+00	1.833646e-03	
689	-1.20000e+00	1.892147e-03	
690	-1.25000e+00	1.949060e-03	
691	-1.30000e+00	2.004405e-03	
692	-1.35000e+00	2.058201e-03	

Index   v-sweep         i(vds)          
--------------------------------------------------------------------------------
693	-1.40000e+00	2.110467e-03	
694	-1.45000e+00	2.161221e-03	
695	-1.50000e+00	2.210481e-03	
696	-1.55000e+00	2.258266e-03	
697	-1.60000e+00	2.304592e-03	
698	-1.65000e+00	2.349477e-03	
699	-1.70000e+00	2.392937e-03	
700	-1.75000e+00	2.434990e-03	
701	-1.80000e+00	2.475652e-03	
702	-1.85000e+00	2.514937e-03	
703	-1.90000e+00	2.552862e-03	
704	-1.95000e+00	2.589442e-03	
705	-2.00000e+00	2.624691e-03	
706	-2.05000e+00	2.658622e-03	
707	-2.10000e+00	2.691248e-03	
708	-2.15000e+00	2.722582e-03	
709	-2.20000e+00	2.752632e-03	
710	-2.25000e+00	2.781408e-03	
711	-2.30000e+00	2.808914e-03	
712	-2.35000e+00	2.835152e-03	
713	-2.40000e+00	2.860119e-03	
714	-2.45000e+00	2.883802e-03	
715	-2.50000e+00	2.906183e-03	
716	-2.55000e+00	2.927233e-03	
717	-2.60000e+00	2.946917e-03	
718	-2.65000e+00	2.965199e-03	
719	-2.70000e+00	2.982060e-03	
720	-2.75000e+00	2.997511e-03	
721	-2.80000e+00	3.011602e-03	
722	-2.85000e+00	3.024424e-03	
723	-2.90000e+00	3.036096e-03	
724	-2.95000e+00	3.046748e-03	
725	-3.00000e+00	3.056510e-03	
726	-3.05000e+00	3.065500e-03	
727	-3.10000e+00	3.073821e-03	
728	-3.15000e+00	3.081564e-03	
729	-3.20000e+00	3.088804e-03	
730	-3.25000e+00	3.095606e-03	
731	-3.30000e+00	3.102024e-03	
732	-3.35000e+00	3.108102e-03	
733	-3.40000e+00	3.113880e-03	
734	-3.45000e+00	3.119390e-03	
735	-3.50000e+00	3.124660e-03	
736	-3.55000e+00	3.129714e-03	
737	-3.60000e+00	3.134572e-03	
738	-3.65000e+00	3.139254e-03	
739	-3.70000e+00	3.143773e-03	
740	-3.75000e+00	3.148144e-03	
741	-3.80000e+00	3.152380e-03	
742	-3.85000e+00	3.156491e-03	
743	-3.90000e+00	3.160486e-03	
744	-3.95000e+00	3.164374e-03	
745	-4.00000e+00	3.168162e-03	
746	-4.05000e+00	3.171858e-03	
747	-4.10000e+00	3.175468e-03	
748	-4.15000e+00	3.178997e-03	
749	-4.20000e+00	3.182450e-03	
750	-4.25000e+00	3.185832e-03	

Index   v-sweep         i(vds)          
--------------------------------------------------------------------------------
751	-4.30000e+00	3.189147e-03	
752	-4.35000e+00	3.192399e-03	
753	-4.40000e+00	3.195591e-03	
754	-4.45000e+00	3.198727e-03	
755	-4.50000e+00	3.201810e-03	
756	-4.55000e+00	3.204843e-03	
757	-4.60000e+00	3.207827e-03	
758	-4.65000e+00	3.210766e-03	
759	-4.70000e+00	3.213662e-03	
760	-4.75000e+00	3.216516e-03	
761	-4.80000e+00	3.219331e-03	
762	-4.85000e+00	3.222108e-03	
763	-4.90000e+00	3.224850e-03	
764	-4.95000e+00	3.227557e-03	
765	-5.00000e+00	3.230231e-03	
766	-5.05000e+00	3.232873e-03	
767	-5.10000e+00	3.235485e-03	
768	-5.15000e+00	3.238068e-03	
769	-5.20000e+00	3.240624e-03	
770	-5.25000e+00	3.243152e-03	
771	-5.30000e+00	3.245655e-03	
772	-5.35000e+00	3.248133e-03	
773	-5.40000e+00	3.250588e-03	
774	-5.45000e+00	3.253020e-03	
775	-5.50000e+00	3.255430e-03	
776	-5.55000e+00	3.257819e-03	
777	-5.60000e+00	3.260188e-03	
778	-5.65000e+00	3.262538e-03	
779	-5.70000e+00	3.264871e-03	
780	-5.75000e+00	3.267186e-03	
781	-5.80000e+00	3.269486e-03	
782	-5.85000e+00	3.271771e-03	
783	-5.90000e+00	3.274042e-03	
784	-5.95000e+00	3.276301e-03	
785	-6.00000e+00	3.278550e-03	
786	-6.05000e+00	3.280789e-03	
787	-6.10000e+00	3.283022e-03	
788	-6.15000e+00	3.285249e-03	
789	-6.20000e+00	3.287472e-03	
790	-6.25000e+00	3.289695e-03	
791	-6.30000e+00	3.291920e-03	
792	-6.35000e+00	3.294151e-03	
793	-6.40000e+00	3.296389e-03	
794	-6.45000e+00	3.298639e-03	
795	-6.50000e+00	3.300906e-03	
796	-6.55000e+00	3.303193e-03	
797	-6.60000e+00	3.305506e-03	
Note: No ".plot", ".print", or ".fourier" lines; no simulations run
