
Note: Compatibility modes selected: hs

Warning: m=xx on .subckt line will override multiplier m hierarchy!


Circuit: ***************************

Doing analysis at TEMP = 25.000000 and TNOM = 25.000000


No. of Data Rows : 798
                          ***************************
                          DC transfer characteristic  Mon Jan  9 13:57:53  2023
--------------------------------------------------------------------------------
Index   v-sweep         i(vds)          
--------------------------------------------------------------------------------
0	0.000000e+00	0.000000e+00	
1	-5.00000e-02	7.786865e-09	
2	-1.00000e-01	1.172856e-08	
3	-1.50000e-01	1.298302e-08	
4	-2.00000e-01	1.327827e-08	
5	-2.50000e-01	1.337026e-08	
6	-3.00000e-01	1.341335e-08	
7	-3.50000e-01	1.344020e-08	
8	-4.00000e-01	1.346008e-08	
9	-4.50000e-01	1.347634e-08	
10	-5.00000e-01	1.349046e-08	
11	-5.50000e-01	1.350315e-08	
12	-6.00000e-01	1.351484e-08	
13	-6.50000e-01	1.352577e-08	
14	-7.00000e-01	1.353610e-08	
15	-7.50000e-01	1.354593e-08	
16	-8.00000e-01	1.355536e-08	
17	-8.50000e-01	1.356444e-08	
18	-9.00000e-01	1.357321e-08	
19	-9.50000e-01	1.358171e-08	
20	-1.00000e+00	1.358997e-08	
21	-1.05000e+00	1.359803e-08	
22	-1.10000e+00	1.360588e-08	
23	-1.15000e+00	1.361356e-08	
24	-1.20000e+00	1.362108e-08	
25	-1.25000e+00	1.362846e-08	
26	-1.30000e+00	1.363569e-08	
27	-1.35000e+00	1.364280e-08	
28	-1.40000e+00	1.364980e-08	
29	-1.45000e+00	1.365668e-08	
30	-1.50000e+00	1.366346e-08	
31	-1.55000e+00	1.367014e-08	
32	-1.60000e+00	1.367673e-08	
33	-1.65000e+00	1.368324e-08	
34	-1.70000e+00	1.368967e-08	
35	-1.75000e+00	1.369602e-08	
36	-1.80000e+00	1.370230e-08	
37	-1.85000e+00	1.370851e-08	
38	-1.90000e+00	1.371466e-08	
39	-1.95000e+00	1.372075e-08	
40	-2.00000e+00	1.372677e-08	
41	-2.05000e+00	1.373274e-08	
42	-2.10000e+00	1.373866e-08	
43	-2.15000e+00	1.374453e-08	
44	-2.20000e+00	1.375035e-08	
45	-2.25000e+00	1.375612e-08	
46	-2.30000e+00	1.376185e-08	
47	-2.35000e+00	1.376753e-08	
48	-2.40000e+00	1.377318e-08	
49	-2.45000e+00	1.377878e-08	
50	-2.50000e+00	1.378435e-08	
51	-2.55000e+00	1.378988e-08	
52	-2.60000e+00	1.379537e-08	
53	-2.65000e+00	1.380083e-08	
54	-2.70000e+00	1.380626e-08	

Index   v-sweep         i(vds)          
--------------------------------------------------------------------------------
55	-2.75000e+00	1.381166e-08	
56	-2.80000e+00	1.381703e-08	
57	-2.85000e+00	1.382237e-08	
58	-2.90000e+00	1.382768e-08	
59	-2.95000e+00	1.383297e-08	
60	-3.00000e+00	1.383823e-08	
61	-3.05000e+00	1.384347e-08	
62	-3.10000e+00	1.384869e-08	
63	-3.15000e+00	1.385389e-08	
64	-3.20000e+00	1.385907e-08	
65	-3.25000e+00	1.386424e-08	
66	-3.30000e+00	1.386940e-08	
67	-3.35000e+00	1.387455e-08	
68	-3.40000e+00	1.387969e-08	
69	-3.45000e+00	1.388483e-08	
70	-3.50000e+00	1.388998e-08	
71	-3.55000e+00	1.389513e-08	
72	-3.60000e+00	1.390030e-08	
73	-3.65000e+00	1.390549e-08	
74	-3.70000e+00	1.391071e-08	
75	-3.75000e+00	1.391597e-08	
76	-3.80000e+00	1.392128e-08	
77	-3.85000e+00	1.392665e-08	
78	-3.90000e+00	1.393209e-08	
79	-3.95000e+00	1.393762e-08	
80	-4.00000e+00	1.394325e-08	
81	-4.05000e+00	1.394900e-08	
82	-4.10000e+00	1.395489e-08	
83	-4.15000e+00	1.396095e-08	
84	-4.20000e+00	1.396718e-08	
85	-4.25000e+00	1.397363e-08	
86	-4.30000e+00	1.398031e-08	
87	-4.35000e+00	1.398726e-08	
88	-4.40000e+00	1.399451e-08	
89	-4.45000e+00	1.400210e-08	
90	-4.50000e+00	1.401007e-08	
91	-4.55000e+00	1.401846e-08	
92	-4.60000e+00	1.402732e-08	
93	-4.65000e+00	1.403669e-08	
94	-4.70000e+00	1.404662e-08	
95	-4.75000e+00	1.405718e-08	
96	-4.80000e+00	1.406842e-08	
97	-4.85000e+00	1.408040e-08	
98	-4.90000e+00	1.409320e-08	
99	-4.95000e+00	1.410689e-08	
100	-5.00000e+00	1.412153e-08	
101	-5.05000e+00	1.413722e-08	
102	-5.10000e+00	1.415404e-08	
103	-5.15000e+00	1.417207e-08	
104	-5.20000e+00	1.419141e-08	
105	-5.25000e+00	1.421216e-08	
106	-5.30000e+00	1.423442e-08	
107	-5.35000e+00	1.425831e-08	
108	-5.40000e+00	1.428392e-08	
109	-5.45000e+00	1.431139e-08	
110	-5.50000e+00	1.434084e-08	
111	-5.55000e+00	1.437238e-08	
112	-5.60000e+00	1.440617e-08	

Index   v-sweep         i(vds)          
--------------------------------------------------------------------------------
113	-5.65000e+00	1.444233e-08	
114	-5.70000e+00	1.448101e-08	
115	-5.75000e+00	1.452236e-08	
116	-5.80000e+00	1.456653e-08	
117	-5.85000e+00	1.461369e-08	
118	-5.90000e+00	1.466399e-08	
119	-5.95000e+00	1.471762e-08	
120	-6.00000e+00	1.477473e-08	
121	-6.05000e+00	1.483552e-08	
122	-6.10000e+00	1.490017e-08	
123	-6.15000e+00	1.496887e-08	
124	-6.20000e+00	1.504181e-08	
125	-6.25000e+00	1.511921e-08	
126	-6.30000e+00	1.520126e-08	
127	-6.35000e+00	1.528817e-08	
128	-6.40000e+00	1.538017e-08	
129	-6.45000e+00	1.547747e-08	
130	-6.50000e+00	1.558031e-08	
131	-6.55000e+00	1.568890e-08	
132	-6.60000e+00	1.580350e-08	
133	0.000000e+00	0.000000e+00	
134	-5.00000e-02	8.105386e-08	
135	-1.00000e-01	1.568808e-07	
136	-1.50000e-01	2.274864e-07	
137	-2.00000e-01	2.928768e-07	
138	-2.50000e-01	3.530584e-07	
139	-3.00000e-01	4.080388e-07	
140	-3.50000e-01	4.578267e-07	
141	-4.00000e-01	5.024333e-07	
142	-4.50000e-01	5.418738e-07	
143	-5.00000e-01	5.761708e-07	
144	-5.50000e-01	6.053602e-07	
145	-6.00000e-01	6.295049e-07	
146	-6.50000e-01	6.487224e-07	
147	-7.00000e-01	6.632401e-07	
148	-7.50000e-01	6.734905e-07	
149	-8.00000e-01	6.802075e-07	
150	-8.50000e-01	6.843781e-07	
151	-9.00000e-01	6.869716e-07	
152	-9.50000e-01	6.886859e-07	
153	-1.00000e+00	6.899239e-07	
154	-1.05000e+00	6.908951e-07	
155	-1.10000e+00	6.917072e-07	
156	-1.15000e+00	6.924171e-07	
157	-1.20000e+00	6.930569e-07	
158	-1.25000e+00	6.936459e-07	
159	-1.30000e+00	6.941960e-07	
160	-1.35000e+00	6.947154e-07	
161	-1.40000e+00	6.952097e-07	
162	-1.45000e+00	6.956830e-07	
163	-1.50000e+00	6.961382e-07	
164	-1.55000e+00	6.965779e-07	
165	-1.60000e+00	6.970039e-07	
166	-1.65000e+00	6.974177e-07	
167	-1.70000e+00	6.978207e-07	
168	-1.75000e+00	6.982137e-07	
169	-1.80000e+00	6.985978e-07	
170	-1.85000e+00	6.989737e-07	

Index   v-sweep         i(vds)          
--------------------------------------------------------------------------------
171	-1.90000e+00	6.993421e-07	
172	-1.95000e+00	6.997036e-07	
173	-2.00000e+00	7.000587e-07	
174	-2.05000e+00	7.004078e-07	
175	-2.10000e+00	7.007513e-07	
176	-2.15000e+00	7.010896e-07	
177	-2.20000e+00	7.014231e-07	
178	-2.25000e+00	7.017520e-07	
179	-2.30000e+00	7.020766e-07	
180	-2.35000e+00	7.023971e-07	
181	-2.40000e+00	7.027138e-07	
182	-2.45000e+00	7.030269e-07	
183	-2.50000e+00	7.033366e-07	
184	-2.55000e+00	7.036430e-07	
185	-2.60000e+00	7.039462e-07	
186	-2.65000e+00	7.042466e-07	
187	-2.70000e+00	7.045441e-07	
188	-2.75000e+00	7.048389e-07	
189	-2.80000e+00	7.051312e-07	
190	-2.85000e+00	7.054210e-07	
191	-2.90000e+00	7.057085e-07	
192	-2.95000e+00	7.059937e-07	
193	-3.00000e+00	7.062768e-07	
194	-3.05000e+00	7.065578e-07	
195	-3.10000e+00	7.068368e-07	
196	-3.15000e+00	7.071139e-07	
197	-3.20000e+00	7.073891e-07	
198	-3.25000e+00	7.076626e-07	
199	-3.30000e+00	7.079344e-07	
200	-3.35000e+00	7.082046e-07	
201	-3.40000e+00	7.084732e-07	
202	-3.45000e+00	7.087403e-07	
203	-3.50000e+00	7.090060e-07	
204	-3.55000e+00	7.092703e-07	
205	-3.60000e+00	7.095333e-07	
206	-3.65000e+00	7.097950e-07	
207	-3.70000e+00	7.100556e-07	
208	-3.75000e+00	7.103151e-07	
209	-3.80000e+00	7.105737e-07	
210	-3.85000e+00	7.108313e-07	
211	-3.90000e+00	7.110882e-07	
212	-3.95000e+00	7.113444e-07	
213	-4.00000e+00	7.116001e-07	
214	-4.05000e+00	7.118555e-07	
215	-4.10000e+00	7.121108e-07	
216	-4.15000e+00	7.123661e-07	
217	-4.20000e+00	7.126218e-07	
218	-4.25000e+00	7.128781e-07	
219	-4.30000e+00	7.131353e-07	
220	-4.35000e+00	7.133939e-07	
221	-4.40000e+00	7.136541e-07	
222	-4.45000e+00	7.139166e-07	
223	-4.50000e+00	7.141819e-07	
224	-4.55000e+00	7.144505e-07	
225	-4.60000e+00	7.147231e-07	
226	-4.65000e+00	7.150006e-07	
227	-4.70000e+00	7.152836e-07	
228	-4.75000e+00	7.155733e-07	

Index   v-sweep         i(vds)          
--------------------------------------------------------------------------------
229	-4.80000e+00	7.158705e-07	
230	-4.85000e+00	7.161764e-07	
231	-4.90000e+00	7.164923e-07	
232	-4.95000e+00	7.168196e-07	
233	-5.00000e+00	7.171597e-07	
234	-5.05000e+00	7.175142e-07	
235	-5.10000e+00	7.178850e-07	
236	-5.15000e+00	7.182740e-07	
237	-5.20000e+00	7.186831e-07	
238	-5.25000e+00	7.191147e-07	
239	-5.30000e+00	7.195711e-07	
240	-5.35000e+00	7.200550e-07	
241	-5.40000e+00	7.205690e-07	
242	-5.45000e+00	7.211162e-07	
243	-5.50000e+00	7.216996e-07	
244	-5.55000e+00	7.223227e-07	
245	-5.60000e+00	7.229889e-07	
246	-5.65000e+00	7.237020e-07	
247	-5.70000e+00	7.244661e-07	
248	-5.75000e+00	7.252852e-07	
249	-5.80000e+00	7.261639e-07	
250	-5.85000e+00	7.271069e-07	
251	-5.90000e+00	7.281190e-07	
252	-5.95000e+00	7.292054e-07	
253	-6.00000e+00	7.303715e-07	
254	-6.05000e+00	7.316229e-07	
255	-6.10000e+00	7.329656e-07	
256	-6.15000e+00	7.344056e-07	
257	-6.20000e+00	7.359496e-07	
258	-6.25000e+00	7.376040e-07	
259	-6.30000e+00	7.393759e-07	
260	-6.35000e+00	7.412724e-07	
261	-6.40000e+00	7.433011e-07	
262	-6.45000e+00	7.454697e-07	
263	-6.50000e+00	7.477862e-07	
264	-6.55000e+00	7.502590e-07	
265	-6.60000e+00	7.528964e-07	
266	0.000000e+00	0.000000e+00	
267	-5.00000e-02	1.474159e-07	
268	-1.00000e-01	2.898223e-07	
269	-1.50000e-01	4.272233e-07	
270	-2.00000e-01	5.596230e-07	
271	-2.50000e-01	6.870256e-07	
272	-3.00000e-01	8.094354e-07	
273	-3.50000e-01	9.268566e-07	
274	-4.00000e-01	1.039294e-06	
275	-4.50000e-01	1.146751e-06	
276	-5.00000e-01	1.249232e-06	
277	-5.50000e-01	1.346743e-06	
278	-6.00000e-01	1.439288e-06	
279	-6.50000e-01	1.526871e-06	
280	-7.00000e-01	1.609499e-06	
281	-7.50000e-01	1.687177e-06	
282	-8.00000e-01	1.759910e-06	
283	-8.50000e-01	1.827707e-06	
284	-9.00000e-01	1.890574e-06	
285	-9.50000e-01	1.948522e-06	
286	-1.00000e+00	2.001562e-06	

Index   v-sweep         i(vds)          
--------------------------------------------------------------------------------
287	-1.05000e+00	2.049710e-06	
288	-1.10000e+00	2.092989e-06	
289	-1.15000e+00	2.131428e-06	
290	-1.20000e+00	2.165075e-06	
291	-1.25000e+00	2.194001e-06	
292	-1.30000e+00	2.218322e-06	
293	-1.35000e+00	2.238226e-06	
294	-1.40000e+00	2.254012e-06	
295	-1.45000e+00	2.266131e-06	
296	-1.50000e+00	2.275195e-06	
297	-1.55000e+00	2.281910e-06	
298	-1.60000e+00	2.286955e-06	
299	-1.65000e+00	2.290879e-06	
300	-1.70000e+00	2.294068e-06	
301	-1.75000e+00	2.296771e-06	
302	-1.80000e+00	2.299143e-06	
303	-1.85000e+00	2.301279e-06	
304	-1.90000e+00	2.303243e-06	
305	-1.95000e+00	2.305074e-06	
306	-2.00000e+00	2.306800e-06	
307	-2.05000e+00	2.308440e-06	
308	-2.10000e+00	2.310008e-06	
309	-2.15000e+00	2.311516e-06	
310	-2.20000e+00	2.312971e-06	
311	-2.25000e+00	2.314379e-06	
312	-2.30000e+00	2.315746e-06	
313	-2.35000e+00	2.317077e-06	
314	-2.40000e+00	2.318375e-06	
315	-2.45000e+00	2.319643e-06	
316	-2.50000e+00	2.320883e-06	
317	-2.55000e+00	2.322099e-06	
318	-2.60000e+00	2.323291e-06	
319	-2.65000e+00	2.324462e-06	
320	-2.70000e+00	2.325613e-06	
321	-2.75000e+00	2.326745e-06	
322	-2.80000e+00	2.327861e-06	
323	-2.85000e+00	2.328960e-06	
324	-2.90000e+00	2.330044e-06	
325	-2.95000e+00	2.331114e-06	
326	-3.00000e+00	2.332170e-06	
327	-3.05000e+00	2.333214e-06	
328	-3.10000e+00	2.334246e-06	
329	-3.15000e+00	2.335266e-06	
330	-3.20000e+00	2.336276e-06	
331	-3.25000e+00	2.337275e-06	
332	-3.30000e+00	2.338264e-06	
333	-3.35000e+00	2.339245e-06	
334	-3.40000e+00	2.340216e-06	
335	-3.45000e+00	2.341179e-06	
336	-3.50000e+00	2.342134e-06	
337	-3.55000e+00	2.343081e-06	
338	-3.60000e+00	2.344021e-06	
339	-3.65000e+00	2.344954e-06	
340	-3.70000e+00	2.345880e-06	
341	-3.75000e+00	2.346799e-06	
342	-3.80000e+00	2.347712e-06	
343	-3.85000e+00	2.348619e-06	
344	-3.90000e+00	2.349520e-06	

Index   v-sweep         i(vds)          
--------------------------------------------------------------------------------
345	-3.95000e+00	2.350416e-06	
346	-4.00000e+00	2.351306e-06	
347	-4.05000e+00	2.352191e-06	
348	-4.10000e+00	2.353072e-06	
349	-4.15000e+00	2.353947e-06	
350	-4.20000e+00	2.354818e-06	
351	-4.25000e+00	2.355684e-06	
352	-4.30000e+00	2.356547e-06	
353	-4.35000e+00	2.357405e-06	
354	-4.40000e+00	2.358260e-06	
355	-4.45000e+00	2.359112e-06	
356	-4.50000e+00	2.359960e-06	
357	-4.55000e+00	2.360806e-06	
358	-4.60000e+00	2.361649e-06	
359	-4.65000e+00	2.362490e-06	
360	-4.70000e+00	2.363330e-06	
361	-4.75000e+00	2.364170e-06	
362	-4.80000e+00	2.365008e-06	
363	-4.85000e+00	2.365848e-06	
364	-4.90000e+00	2.366689e-06	
365	-4.95000e+00	2.367532e-06	
366	-5.00000e+00	2.368378e-06	
367	-5.05000e+00	2.369230e-06	
368	-5.10000e+00	2.370087e-06	
369	-5.15000e+00	2.370952e-06	
370	-5.20000e+00	2.371827e-06	
371	-5.25000e+00	2.372713e-06	
372	-5.30000e+00	2.373614e-06	
373	-5.35000e+00	2.374530e-06	
374	-5.40000e+00	2.375466e-06	
375	-5.45000e+00	2.376425e-06	
376	-5.50000e+00	2.377409e-06	
377	-5.55000e+00	2.378423e-06	
378	-5.60000e+00	2.379471e-06	
379	-5.65000e+00	2.380557e-06	
380	-5.70000e+00	2.381687e-06	
381	-5.75000e+00	2.382867e-06	
382	-5.80000e+00	2.384101e-06	
383	-5.85000e+00	2.385396e-06	
384	-5.90000e+00	2.386760e-06	
385	-5.95000e+00	2.388200e-06	
386	-6.00000e+00	2.389723e-06	
387	-6.05000e+00	2.391340e-06	
388	-6.10000e+00	2.393058e-06	
389	-6.15000e+00	2.394887e-06	
390	-6.20000e+00	2.396840e-06	
391	-6.25000e+00	2.398925e-06	
392	-6.30000e+00	2.401156e-06	
393	-6.35000e+00	2.403545e-06	
394	-6.40000e+00	2.406105e-06	
395	-6.45000e+00	2.408850e-06	
396	-6.50000e+00	2.411796e-06	
397	-6.55000e+00	2.414958e-06	
398	-6.60000e+00	2.418352e-06	
399	0.000000e+00	0.000000e+00	
400	-5.00000e-02	2.069375e-07	
401	-1.00000e-01	4.091208e-07	
402	-1.50000e-01	6.065532e-07	

Index   v-sweep         i(vds)          
--------------------------------------------------------------------------------
403	-2.00000e-01	7.992384e-07	
404	-2.50000e-01	9.871799e-07	
405	-3.00000e-01	1.170381e-06	
406	-3.50000e-01	1.348846e-06	
407	-4.00000e-01	1.522578e-06	
408	-4.50000e-01	1.691580e-06	
409	-5.00000e-01	1.855856e-06	
410	-5.50000e-01	2.015409e-06	
411	-6.00000e-01	2.170244e-06	
412	-6.50000e-01	2.320364e-06	
413	-7.00000e-01	2.465772e-06	
414	-7.50000e-01	2.606473e-06	
415	-8.00000e-01	2.742469e-06	
416	-8.50000e-01	2.873764e-06	
417	-9.00000e-01	3.000363e-06	
418	-9.50000e-01	3.122269e-06	
419	-1.00000e+00	3.239486e-06	
420	-1.05000e+00	3.352018e-06	
421	-1.10000e+00	3.459869e-06	
422	-1.15000e+00	3.563043e-06	
423	-1.20000e+00	3.661545e-06	
424	-1.25000e+00	3.755380e-06	
425	-1.30000e+00	3.844551e-06	
426	-1.35000e+00	3.929066e-06	
427	-1.40000e+00	4.008929e-06	
428	-1.45000e+00	4.084147e-06	
429	-1.50000e+00	4.154727e-06	
430	-1.55000e+00	4.220680e-06	
431	-1.60000e+00	4.282014e-06	
432	-1.65000e+00	4.338744e-06	
433	-1.70000e+00	4.390887e-06	
434	-1.75000e+00	4.438466e-06	
435	-1.80000e+00	4.481511e-06	
436	-1.85000e+00	4.520068e-06	
437	-1.90000e+00	4.554199e-06	
438	-1.95000e+00	4.583999e-06	
439	-2.00000e+00	4.609606e-06	
440	-2.05000e+00	4.631225e-06	
441	-2.10000e+00	4.649147e-06	
442	-2.15000e+00	4.663769e-06	
443	-2.20000e+00	4.675581e-06	
444	-2.25000e+00	4.685127e-06	
445	-2.30000e+00	4.692936e-06	
446	-2.35000e+00	4.699466e-06	
447	-2.40000e+00	4.705071e-06	
448	-2.45000e+00	4.710006e-06	
449	-2.50000e+00	4.714451e-06	
450	-2.55000e+00	4.718527e-06	
451	-2.60000e+00	4.722319e-06	
452	-2.65000e+00	4.725884e-06	
453	-2.70000e+00	4.729266e-06	
454	-2.75000e+00	4.732494e-06	
455	-2.80000e+00	4.735593e-06	
456	-2.85000e+00	4.738580e-06	
457	-2.90000e+00	4.741469e-06	
458	-2.95000e+00	4.744272e-06	
459	-3.00000e+00	4.746998e-06	
460	-3.05000e+00	4.749655e-06	

Index   v-sweep         i(vds)          
--------------------------------------------------------------------------------
461	-3.10000e+00	4.752250e-06	
462	-3.15000e+00	4.754787e-06	
463	-3.20000e+00	4.757272e-06	
464	-3.25000e+00	4.759710e-06	
465	-3.30000e+00	4.762102e-06	
466	-3.35000e+00	4.764454e-06	
467	-3.40000e+00	4.766768e-06	
468	-3.45000e+00	4.769046e-06	
469	-3.50000e+00	4.771290e-06	
470	-3.55000e+00	4.773503e-06	
471	-3.60000e+00	4.775687e-06	
472	-3.65000e+00	4.777843e-06	
473	-3.70000e+00	4.779973e-06	
474	-3.75000e+00	4.782079e-06	
475	-3.80000e+00	4.784161e-06	
476	-3.85000e+00	4.786221e-06	
477	-3.90000e+00	4.788260e-06	
478	-3.95000e+00	4.790279e-06	
479	-4.00000e+00	4.792278e-06	
480	-4.05000e+00	4.794260e-06	
481	-4.10000e+00	4.796224e-06	
482	-4.15000e+00	4.798172e-06	
483	-4.20000e+00	4.800104e-06	
484	-4.25000e+00	4.802021e-06	
485	-4.30000e+00	4.803923e-06	
486	-4.35000e+00	4.805812e-06	
487	-4.40000e+00	4.807687e-06	
488	-4.45000e+00	4.809549e-06	
489	-4.50000e+00	4.811398e-06	
490	-4.55000e+00	4.813236e-06	
491	-4.60000e+00	4.815063e-06	
492	-4.65000e+00	4.816878e-06	
493	-4.70000e+00	4.818683e-06	
494	-4.75000e+00	4.820478e-06	
495	-4.80000e+00	4.822263e-06	
496	-4.85000e+00	4.824038e-06	
497	-4.90000e+00	4.825805e-06	
498	-4.95000e+00	4.827563e-06	
499	-5.00000e+00	4.829313e-06	
500	-5.05000e+00	4.831056e-06	
501	-5.10000e+00	4.832791e-06	
502	-5.15000e+00	4.834519e-06	
503	-5.20000e+00	4.836242e-06	
504	-5.25000e+00	4.837959e-06	
505	-5.30000e+00	4.839672e-06	
506	-5.35000e+00	4.841381e-06	
507	-5.40000e+00	4.843088e-06	
508	-5.45000e+00	4.844793e-06	
509	-5.50000e+00	4.846497e-06	
510	-5.55000e+00	4.848204e-06	
511	-5.60000e+00	4.849913e-06	
512	-5.65000e+00	4.851627e-06	
513	-5.70000e+00	4.853348e-06	
514	-5.75000e+00	4.855080e-06	
515	-5.80000e+00	4.856824e-06	
516	-5.85000e+00	4.858584e-06	
517	-5.90000e+00	4.860364e-06	
518	-5.95000e+00	4.862168e-06	

Index   v-sweep         i(vds)          
--------------------------------------------------------------------------------
519	-6.00000e+00	4.864001e-06	
520	-6.05000e+00	4.865867e-06	
521	-6.10000e+00	4.867774e-06	
522	-6.15000e+00	4.869726e-06	
523	-6.20000e+00	4.871732e-06	
524	-6.25000e+00	4.873799e-06	
525	-6.30000e+00	4.875936e-06	
526	-6.35000e+00	4.878152e-06	
527	-6.40000e+00	4.880457e-06	
528	-6.45000e+00	4.882863e-06	
529	-6.50000e+00	4.885382e-06	
530	-6.55000e+00	4.888027e-06	
531	-6.60000e+00	4.890812e-06	
532	0.000000e+00	0.000000e+00	
533	-5.00000e-02	2.608438e-07	
534	-1.00000e-01	5.171775e-07	
535	-1.50000e-01	7.690042e-07	
536	-2.00000e-01	1.016327e-06	
537	-2.50000e-01	1.259149e-06	
538	-3.00000e-01	1.497473e-06	
539	-3.50000e-01	1.731303e-06	
540	-4.00000e-01	1.960641e-06	
541	-4.50000e-01	2.185490e-06	
542	-5.00000e-01	2.405855e-06	
543	-5.50000e-01	2.621736e-06	
544	-6.00000e-01	2.833139e-06	
545	-6.50000e-01	3.040066e-06	
546	-7.00000e-01	3.242519e-06	
547	-7.50000e-01	3.440503e-06	
548	-8.00000e-01	3.634019e-06	
549	-8.50000e-01	3.823072e-06	
550	-9.00000e-01	4.007664e-06	
551	-9.50000e-01	4.187799e-06	
552	-1.00000e+00	4.363480e-06	
553	-1.05000e+00	4.534709e-06	
554	-1.10000e+00	4.701490e-06	
555	-1.15000e+00	4.863826e-06	
556	-1.20000e+00	5.021721e-06	
557	-1.25000e+00	5.175177e-06	
558	-1.30000e+00	5.324197e-06	
559	-1.35000e+00	5.468786e-06	
560	-1.40000e+00	5.608946e-06	
561	-1.45000e+00	5.744681e-06	
562	-1.50000e+00	5.875993e-06	
563	-1.55000e+00	6.002887e-06	
564	-1.60000e+00	6.125366e-06	
565	-1.65000e+00	6.243434e-06	
566	-1.70000e+00	6.357094e-06	
567	-1.75000e+00	6.466350e-06	
568	-1.80000e+00	6.571207e-06	
569	-1.85000e+00	6.671668e-06	
570	-1.90000e+00	6.767739e-06	
571	-1.95000e+00	6.859423e-06	
572	-2.00000e+00	6.946726e-06	
573	-2.05000e+00	7.029655e-06	
574	-2.10000e+00	7.108216e-06	
575	-2.15000e+00	7.182416e-06	
576	-2.20000e+00	7.252265e-06	

Index   v-sweep         i(vds)          
--------------------------------------------------------------------------------
577	-2.25000e+00	7.317772e-06	
578	-2.30000e+00	7.378952e-06	
579	-2.35000e+00	7.435821e-06	
580	-2.40000e+00	7.488399e-06	
581	-2.45000e+00	7.536715e-06	
582	-2.50000e+00	7.580806e-06	
583	-2.55000e+00	7.620723e-06	
584	-2.60000e+00	7.656536e-06	
585	-2.65000e+00	7.688345e-06	
586	-2.70000e+00	7.716286e-06	
587	-2.75000e+00	7.740551e-06	
588	-2.80000e+00	7.761397e-06	
589	-2.85000e+00	7.779153e-06	
590	-2.90000e+00	7.794214e-06	
591	-2.95000e+00	7.807015e-06	
592	-3.00000e+00	7.817989e-06	
593	-3.05000e+00	7.827533e-06	
594	-3.10000e+00	7.835977e-06	
595	-3.15000e+00	7.843578e-06	
596	-3.20000e+00	7.850530e-06	
597	-3.25000e+00	7.856975e-06	
598	-3.30000e+00	7.863017e-06	
599	-3.35000e+00	7.868730e-06	
600	-3.40000e+00	7.874172e-06	
601	-3.45000e+00	7.879384e-06	
602	-3.50000e+00	7.884400e-06	
603	-3.55000e+00	7.889245e-06	
604	-3.60000e+00	7.893940e-06	
605	-3.65000e+00	7.898501e-06	
606	-3.70000e+00	7.902944e-06	
607	-3.75000e+00	7.907278e-06	
608	-3.80000e+00	7.911514e-06	
609	-3.85000e+00	7.915661e-06	
610	-3.90000e+00	7.919726e-06	
611	-3.95000e+00	7.923715e-06	
612	-4.00000e+00	7.927634e-06	
613	-4.05000e+00	7.931488e-06	
614	-4.10000e+00	7.935281e-06	
615	-4.15000e+00	7.939018e-06	
616	-4.20000e+00	7.942701e-06	
617	-4.25000e+00	7.946335e-06	
618	-4.30000e+00	7.949922e-06	
619	-4.35000e+00	7.953465e-06	
620	-4.40000e+00	7.956967e-06	
621	-4.45000e+00	7.960429e-06	
622	-4.50000e+00	7.963853e-06	
623	-4.55000e+00	7.967242e-06	
624	-4.60000e+00	7.970598e-06	
625	-4.65000e+00	7.973921e-06	
626	-4.70000e+00	7.977214e-06	
627	-4.75000e+00	7.980478e-06	
628	-4.80000e+00	7.983714e-06	
629	-4.85000e+00	7.986923e-06	
630	-4.90000e+00	7.990107e-06	
631	-4.95000e+00	7.993267e-06	
632	-5.00000e+00	7.996403e-06	
633	-5.05000e+00	7.999516e-06	
634	-5.10000e+00	8.002609e-06	

Index   v-sweep         i(vds)          
--------------------------------------------------------------------------------
635	-5.15000e+00	8.005680e-06	
636	-5.20000e+00	8.008732e-06	
637	-5.25000e+00	8.011764e-06	
638	-5.30000e+00	8.014778e-06	
639	-5.35000e+00	8.017774e-06	
640	-5.40000e+00	8.020754e-06	
641	-5.45000e+00	8.023717e-06	
642	-5.50000e+00	8.026664e-06	
643	-5.55000e+00	8.029596e-06	
644	-5.60000e+00	8.032513e-06	
645	-5.65000e+00	8.035417e-06	
646	-5.70000e+00	8.038307e-06	
647	-5.75000e+00	8.041186e-06	
648	-5.80000e+00	8.044052e-06	
649	-5.85000e+00	8.046908e-06	
650	-5.90000e+00	8.049755e-06	
651	-5.95000e+00	8.052592e-06	
652	-6.00000e+00	8.055422e-06	
653	-6.05000e+00	8.058247e-06	
654	-6.10000e+00	8.061066e-06	
655	-6.15000e+00	8.063884e-06	
656	-6.20000e+00	8.066700e-06	
657	-6.25000e+00	8.069519e-06	
658	-6.30000e+00	8.072343e-06	
659	-6.35000e+00	8.075175e-06	
660	-6.40000e+00	8.078018e-06	
661	-6.45000e+00	8.080878e-06	
662	-6.50000e+00	8.083758e-06	
663	-6.55000e+00	8.086664e-06	
664	-6.60000e+00	8.089602e-06	
665	0.000000e+00	0.000000e+00	
666	-5.00000e-02	3.100803e-07	
667	-1.00000e-01	6.158767e-07	
668	-1.50000e-01	9.173919e-07	
669	-2.00000e-01	1.214629e-06	
670	-2.50000e-01	1.507590e-06	
671	-3.00000e-01	1.796278e-06	
672	-3.50000e-01	2.080696e-06	
673	-4.00000e-01	2.360846e-06	
674	-4.50000e-01	2.636732e-06	
675	-5.00000e-01	2.908355e-06	
676	-5.50000e-01	3.175719e-06	
677	-6.00000e-01	3.438827e-06	
678	-6.50000e-01	3.697680e-06	
679	-7.00000e-01	3.952282e-06	
680	-7.50000e-01	4.202636e-06	
681	-8.00000e-01	4.448744e-06	
682	-8.50000e-01	4.690609e-06	
683	-9.00000e-01	4.928234e-06	
684	-9.50000e-01	5.161621e-06	
685	-1.00000e+00	5.390773e-06	
686	-1.05000e+00	5.615693e-06	
687	-1.10000e+00	5.836384e-06	
688	-1.15000e+00	6.052848e-06	
689	-1.20000e+00	6.265088e-06	
690	-1.25000e+00	6.473107e-06	
691	-1.30000e+00	6.676907e-06	
692	-1.35000e+00	6.876492e-06	

Index   v-sweep         i(vds)          
--------------------------------------------------------------------------------
693	-1.40000e+00	7.071863e-06	
694	-1.45000e+00	7.263025e-06	
695	-1.50000e+00	7.449979e-06	
696	-1.55000e+00	7.632728e-06	
697	-1.60000e+00	7.811276e-06	
698	-1.65000e+00	7.985624e-06	
699	-1.70000e+00	8.155776e-06	
700	-1.75000e+00	8.321735e-06	
701	-1.80000e+00	8.483503e-06	
702	-1.85000e+00	8.641083e-06	
703	-1.90000e+00	8.794479e-06	
704	-1.95000e+00	8.943692e-06	
705	-2.00000e+00	9.088727e-06	
706	-2.05000e+00	9.229586e-06	
707	-2.10000e+00	9.366272e-06	
708	-2.15000e+00	9.498789e-06	
709	-2.20000e+00	9.627139e-06	
710	-2.25000e+00	9.751326e-06	
711	-2.30000e+00	9.871353e-06	
712	-2.35000e+00	9.987224e-06	
713	-2.40000e+00	1.009894e-05	
714	-2.45000e+00	1.020651e-05	
715	-2.50000e+00	1.030994e-05	
716	-2.55000e+00	1.040922e-05	
717	-2.60000e+00	1.050437e-05	
718	-2.65000e+00	1.059539e-05	
719	-2.70000e+00	1.068228e-05	
720	-2.75000e+00	1.076506e-05	
721	-2.80000e+00	1.084372e-05	
722	-2.85000e+00	1.091829e-05	
723	-2.90000e+00	1.098875e-05	
724	-2.95000e+00	1.105514e-05	
725	-3.00000e+00	1.111747e-05	
726	-3.05000e+00	1.117574e-05	
727	-3.10000e+00	1.122999e-05	
728	-3.15000e+00	1.128024e-05	
729	-3.20000e+00	1.132654e-05	
730	-3.25000e+00	1.136893e-05	
731	-3.30000e+00	1.140749e-05	
732	-3.35000e+00	1.144230e-05	
733	-3.40000e+00	1.147349e-05	
734	-3.45000e+00	1.150123e-05	
735	-3.50000e+00	1.152572e-05	
736	-3.55000e+00	1.154724e-05	
737	-3.60000e+00	1.156609e-05	
738	-3.65000e+00	1.158264e-05	
739	-3.70000e+00	1.159725e-05	
740	-3.75000e+00	1.161026e-05	
741	-3.80000e+00	1.162199e-05	
742	-3.85000e+00	1.163270e-05	
743	-3.90000e+00	1.164259e-05	
744	-3.95000e+00	1.165182e-05	
745	-4.00000e+00	1.166051e-05	
746	-4.05000e+00	1.166876e-05	
747	-4.10000e+00	1.167665e-05	
748	-4.15000e+00	1.168421e-05	
749	-4.20000e+00	1.169150e-05	
750	-4.25000e+00	1.169856e-05	

Index   v-sweep         i(vds)          
--------------------------------------------------------------------------------
751	-4.30000e+00	1.170540e-05	
752	-4.35000e+00	1.171206e-05	
753	-4.40000e+00	1.171855e-05	
754	-4.45000e+00	1.172488e-05	
755	-4.50000e+00	1.173108e-05	
756	-4.55000e+00	1.173714e-05	
757	-4.60000e+00	1.174310e-05	
758	-4.65000e+00	1.174894e-05	
759	-4.70000e+00	1.175468e-05	
760	-4.75000e+00	1.176033e-05	
761	-4.80000e+00	1.176590e-05	
762	-4.85000e+00	1.177138e-05	
763	-4.90000e+00	1.177679e-05	
764	-4.95000e+00	1.178212e-05	
765	-5.00000e+00	1.178739e-05	
766	-5.05000e+00	1.179259e-05	
767	-5.10000e+00	1.179774e-05	
768	-5.15000e+00	1.180283e-05	
769	-5.20000e+00	1.180786e-05	
770	-5.25000e+00	1.181284e-05	
771	-5.30000e+00	1.181778e-05	
772	-5.35000e+00	1.182266e-05	
773	-5.40000e+00	1.182751e-05	
774	-5.45000e+00	1.183231e-05	
775	-5.50000e+00	1.183707e-05	
776	-5.55000e+00	1.184179e-05	
777	-5.60000e+00	1.184648e-05	
778	-5.65000e+00	1.185113e-05	
779	-5.70000e+00	1.185575e-05	
780	-5.75000e+00	1.186033e-05	
781	-5.80000e+00	1.186489e-05	
782	-5.85000e+00	1.186941e-05	
783	-5.90000e+00	1.187391e-05	
784	-5.95000e+00	1.187837e-05	
785	-6.00000e+00	1.188281e-05	
786	-6.05000e+00	1.188723e-05	
787	-6.10000e+00	1.189162e-05	
788	-6.15000e+00	1.189598e-05	
789	-6.20000e+00	1.190033e-05	
790	-6.25000e+00	1.190465e-05	
791	-6.30000e+00	1.190895e-05	
792	-6.35000e+00	1.191323e-05	
793	-6.40000e+00	1.191749e-05	
794	-6.45000e+00	1.192173e-05	
795	-6.50000e+00	1.192596e-05	
796	-6.55000e+00	1.193017e-05	
797	-6.60000e+00	1.193436e-05	
Note: No ".plot", ".print", or ".fourier" lines; no simulations run
