
Note: Compatibility modes selected: hs

Warning: m=xx on .subckt line will override multiplier m hierarchy!


Circuit: ***************************

Doing analysis at TEMP = -40.000000 and TNOM = -40.000000


No. of Data Rows : 798
                          ***************************
                          DC transfer characteristic  Mon Jan  9 13:57:53  2023
--------------------------------------------------------------------------------
Index   v-sweep         i(vds)          
--------------------------------------------------------------------------------
0	0.000000e+00	0.000000e+00	
1	-5.00000e-02	4.485759e-08	
2	-1.00000e-01	5.269608e-08	
3	-1.50000e-01	5.380161e-08	
4	-2.00000e-01	5.410611e-08	
5	-2.50000e-01	5.424298e-08	
6	-3.00000e-01	5.432531e-08	
7	-3.50000e-01	5.438438e-08	
8	-4.00000e-01	5.443159e-08	
9	-4.50000e-01	5.447192e-08	
10	-5.00000e-01	5.450785e-08	
11	-5.50000e-01	5.454076e-08	
12	-6.00000e-01	5.457148e-08	
13	-6.50000e-01	5.460053e-08	
14	-7.00000e-01	5.462826e-08	
15	-7.50000e-01	5.465493e-08	
16	-8.00000e-01	5.468071e-08	
17	-8.50000e-01	5.470574e-08	
18	-9.00000e-01	5.473013e-08	
19	-9.50000e-01	5.475396e-08	
20	-1.00000e+00	5.477729e-08	
21	-1.05000e+00	5.480019e-08	
22	-1.10000e+00	5.482270e-08	
23	-1.15000e+00	5.484485e-08	
24	-1.20000e+00	5.486668e-08	
25	-1.25000e+00	5.488822e-08	
26	-1.30000e+00	5.490949e-08	
27	-1.35000e+00	5.493050e-08	
28	-1.40000e+00	5.495129e-08	
29	-1.45000e+00	5.497186e-08	
30	-1.50000e+00	5.499224e-08	
31	-1.55000e+00	5.501243e-08	
32	-1.60000e+00	5.503244e-08	
33	-1.65000e+00	5.505229e-08	
34	-1.70000e+00	5.507199e-08	
35	-1.75000e+00	5.509154e-08	
36	-1.80000e+00	5.511096e-08	
37	-1.85000e+00	5.513025e-08	
38	-1.90000e+00	5.514941e-08	
39	-1.95000e+00	5.516846e-08	
40	-2.00000e+00	5.518740e-08	
41	-2.05000e+00	5.520623e-08	
42	-2.10000e+00	5.522497e-08	
43	-2.15000e+00	5.524360e-08	
44	-2.20000e+00	5.526215e-08	
45	-2.25000e+00	5.528061e-08	
46	-2.30000e+00	5.529899e-08	
47	-2.35000e+00	5.531729e-08	
48	-2.40000e+00	5.533551e-08	
49	-2.45000e+00	5.535366e-08	
50	-2.50000e+00	5.537173e-08	
51	-2.55000e+00	5.538975e-08	
52	-2.60000e+00	5.540770e-08	
53	-2.65000e+00	5.542558e-08	
54	-2.70000e+00	5.544341e-08	

Index   v-sweep         i(vds)          
--------------------------------------------------------------------------------
55	-2.75000e+00	5.546119e-08	
56	-2.80000e+00	5.547892e-08	
57	-2.85000e+00	5.549660e-08	
58	-2.90000e+00	5.551424e-08	
59	-2.95000e+00	5.553184e-08	
60	-3.00000e+00	5.554941e-08	
61	-3.05000e+00	5.556695e-08	
62	-3.10000e+00	5.558448e-08	
63	-3.15000e+00	5.560200e-08	
64	-3.20000e+00	5.561952e-08	
65	-3.25000e+00	5.563705e-08	
66	-3.30000e+00	5.565462e-08	
67	-3.35000e+00	5.567223e-08	
68	-3.40000e+00	5.568990e-08	
69	-3.45000e+00	5.570766e-08	
70	-3.50000e+00	5.572552e-08	
71	-3.55000e+00	5.574353e-08	
72	-3.60000e+00	5.576171e-08	
73	-3.65000e+00	5.578010e-08	
74	-3.70000e+00	5.579875e-08	
75	-3.75000e+00	5.581770e-08	
76	-3.80000e+00	5.583700e-08	
77	-3.85000e+00	5.585672e-08	
78	-3.90000e+00	5.587692e-08	
79	-3.95000e+00	5.589768e-08	
80	-4.00000e+00	5.591909e-08	
81	-4.05000e+00	5.594123e-08	
82	-4.10000e+00	5.596421e-08	
83	-4.15000e+00	5.598814e-08	
84	-4.20000e+00	5.601313e-08	
85	-4.25000e+00	5.603933e-08	
86	-4.30000e+00	5.606688e-08	
87	-4.35000e+00	5.609593e-08	
88	-4.40000e+00	5.612665e-08	
89	-4.45000e+00	5.615923e-08	
90	-4.50000e+00	5.619387e-08	
91	-4.55000e+00	5.623077e-08	
92	-4.60000e+00	5.627016e-08	
93	-4.65000e+00	5.631228e-08	
94	-4.70000e+00	5.635740e-08	
95	-4.75000e+00	5.640578e-08	
96	-4.80000e+00	5.645772e-08	
97	-4.85000e+00	5.651354e-08	
98	-4.90000e+00	5.657355e-08	
99	-4.95000e+00	5.663810e-08	
100	-5.00000e+00	5.670756e-08	
101	-5.05000e+00	5.678232e-08	
102	-5.10000e+00	5.686277e-08	
103	-5.15000e+00	5.694935e-08	
104	-5.20000e+00	5.704249e-08	
105	-5.25000e+00	5.714267e-08	
106	-5.30000e+00	5.725036e-08	
107	-5.35000e+00	5.736608e-08	
108	-5.40000e+00	5.749036e-08	
109	-5.45000e+00	5.762374e-08	
110	-5.50000e+00	5.776679e-08	
111	-5.55000e+00	5.792011e-08	
112	-5.60000e+00	5.808432e-08	

Index   v-sweep         i(vds)          
--------------------------------------------------------------------------------
113	-5.65000e+00	5.826005e-08	
114	-5.70000e+00	5.844796e-08	
115	-5.75000e+00	5.864873e-08	
116	-5.80000e+00	5.886307e-08	
117	-5.85000e+00	5.909170e-08	
118	-5.90000e+00	5.933536e-08	
119	-5.95000e+00	5.959483e-08	
120	-6.00000e+00	5.987089e-08	
121	-6.05000e+00	6.016437e-08	
122	-6.10000e+00	6.047608e-08	
123	-6.15000e+00	6.080689e-08	
124	-6.20000e+00	6.115767e-08	
125	-6.25000e+00	6.152932e-08	
126	-6.30000e+00	6.192276e-08	
127	-6.35000e+00	6.233892e-08	
128	-6.40000e+00	6.277875e-08	
129	-6.45000e+00	6.324325e-08	
130	-6.50000e+00	6.373340e-08	
131	-6.55000e+00	6.425023e-08	
132	-6.60000e+00	6.479476e-08	
133	0.000000e+00	0.000000e+00	
134	-5.00000e-02	1.589519e-06	
135	-1.00000e-01	3.065117e-06	
136	-1.50000e-01	4.426934e-06	
137	-2.00000e-01	5.675125e-06	
138	-2.50000e-01	6.809865e-06	
139	-3.00000e-01	7.831360e-06	
140	-3.50000e-01	8.739877e-06	
141	-4.00000e-01	9.535782e-06	
142	-4.50000e-01	1.021963e-05	
143	-5.00000e-01	1.079235e-05	
144	-5.50000e-01	1.125562e-05	
145	-6.00000e-01	1.161276e-05	
146	-6.50000e-01	1.187035e-05	
147	-7.00000e-01	1.204096e-05	
148	-7.50000e-01	1.214449e-05	
149	-8.00000e-01	1.220429e-05	
150	-8.50000e-01	1.223957e-05	
151	-9.00000e-01	1.226212e-05	
152	-9.50000e-01	1.227802e-05	
153	-1.00000e+00	1.229028e-05	
154	-1.05000e+00	1.230039e-05	
155	-1.10000e+00	1.230915e-05	
156	-1.15000e+00	1.231700e-05	
157	-1.20000e+00	1.232422e-05	
158	-1.25000e+00	1.233096e-05	
159	-1.30000e+00	1.233733e-05	
160	-1.35000e+00	1.234341e-05	
161	-1.40000e+00	1.234926e-05	
162	-1.45000e+00	1.235490e-05	
163	-1.50000e+00	1.236039e-05	
164	-1.55000e+00	1.236572e-05	
165	-1.60000e+00	1.237094e-05	
166	-1.65000e+00	1.237604e-05	
167	-1.70000e+00	1.238104e-05	
168	-1.75000e+00	1.238596e-05	
169	-1.80000e+00	1.239079e-05	
170	-1.85000e+00	1.239556e-05	

Index   v-sweep         i(vds)          
--------------------------------------------------------------------------------
171	-1.90000e+00	1.240026e-05	
172	-1.95000e+00	1.240489e-05	
173	-2.00000e+00	1.240948e-05	
174	-2.05000e+00	1.241401e-05	
175	-2.10000e+00	1.241849e-05	
176	-2.15000e+00	1.242293e-05	
177	-2.20000e+00	1.242733e-05	
178	-2.25000e+00	1.243168e-05	
179	-2.30000e+00	1.243600e-05	
180	-2.35000e+00	1.244029e-05	
181	-2.40000e+00	1.244455e-05	
182	-2.45000e+00	1.244877e-05	
183	-2.50000e+00	1.245297e-05	
184	-2.55000e+00	1.245713e-05	
185	-2.60000e+00	1.246128e-05	
186	-2.65000e+00	1.246539e-05	
187	-2.70000e+00	1.246949e-05	
188	-2.75000e+00	1.247356e-05	
189	-2.80000e+00	1.247761e-05	
190	-2.85000e+00	1.248164e-05	
191	-2.90000e+00	1.248565e-05	
192	-2.95000e+00	1.248964e-05	
193	-3.00000e+00	1.249362e-05	
194	-3.05000e+00	1.249757e-05	
195	-3.10000e+00	1.250151e-05	
196	-3.15000e+00	1.250544e-05	
197	-3.20000e+00	1.250935e-05	
198	-3.25000e+00	1.251324e-05	
199	-3.30000e+00	1.251713e-05	
200	-3.35000e+00	1.252100e-05	
201	-3.40000e+00	1.252485e-05	
202	-3.45000e+00	1.252870e-05	
203	-3.50000e+00	1.253253e-05	
204	-3.55000e+00	1.253636e-05	
205	-3.60000e+00	1.254018e-05	
206	-3.65000e+00	1.254399e-05	
207	-3.70000e+00	1.254779e-05	
208	-3.75000e+00	1.255159e-05	
209	-3.80000e+00	1.255539e-05	
210	-3.85000e+00	1.255918e-05	
211	-3.90000e+00	1.256298e-05	
212	-3.95000e+00	1.256679e-05	
213	-4.00000e+00	1.257060e-05	
214	-4.05000e+00	1.257442e-05	
215	-4.10000e+00	1.257827e-05	
216	-4.15000e+00	1.258213e-05	
217	-4.20000e+00	1.258603e-05	
218	-4.25000e+00	1.258996e-05	
219	-4.30000e+00	1.259393e-05	
220	-4.35000e+00	1.259796e-05	
221	-4.40000e+00	1.260206e-05	
222	-4.45000e+00	1.260622e-05	
223	-4.50000e+00	1.261048e-05	
224	-4.55000e+00	1.261484e-05	
225	-4.60000e+00	1.261932e-05	
226	-4.65000e+00	1.262393e-05	
227	-4.70000e+00	1.262871e-05	
228	-4.75000e+00	1.263366e-05	

Index   v-sweep         i(vds)          
--------------------------------------------------------------------------------
229	-4.80000e+00	1.263882e-05	
230	-4.85000e+00	1.264421e-05	
231	-4.90000e+00	1.264985e-05	
232	-4.95000e+00	1.265579e-05	
233	-5.00000e+00	1.266205e-05	
234	-5.05000e+00	1.266868e-05	
235	-5.10000e+00	1.267570e-05	
236	-5.15000e+00	1.268318e-05	
237	-5.20000e+00	1.269114e-05	
238	-5.25000e+00	1.269964e-05	
239	-5.30000e+00	1.270874e-05	
240	-5.35000e+00	1.271850e-05	
241	-5.40000e+00	1.272896e-05	
242	-5.45000e+00	1.274020e-05	
243	-5.50000e+00	1.275228e-05	
244	-5.55000e+00	1.276528e-05	
245	-5.60000e+00	1.277928e-05	
246	-5.65000e+00	1.279434e-05	
247	-5.70000e+00	1.281057e-05	
248	-5.75000e+00	1.282804e-05	
249	-5.80000e+00	1.284686e-05	
250	-5.85000e+00	1.286712e-05	
251	-5.90000e+00	1.288892e-05	
252	-5.95000e+00	1.291237e-05	
253	-6.00000e+00	1.293759e-05	
254	-6.05000e+00	1.296469e-05	
255	-6.10000e+00	1.299379e-05	
256	-6.15000e+00	1.302502e-05	
257	-6.20000e+00	1.305851e-05	
258	-6.25000e+00	1.309440e-05	
259	-6.30000e+00	1.313283e-05	
260	-6.35000e+00	1.317395e-05	
261	-6.40000e+00	1.321791e-05	
262	-6.45000e+00	1.326486e-05	
263	-6.50000e+00	1.331497e-05	
264	-6.55000e+00	1.336840e-05	
265	-6.60000e+00	1.342533e-05	
266	0.000000e+00	0.000000e+00	
267	-5.00000e-02	2.926017e-06	
268	-1.00000e-01	5.747431e-06	
269	-1.50000e-01	8.464338e-06	
270	-2.00000e-01	1.107684e-05	
271	-2.50000e-01	1.358503e-05	
272	-3.00000e-01	1.598902e-05	
273	-3.50000e-01	1.828890e-05	
274	-4.00000e-01	2.048478e-05	
275	-4.50000e-01	2.257676e-05	
276	-5.00000e-01	2.456494e-05	
277	-5.50000e-01	2.644945e-05	
278	-6.00000e-01	2.823039e-05	
279	-6.50000e-01	2.990788e-05	
280	-7.00000e-01	3.148206e-05	
281	-7.50000e-01	3.295306e-05	
282	-8.00000e-01	3.432103e-05	
283	-8.50000e-01	3.558617e-05	
284	-9.00000e-01	3.674867e-05	
285	-9.50000e-01	3.780882e-05	
286	-1.00000e+00	3.876695e-05	

Index   v-sweep         i(vds)          
--------------------------------------------------------------------------------
287	-1.05000e+00	3.962355e-05	
288	-1.10000e+00	4.037931e-05	
289	-1.15000e+00	4.103526e-05	
290	-1.20000e+00	4.159307e-05	
291	-1.25000e+00	4.205538e-05	
292	-1.30000e+00	4.242656e-05	
293	-1.35000e+00	4.271359e-05	
294	-1.40000e+00	4.292691e-05	
295	-1.45000e+00	4.308031e-05	
296	-1.50000e+00	4.318910e-05	
297	-1.55000e+00	4.326732e-05	
298	-1.60000e+00	4.332573e-05	
299	-1.65000e+00	4.337157e-05	
300	-1.70000e+00	4.340937e-05	
301	-1.75000e+00	4.344188e-05	
302	-1.80000e+00	4.347078e-05	
303	-1.85000e+00	4.349711e-05	
304	-1.90000e+00	4.352154e-05	
305	-1.95000e+00	4.354453e-05	
306	-2.00000e+00	4.356639e-05	
307	-2.05000e+00	4.358732e-05	
308	-2.10000e+00	4.360750e-05	
309	-2.15000e+00	4.362704e-05	
310	-2.20000e+00	4.364604e-05	
311	-2.25000e+00	4.366456e-05	
312	-2.30000e+00	4.368267e-05	
313	-2.35000e+00	4.370041e-05	
314	-2.40000e+00	4.371783e-05	
315	-2.45000e+00	4.373496e-05	
316	-2.50000e+00	4.375181e-05	
317	-2.55000e+00	4.376843e-05	
318	-2.60000e+00	4.378483e-05	
319	-2.65000e+00	4.380102e-05	
320	-2.70000e+00	4.381702e-05	
321	-2.75000e+00	4.383285e-05	
322	-2.80000e+00	4.384852e-05	
323	-2.85000e+00	4.386404e-05	
324	-2.90000e+00	4.387942e-05	
325	-2.95000e+00	4.389466e-05	
326	-3.00000e+00	4.390978e-05	
327	-3.05000e+00	4.392479e-05	
328	-3.10000e+00	4.393968e-05	
329	-3.15000e+00	4.395447e-05	
330	-3.20000e+00	4.396917e-05	
331	-3.25000e+00	4.398377e-05	
332	-3.30000e+00	4.399828e-05	
333	-3.35000e+00	4.401270e-05	
334	-3.40000e+00	4.402705e-05	
335	-3.45000e+00	4.404132e-05	
336	-3.50000e+00	4.405552e-05	
337	-3.55000e+00	4.406965e-05	
338	-3.60000e+00	4.408371e-05	
339	-3.65000e+00	4.409771e-05	
340	-3.70000e+00	4.411165e-05	
341	-3.75000e+00	4.412553e-05	
342	-3.80000e+00	4.413935e-05	
343	-3.85000e+00	4.415312e-05	
344	-3.90000e+00	4.416684e-05	

Index   v-sweep         i(vds)          
--------------------------------------------------------------------------------
345	-3.95000e+00	4.418051e-05	
346	-4.00000e+00	4.419413e-05	
347	-4.05000e+00	4.420771e-05	
348	-4.10000e+00	4.422125e-05	
349	-4.15000e+00	4.423475e-05	
350	-4.20000e+00	4.424821e-05	
351	-4.25000e+00	4.426164e-05	
352	-4.30000e+00	4.427504e-05	
353	-4.35000e+00	4.428841e-05	
354	-4.40000e+00	4.430177e-05	
355	-4.45000e+00	4.431511e-05	
356	-4.50000e+00	4.432844e-05	
357	-4.55000e+00	4.434177e-05	
358	-4.60000e+00	4.435511e-05	
359	-4.65000e+00	4.436847e-05	
360	-4.70000e+00	4.438186e-05	
361	-4.75000e+00	4.439529e-05	
362	-4.80000e+00	4.440878e-05	
363	-4.85000e+00	4.442236e-05	
364	-4.90000e+00	4.443603e-05	
365	-4.95000e+00	4.444983e-05	
366	-5.00000e+00	4.446379e-05	
367	-5.05000e+00	4.447793e-05	
368	-5.10000e+00	4.449230e-05	
369	-5.15000e+00	4.450693e-05	
370	-5.20000e+00	4.452186e-05	
371	-5.25000e+00	4.453716e-05	
372	-5.30000e+00	4.455288e-05	
373	-5.35000e+00	4.456907e-05	
374	-5.40000e+00	4.458582e-05	
375	-5.45000e+00	4.460319e-05	
376	-5.50000e+00	4.462128e-05	
377	-5.55000e+00	4.464017e-05	
378	-5.60000e+00	4.465997e-05	
379	-5.65000e+00	4.468079e-05	
380	-5.70000e+00	4.470274e-05	
381	-5.75000e+00	4.472596e-05	
382	-5.80000e+00	4.475059e-05	
383	-5.85000e+00	4.477677e-05	
384	-5.90000e+00	4.480468e-05	
385	-5.95000e+00	4.483449e-05	
386	-6.00000e+00	4.486637e-05	
387	-6.05000e+00	4.490054e-05	
388	-6.10000e+00	4.493720e-05	
389	-6.15000e+00	4.497658e-05	
390	-6.20000e+00	4.501893e-05	
391	-6.25000e+00	4.506448e-05	
392	-6.30000e+00	4.511352e-05	
393	-6.35000e+00	4.516632e-05	
394	-6.40000e+00	4.522319e-05	
395	-6.45000e+00	4.528443e-05	
396	-6.50000e+00	4.535039e-05	
397	-6.55000e+00	4.542139e-05	
398	-6.60000e+00	4.549782e-05	
399	0.000000e+00	0.000000e+00	
400	-5.00000e-02	4.006444e-06	
401	-1.00000e-01	7.917955e-06	
402	-1.50000e-01	1.173462e-05	

Index   v-sweep         i(vds)          
--------------------------------------------------------------------------------
403	-2.00000e-01	1.545651e-05	
404	-2.50000e-01	1.908371e-05	
405	-3.00000e-01	2.261630e-05	
406	-3.50000e-01	2.605437e-05	
407	-4.00000e-01	2.939799e-05	
408	-4.50000e-01	3.264725e-05	
409	-5.00000e-01	3.580223e-05	
410	-5.50000e-01	3.886300e-05	
411	-6.00000e-01	4.182966e-05	
412	-6.50000e-01	4.470228e-05	
413	-7.00000e-01	4.748095e-05	
414	-7.50000e-01	5.016575e-05	
415	-8.00000e-01	5.275676e-05	
416	-8.50000e-01	5.525408e-05	
417	-9.00000e-01	5.765778e-05	
418	-9.50000e-01	5.996796e-05	
419	-1.00000e+00	6.218469e-05	
420	-1.05000e+00	6.430808e-05	
421	-1.10000e+00	6.633822e-05	
422	-1.15000e+00	6.827521e-05	
423	-1.20000e+00	7.011914e-05	
424	-1.25000e+00	7.187012e-05	
425	-1.30000e+00	7.352827e-05	
426	-1.35000e+00	7.509372e-05	
427	-1.40000e+00	7.656659e-05	
428	-1.45000e+00	7.794705e-05	
429	-1.50000e+00	7.923527e-05	
430	-1.55000e+00	8.043148e-05	
431	-1.60000e+00	8.153593e-05	
432	-1.65000e+00	8.254896e-05	
433	-1.70000e+00	8.347103e-05	
434	-1.75000e+00	8.430272e-05	
435	-1.80000e+00	8.504489e-05	
436	-1.85000e+00	8.569876e-05	
437	-1.90000e+00	8.626612e-05	
438	-1.95000e+00	8.674962e-05	
439	-2.00000e+00	8.715322e-05	
440	-2.05000e+00	8.748260e-05	
441	-2.10000e+00	8.774559e-05	
442	-2.15000e+00	8.795204e-05	
443	-2.20000e+00	8.811302e-05	
444	-2.25000e+00	8.823950e-05	
445	-2.30000e+00	8.834096e-05	
446	-2.35000e+00	8.842481e-05	
447	-2.40000e+00	8.849635e-05	
448	-2.45000e+00	8.855922e-05	
449	-2.50000e+00	8.861586e-05	
450	-2.55000e+00	8.866792e-05	
451	-2.60000e+00	8.871651e-05	
452	-2.65000e+00	8.876240e-05	
453	-2.70000e+00	8.880615e-05	
454	-2.75000e+00	8.884814e-05	
455	-2.80000e+00	8.888867e-05	
456	-2.85000e+00	8.892797e-05	
457	-2.90000e+00	8.896622e-05	
458	-2.95000e+00	8.900355e-05	
459	-3.00000e+00	8.904007e-05	
460	-3.05000e+00	8.907587e-05	

Index   v-sweep         i(vds)          
--------------------------------------------------------------------------------
461	-3.10000e+00	8.911104e-05	
462	-3.15000e+00	8.914563e-05	
463	-3.20000e+00	8.917970e-05	
464	-3.25000e+00	8.921329e-05	
465	-3.30000e+00	8.924645e-05	
466	-3.35000e+00	8.927920e-05	
467	-3.40000e+00	8.931159e-05	
468	-3.45000e+00	8.934363e-05	
469	-3.50000e+00	8.937535e-05	
470	-3.55000e+00	8.940677e-05	
471	-3.60000e+00	8.943792e-05	
472	-3.65000e+00	8.946880e-05	
473	-3.70000e+00	8.949944e-05	
474	-3.75000e+00	8.952985e-05	
475	-3.80000e+00	8.956004e-05	
476	-3.85000e+00	8.959003e-05	
477	-3.90000e+00	8.961981e-05	
478	-3.95000e+00	8.964942e-05	
479	-4.00000e+00	8.967885e-05	
480	-4.05000e+00	8.970811e-05	
481	-4.10000e+00	8.973721e-05	
482	-4.15000e+00	8.976616e-05	
483	-4.20000e+00	8.979496e-05	
484	-4.25000e+00	8.982363e-05	
485	-4.30000e+00	8.985217e-05	
486	-4.35000e+00	8.988057e-05	
487	-4.40000e+00	8.990886e-05	
488	-4.45000e+00	8.993703e-05	
489	-4.50000e+00	8.996509e-05	
490	-4.55000e+00	8.999304e-05	
491	-4.60000e+00	9.002089e-05	
492	-4.65000e+00	9.004865e-05	
493	-4.70000e+00	9.007630e-05	
494	-4.75000e+00	9.010388e-05	
495	-4.80000e+00	9.013136e-05	
496	-4.85000e+00	9.015877e-05	
497	-4.90000e+00	9.018611e-05	
498	-4.95000e+00	9.021338e-05	
499	-5.00000e+00	9.024058e-05	
500	-5.05000e+00	9.026774e-05	
501	-5.10000e+00	9.029486e-05	
502	-5.15000e+00	9.032194e-05	
503	-5.20000e+00	9.034900e-05	
504	-5.25000e+00	9.037606e-05	
505	-5.30000e+00	9.040313e-05	
506	-5.35000e+00	9.043023e-05	
507	-5.40000e+00	9.045739e-05	
508	-5.45000e+00	9.048463e-05	
509	-5.50000e+00	9.051198e-05	
510	-5.55000e+00	9.053949e-05	
511	-5.60000e+00	9.056719e-05	
512	-5.65000e+00	9.059512e-05	
513	-5.70000e+00	9.062336e-05	
514	-5.75000e+00	9.065195e-05	
515	-5.80000e+00	9.068097e-05	
516	-5.85000e+00	9.071049e-05	
517	-5.90000e+00	9.074062e-05	
518	-5.95000e+00	9.077144e-05	

Index   v-sweep         i(vds)          
--------------------------------------------------------------------------------
519	-6.00000e+00	9.080307e-05	
520	-6.05000e+00	9.083563e-05	
521	-6.10000e+00	9.086927e-05	
522	-6.15000e+00	9.090412e-05	
523	-6.20000e+00	9.094037e-05	
524	-6.25000e+00	9.097819e-05	
525	-6.30000e+00	9.101779e-05	
526	-6.35000e+00	9.105938e-05	
527	-6.40000e+00	9.110319e-05	
528	-6.45000e+00	9.114950e-05	
529	-6.50000e+00	9.119856e-05	
530	-6.55000e+00	9.125070e-05	
531	-6.60000e+00	9.130622e-05	
532	0.000000e+00	0.000000e+00	
533	-5.00000e-02	4.876462e-06	
534	-1.00000e-01	9.666903e-06	
535	-1.50000e-01	1.437139e-05	
536	-2.00000e-01	1.898999e-05	
537	-2.50000e-01	2.352278e-05	
538	-3.00000e-01	2.796982e-05	
539	-3.50000e-01	3.233117e-05	
540	-4.00000e-01	3.660691e-05	
541	-4.50000e-01	4.079710e-05	
542	-5.00000e-01	4.490182e-05	
543	-5.50000e-01	4.892112e-05	
544	-6.00000e-01	5.285508e-05	
545	-6.50000e-01	5.670376e-05	
546	-7.00000e-01	6.046723e-05	
547	-7.50000e-01	6.414557e-05	
548	-8.00000e-01	6.773883e-05	
549	-8.50000e-01	7.124708e-05	
550	-9.00000e-01	7.467040e-05	
551	-9.50000e-01	7.800886e-05	
552	-1.00000e+00	8.126251e-05	
553	-1.05000e+00	8.443143e-05	
554	-1.10000e+00	8.751569e-05	
555	-1.15000e+00	9.051535e-05	
556	-1.20000e+00	9.343049e-05	
557	-1.25000e+00	9.626118e-05	
558	-1.30000e+00	9.900748e-05	
559	-1.35000e+00	1.016695e-04	
560	-1.40000e+00	1.042472e-04	
561	-1.45000e+00	1.067408e-04	
562	-1.50000e+00	1.091503e-04	
563	-1.55000e+00	1.114758e-04	
564	-1.60000e+00	1.137173e-04	
565	-1.65000e+00	1.158749e-04	
566	-1.70000e+00	1.179488e-04	
567	-1.75000e+00	1.199390e-04	
568	-1.80000e+00	1.218455e-04	
569	-1.85000e+00	1.236686e-04	
570	-1.90000e+00	1.254082e-04	
571	-1.95000e+00	1.270645e-04	
572	-2.00000e+00	1.286376e-04	
573	-2.05000e+00	1.301276e-04	
574	-2.10000e+00	1.315346e-04	
575	-2.15000e+00	1.328589e-04	
576	-2.20000e+00	1.341006e-04	

Index   v-sweep         i(vds)          
--------------------------------------------------------------------------------
577	-2.25000e+00	1.352600e-04	
578	-2.30000e+00	1.363372e-04	
579	-2.35000e+00	1.373328e-04	
580	-2.40000e+00	1.382471e-04	
581	-2.45000e+00	1.390808e-04	
582	-2.50000e+00	1.398347e-04	
583	-2.55000e+00	1.405099e-04	
584	-2.60000e+00	1.411079e-04	
585	-2.65000e+00	1.416311e-04	
586	-2.70000e+00	1.420825e-04	
587	-2.75000e+00	1.424663e-04	
588	-2.80000e+00	1.427882e-04	
589	-2.85000e+00	1.430551e-04	
590	-2.90000e+00	1.432753e-04	
591	-2.95000e+00	1.434573e-04	
592	-3.00000e+00	1.436095e-04	
593	-3.05000e+00	1.437389e-04	
594	-3.10000e+00	1.438515e-04	
595	-3.15000e+00	1.439516e-04	
596	-3.20000e+00	1.440423e-04	
597	-3.25000e+00	1.441260e-04	
598	-3.30000e+00	1.442043e-04	
599	-3.35000e+00	1.442783e-04	
600	-3.40000e+00	1.443488e-04	
601	-3.45000e+00	1.444166e-04	
602	-3.50000e+00	1.444821e-04	
603	-3.55000e+00	1.445456e-04	
604	-3.60000e+00	1.446074e-04	
605	-3.65000e+00	1.446677e-04	
606	-3.70000e+00	1.447268e-04	
607	-3.75000e+00	1.447847e-04	
608	-3.80000e+00	1.448415e-04	
609	-3.85000e+00	1.448975e-04	
610	-3.90000e+00	1.449526e-04	
611	-3.95000e+00	1.450070e-04	
612	-4.00000e+00	1.450606e-04	
613	-4.05000e+00	1.451137e-04	
614	-4.10000e+00	1.451661e-04	
615	-4.15000e+00	1.452180e-04	
616	-4.20000e+00	1.452693e-04	
617	-4.25000e+00	1.453202e-04	
618	-4.30000e+00	1.453707e-04	
619	-4.35000e+00	1.454207e-04	
620	-4.40000e+00	1.454703e-04	
621	-4.45000e+00	1.455196e-04	
622	-4.50000e+00	1.455685e-04	
623	-4.55000e+00	1.456171e-04	
624	-4.60000e+00	1.456654e-04	
625	-4.65000e+00	1.457133e-04	
626	-4.70000e+00	1.457610e-04	
627	-4.75000e+00	1.458084e-04	
628	-4.80000e+00	1.458556e-04	
629	-4.85000e+00	1.459025e-04	
630	-4.90000e+00	1.459492e-04	
631	-4.95000e+00	1.459957e-04	
632	-5.00000e+00	1.460420e-04	
633	-5.05000e+00	1.460880e-04	
634	-5.10000e+00	1.461339e-04	

Index   v-sweep         i(vds)          
--------------------------------------------------------------------------------
635	-5.15000e+00	1.461795e-04	
636	-5.20000e+00	1.462250e-04	
637	-5.25000e+00	1.462704e-04	
638	-5.30000e+00	1.463155e-04	
639	-5.35000e+00	1.463605e-04	
640	-5.40000e+00	1.464054e-04	
641	-5.45000e+00	1.464501e-04	
642	-5.50000e+00	1.464946e-04	
643	-5.55000e+00	1.465391e-04	
644	-5.60000e+00	1.465834e-04	
645	-5.65000e+00	1.466276e-04	
646	-5.70000e+00	1.466717e-04	
647	-5.75000e+00	1.467157e-04	
648	-5.80000e+00	1.467597e-04	
649	-5.85000e+00	1.468036e-04	
650	-5.90000e+00	1.468474e-04	
651	-5.95000e+00	1.468913e-04	
652	-6.00000e+00	1.469351e-04	
653	-6.05000e+00	1.469789e-04	
654	-6.10000e+00	1.470229e-04	
655	-6.15000e+00	1.470669e-04	
656	-6.20000e+00	1.471111e-04	
657	-6.25000e+00	1.471555e-04	
658	-6.30000e+00	1.472002e-04	
659	-6.35000e+00	1.472452e-04	
660	-6.40000e+00	1.472906e-04	
661	-6.45000e+00	1.473365e-04	
662	-6.50000e+00	1.473831e-04	
663	-6.55000e+00	1.474304e-04	
664	-6.60000e+00	1.474786e-04	
665	0.000000e+00	0.000000e+00	
666	-5.00000e-02	5.574527e-06	
667	-1.00000e-01	1.107106e-05	
668	-1.50000e-01	1.648965e-05	
669	-2.00000e-01	2.183037e-05	
670	-2.50000e-01	2.709326e-05	
671	-3.00000e-01	3.227838e-05	
672	-3.50000e-01	3.738579e-05	
673	-4.00000e-01	4.241555e-05	
674	-4.50000e-01	4.736771e-05	
675	-5.00000e-01	5.224233e-05	
676	-5.50000e-01	5.703947e-05	
677	-6.00000e-01	6.175919e-05	
678	-6.50000e-01	6.640153e-05	
679	-7.00000e-01	7.096656e-05	
680	-7.50000e-01	7.545434e-05	
681	-8.00000e-01	7.986492e-05	
682	-8.50000e-01	8.419835e-05	
683	-9.00000e-01	8.845470e-05	
684	-9.50000e-01	9.263402e-05	
685	-1.00000e+00	9.673637e-05	
686	-1.05000e+00	1.007618e-04	
687	-1.10000e+00	1.047104e-04	
688	-1.15000e+00	1.085822e-04	
689	-1.20000e+00	1.123772e-04	
690	-1.25000e+00	1.160955e-04	
691	-1.30000e+00	1.197372e-04	
692	-1.35000e+00	1.233024e-04	

Index   v-sweep         i(vds)          
--------------------------------------------------------------------------------
693	-1.40000e+00	1.267910e-04	
694	-1.45000e+00	1.302031e-04	
695	-1.50000e+00	1.335389e-04	
696	-1.55000e+00	1.367983e-04	
697	-1.60000e+00	1.399814e-04	
698	-1.65000e+00	1.430883e-04	
699	-1.70000e+00	1.461191e-04	
700	-1.75000e+00	1.490737e-04	
701	-1.80000e+00	1.519522e-04	
702	-1.85000e+00	1.547548e-04	
703	-1.90000e+00	1.574814e-04	
704	-1.95000e+00	1.601322e-04	
705	-2.00000e+00	1.627071e-04	
706	-2.05000e+00	1.652063e-04	
707	-2.10000e+00	1.676298e-04	
708	-2.15000e+00	1.699777e-04	
709	-2.20000e+00	1.722500e-04	
710	-2.25000e+00	1.744468e-04	
711	-2.30000e+00	1.765682e-04	
712	-2.35000e+00	1.786143e-04	
713	-2.40000e+00	1.805851e-04	
714	-2.45000e+00	1.824806e-04	
715	-2.50000e+00	1.843011e-04	
716	-2.55000e+00	1.860465e-04	
717	-2.60000e+00	1.877169e-04	
718	-2.65000e+00	1.893125e-04	
719	-2.70000e+00	1.908334e-04	
720	-2.75000e+00	1.922797e-04	
721	-2.80000e+00	1.936514e-04	
722	-2.85000e+00	1.949489e-04	
723	-2.90000e+00	1.961722e-04	
724	-2.95000e+00	1.973217e-04	
725	-3.00000e+00	1.983974e-04	
726	-3.05000e+00	1.993999e-04	
727	-3.10000e+00	2.003295e-04	
728	-3.15000e+00	2.011867e-04	
729	-3.20000e+00	2.019723e-04	
730	-3.25000e+00	2.026872e-04	
731	-3.30000e+00	2.033325e-04	
732	-3.35000e+00	2.039101e-04	
733	-3.40000e+00	2.044220e-04	
734	-3.45000e+00	2.048712e-04	
735	-3.50000e+00	2.052617e-04	
736	-3.55000e+00	2.055983e-04	
737	-3.60000e+00	2.058867e-04	
738	-3.65000e+00	2.061336e-04	
739	-3.70000e+00	2.063458e-04	
740	-3.75000e+00	2.065300e-04	
741	-3.80000e+00	2.066919e-04	
742	-3.85000e+00	2.068367e-04	
743	-3.90000e+00	2.069683e-04	
744	-3.95000e+00	2.070896e-04	
745	-4.00000e+00	2.072029e-04	
746	-4.05000e+00	2.073099e-04	
747	-4.10000e+00	2.074118e-04	
748	-4.15000e+00	2.075095e-04	
749	-4.20000e+00	2.076038e-04	
750	-4.25000e+00	2.076952e-04	

Index   v-sweep         i(vds)          
--------------------------------------------------------------------------------
751	-4.30000e+00	2.077841e-04	
752	-4.35000e+00	2.078709e-04	
753	-4.40000e+00	2.079558e-04	
754	-4.45000e+00	2.080390e-04	
755	-4.50000e+00	2.081207e-04	
756	-4.55000e+00	2.082011e-04	
757	-4.60000e+00	2.082802e-04	
758	-4.65000e+00	2.083583e-04	
759	-4.70000e+00	2.084354e-04	
760	-4.75000e+00	2.085115e-04	
761	-4.80000e+00	2.085868e-04	
762	-4.85000e+00	2.086613e-04	
763	-4.90000e+00	2.087350e-04	
764	-4.95000e+00	2.088081e-04	
765	-5.00000e+00	2.088805e-04	
766	-5.05000e+00	2.089523e-04	
767	-5.10000e+00	2.090236e-04	
768	-5.15000e+00	2.090943e-04	
769	-5.20000e+00	2.091645e-04	
770	-5.25000e+00	2.092343e-04	
771	-5.30000e+00	2.093036e-04	
772	-5.35000e+00	2.093724e-04	
773	-5.40000e+00	2.094409e-04	
774	-5.45000e+00	2.095090e-04	
775	-5.50000e+00	2.095767e-04	
776	-5.55000e+00	2.096441e-04	
777	-5.60000e+00	2.097111e-04	
778	-5.65000e+00	2.097778e-04	
779	-5.70000e+00	2.098442e-04	
780	-5.75000e+00	2.099103e-04	
781	-5.80000e+00	2.099762e-04	
782	-5.85000e+00	2.100417e-04	
783	-5.90000e+00	2.101071e-04	
784	-5.95000e+00	2.101721e-04	
785	-6.00000e+00	2.102369e-04	
786	-6.05000e+00	2.103015e-04	
787	-6.10000e+00	2.103659e-04	
788	-6.15000e+00	2.104301e-04	
789	-6.20000e+00	2.104941e-04	
790	-6.25000e+00	2.105579e-04	
791	-6.30000e+00	2.106215e-04	
792	-6.35000e+00	2.106849e-04	
793	-6.40000e+00	2.107482e-04	
794	-6.45000e+00	2.108114e-04	
795	-6.50000e+00	2.108744e-04	
796	-6.55000e+00	2.109373e-04	
797	-6.60000e+00	2.110002e-04	
Note: No ".plot", ".print", or ".fourier" lines; no simulations run
