
Note: Compatibility modes selected: hs

Warning: m=xx on .subckt line will override multiplier m hierarchy!


Circuit: ***************************

Doing analysis at TEMP = 125.000000 and TNOM = 125.000000


No. of Data Rows : 798
                          ***************************
                          DC transfer characteristic  Mon Jan  9 13:57:53  2023
--------------------------------------------------------------------------------
Index   v-sweep         i(vds)          
--------------------------------------------------------------------------------
0	0.000000e+00	0.000000e+00	
1	-5.00000e-02	5.996334e-06	
2	-1.00000e-01	1.080544e-05	
3	-1.50000e-01	1.451627e-05	
4	-2.00000e-01	1.717951e-05	
5	-2.50000e-01	1.888027e-05	
6	-3.00000e-01	1.981695e-05	
7	-3.50000e-01	2.030895e-05	
8	-4.00000e-01	2.061676e-05	
9	-4.50000e-01	2.085593e-05	
10	-5.00000e-01	2.106556e-05	
11	-5.50000e-01	2.125934e-05	
12	-6.00000e-01	2.144292e-05	
13	-6.50000e-01	2.161903e-05	
14	-7.00000e-01	2.178923e-05	
15	-7.50000e-01	2.195452e-05	
16	-8.00000e-01	2.211561e-05	
17	-8.50000e-01	2.227304e-05	
18	-9.00000e-01	2.242721e-05	
19	-9.50000e-01	2.257847e-05	
20	-1.00000e+00	2.272712e-05	
21	-1.05000e+00	2.287338e-05	
22	-1.10000e+00	2.301748e-05	
23	-1.15000e+00	2.315961e-05	
24	-1.20000e+00	2.329991e-05	
25	-1.25000e+00	2.343854e-05	
26	-1.30000e+00	2.357562e-05	
27	-1.35000e+00	2.371128e-05	
28	-1.40000e+00	2.384561e-05	
29	-1.45000e+00	2.397870e-05	
30	-1.50000e+00	2.411066e-05	
31	-1.55000e+00	2.424154e-05	
32	-1.60000e+00	2.437143e-05	
33	-1.65000e+00	2.450038e-05	
34	-1.70000e+00	2.462847e-05	
35	-1.75000e+00	2.475573e-05	
36	-1.80000e+00	2.488224e-05	
37	-1.85000e+00	2.500802e-05	
38	-1.90000e+00	2.513313e-05	
39	-1.95000e+00	2.525761e-05	
40	-2.00000e+00	2.538149e-05	
41	-2.05000e+00	2.550482e-05	
42	-2.10000e+00	2.562761e-05	
43	-2.15000e+00	2.574991e-05	
44	-2.20000e+00	2.587175e-05	
45	-2.25000e+00	2.599314e-05	
46	-2.30000e+00	2.611412e-05	
47	-2.35000e+00	2.623470e-05	
48	-2.40000e+00	2.635492e-05	
49	-2.45000e+00	2.647479e-05	
50	-2.50000e+00	2.659433e-05	
51	-2.55000e+00	2.671357e-05	
52	-2.60000e+00	2.683251e-05	
53	-2.65000e+00	2.695118e-05	
54	-2.70000e+00	2.706959e-05	

Index   v-sweep         i(vds)          
--------------------------------------------------------------------------------
55	-2.75000e+00	2.718776e-05	
56	-2.80000e+00	2.730571e-05	
57	-2.85000e+00	2.742343e-05	
58	-2.90000e+00	2.754096e-05	
59	-2.95000e+00	2.765830e-05	
60	-3.00000e+00	2.777547e-05	
61	-3.05000e+00	2.789247e-05	
62	-3.10000e+00	2.800932e-05	
63	-3.15000e+00	2.812603e-05	
64	-3.20000e+00	2.824261e-05	
65	-3.25000e+00	2.835908e-05	
66	-3.30000e+00	2.847544e-05	
67	-3.35000e+00	2.859170e-05	
68	-3.40000e+00	2.870789e-05	
69	-3.45000e+00	2.882401e-05	
70	-3.50000e+00	2.894007e-05	
71	-3.55000e+00	2.905609e-05	
72	-3.60000e+00	2.917209e-05	
73	-3.65000e+00	2.928808e-05	
74	-3.70000e+00	2.940407e-05	
75	-3.75000e+00	2.952010e-05	
76	-3.80000e+00	2.963618e-05	
77	-3.85000e+00	2.975234e-05	
78	-3.90000e+00	2.986859e-05	
79	-3.95000e+00	2.998498e-05	
80	-4.00000e+00	3.010154e-05	
81	-4.05000e+00	3.021829e-05	
82	-4.10000e+00	3.033529e-05	
83	-4.15000e+00	3.045257e-05	
84	-4.20000e+00	3.057018e-05	
85	-4.25000e+00	3.068818e-05	
86	-4.30000e+00	3.080663e-05	
87	-4.35000e+00	3.092559e-05	
88	-4.40000e+00	3.104513e-05	
89	-4.45000e+00	3.116534e-05	
90	-4.50000e+00	3.128629e-05	
91	-4.55000e+00	3.140808e-05	
92	-4.60000e+00	3.153080e-05	
93	-4.65000e+00	3.165458e-05	
94	-4.70000e+00	3.177951e-05	
95	-4.75000e+00	3.190575e-05	
96	-4.80000e+00	3.203341e-05	
97	-4.85000e+00	3.216264e-05	
98	-4.90000e+00	3.229361e-05	
99	-4.95000e+00	3.242649e-05	
100	-5.00000e+00	3.256145e-05	
101	-5.05000e+00	3.269869e-05	
102	-5.10000e+00	3.283841e-05	
103	-5.15000e+00	3.298084e-05	
104	-5.20000e+00	3.312620e-05	
105	-5.25000e+00	3.327474e-05	
106	-5.30000e+00	3.342672e-05	
107	-5.35000e+00	3.358242e-05	
108	-5.40000e+00	3.374213e-05	
109	-5.45000e+00	3.390615e-05	
110	-5.50000e+00	3.407481e-05	
111	-5.55000e+00	3.424844e-05	
112	-5.60000e+00	3.442740e-05	

Index   v-sweep         i(vds)          
--------------------------------------------------------------------------------
113	-5.65000e+00	3.461206e-05	
114	-5.70000e+00	3.480282e-05	
115	-5.75000e+00	3.500006e-05	
116	-5.80000e+00	3.520423e-05	
117	-5.85000e+00	3.541576e-05	
118	-5.90000e+00	3.563512e-05	
119	-5.95000e+00	3.586278e-05	
120	-6.00000e+00	3.609925e-05	
121	-6.05000e+00	3.634504e-05	
122	-6.10000e+00	3.660069e-05	
123	-6.15000e+00	3.686675e-05	
124	-6.20000e+00	3.714381e-05	
125	-6.25000e+00	3.743246e-05	
126	-6.30000e+00	3.773332e-05	
127	-6.35000e+00	3.804702e-05	
128	-6.40000e+00	3.837423e-05	
129	-6.45000e+00	3.871561e-05	
130	-6.50000e+00	3.907187e-05	
131	-6.55000e+00	3.944373e-05	
132	-6.60000e+00	3.983192e-05	
133	0.000000e+00	0.000000e+00	
134	-5.00000e-02	2.419778e-05	
135	-1.00000e-01	4.709509e-05	
136	-1.50000e-01	6.877147e-05	
137	-2.00000e-01	8.925316e-05	
138	-2.50000e-01	1.085540e-04	
139	-3.00000e-01	1.266847e-04	
140	-3.50000e-01	1.436555e-04	
141	-4.00000e-01	1.594764e-04	
142	-4.50000e-01	1.741574e-04	
143	-5.00000e-01	1.877086e-04	
144	-5.50000e-01	2.001404e-04	
145	-6.00000e-01	2.114636e-04	
146	-6.50000e-01	2.216899e-04	
147	-7.00000e-01	2.308325e-04	
148	-7.50000e-01	2.389073e-04	
149	-8.00000e-01	2.459350e-04	
150	-8.50000e-01	2.519455e-04	
151	-9.00000e-01	2.569855e-04	
152	-9.50000e-01	2.611305e-04	
153	-1.00000e+00	2.644975e-04	
154	-1.05000e+00	2.672434e-04	
155	-1.10000e+00	2.695374e-04	
156	-1.15000e+00	2.715224e-04	
157	-1.20000e+00	2.732969e-04	
158	-1.25000e+00	2.749222e-04	
159	-1.30000e+00	2.764351e-04	
160	-1.35000e+00	2.778589e-04	
161	-1.40000e+00	2.792089e-04	
162	-1.45000e+00	2.804962e-04	
163	-1.50000e+00	2.817290e-04	
164	-1.55000e+00	2.829138e-04	
165	-1.60000e+00	2.840556e-04	
166	-1.65000e+00	2.851588e-04	
167	-1.70000e+00	2.862271e-04	
168	-1.75000e+00	2.872635e-04	
169	-1.80000e+00	2.882707e-04	
170	-1.85000e+00	2.892511e-04	

Index   v-sweep         i(vds)          
--------------------------------------------------------------------------------
171	-1.90000e+00	2.902067e-04	
172	-1.95000e+00	2.911394e-04	
173	-2.00000e+00	2.920508e-04	
174	-2.05000e+00	2.929424e-04	
175	-2.10000e+00	2.938155e-04	
176	-2.15000e+00	2.946712e-04	
177	-2.20000e+00	2.955107e-04	
178	-2.25000e+00	2.963350e-04	
179	-2.30000e+00	2.971449e-04	
180	-2.35000e+00	2.979412e-04	
181	-2.40000e+00	2.987248e-04	
182	-2.45000e+00	2.994962e-04	
183	-2.50000e+00	3.002562e-04	
184	-2.55000e+00	3.010054e-04	
185	-2.60000e+00	3.017442e-04	
186	-2.65000e+00	3.024733e-04	
187	-2.70000e+00	3.031930e-04	
188	-2.75000e+00	3.039038e-04	
189	-2.80000e+00	3.046061e-04	
190	-2.85000e+00	3.053003e-04	
191	-2.90000e+00	3.059868e-04	
192	-2.95000e+00	3.066659e-04	
193	-3.00000e+00	3.073378e-04	
194	-3.05000e+00	3.080030e-04	
195	-3.10000e+00	3.086617e-04	
196	-3.15000e+00	3.093141e-04	
197	-3.20000e+00	3.099605e-04	
198	-3.25000e+00	3.106012e-04	
199	-3.30000e+00	3.112363e-04	
200	-3.35000e+00	3.118660e-04	
201	-3.40000e+00	3.124906e-04	
202	-3.45000e+00	3.131103e-04	
203	-3.50000e+00	3.137252e-04	
204	-3.55000e+00	3.143355e-04	
205	-3.60000e+00	3.149414e-04	
206	-3.65000e+00	3.155429e-04	
207	-3.70000e+00	3.161404e-04	
208	-3.75000e+00	3.167339e-04	
209	-3.80000e+00	3.173235e-04	
210	-3.85000e+00	3.179095e-04	
211	-3.90000e+00	3.184918e-04	
212	-3.95000e+00	3.190708e-04	
213	-4.00000e+00	3.196465e-04	
214	-4.05000e+00	3.202190e-04	
215	-4.10000e+00	3.207885e-04	
216	-4.15000e+00	3.213552e-04	
217	-4.20000e+00	3.219191e-04	
218	-4.25000e+00	3.224806e-04	
219	-4.30000e+00	3.230396e-04	
220	-4.35000e+00	3.235964e-04	
221	-4.40000e+00	3.241513e-04	
222	-4.45000e+00	3.247043e-04	
223	-4.50000e+00	3.252559e-04	
224	-4.55000e+00	3.258061e-04	
225	-4.60000e+00	3.263552e-04	
226	-4.65000e+00	3.269037e-04	
227	-4.70000e+00	3.274518e-04	
228	-4.75000e+00	3.279999e-04	

Index   v-sweep         i(vds)          
--------------------------------------------------------------------------------
229	-4.80000e+00	3.285484e-04	
230	-4.85000e+00	3.290977e-04	
231	-4.90000e+00	3.296483e-04	
232	-4.95000e+00	3.302008e-04	
233	-5.00000e+00	3.307558e-04	
234	-5.05000e+00	3.313139e-04	
235	-5.10000e+00	3.318759e-04	
236	-5.15000e+00	3.324424e-04	
237	-5.20000e+00	3.330143e-04	
238	-5.25000e+00	3.335926e-04	
239	-5.30000e+00	3.341781e-04	
240	-5.35000e+00	3.347721e-04	
241	-5.40000e+00	3.353756e-04	
242	-5.45000e+00	3.359898e-04	
243	-5.50000e+00	3.366161e-04	
244	-5.55000e+00	3.372559e-04	
245	-5.60000e+00	3.379107e-04	
246	-5.65000e+00	3.385822e-04	
247	-5.70000e+00	3.392721e-04	
248	-5.75000e+00	3.399821e-04	
249	-5.80000e+00	3.407144e-04	
250	-5.85000e+00	3.414709e-04	
251	-5.90000e+00	3.422538e-04	
252	-5.95000e+00	3.430655e-04	
253	-6.00000e+00	3.439084e-04	
254	-6.05000e+00	3.447851e-04	
255	-6.10000e+00	3.456982e-04	
256	-6.15000e+00	3.466508e-04	
257	-6.20000e+00	3.476456e-04	
258	-6.25000e+00	3.486859e-04	
259	-6.30000e+00	3.497750e-04	
260	-6.35000e+00	3.509161e-04	
261	-6.40000e+00	3.521130e-04	
262	-6.45000e+00	3.533694e-04	
263	-6.50000e+00	3.546889e-04	
264	-6.55000e+00	3.560758e-04	
265	-6.60000e+00	3.575342e-04	
266	0.000000e+00	0.000000e+00	
267	-5.00000e-02	3.826958e-05	
268	-1.00000e-01	7.527854e-05	
269	-1.50000e-01	1.111051e-04	
270	-2.00000e-01	1.457740e-04	
271	-2.50000e-01	1.792978e-04	
272	-3.00000e-01	2.116858e-04	
273	-3.50000e-01	2.429467e-04	
274	-4.00000e-01	2.730890e-04	
275	-4.50000e-01	3.021210e-04	
276	-5.00000e-01	3.300509e-04	
277	-5.50000e-01	3.568870e-04	
278	-6.00000e-01	3.826374e-04	
279	-6.50000e-01	4.073100e-04	
280	-7.00000e-01	4.309130e-04	
281	-7.50000e-01	4.534544e-04	
282	-8.00000e-01	4.749420e-04	
283	-8.50000e-01	4.953837e-04	
284	-9.00000e-01	5.147876e-04	
285	-9.50000e-01	5.331615e-04	
286	-1.00000e+00	5.505135e-04	

Index   v-sweep         i(vds)          
--------------------------------------------------------------------------------
287	-1.05000e+00	5.668518e-04	
288	-1.10000e+00	5.821847e-04	
289	-1.15000e+00	5.965209e-04	
290	-1.20000e+00	6.098696e-04	
291	-1.25000e+00	6.222408e-04	
292	-1.30000e+00	6.336460e-04	
293	-1.35000e+00	6.440986e-04	
294	-1.40000e+00	6.536154e-04	
295	-1.45000e+00	6.622186e-04	
296	-1.50000e+00	6.699394e-04	
297	-1.55000e+00	6.768218e-04	
298	-1.60000e+00	6.829282e-04	
299	-1.65000e+00	6.883419e-04	
300	-1.70000e+00	6.931629e-04	
301	-1.75000e+00	6.974963e-04	
302	-1.80000e+00	7.014376e-04	
303	-1.85000e+00	7.050647e-04	
304	-1.90000e+00	7.084365e-04	
305	-1.95000e+00	7.115968e-04	
306	-2.00000e+00	7.145781e-04	
307	-2.05000e+00	7.174053e-04	
308	-2.10000e+00	7.200978e-04	
309	-2.15000e+00	7.226715e-04	
310	-2.20000e+00	7.251391e-04	
311	-2.25000e+00	7.275114e-04	
312	-2.30000e+00	7.297976e-04	
313	-2.35000e+00	7.320055e-04	
314	-2.40000e+00	7.341418e-04	
315	-2.45000e+00	7.362126e-04	
316	-2.50000e+00	7.382229e-04	
317	-2.55000e+00	7.401773e-04	
318	-2.60000e+00	7.420801e-04	
319	-2.65000e+00	7.439347e-04	
320	-2.70000e+00	7.457446e-04	
321	-2.75000e+00	7.475127e-04	
322	-2.80000e+00	7.492416e-04	
323	-2.85000e+00	7.509337e-04	
324	-2.90000e+00	7.525914e-04	
325	-2.95000e+00	7.542165e-04	
326	-3.00000e+00	7.558110e-04	
327	-3.05000e+00	7.573765e-04	
328	-3.10000e+00	7.589146e-04	
329	-3.15000e+00	7.604268e-04	
330	-3.20000e+00	7.619144e-04	
331	-3.25000e+00	7.633785e-04	
332	-3.30000e+00	7.648204e-04	
333	-3.35000e+00	7.662411e-04	
334	-3.40000e+00	7.676416e-04	
335	-3.45000e+00	7.690228e-04	
336	-3.50000e+00	7.703856e-04	
337	-3.55000e+00	7.717308e-04	
338	-3.60000e+00	7.730591e-04	
339	-3.65000e+00	7.743713e-04	
340	-3.70000e+00	7.756680e-04	
341	-3.75000e+00	7.769498e-04	
342	-3.80000e+00	7.782174e-04	
343	-3.85000e+00	7.794713e-04	
344	-3.90000e+00	7.807120e-04	

Index   v-sweep         i(vds)          
--------------------------------------------------------------------------------
345	-3.95000e+00	7.819399e-04	
346	-4.00000e+00	7.831557e-04	
347	-4.05000e+00	7.843597e-04	
348	-4.10000e+00	7.855524e-04	
349	-4.15000e+00	7.867341e-04	
350	-4.20000e+00	7.879053e-04	
351	-4.25000e+00	7.890663e-04	
352	-4.30000e+00	7.902174e-04	
353	-4.35000e+00	7.913591e-04	
354	-4.40000e+00	7.924916e-04	
355	-4.45000e+00	7.936153e-04	
356	-4.50000e+00	7.947305e-04	
357	-4.55000e+00	7.958375e-04	
358	-4.60000e+00	7.969366e-04	
359	-4.65000e+00	7.980281e-04	
360	-4.70000e+00	7.991124e-04	
361	-4.75000e+00	8.001897e-04	
362	-4.80000e+00	8.012605e-04	
363	-4.85000e+00	8.023251e-04	
364	-4.90000e+00	8.033838e-04	
365	-4.95000e+00	8.044371e-04	
366	-5.00000e+00	8.054855e-04	
367	-5.05000e+00	8.065293e-04	
368	-5.10000e+00	8.075691e-04	
369	-5.15000e+00	8.086054e-04	
370	-5.20000e+00	8.096390e-04	
371	-5.25000e+00	8.106704e-04	
372	-5.30000e+00	8.117005e-04	
373	-5.35000e+00	8.127300e-04	
374	-5.40000e+00	8.137598e-04	
375	-5.45000e+00	8.147910e-04	
376	-5.50000e+00	8.158246e-04	
377	-5.55000e+00	8.168620e-04	
378	-5.60000e+00	8.179043e-04	
379	-5.65000e+00	8.189531e-04	
380	-5.70000e+00	8.200100e-04	
381	-5.75000e+00	8.210767e-04	
382	-5.80000e+00	8.221551e-04	
383	-5.85000e+00	8.232473e-04	
384	-5.90000e+00	8.243555e-04	
385	-5.95000e+00	8.254821e-04	
386	-6.00000e+00	8.266299e-04	
387	-6.05000e+00	8.278014e-04	
388	-6.10000e+00	8.290000e-04	
389	-6.15000e+00	8.302287e-04	
390	-6.20000e+00	8.314911e-04	
391	-6.25000e+00	8.327909e-04	
392	-6.30000e+00	8.341321e-04	
393	-6.35000e+00	8.355190e-04	
394	-6.40000e+00	8.369560e-04	
395	-6.45000e+00	8.384480e-04	
396	-6.50000e+00	8.400000e-04	
397	-6.55000e+00	8.416174e-04	
398	-6.60000e+00	8.433059e-04	
399	0.000000e+00	0.000000e+00	
400	-5.00000e-02	4.987467e-05	
401	-1.00000e-01	9.853332e-05	
402	-1.50000e-01	1.460531e-04	

Index   v-sweep         i(vds)          
--------------------------------------------------------------------------------
403	-2.00000e-01	1.924580e-04	
404	-2.50000e-01	2.377592e-04	
405	-3.00000e-01	2.819654e-04	
406	-3.50000e-01	3.250843e-04	
407	-4.00000e-01	3.671233e-04	
408	-4.50000e-01	4.080899e-04	
409	-5.00000e-01	4.479913e-04	
410	-5.50000e-01	4.868349e-04	
411	-6.00000e-01	5.246279e-04	
412	-6.50000e-01	5.613773e-04	
413	-7.00000e-01	5.970904e-04	
414	-7.50000e-01	6.317740e-04	
415	-8.00000e-01	6.654351e-04	
416	-8.50000e-01	6.980808e-04	
417	-9.00000e-01	7.297177e-04	
418	-9.50000e-01	7.603528e-04	
419	-1.00000e+00	7.899927e-04	
420	-1.05000e+00	8.186442e-04	
421	-1.10000e+00	8.463139e-04	
422	-1.15000e+00	8.730085e-04	
423	-1.20000e+00	8.987346e-04	
424	-1.25000e+00	9.234987e-04	
425	-1.30000e+00	9.473074e-04	
426	-1.35000e+00	9.701672e-04	
427	-1.40000e+00	9.920846e-04	
428	-1.45000e+00	1.013066e-03	
429	-1.50000e+00	1.033119e-03	
430	-1.55000e+00	1.052249e-03	
431	-1.60000e+00	1.070463e-03	
432	-1.65000e+00	1.087768e-03	
433	-1.70000e+00	1.104172e-03	
434	-1.75000e+00	1.119683e-03	
435	-1.80000e+00	1.134307e-03	
436	-1.85000e+00	1.148056e-03	
437	-1.90000e+00	1.160938e-03	
438	-1.95000e+00	1.172966e-03	
439	-2.00000e+00	1.184156e-03	
440	-2.05000e+00	1.194527e-03	
441	-2.10000e+00	1.204104e-03	
442	-2.15000e+00	1.212922e-03	
443	-2.20000e+00	1.221026e-03	
444	-2.25000e+00	1.228470e-03	
445	-2.30000e+00	1.235320e-03	
446	-2.35000e+00	1.241646e-03	
447	-2.40000e+00	1.247514e-03	
448	-2.45000e+00	1.252987e-03	
449	-2.50000e+00	1.258117e-03	
450	-2.55000e+00	1.262949e-03	
451	-2.60000e+00	1.267519e-03	
452	-2.65000e+00	1.271859e-03	
453	-2.70000e+00	1.275995e-03	
454	-2.75000e+00	1.279947e-03	
455	-2.80000e+00	1.283735e-03	
456	-2.85000e+00	1.287374e-03	
457	-2.90000e+00	1.290878e-03	
458	-2.95000e+00	1.294259e-03	
459	-3.00000e+00	1.297528e-03	
460	-3.05000e+00	1.300693e-03	

Index   v-sweep         i(vds)          
--------------------------------------------------------------------------------
461	-3.10000e+00	1.303763e-03	
462	-3.15000e+00	1.306744e-03	
463	-3.20000e+00	1.309644e-03	
464	-3.25000e+00	1.312467e-03	
465	-3.30000e+00	1.315220e-03	
466	-3.35000e+00	1.317907e-03	
467	-3.40000e+00	1.320531e-03	
468	-3.45000e+00	1.323097e-03	
469	-3.50000e+00	1.325609e-03	
470	-3.55000e+00	1.328069e-03	
471	-3.60000e+00	1.330481e-03	
472	-3.65000e+00	1.332846e-03	
473	-3.70000e+00	1.335169e-03	
474	-3.75000e+00	1.337450e-03	
475	-3.80000e+00	1.339692e-03	
476	-3.85000e+00	1.341897e-03	
477	-3.90000e+00	1.344067e-03	
478	-3.95000e+00	1.346203e-03	
479	-4.00000e+00	1.348308e-03	
480	-4.05000e+00	1.350381e-03	
481	-4.10000e+00	1.352426e-03	
482	-4.15000e+00	1.354442e-03	
483	-4.20000e+00	1.356432e-03	
484	-4.25000e+00	1.358396e-03	
485	-4.30000e+00	1.360336e-03	
486	-4.35000e+00	1.362252e-03	
487	-4.40000e+00	1.364146e-03	
488	-4.45000e+00	1.366017e-03	
489	-4.50000e+00	1.367868e-03	
490	-4.55000e+00	1.369699e-03	
491	-4.60000e+00	1.371510e-03	
492	-4.65000e+00	1.373303e-03	
493	-4.70000e+00	1.375077e-03	
494	-4.75000e+00	1.376835e-03	
495	-4.80000e+00	1.378575e-03	
496	-4.85000e+00	1.380300e-03	
497	-4.90000e+00	1.382008e-03	
498	-4.95000e+00	1.383702e-03	
499	-5.00000e+00	1.385381e-03	
500	-5.05000e+00	1.387046e-03	
501	-5.10000e+00	1.388698e-03	
502	-5.15000e+00	1.390336e-03	
503	-5.20000e+00	1.391963e-03	
504	-5.25000e+00	1.393577e-03	
505	-5.30000e+00	1.395179e-03	
506	-5.35000e+00	1.396771e-03	
507	-5.40000e+00	1.398353e-03	
508	-5.45000e+00	1.399924e-03	
509	-5.50000e+00	1.401487e-03	
510	-5.55000e+00	1.403041e-03	
511	-5.60000e+00	1.404587e-03	
512	-5.65000e+00	1.406127e-03	
513	-5.70000e+00	1.407660e-03	
514	-5.75000e+00	1.409189e-03	
515	-5.80000e+00	1.410713e-03	
516	-5.85000e+00	1.412235e-03	
517	-5.90000e+00	1.413755e-03	
518	-5.95000e+00	1.415275e-03	

Index   v-sweep         i(vds)          
--------------------------------------------------------------------------------
519	-6.00000e+00	1.416796e-03	
520	-6.05000e+00	1.418321e-03	
521	-6.10000e+00	1.419851e-03	
522	-6.15000e+00	1.421387e-03	
523	-6.20000e+00	1.422934e-03	
524	-6.25000e+00	1.424492e-03	
525	-6.30000e+00	1.426066e-03	
526	-6.35000e+00	1.427657e-03	
527	-6.40000e+00	1.429269e-03	
528	-6.45000e+00	1.430907e-03	
529	-6.50000e+00	1.432572e-03	
530	-6.55000e+00	1.434271e-03	
531	-6.60000e+00	1.436007e-03	
532	0.000000e+00	0.000000e+00	
533	-5.00000e-02	5.982875e-05	
534	-1.00000e-01	1.184809e-04	
535	-1.50000e-01	1.760328e-04	
536	-2.00000e-01	2.325077e-04	
537	-2.50000e-01	2.879162e-04	
538	-3.00000e-01	3.422661e-04	
539	-3.50000e-01	3.955644e-04	
540	-4.00000e-01	4.478179e-04	
541	-4.50000e-01	4.990334e-04	
542	-5.00000e-01	5.492174e-04	
543	-5.50000e-01	5.983766e-04	
544	-6.00000e-01	6.465174e-04	
545	-6.50000e-01	6.936465e-04	
546	-7.00000e-01	7.397701e-04	
547	-7.50000e-01	7.848947e-04	
548	-8.00000e-01	8.290267e-04	
549	-8.50000e-01	8.721721e-04	
550	-9.00000e-01	9.143374e-04	
551	-9.50000e-01	9.555286e-04	
552	-1.00000e+00	9.957520e-04	
553	-1.05000e+00	1.035013e-03	
554	-1.10000e+00	1.073319e-03	
555	-1.15000e+00	1.110675e-03	
556	-1.20000e+00	1.147087e-03	
557	-1.25000e+00	1.182561e-03	
558	-1.30000e+00	1.217102e-03	
559	-1.35000e+00	1.250718e-03	
560	-1.40000e+00	1.283412e-03	
561	-1.45000e+00	1.315192e-03	
562	-1.50000e+00	1.346063e-03	
563	-1.55000e+00	1.376030e-03	
564	-1.60000e+00	1.405100e-03	
565	-1.65000e+00	1.433277e-03	
566	-1.70000e+00	1.460567e-03	
567	-1.75000e+00	1.486976e-03	
568	-1.80000e+00	1.512510e-03	
569	-1.85000e+00	1.537174e-03	
570	-1.90000e+00	1.560973e-03	
571	-1.95000e+00	1.583913e-03	
572	-2.00000e+00	1.606000e-03	
573	-2.05000e+00	1.627239e-03	
574	-2.10000e+00	1.647637e-03	
575	-2.15000e+00	1.667198e-03	
576	-2.20000e+00	1.685929e-03	

Index   v-sweep         i(vds)          
--------------------------------------------------------------------------------
577	-2.25000e+00	1.703836e-03	
578	-2.30000e+00	1.720926e-03	
579	-2.35000e+00	1.737206e-03	
580	-2.40000e+00	1.752683e-03	
581	-2.45000e+00	1.767366e-03	
582	-2.50000e+00	1.781265e-03	
583	-2.55000e+00	1.794390e-03	
584	-2.60000e+00	1.806757e-03	
585	-2.65000e+00	1.818382e-03	
586	-2.70000e+00	1.829288e-03	
587	-2.75000e+00	1.839501e-03	
588	-2.80000e+00	1.849055e-03	
589	-2.85000e+00	1.857991e-03	
590	-2.90000e+00	1.866353e-03	
591	-2.95000e+00	1.874190e-03	
592	-3.00000e+00	1.881552e-03	
593	-3.05000e+00	1.888486e-03	
594	-3.10000e+00	1.895036e-03	
595	-3.15000e+00	1.901242e-03	
596	-3.20000e+00	1.907138e-03	
597	-3.25000e+00	1.912758e-03	
598	-3.30000e+00	1.918127e-03	
599	-3.35000e+00	1.923271e-03	
600	-3.40000e+00	1.928209e-03	
601	-3.45000e+00	1.932961e-03	
602	-3.50000e+00	1.937543e-03	
603	-3.55000e+00	1.941968e-03	
604	-3.60000e+00	1.946249e-03	
605	-3.65000e+00	1.950398e-03	
606	-3.70000e+00	1.954424e-03	
607	-3.75000e+00	1.958337e-03	
608	-3.80000e+00	1.962144e-03	
609	-3.85000e+00	1.965853e-03	
610	-3.90000e+00	1.969470e-03	
611	-3.95000e+00	1.973001e-03	
612	-4.00000e+00	1.976451e-03	
613	-4.05000e+00	1.979825e-03	
614	-4.10000e+00	1.983128e-03	
615	-4.15000e+00	1.986364e-03	
616	-4.20000e+00	1.989536e-03	
617	-4.25000e+00	1.992649e-03	
618	-4.30000e+00	1.995704e-03	
619	-4.35000e+00	1.998705e-03	
620	-4.40000e+00	2.001655e-03	
621	-4.45000e+00	2.004557e-03	
622	-4.50000e+00	2.007412e-03	
623	-4.55000e+00	2.010222e-03	
624	-4.60000e+00	2.012991e-03	
625	-4.65000e+00	2.015719e-03	
626	-4.70000e+00	2.018409e-03	
627	-4.75000e+00	2.021062e-03	
628	-4.80000e+00	2.023679e-03	
629	-4.85000e+00	2.026263e-03	
630	-4.90000e+00	2.028814e-03	
631	-4.95000e+00	2.031334e-03	
632	-5.00000e+00	2.033824e-03	
633	-5.05000e+00	2.036285e-03	
634	-5.10000e+00	2.038719e-03	

Index   v-sweep         i(vds)          
--------------------------------------------------------------------------------
635	-5.15000e+00	2.041126e-03	
636	-5.20000e+00	2.043507e-03	
637	-5.25000e+00	2.045863e-03	
638	-5.30000e+00	2.048195e-03	
639	-5.35000e+00	2.050505e-03	
640	-5.40000e+00	2.052792e-03	
641	-5.45000e+00	2.055057e-03	
642	-5.50000e+00	2.057302e-03	
643	-5.55000e+00	2.059527e-03	
644	-5.60000e+00	2.061733e-03	
645	-5.65000e+00	2.063920e-03	
646	-5.70000e+00	2.066089e-03	
647	-5.75000e+00	2.068241e-03	
648	-5.80000e+00	2.070377e-03	
649	-5.85000e+00	2.072496e-03	
650	-5.90000e+00	2.074601e-03	
651	-5.95000e+00	2.076692e-03	
652	-6.00000e+00	2.078769e-03	
653	-6.05000e+00	2.080834e-03	
654	-6.10000e+00	2.082887e-03	
655	-6.15000e+00	2.084930e-03	
656	-6.20000e+00	2.086963e-03	
657	-6.25000e+00	2.088988e-03	
658	-6.30000e+00	2.091007e-03	
659	-6.35000e+00	2.093020e-03	
660	-6.40000e+00	2.095030e-03	
661	-6.45000e+00	2.097038e-03	
662	-6.50000e+00	2.099046e-03	
663	-6.55000e+00	2.101057e-03	
664	-6.60000e+00	2.103073e-03	
665	0.000000e+00	0.000000e+00	
666	-5.00000e-02	6.863574e-05	
667	-1.00000e-01	1.361279e-04	
668	-1.50000e-01	2.025524e-04	
669	-2.00000e-01	2.679318e-04	
670	-2.50000e-01	3.322761e-04	
671	-3.00000e-01	3.955927e-04	
672	-3.50000e-01	4.578879e-04	
673	-4.00000e-01	5.191681e-04	
674	-4.50000e-01	5.794394e-04	
675	-5.00000e-01	6.387080e-04	
676	-5.50000e-01	6.969799e-04	
677	-6.00000e-01	7.542611e-04	
678	-6.50000e-01	8.105576e-04	
679	-7.00000e-01	8.658754e-04	
680	-7.50000e-01	9.202203e-04	
681	-8.00000e-01	9.735982e-04	
682	-8.50000e-01	1.026015e-03	
683	-9.00000e-01	1.077476e-03	
684	-9.50000e-01	1.127987e-03	
685	-1.00000e+00	1.177554e-03	
686	-1.05000e+00	1.226183e-03	
687	-1.10000e+00	1.273879e-03	
688	-1.15000e+00	1.320647e-03	
689	-1.20000e+00	1.366493e-03	
690	-1.25000e+00	1.411423e-03	
691	-1.30000e+00	1.455441e-03	
692	-1.35000e+00	1.498554e-03	

Index   v-sweep         i(vds)          
--------------------------------------------------------------------------------
693	-1.40000e+00	1.540767e-03	
694	-1.45000e+00	1.582084e-03	
695	-1.50000e+00	1.622511e-03	
696	-1.55000e+00	1.662054e-03	
697	-1.60000e+00	1.700717e-03	
698	-1.65000e+00	1.738505e-03	
699	-1.70000e+00	1.775425e-03	
700	-1.75000e+00	1.811480e-03	
701	-1.80000e+00	1.846676e-03	
702	-1.85000e+00	1.881017e-03	
703	-1.90000e+00	1.914510e-03	
704	-1.95000e+00	1.947158e-03	
705	-2.00000e+00	1.978967e-03	
706	-2.05000e+00	2.009941e-03	
707	-2.10000e+00	2.040086e-03	
708	-2.15000e+00	2.069406e-03	
709	-2.20000e+00	2.097906e-03	
710	-2.25000e+00	2.125591e-03	
711	-2.30000e+00	2.152465e-03	
712	-2.35000e+00	2.178535e-03	
713	-2.40000e+00	2.203803e-03	
714	-2.45000e+00	2.228276e-03	
715	-2.50000e+00	2.251958e-03	
716	-2.55000e+00	2.274853e-03	
717	-2.60000e+00	2.296968e-03	
718	-2.65000e+00	2.318306e-03	
719	-2.70000e+00	2.338874e-03	
720	-2.75000e+00	2.358675e-03	
721	-2.80000e+00	2.377716e-03	
722	-2.85000e+00	2.396003e-03	
723	-2.90000e+00	2.413540e-03	
724	-2.95000e+00	2.430335e-03	
725	-3.00000e+00	2.446395e-03	
726	-3.05000e+00	2.461726e-03	
727	-3.10000e+00	2.476338e-03	
728	-3.15000e+00	2.490239e-03	
729	-3.20000e+00	2.503442e-03	
730	-3.25000e+00	2.515960e-03	
731	-3.30000e+00	2.527810e-03	
732	-3.35000e+00	2.539012e-03	
733	-3.40000e+00	2.549591e-03	
734	-3.45000e+00	2.559578e-03	
735	-3.50000e+00	2.569008e-03	
736	-3.55000e+00	2.577920e-03	
737	-3.60000e+00	2.586356e-03	
738	-3.65000e+00	2.594355e-03	
739	-3.70000e+00	2.601957e-03	
740	-3.75000e+00	2.609197e-03	
741	-3.80000e+00	2.616109e-03	
742	-3.85000e+00	2.622723e-03	
743	-3.90000e+00	2.629065e-03	
744	-3.95000e+00	2.635160e-03	
745	-4.00000e+00	2.641029e-03	
746	-4.05000e+00	2.646690e-03	
747	-4.10000e+00	2.652160e-03	
748	-4.15000e+00	2.657454e-03	
749	-4.20000e+00	2.662586e-03	
750	-4.25000e+00	2.667568e-03	

Index   v-sweep         i(vds)          
--------------------------------------------------------------------------------
751	-4.30000e+00	2.672410e-03	
752	-4.35000e+00	2.677121e-03	
753	-4.40000e+00	2.681712e-03	
754	-4.45000e+00	2.686189e-03	
755	-4.50000e+00	2.690560e-03	
756	-4.55000e+00	2.694831e-03	
757	-4.60000e+00	2.699009e-03	
758	-4.65000e+00	2.703098e-03	
759	-4.70000e+00	2.707104e-03	
760	-4.75000e+00	2.711031e-03	
761	-4.80000e+00	2.714884e-03	
762	-4.85000e+00	2.718667e-03	
763	-4.90000e+00	2.722382e-03	
764	-4.95000e+00	2.726034e-03	
765	-5.00000e+00	2.729625e-03	
766	-5.05000e+00	2.733159e-03	
767	-5.10000e+00	2.736638e-03	
768	-5.15000e+00	2.740065e-03	
769	-5.20000e+00	2.743442e-03	
770	-5.25000e+00	2.746770e-03	
771	-5.30000e+00	2.750053e-03	
772	-5.35000e+00	2.753292e-03	
773	-5.40000e+00	2.756490e-03	
774	-5.45000e+00	2.759646e-03	
775	-5.50000e+00	2.762764e-03	
776	-5.55000e+00	2.765845e-03	
777	-5.60000e+00	2.768889e-03	
778	-5.65000e+00	2.771900e-03	
779	-5.70000e+00	2.774877e-03	
780	-5.75000e+00	2.777822e-03	
781	-5.80000e+00	2.780736e-03	
782	-5.85000e+00	2.783621e-03	
783	-5.90000e+00	2.786476e-03	
784	-5.95000e+00	2.789305e-03	
785	-6.00000e+00	2.792106e-03	
786	-6.05000e+00	2.794882e-03	
787	-6.10000e+00	2.797632e-03	
788	-6.15000e+00	2.800359e-03	
789	-6.20000e+00	2.803063e-03	
790	-6.25000e+00	2.805744e-03	
791	-6.30000e+00	2.808405e-03	
792	-6.35000e+00	2.811045e-03	
793	-6.40000e+00	2.813665e-03	
794	-6.45000e+00	2.816267e-03	
795	-6.50000e+00	2.818852e-03	
796	-6.55000e+00	2.821421e-03	
797	-6.60000e+00	2.823974e-03	
Note: No ".plot", ".print", or ".fourier" lines; no simulations run
