
Note: Compatibility modes selected: hs

Warning: m=xx on .subckt line will override multiplier m hierarchy!


Circuit: ***************************

Doing analysis at TEMP = -40.000000 and TNOM = -40.000000


No. of Data Rows : 798
                          ***************************
                          DC transfer characteristic  Mon Jan  9 13:57:53  2023
--------------------------------------------------------------------------------
Index   v-sweep         i(vds)          
--------------------------------------------------------------------------------
0	0.000000e+00	0.000000e+00	
1	-5.00000e-02	2.956286e-07	
2	-1.00000e-01	4.268198e-07	
3	-1.50000e-01	4.666674e-07	
4	-2.00000e-01	4.829121e-07	
5	-2.50000e-01	4.942980e-07	
6	-3.00000e-01	5.041222e-07	
7	-3.50000e-01	5.131737e-07	
8	-4.00000e-01	5.217324e-07	
9	-4.50000e-01	5.299322e-07	
10	-5.00000e-01	5.378515e-07	
11	-5.50000e-01	5.455425e-07	
12	-6.00000e-01	5.530432e-07	
13	-6.50000e-01	5.603825e-07	
14	-7.00000e-01	5.675833e-07	
15	-7.50000e-01	5.746641e-07	
16	-8.00000e-01	5.816404e-07	
17	-8.50000e-01	5.885252e-07	
18	-9.00000e-01	5.953293e-07	
19	-9.50000e-01	6.020624e-07	
20	-1.00000e+00	6.087325e-07	
21	-1.05000e+00	6.153467e-07	
22	-1.10000e+00	6.219114e-07	
23	-1.15000e+00	6.284321e-07	
24	-1.20000e+00	6.349136e-07	
25	-1.25000e+00	6.413604e-07	
26	-1.30000e+00	6.477764e-07	
27	-1.35000e+00	6.541650e-07	
28	-1.40000e+00	6.605295e-07	
29	-1.45000e+00	6.668728e-07	
30	-1.50000e+00	6.731974e-07	
31	-1.55000e+00	6.795057e-07	
32	-1.60000e+00	6.857999e-07	
33	-1.65000e+00	6.920821e-07	
34	-1.70000e+00	6.983540e-07	
35	-1.75000e+00	7.046172e-07	
36	-1.80000e+00	7.108735e-07	
37	-1.85000e+00	7.171241e-07	
38	-1.90000e+00	7.233705e-07	
39	-1.95000e+00	7.296138e-07	
40	-2.00000e+00	7.358552e-07	
41	-2.05000e+00	7.420958e-07	
42	-2.10000e+00	7.483365e-07	
43	-2.15000e+00	7.545784e-07	
44	-2.20000e+00	7.608221e-07	
45	-2.25000e+00	7.670687e-07	
46	-2.30000e+00	7.733188e-07	
47	-2.35000e+00	7.795731e-07	
48	-2.40000e+00	7.858324e-07	
49	-2.45000e+00	7.920972e-07	
50	-2.50000e+00	7.983682e-07	
51	-2.55000e+00	8.046459e-07	
52	-2.60000e+00	8.109308e-07	
53	-2.65000e+00	8.172236e-07	
54	-2.70000e+00	8.235246e-07	

Index   v-sweep         i(vds)          
--------------------------------------------------------------------------------
55	-2.75000e+00	8.298343e-07	
56	-2.80000e+00	8.361533e-07	
57	-2.85000e+00	8.424818e-07	
58	-2.90000e+00	8.488203e-07	
59	-2.95000e+00	8.551692e-07	
60	-3.00000e+00	8.615290e-07	
61	-3.05000e+00	8.679000e-07	
62	-3.10000e+00	8.742825e-07	
63	-3.15000e+00	8.806771e-07	
64	-3.20000e+00	8.870840e-07	
65	-3.25000e+00	8.935038e-07	
66	-3.30000e+00	8.999368e-07	
67	-3.35000e+00	9.063834e-07	
68	-3.40000e+00	9.128443e-07	
69	-3.45000e+00	9.193198e-07	
70	-3.50000e+00	9.258105e-07	
71	-3.55000e+00	9.323172e-07	
72	-3.60000e+00	9.388403e-07	
73	-3.65000e+00	9.453807e-07	
74	-3.70000e+00	9.519391e-07	
75	-3.75000e+00	9.585165e-07	
76	-3.80000e+00	9.651138e-07	
77	-3.85000e+00	9.717322e-07	
78	-3.90000e+00	9.783729e-07	
79	-3.95000e+00	9.850372e-07	
80	-4.00000e+00	9.917266e-07	
81	-4.05000e+00	9.984429e-07	
82	-4.10000e+00	1.005188e-06	
83	-4.15000e+00	1.011963e-06	
84	-4.20000e+00	1.018772e-06	
85	-4.25000e+00	1.025616e-06	
86	-4.30000e+00	1.032498e-06	
87	-4.35000e+00	1.039420e-06	
88	-4.40000e+00	1.046388e-06	
89	-4.45000e+00	1.053403e-06	
90	-4.50000e+00	1.060469e-06	
91	-4.55000e+00	1.067591e-06	
92	-4.60000e+00	1.074774e-06	
93	-4.65000e+00	1.082022e-06	
94	-4.70000e+00	1.089340e-06	
95	-4.75000e+00	1.096734e-06	
96	-4.80000e+00	1.104210e-06	
97	-4.85000e+00	1.111775e-06	
98	-4.90000e+00	1.119436e-06	
99	-4.95000e+00	1.127200e-06	
100	-5.00000e+00	1.135075e-06	
101	-5.05000e+00	1.143070e-06	
102	-5.10000e+00	1.151193e-06	
103	-5.15000e+00	1.159455e-06	
104	-5.20000e+00	1.167866e-06	
105	-5.25000e+00	1.176436e-06	
106	-5.30000e+00	1.185177e-06	
107	-5.35000e+00	1.194101e-06	
108	-5.40000e+00	1.203221e-06	
109	-5.45000e+00	1.212550e-06	
110	-5.50000e+00	1.222103e-06	
111	-5.55000e+00	1.231894e-06	
112	-5.60000e+00	1.241939e-06	

Index   v-sweep         i(vds)          
--------------------------------------------------------------------------------
113	-5.65000e+00	1.252254e-06	
114	-5.70000e+00	1.262856e-06	
115	-5.75000e+00	1.273764e-06	
116	-5.80000e+00	1.284996e-06	
117	-5.85000e+00	1.296571e-06	
118	-5.90000e+00	1.308510e-06	
119	-5.95000e+00	1.320835e-06	
120	-6.00000e+00	1.333567e-06	
121	-6.05000e+00	1.346729e-06	
122	-6.10000e+00	1.360346e-06	
123	-6.15000e+00	1.374441e-06	
124	-6.20000e+00	1.389042e-06	
125	-6.25000e+00	1.404173e-06	
126	-6.30000e+00	1.419864e-06	
127	-6.35000e+00	1.436142e-06	
128	-6.40000e+00	1.453037e-06	
129	-6.45000e+00	1.470579e-06	
130	-6.50000e+00	1.488800e-06	
131	-6.55000e+00	1.507733e-06	
132	-6.60000e+00	1.527410e-06	
133	0.000000e+00	0.000000e+00	
134	-5.00000e-02	3.746921e-06	
135	-1.00000e-01	7.222937e-06	
136	-1.50000e-01	1.043500e-05	
137	-2.00000e-01	1.338983e-05	
138	-2.50000e-01	1.609398e-05	
139	-3.00000e-01	1.855380e-05	
140	-3.50000e-01	2.077552e-05	
141	-4.00000e-01	2.276527e-05	
142	-4.50000e-01	2.452921e-05	
143	-5.00000e-01	2.607367e-05	
144	-5.50000e-01	2.740555e-05	
145	-6.00000e-01	2.853304e-05	
146	-6.50000e-01	2.946715e-05	
147	-7.00000e-01	3.022448e-05	
148	-7.50000e-01	3.083027e-05	
149	-8.00000e-01	3.131763e-05	
150	-8.50000e-01	3.172005e-05	
151	-9.00000e-01	3.206348e-05	
152	-9.50000e-01	3.236503e-05	
153	-1.00000e+00	3.263542e-05	
154	-1.05000e+00	3.288163e-05	
155	-1.10000e+00	3.310841e-05	
156	-1.15000e+00	3.331916e-05	
157	-1.20000e+00	3.351644e-05	
158	-1.25000e+00	3.370221e-05	
159	-1.30000e+00	3.387803e-05	
160	-1.35000e+00	3.404515e-05	
161	-1.40000e+00	3.420460e-05	
162	-1.45000e+00	3.435723e-05	
163	-1.50000e+00	3.450378e-05	
164	-1.55000e+00	3.464483e-05	
165	-1.60000e+00	3.478093e-05	
166	-1.65000e+00	3.491251e-05	
167	-1.70000e+00	3.503998e-05	
168	-1.75000e+00	3.516367e-05	
169	-1.80000e+00	3.528389e-05	
170	-1.85000e+00	3.540091e-05	

Index   v-sweep         i(vds)          
--------------------------------------------------------------------------------
171	-1.90000e+00	3.551497e-05	
172	-1.95000e+00	3.562628e-05	
173	-2.00000e+00	3.573502e-05	
174	-2.05000e+00	3.584138e-05	
175	-2.10000e+00	3.594551e-05	
176	-2.15000e+00	3.604754e-05	
177	-2.20000e+00	3.614762e-05	
178	-2.25000e+00	3.624584e-05	
179	-2.30000e+00	3.634233e-05	
180	-2.35000e+00	3.643717e-05	
181	-2.40000e+00	3.653047e-05	
182	-2.45000e+00	3.662230e-05	
183	-2.50000e+00	3.671273e-05	
184	-2.55000e+00	3.680185e-05	
185	-2.60000e+00	3.688971e-05	
186	-2.65000e+00	3.697638e-05	
187	-2.70000e+00	3.706191e-05	
188	-2.75000e+00	3.714636e-05	
189	-2.80000e+00	3.722977e-05	
190	-2.85000e+00	3.731219e-05	
191	-2.90000e+00	3.739368e-05	
192	-2.95000e+00	3.747425e-05	
193	-3.00000e+00	3.755396e-05	
194	-3.05000e+00	3.763284e-05	
195	-3.10000e+00	3.771093e-05	
196	-3.15000e+00	3.778825e-05	
197	-3.20000e+00	3.786483e-05	
198	-3.25000e+00	3.794071e-05	
199	-3.30000e+00	3.801591e-05	
200	-3.35000e+00	3.809046e-05	
201	-3.40000e+00	3.816438e-05	
202	-3.45000e+00	3.823770e-05	
203	-3.50000e+00	3.831043e-05	
204	-3.55000e+00	3.838260e-05	
205	-3.60000e+00	3.845423e-05	
206	-3.65000e+00	3.852534e-05	
207	-3.70000e+00	3.859595e-05	
208	-3.75000e+00	3.866608e-05	
209	-3.80000e+00	3.873575e-05	
210	-3.85000e+00	3.880499e-05	
211	-3.90000e+00	3.887380e-05	
212	-3.95000e+00	3.894222e-05	
213	-4.00000e+00	3.901025e-05	
214	-4.05000e+00	3.907794e-05	
215	-4.10000e+00	3.914529e-05	
216	-4.15000e+00	3.921233e-05	
217	-4.20000e+00	3.927910e-05	
218	-4.25000e+00	3.934562e-05	
219	-4.30000e+00	3.941191e-05	
220	-4.35000e+00	3.947802e-05	
221	-4.40000e+00	3.954399e-05	
222	-4.45000e+00	3.960984e-05	
223	-4.50000e+00	3.967564e-05	
224	-4.55000e+00	3.974141e-05	
225	-4.60000e+00	3.980723e-05	
226	-4.65000e+00	3.987313e-05	
227	-4.70000e+00	3.993920e-05	
228	-4.75000e+00	4.000549e-05	

Index   v-sweep         i(vds)          
--------------------------------------------------------------------------------
229	-4.80000e+00	4.007209e-05	
230	-4.85000e+00	4.013907e-05	
231	-4.90000e+00	4.020652e-05	
232	-4.95000e+00	4.027454e-05	
233	-5.00000e+00	4.034324e-05	
234	-5.05000e+00	4.041273e-05	
235	-5.10000e+00	4.048313e-05	
236	-5.15000e+00	4.055457e-05	
237	-5.20000e+00	4.062720e-05	
238	-5.25000e+00	4.070116e-05	
239	-5.30000e+00	4.077663e-05	
240	-5.35000e+00	4.085377e-05	
241	-5.40000e+00	4.093278e-05	
242	-5.45000e+00	4.101385e-05	
243	-5.50000e+00	4.109720e-05	
244	-5.55000e+00	4.118305e-05	
245	-5.60000e+00	4.127163e-05	
246	-5.65000e+00	4.136321e-05	
247	-5.70000e+00	4.145805e-05	
248	-5.75000e+00	4.155643e-05	
249	-5.80000e+00	4.165864e-05	
250	-5.85000e+00	4.176501e-05	
251	-5.90000e+00	4.187585e-05	
252	-5.95000e+00	4.199152e-05	
253	-6.00000e+00	4.211237e-05	
254	-6.05000e+00	4.223878e-05	
255	-6.10000e+00	4.237114e-05	
256	-6.15000e+00	4.250987e-05	
257	-6.20000e+00	4.265540e-05	
258	-6.25000e+00	4.280816e-05	
259	-6.30000e+00	4.296863e-05	
260	-6.35000e+00	4.313728e-05	
261	-6.40000e+00	4.331462e-05	
262	-6.45000e+00	4.350116e-05	
263	-6.50000e+00	4.369744e-05	
264	-6.55000e+00	4.390402e-05	
265	-6.60000e+00	4.412146e-05	
266	0.000000e+00	0.000000e+00	
267	-5.00000e-02	6.236141e-06	
268	-1.00000e-01	1.220143e-05	
269	-1.50000e-01	1.790175e-05	
270	-2.00000e-01	2.334280e-05	
271	-2.50000e-01	2.853014e-05	
272	-3.00000e-01	3.346915e-05	
273	-3.50000e-01	3.816507e-05	
274	-4.00000e-01	4.262302e-05	
275	-4.50000e-01	4.684794e-05	
276	-5.00000e-01	5.084467e-05	
277	-5.50000e-01	5.461792e-05	
278	-6.00000e-01	5.817227e-05	
279	-6.50000e-01	6.151219e-05	
280	-7.00000e-01	6.464207e-05	
281	-7.50000e-01	6.756618e-05	
282	-8.00000e-01	7.028871e-05	
283	-8.50000e-01	7.281382e-05	
284	-9.00000e-01	7.514562e-05	
285	-9.50000e-01	7.728823e-05	
286	-1.00000e+00	7.924588e-05	

Index   v-sweep         i(vds)          
--------------------------------------------------------------------------------
287	-1.05000e+00	8.102304e-05	
288	-1.10000e+00	8.262463e-05	
289	-1.15000e+00	8.405655e-05	
290	-1.20000e+00	8.532636e-05	
291	-1.25000e+00	8.644439e-05	
292	-1.30000e+00	8.742455e-05	
293	-1.35000e+00	8.828412e-05	
294	-1.40000e+00	8.904185e-05	
295	-1.45000e+00	8.971560e-05	
296	-1.50000e+00	9.032067e-05	
297	-1.55000e+00	9.086946e-05	
298	-1.60000e+00	9.137177e-05	
299	-1.65000e+00	9.183525e-05	
300	-1.70000e+00	9.226592e-05	
301	-1.75000e+00	9.266857e-05	
302	-1.80000e+00	9.304705e-05	
303	-1.85000e+00	9.340448e-05	
304	-1.90000e+00	9.374342e-05	
305	-1.95000e+00	9.406602e-05	
306	-2.00000e+00	9.437406e-05	
307	-2.05000e+00	9.466906e-05	
308	-2.10000e+00	9.495231e-05	
309	-2.15000e+00	9.522492e-05	
310	-2.20000e+00	9.548785e-05	
311	-2.25000e+00	9.574194e-05	
312	-2.30000e+00	9.598794e-05	
313	-2.35000e+00	9.622648e-05	
314	-2.40000e+00	9.645814e-05	
315	-2.45000e+00	9.668343e-05	
316	-2.50000e+00	9.690281e-05	
317	-2.55000e+00	9.711668e-05	
318	-2.60000e+00	9.732542e-05	
319	-2.65000e+00	9.752936e-05	
320	-2.70000e+00	9.772880e-05	
321	-2.75000e+00	9.792402e-05	
322	-2.80000e+00	9.811526e-05	
323	-2.85000e+00	9.830276e-05	
324	-2.90000e+00	9.848672e-05	
325	-2.95000e+00	9.866734e-05	
326	-3.00000e+00	9.884480e-05	
327	-3.05000e+00	9.901926e-05	
328	-3.10000e+00	9.919088e-05	
329	-3.15000e+00	9.935978e-05	
330	-3.20000e+00	9.952611e-05	
331	-3.25000e+00	9.968999e-05	
332	-3.30000e+00	9.985153e-05	
333	-3.35000e+00	1.000108e-04	
334	-3.40000e+00	1.001680e-04	
335	-3.45000e+00	1.003231e-04	
336	-3.50000e+00	1.004763e-04	
337	-3.55000e+00	1.006276e-04	
338	-3.60000e+00	1.007771e-04	
339	-3.65000e+00	1.009248e-04	
340	-3.70000e+00	1.010709e-04	
341	-3.75000e+00	1.012154e-04	
342	-3.80000e+00	1.013584e-04	
343	-3.85000e+00	1.014999e-04	
344	-3.90000e+00	1.016400e-04	

Index   v-sweep         i(vds)          
--------------------------------------------------------------------------------
345	-3.95000e+00	1.017787e-04	
346	-4.00000e+00	1.019161e-04	
347	-4.05000e+00	1.020523e-04	
348	-4.10000e+00	1.021872e-04	
349	-4.15000e+00	1.023209e-04	
350	-4.20000e+00	1.024536e-04	
351	-4.25000e+00	1.025851e-04	
352	-4.30000e+00	1.027156e-04	
353	-4.35000e+00	1.028451e-04	
354	-4.40000e+00	1.029737e-04	
355	-4.45000e+00	1.031013e-04	
356	-4.50000e+00	1.032282e-04	
357	-4.55000e+00	1.033542e-04	
358	-4.60000e+00	1.034795e-04	
359	-4.65000e+00	1.036041e-04	
360	-4.70000e+00	1.037280e-04	
361	-4.75000e+00	1.038515e-04	
362	-4.80000e+00	1.039744e-04	
363	-4.85000e+00	1.040970e-04	
364	-4.90000e+00	1.042192e-04	
365	-4.95000e+00	1.043413e-04	
366	-5.00000e+00	1.044632e-04	
367	-5.05000e+00	1.045852e-04	
368	-5.10000e+00	1.047073e-04	
369	-5.15000e+00	1.048297e-04	
370	-5.20000e+00	1.049525e-04	
371	-5.25000e+00	1.050760e-04	
372	-5.30000e+00	1.052002e-04	
373	-5.35000e+00	1.053254e-04	
374	-5.40000e+00	1.054519e-04	
375	-5.45000e+00	1.055798e-04	
376	-5.50000e+00	1.057095e-04	
377	-5.55000e+00	1.058411e-04	
378	-5.60000e+00	1.059750e-04	
379	-5.65000e+00	1.061116e-04	
380	-5.70000e+00	1.062512e-04	
381	-5.75000e+00	1.063941e-04	
382	-5.80000e+00	1.065409e-04	
383	-5.85000e+00	1.066918e-04	
384	-5.90000e+00	1.068474e-04	
385	-5.95000e+00	1.070082e-04	
386	-6.00000e+00	1.071747e-04	
387	-6.05000e+00	1.073475e-04	
388	-6.10000e+00	1.075272e-04	
389	-6.15000e+00	1.077143e-04	
390	-6.20000e+00	1.079097e-04	
391	-6.25000e+00	1.081139e-04	
392	-6.30000e+00	1.083277e-04	
393	-6.35000e+00	1.085520e-04	
394	-6.40000e+00	1.087874e-04	
395	-6.45000e+00	1.090349e-04	
396	-6.50000e+00	1.092955e-04	
397	-6.55000e+00	1.095699e-04	
398	-6.60000e+00	1.098593e-04	
399	0.000000e+00	0.000000e+00	
400	-5.00000e-02	8.119814e-06	
401	-1.00000e-01	1.597767e-05	
402	-1.50000e-01	2.357853e-05	

Index   v-sweep         i(vds)          
--------------------------------------------------------------------------------
403	-2.00000e-01	3.092722e-05	
404	-2.50000e-01	3.802846e-05	
405	-3.00000e-01	4.488686e-05	
406	-3.50000e-01	5.150688e-05	
407	-4.00000e-01	5.789292e-05	
408	-4.50000e-01	6.404924e-05	
409	-5.00000e-01	6.998001e-05	
410	-5.50000e-01	7.568930e-05	
411	-6.00000e-01	8.118107e-05	
412	-6.50000e-01	8.645920e-05	
413	-7.00000e-01	9.152748e-05	
414	-7.50000e-01	9.638960e-05	
415	-8.00000e-01	1.010492e-04	
416	-8.50000e-01	1.055098e-04	
417	-9.00000e-01	1.097748e-04	
418	-9.50000e-01	1.138476e-04	
419	-1.00000e+00	1.177316e-04	
420	-1.05000e+00	1.214299e-04	
421	-1.10000e+00	1.249456e-04	
422	-1.15000e+00	1.282820e-04	
423	-1.20000e+00	1.314420e-04	
424	-1.25000e+00	1.344285e-04	
425	-1.30000e+00	1.372444e-04	
426	-1.35000e+00	1.398926e-04	
427	-1.40000e+00	1.423757e-04	
428	-1.45000e+00	1.446963e-04	
429	-1.50000e+00	1.468570e-04	
430	-1.55000e+00	1.488600e-04	
431	-1.60000e+00	1.507076e-04	
432	-1.65000e+00	1.524022e-04	
433	-1.70000e+00	1.539466e-04	
434	-1.75000e+00	1.553457e-04	
435	-1.80000e+00	1.566069e-04	
436	-1.85000e+00	1.577415e-04	
437	-1.90000e+00	1.587633e-04	
438	-1.95000e+00	1.596870e-04	
439	-2.00000e+00	1.605269e-04	
440	-2.05000e+00	1.612956e-04	
441	-2.10000e+00	1.620038e-04	
442	-2.15000e+00	1.626603e-04	
443	-2.20000e+00	1.632724e-04	
444	-2.25000e+00	1.638462e-04	
445	-2.30000e+00	1.643865e-04	
446	-2.35000e+00	1.648975e-04	
447	-2.40000e+00	1.653826e-04	
448	-2.45000e+00	1.658446e-04	
449	-2.50000e+00	1.662860e-04	
450	-2.55000e+00	1.667090e-04	
451	-2.60000e+00	1.671152e-04	
452	-2.65000e+00	1.675062e-04	
453	-2.70000e+00	1.678834e-04	
454	-2.75000e+00	1.682479e-04	
455	-2.80000e+00	1.686008e-04	
456	-2.85000e+00	1.689429e-04	
457	-2.90000e+00	1.692752e-04	
458	-2.95000e+00	1.695983e-04	
459	-3.00000e+00	1.699129e-04	
460	-3.05000e+00	1.702195e-04	

Index   v-sweep         i(vds)          
--------------------------------------------------------------------------------
461	-3.10000e+00	1.705187e-04	
462	-3.15000e+00	1.708110e-04	
463	-3.20000e+00	1.710968e-04	
464	-3.25000e+00	1.713764e-04	
465	-3.30000e+00	1.716503e-04	
466	-3.35000e+00	1.719188e-04	
467	-3.40000e+00	1.721821e-04	
468	-3.45000e+00	1.724406e-04	
469	-3.50000e+00	1.726945e-04	
470	-3.55000e+00	1.729440e-04	
471	-3.60000e+00	1.731894e-04	
472	-3.65000e+00	1.734309e-04	
473	-3.70000e+00	1.736686e-04	
474	-3.75000e+00	1.739027e-04	
475	-3.80000e+00	1.741335e-04	
476	-3.85000e+00	1.743609e-04	
477	-3.90000e+00	1.745853e-04	
478	-3.95000e+00	1.748067e-04	
479	-4.00000e+00	1.750252e-04	
480	-4.05000e+00	1.752410e-04	
481	-4.10000e+00	1.754542e-04	
482	-4.15000e+00	1.756648e-04	
483	-4.20000e+00	1.758731e-04	
484	-4.25000e+00	1.760790e-04	
485	-4.30000e+00	1.762826e-04	
486	-4.35000e+00	1.764842e-04	
487	-4.40000e+00	1.766836e-04	
488	-4.45000e+00	1.768810e-04	
489	-4.50000e+00	1.770766e-04	
490	-4.55000e+00	1.772702e-04	
491	-4.60000e+00	1.774621e-04	
492	-4.65000e+00	1.776523e-04	
493	-4.70000e+00	1.778409e-04	
494	-4.75000e+00	1.780279e-04	
495	-4.80000e+00	1.782134e-04	
496	-4.85000e+00	1.783974e-04	
497	-4.90000e+00	1.785801e-04	
498	-4.95000e+00	1.787616e-04	
499	-5.00000e+00	1.789418e-04	
500	-5.05000e+00	1.791210e-04	
501	-5.10000e+00	1.792991e-04	
502	-5.15000e+00	1.794763e-04	
503	-5.20000e+00	1.796527e-04	
504	-5.25000e+00	1.798284e-04	
505	-5.30000e+00	1.800036e-04	
506	-5.35000e+00	1.801783e-04	
507	-5.40000e+00	1.803528e-04	
508	-5.45000e+00	1.805272e-04	
509	-5.50000e+00	1.807017e-04	
510	-5.55000e+00	1.808766e-04	
511	-5.60000e+00	1.810520e-04	
512	-5.65000e+00	1.812282e-04	
513	-5.70000e+00	1.814054e-04	
514	-5.75000e+00	1.815841e-04	
515	-5.80000e+00	1.817645e-04	
516	-5.85000e+00	1.819470e-04	
517	-5.90000e+00	1.821320e-04	
518	-5.95000e+00	1.823198e-04	

Index   v-sweep         i(vds)          
--------------------------------------------------------------------------------
519	-6.00000e+00	1.825111e-04	
520	-6.05000e+00	1.827063e-04	
521	-6.10000e+00	1.829058e-04	
522	-6.15000e+00	1.831104e-04	
523	-6.20000e+00	1.833207e-04	
524	-6.25000e+00	1.835373e-04	
525	-6.30000e+00	1.837610e-04	
526	-6.35000e+00	1.839925e-04	
527	-6.40000e+00	1.842327e-04	
528	-6.45000e+00	1.844825e-04	
529	-6.50000e+00	1.847427e-04	
530	-6.55000e+00	1.850145e-04	
531	-6.60000e+00	1.852988e-04	
532	0.000000e+00	0.000000e+00	
533	-5.00000e-02	9.609654e-06	
534	-1.00000e-01	1.896872e-05	
535	-1.50000e-01	2.808141e-05	
536	-2.00000e-01	3.695186e-05	
537	-2.50000e-01	4.558409e-05	
538	-3.00000e-01	5.398204e-05	
539	-3.50000e-01	6.214959e-05	
540	-4.00000e-01	7.009049e-05	
541	-4.50000e-01	7.780844e-05	
542	-5.00000e-01	8.530705e-05	
543	-5.50000e-01	9.258986e-05	
544	-6.00000e-01	9.966032e-05	
545	-6.50000e-01	1.065218e-04	
546	-7.00000e-01	1.131777e-04	
547	-7.50000e-01	1.196311e-04	
548	-8.00000e-01	1.258853e-04	
549	-8.50000e-01	1.319433e-04	
550	-9.00000e-01	1.378083e-04	
551	-9.50000e-01	1.434832e-04	
552	-1.00000e+00	1.489709e-04	
553	-1.05000e+00	1.542743e-04	
554	-1.10000e+00	1.593962e-04	
555	-1.15000e+00	1.643393e-04	
556	-1.20000e+00	1.691063e-04	
557	-1.25000e+00	1.736998e-04	
558	-1.30000e+00	1.781225e-04	
559	-1.35000e+00	1.823769e-04	
560	-1.40000e+00	1.864654e-04	
561	-1.45000e+00	1.903904e-04	
562	-1.50000e+00	1.941543e-04	
563	-1.55000e+00	1.977595e-04	
564	-1.60000e+00	2.012081e-04	
565	-1.65000e+00	2.045023e-04	
566	-1.70000e+00	2.076442e-04	
567	-1.75000e+00	2.106357e-04	
568	-1.80000e+00	2.134785e-04	
569	-1.85000e+00	2.161742e-04	
570	-1.90000e+00	2.187241e-04	
571	-1.95000e+00	2.211289e-04	
572	-2.00000e+00	2.233888e-04	
573	-2.05000e+00	2.255034e-04	
574	-2.10000e+00	2.274718e-04	
575	-2.15000e+00	2.292931e-04	
576	-2.20000e+00	2.309679e-04	

Index   v-sweep         i(vds)          
--------------------------------------------------------------------------------
577	-2.25000e+00	2.324997e-04	
578	-2.30000e+00	2.338959e-04	
579	-2.35000e+00	2.351673e-04	
580	-2.40000e+00	2.363272e-04	
581	-2.45000e+00	2.373892e-04	
582	-2.50000e+00	2.383661e-04	
583	-2.55000e+00	2.392695e-04	
584	-2.60000e+00	2.401093e-04	
585	-2.65000e+00	2.408938e-04	
586	-2.70000e+00	2.416303e-04	
587	-2.75000e+00	2.423245e-04	
588	-2.80000e+00	2.429815e-04	
589	-2.85000e+00	2.436056e-04	
590	-2.90000e+00	2.442002e-04	
591	-2.95000e+00	2.447685e-04	
592	-3.00000e+00	2.453131e-04	
593	-3.05000e+00	2.458362e-04	
594	-3.10000e+00	2.463398e-04	
595	-3.15000e+00	2.468255e-04	
596	-3.20000e+00	2.472950e-04	
597	-3.25000e+00	2.477495e-04	
598	-3.30000e+00	2.481902e-04	
599	-3.35000e+00	2.486181e-04	
600	-3.40000e+00	2.490341e-04	
601	-3.45000e+00	2.494392e-04	
602	-3.50000e+00	2.498340e-04	
603	-3.55000e+00	2.502192e-04	
604	-3.60000e+00	2.505955e-04	
605	-3.65000e+00	2.509634e-04	
606	-3.70000e+00	2.513233e-04	
607	-3.75000e+00	2.516758e-04	
608	-3.80000e+00	2.520213e-04	
609	-3.85000e+00	2.523602e-04	
610	-3.90000e+00	2.526928e-04	
611	-3.95000e+00	2.530195e-04	
612	-4.00000e+00	2.533405e-04	
613	-4.05000e+00	2.536562e-04	
614	-4.10000e+00	2.539668e-04	
615	-4.15000e+00	2.542725e-04	
616	-4.20000e+00	2.545736e-04	
617	-4.25000e+00	2.548704e-04	
618	-4.30000e+00	2.551629e-04	
619	-4.35000e+00	2.554513e-04	
620	-4.40000e+00	2.557360e-04	
621	-4.45000e+00	2.560169e-04	
622	-4.50000e+00	2.562943e-04	
623	-4.55000e+00	2.565683e-04	
624	-4.60000e+00	2.568390e-04	
625	-4.65000e+00	2.571066e-04	
626	-4.70000e+00	2.573712e-04	
627	-4.75000e+00	2.576329e-04	
628	-4.80000e+00	2.578918e-04	
629	-4.85000e+00	2.581480e-04	
630	-4.90000e+00	2.584017e-04	
631	-4.95000e+00	2.586528e-04	
632	-5.00000e+00	2.589016e-04	
633	-5.05000e+00	2.591481e-04	
634	-5.10000e+00	2.593924e-04	

Index   v-sweep         i(vds)          
--------------------------------------------------------------------------------
635	-5.15000e+00	2.596346e-04	
636	-5.20000e+00	2.598747e-04	
637	-5.25000e+00	2.601130e-04	
638	-5.30000e+00	2.603494e-04	
639	-5.35000e+00	2.605841e-04	
640	-5.40000e+00	2.608171e-04	
641	-5.45000e+00	2.610487e-04	
642	-5.50000e+00	2.612789e-04	
643	-5.55000e+00	2.615078e-04	
644	-5.60000e+00	2.617357e-04	
645	-5.65000e+00	2.619625e-04	
646	-5.70000e+00	2.621886e-04	
647	-5.75000e+00	2.624141e-04	
648	-5.80000e+00	2.626392e-04	
649	-5.85000e+00	2.628642e-04	
650	-5.90000e+00	2.630892e-04	
651	-5.95000e+00	2.633147e-04	
652	-6.00000e+00	2.635408e-04	
653	-6.05000e+00	2.637679e-04	
654	-6.10000e+00	2.639964e-04	
655	-6.15000e+00	2.642267e-04	
656	-6.20000e+00	2.644592e-04	
657	-6.25000e+00	2.646945e-04	
658	-6.30000e+00	2.649330e-04	
659	-6.35000e+00	2.651754e-04	
660	-6.40000e+00	2.654222e-04	
661	-6.45000e+00	2.656743e-04	
662	-6.50000e+00	2.659322e-04	
663	-6.55000e+00	2.661968e-04	
664	-6.60000e+00	2.664690e-04	
665	0.000000e+00	0.000000e+00	
666	-5.00000e-02	1.082731e-05	
667	-1.00000e-01	2.141580e-05	
668	-1.50000e-01	3.176909e-05	
669	-2.00000e-01	4.189073e-05	
670	-2.50000e-01	5.178421e-05	
671	-3.00000e-01	6.145293e-05	
672	-3.50000e-01	7.090023e-05	
673	-4.00000e-01	8.012940e-05	
674	-4.50000e-01	8.914364e-05	
675	-5.00000e-01	9.794610e-05	
676	-5.50000e-01	1.065399e-04	
677	-6.00000e-01	1.149280e-04	
678	-6.50000e-01	1.231134e-04	
679	-7.00000e-01	1.310990e-04	
680	-7.50000e-01	1.388878e-04	
681	-8.00000e-01	1.464823e-04	
682	-8.50000e-01	1.538856e-04	
683	-9.00000e-01	1.611001e-04	
684	-9.50000e-01	1.681286e-04	
685	-1.00000e+00	1.749737e-04	
686	-1.05000e+00	1.816378e-04	
687	-1.10000e+00	1.881236e-04	
688	-1.15000e+00	1.944335e-04	
689	-1.20000e+00	2.005698e-04	
690	-1.25000e+00	2.065350e-04	
691	-1.30000e+00	2.123313e-04	
692	-1.35000e+00	2.179611e-04	

Index   v-sweep         i(vds)          
--------------------------------------------------------------------------------
693	-1.40000e+00	2.234265e-04	
694	-1.45000e+00	2.287299e-04	
695	-1.50000e+00	2.338733e-04	
696	-1.55000e+00	2.388588e-04	
697	-1.60000e+00	2.436885e-04	
698	-1.65000e+00	2.483646e-04	
699	-1.70000e+00	2.528889e-04	
700	-1.75000e+00	2.572634e-04	
701	-1.80000e+00	2.614900e-04	
702	-1.85000e+00	2.655706e-04	
703	-1.90000e+00	2.695071e-04	
704	-1.95000e+00	2.733010e-04	
705	-2.00000e+00	2.769542e-04	
706	-2.05000e+00	2.804683e-04	
707	-2.10000e+00	2.838445e-04	
708	-2.15000e+00	2.870844e-04	
709	-2.20000e+00	2.901890e-04	
710	-2.25000e+00	2.931591e-04	
711	-2.30000e+00	2.959950e-04	
712	-2.35000e+00	2.986967e-04	
713	-2.40000e+00	3.012631e-04	
714	-2.45000e+00	3.036924e-04	
715	-2.50000e+00	3.059818e-04	
716	-2.55000e+00	3.081280e-04	
717	-2.60000e+00	3.101281e-04	
718	-2.65000e+00	3.119811e-04	
719	-2.70000e+00	3.136893e-04	
720	-2.75000e+00	3.152594e-04	
721	-2.80000e+00	3.167013e-04	
722	-2.85000e+00	3.180272e-04	
723	-2.90000e+00	3.192499e-04	
724	-2.95000e+00	3.203818e-04	
725	-3.00000e+00	3.214341e-04	
726	-3.05000e+00	3.224168e-04	
727	-3.10000e+00	3.233385e-04	
728	-3.15000e+00	3.242065e-04	
729	-3.20000e+00	3.250271e-04	
730	-3.25000e+00	3.258056e-04	
731	-3.30000e+00	3.265466e-04	
732	-3.35000e+00	3.272540e-04	
733	-3.40000e+00	3.279310e-04	
734	-3.45000e+00	3.285808e-04	
735	-3.50000e+00	3.292057e-04	
736	-3.55000e+00	3.298079e-04	
737	-3.60000e+00	3.303895e-04	
738	-3.65000e+00	3.309520e-04	
739	-3.70000e+00	3.314971e-04	
740	-3.75000e+00	3.320260e-04	
741	-3.80000e+00	3.325399e-04	
742	-3.85000e+00	3.330400e-04	
743	-3.90000e+00	3.335271e-04	
744	-3.95000e+00	3.340021e-04	
745	-4.00000e+00	3.344658e-04	
746	-4.05000e+00	3.349189e-04	
747	-4.10000e+00	3.353622e-04	
748	-4.15000e+00	3.357960e-04	
749	-4.20000e+00	3.362211e-04	
750	-4.25000e+00	3.366378e-04	

Index   v-sweep         i(vds)          
--------------------------------------------------------------------------------
751	-4.30000e+00	3.370467e-04	
752	-4.35000e+00	3.374482e-04	
753	-4.40000e+00	3.378426e-04	
754	-4.45000e+00	3.382303e-04	
755	-4.50000e+00	3.386117e-04	
756	-4.55000e+00	3.389870e-04	
757	-4.60000e+00	3.393565e-04	
758	-4.65000e+00	3.397206e-04	
759	-4.70000e+00	3.400794e-04	
760	-4.75000e+00	3.404331e-04	
761	-4.80000e+00	3.407821e-04	
762	-4.85000e+00	3.411265e-04	
763	-4.90000e+00	3.414664e-04	
764	-4.95000e+00	3.418022e-04	
765	-5.00000e+00	3.421338e-04	
766	-5.05000e+00	3.424616e-04	
767	-5.10000e+00	3.427857e-04	
768	-5.15000e+00	3.431061e-04	
769	-5.20000e+00	3.434231e-04	
770	-5.25000e+00	3.437368e-04	
771	-5.30000e+00	3.440472e-04	
772	-5.35000e+00	3.443546e-04	
773	-5.40000e+00	3.446590e-04	
774	-5.45000e+00	3.449605e-04	
775	-5.50000e+00	3.452594e-04	
776	-5.55000e+00	3.455556e-04	
777	-5.60000e+00	3.458493e-04	
778	-5.65000e+00	3.461406e-04	
779	-5.70000e+00	3.464296e-04	
780	-5.75000e+00	3.467165e-04	
781	-5.80000e+00	3.470014e-04	
782	-5.85000e+00	3.472844e-04	
783	-5.90000e+00	3.475657e-04	
784	-5.95000e+00	3.478454e-04	
785	-6.00000e+00	3.481238e-04	
786	-6.05000e+00	3.484009e-04	
787	-6.10000e+00	3.486771e-04	
788	-6.15000e+00	3.489525e-04	
789	-6.20000e+00	3.492274e-04	
790	-6.25000e+00	3.495021e-04	
791	-6.30000e+00	3.497769e-04	
792	-6.35000e+00	3.500522e-04	
793	-6.40000e+00	3.503283e-04	
794	-6.45000e+00	3.506056e-04	
795	-6.50000e+00	3.508847e-04	
796	-6.55000e+00	3.511660e-04	
797	-6.60000e+00	3.514501e-04	
Note: No ".plot", ".print", or ".fourier" lines; no simulations run
