
Note: Compatibility modes selected: hs

Warning: m=xx on .subckt line will override multiplier m hierarchy!


Circuit: ***************************

Doing analysis at TEMP = 25.000000 and TNOM = 25.000000


No. of Data Rows : 798
                          ***************************
                          DC transfer characteristic  Mon Jan  9 13:57:53  2023
--------------------------------------------------------------------------------
Index   v-sweep         i(vds)          
--------------------------------------------------------------------------------
0	0.000000e+00	0.000000e+00	
1	-5.00000e-02	4.373100e-07	
2	-1.00000e-01	7.415045e-07	
3	-1.50000e-01	9.220110e-07	
4	-2.00000e-01	1.005804e-06	
5	-2.50000e-01	1.040382e-06	
6	-3.00000e-01	1.059222e-06	
7	-3.50000e-01	1.073282e-06	
8	-4.00000e-01	1.085425e-06	
9	-4.50000e-01	1.096538e-06	
10	-5.00000e-01	1.106969e-06	
11	-5.50000e-01	1.116890e-06	
12	-6.00000e-01	1.126403e-06	
13	-6.50000e-01	1.135573e-06	
14	-7.00000e-01	1.144448e-06	
15	-7.50000e-01	1.153065e-06	
16	-8.00000e-01	1.161454e-06	
17	-8.50000e-01	1.169638e-06	
18	-9.00000e-01	1.177638e-06	
19	-9.50000e-01	1.185472e-06	
20	-1.00000e+00	1.193153e-06	
21	-1.05000e+00	1.200695e-06	
22	-1.10000e+00	1.208110e-06	
23	-1.15000e+00	1.215407e-06	
24	-1.20000e+00	1.222596e-06	
25	-1.25000e+00	1.229685e-06	
26	-1.30000e+00	1.236681e-06	
27	-1.35000e+00	1.243590e-06	
28	-1.40000e+00	1.250418e-06	
29	-1.45000e+00	1.257171e-06	
30	-1.50000e+00	1.263854e-06	
31	-1.55000e+00	1.270471e-06	
32	-1.60000e+00	1.277026e-06	
33	-1.65000e+00	1.283523e-06	
34	-1.70000e+00	1.289966e-06	
35	-1.75000e+00	1.296357e-06	
36	-1.80000e+00	1.302700e-06	
37	-1.85000e+00	1.308997e-06	
38	-1.90000e+00	1.315251e-06	
39	-1.95000e+00	1.321465e-06	
40	-2.00000e+00	1.327640e-06	
41	-2.05000e+00	1.333778e-06	
42	-2.10000e+00	1.339883e-06	
43	-2.15000e+00	1.345954e-06	
44	-2.20000e+00	1.351995e-06	
45	-2.25000e+00	1.358006e-06	
46	-2.30000e+00	1.363990e-06	
47	-2.35000e+00	1.369947e-06	
48	-2.40000e+00	1.375879e-06	
49	-2.45000e+00	1.381787e-06	
50	-2.50000e+00	1.387673e-06	
51	-2.55000e+00	1.393537e-06	
52	-2.60000e+00	1.399380e-06	
53	-2.65000e+00	1.405204e-06	
54	-2.70000e+00	1.411010e-06	

Index   v-sweep         i(vds)          
--------------------------------------------------------------------------------
55	-2.75000e+00	1.416798e-06	
56	-2.80000e+00	1.422569e-06	
57	-2.85000e+00	1.428324e-06	
58	-2.90000e+00	1.434065e-06	
59	-2.95000e+00	1.439791e-06	
60	-3.00000e+00	1.445503e-06	
61	-3.05000e+00	1.451203e-06	
62	-3.10000e+00	1.456890e-06	
63	-3.15000e+00	1.462567e-06	
64	-3.20000e+00	1.468232e-06	
65	-3.25000e+00	1.473888e-06	
66	-3.30000e+00	1.479534e-06	
67	-3.35000e+00	1.485172e-06	
68	-3.40000e+00	1.490802e-06	
69	-3.45000e+00	1.496425e-06	
70	-3.50000e+00	1.502043e-06	
71	-3.55000e+00	1.507655e-06	
72	-3.60000e+00	1.513263e-06	
73	-3.65000e+00	1.518867e-06	
74	-3.70000e+00	1.524470e-06	
75	-3.75000e+00	1.530072e-06	
76	-3.80000e+00	1.535675e-06	
77	-3.85000e+00	1.541280e-06	
78	-3.90000e+00	1.546889e-06	
79	-3.95000e+00	1.552503e-06	
80	-4.00000e+00	1.558124e-06	
81	-4.05000e+00	1.563756e-06	
82	-4.10000e+00	1.569400e-06	
83	-4.15000e+00	1.575058e-06	
84	-4.20000e+00	1.580734e-06	
85	-4.25000e+00	1.586431e-06	
86	-4.30000e+00	1.592152e-06	
87	-4.35000e+00	1.597901e-06	
88	-4.40000e+00	1.603682e-06	
89	-4.45000e+00	1.609500e-06	
90	-4.50000e+00	1.615360e-06	
91	-4.55000e+00	1.621266e-06	
92	-4.60000e+00	1.627224e-06	
93	-4.65000e+00	1.633242e-06	
94	-4.70000e+00	1.639324e-06	
95	-4.75000e+00	1.645479e-06	
96	-4.80000e+00	1.651713e-06	
97	-4.85000e+00	1.658036e-06	
98	-4.90000e+00	1.664455e-06	
99	-4.95000e+00	1.670980e-06	
100	-5.00000e+00	1.677622e-06	
101	-5.05000e+00	1.684390e-06	
102	-5.10000e+00	1.691295e-06	
103	-5.15000e+00	1.698350e-06	
104	-5.20000e+00	1.705568e-06	
105	-5.25000e+00	1.712960e-06	
106	-5.30000e+00	1.720542e-06	
107	-5.35000e+00	1.728328e-06	
108	-5.40000e+00	1.736334e-06	
109	-5.45000e+00	1.744575e-06	
110	-5.50000e+00	1.753070e-06	
111	-5.55000e+00	1.761835e-06	
112	-5.60000e+00	1.770890e-06	

Index   v-sweep         i(vds)          
--------------------------------------------------------------------------------
113	-5.65000e+00	1.780254e-06	
114	-5.70000e+00	1.789948e-06	
115	-5.75000e+00	1.799992e-06	
116	-5.80000e+00	1.810410e-06	
117	-5.85000e+00	1.821224e-06	
118	-5.90000e+00	1.832458e-06	
119	-5.95000e+00	1.844137e-06	
120	-6.00000e+00	1.856288e-06	
121	-6.05000e+00	1.868937e-06	
122	-6.10000e+00	1.882111e-06	
123	-6.15000e+00	1.895840e-06	
124	-6.20000e+00	1.910152e-06	
125	-6.25000e+00	1.925080e-06	
126	-6.30000e+00	1.940654e-06	
127	-6.35000e+00	1.956907e-06	
128	-6.40000e+00	1.973873e-06	
129	-6.45000e+00	1.991586e-06	
130	-6.50000e+00	2.010082e-06	
131	-6.55000e+00	2.029398e-06	
132	-6.60000e+00	2.049570e-06	
133	0.000000e+00	0.000000e+00	
134	-5.00000e-02	2.680480e-06	
135	-1.00000e-01	5.200380e-06	
136	-1.50000e-01	7.561897e-06	
137	-2.00000e-01	9.767191e-06	
138	-2.50000e-01	1.181840e-05	
139	-3.00000e-01	1.371762e-05	
140	-3.50000e-01	1.546695e-05	
141	-4.00000e-01	1.706848e-05	
142	-4.50000e-01	1.852431e-05	
143	-5.00000e-01	1.983658e-05	
144	-5.50000e-01	2.100755e-05	
145	-6.00000e-01	2.203968e-05	
146	-6.50000e-01	2.293588e-05	
147	-7.00000e-01	2.369991e-05	
148	-7.50000e-01	2.433723e-05	
149	-8.00000e-01	2.485655e-05	
150	-8.50000e-01	2.527182e-05	
151	-9.00000e-01	2.560295e-05	
152	-9.50000e-01	2.587271e-05	
153	-1.00000e+00	2.610082e-05	
154	-1.05000e+00	2.630091e-05	
155	-1.10000e+00	2.648129e-05	
156	-1.15000e+00	2.664690e-05	
157	-1.20000e+00	2.680085e-05	
158	-1.25000e+00	2.694521e-05	
159	-1.30000e+00	2.708146e-05	
160	-1.35000e+00	2.721071e-05	
161	-1.40000e+00	2.733384e-05	
162	-1.45000e+00	2.745153e-05	
163	-1.50000e+00	2.756438e-05	
164	-1.55000e+00	2.767286e-05	
165	-1.60000e+00	2.777739e-05	
166	-1.65000e+00	2.787831e-05	
167	-1.70000e+00	2.797594e-05	
168	-1.75000e+00	2.807055e-05	
169	-1.80000e+00	2.816238e-05	
170	-1.85000e+00	2.825162e-05	

Index   v-sweep         i(vds)          
--------------------------------------------------------------------------------
171	-1.90000e+00	2.833848e-05	
172	-1.95000e+00	2.842311e-05	
173	-2.00000e+00	2.850567e-05	
174	-2.05000e+00	2.858629e-05	
175	-2.10000e+00	2.866509e-05	
176	-2.15000e+00	2.874219e-05	
177	-2.20000e+00	2.881769e-05	
178	-2.25000e+00	2.889168e-05	
179	-2.30000e+00	2.896425e-05	
180	-2.35000e+00	2.903546e-05	
181	-2.40000e+00	2.910541e-05	
182	-2.45000e+00	2.917414e-05	
183	-2.50000e+00	2.924173e-05	
184	-2.55000e+00	2.930822e-05	
185	-2.60000e+00	2.937368e-05	
186	-2.65000e+00	2.943815e-05	
187	-2.70000e+00	2.950168e-05	
188	-2.75000e+00	2.956431e-05	
189	-2.80000e+00	2.962608e-05	
190	-2.85000e+00	2.968702e-05	
191	-2.90000e+00	2.974718e-05	
192	-2.95000e+00	2.980658e-05	
193	-3.00000e+00	2.986526e-05	
194	-3.05000e+00	2.992324e-05	
195	-3.10000e+00	2.998056e-05	
196	-3.15000e+00	3.003723e-05	
197	-3.20000e+00	3.009329e-05	
198	-3.25000e+00	3.014875e-05	
199	-3.30000e+00	3.020364e-05	
200	-3.35000e+00	3.025798e-05	
201	-3.40000e+00	3.031179e-05	
202	-3.45000e+00	3.036508e-05	
203	-3.50000e+00	3.041788e-05	
204	-3.55000e+00	3.047020e-05	
205	-3.60000e+00	3.052207e-05	
206	-3.65000e+00	3.057349e-05	
207	-3.70000e+00	3.062447e-05	
208	-3.75000e+00	3.067505e-05	
209	-3.80000e+00	3.072523e-05	
210	-3.85000e+00	3.077502e-05	
211	-3.90000e+00	3.082444e-05	
212	-3.95000e+00	3.087351e-05	
213	-4.00000e+00	3.092224e-05	
214	-4.05000e+00	3.097065e-05	
215	-4.10000e+00	3.101875e-05	
216	-4.15000e+00	3.106656e-05	
217	-4.20000e+00	3.111409e-05	
218	-4.25000e+00	3.116137e-05	
219	-4.30000e+00	3.120842e-05	
220	-4.35000e+00	3.125526e-05	
221	-4.40000e+00	3.130190e-05	
222	-4.45000e+00	3.134839e-05	
223	-4.50000e+00	3.139473e-05	
224	-4.55000e+00	3.144098e-05	
225	-4.60000e+00	3.148715e-05	
226	-4.65000e+00	3.153328e-05	
227	-4.70000e+00	3.157942e-05	
228	-4.75000e+00	3.162560e-05	

Index   v-sweep         i(vds)          
--------------------------------------------------------------------------------
229	-4.80000e+00	3.167189e-05	
230	-4.85000e+00	3.171832e-05	
231	-4.90000e+00	3.176495e-05	
232	-4.95000e+00	3.181186e-05	
233	-5.00000e+00	3.185909e-05	
234	-5.05000e+00	3.190674e-05	
235	-5.10000e+00	3.195487e-05	
236	-5.15000e+00	3.200358e-05	
237	-5.20000e+00	3.205296e-05	
238	-5.25000e+00	3.210311e-05	
239	-5.30000e+00	3.215413e-05	
240	-5.35000e+00	3.220615e-05	
241	-5.40000e+00	3.225929e-05	
242	-5.45000e+00	3.231368e-05	
243	-5.50000e+00	3.236947e-05	
244	-5.55000e+00	3.242681e-05	
245	-5.60000e+00	3.248585e-05	
246	-5.65000e+00	3.254679e-05	
247	-5.70000e+00	3.260979e-05	
248	-5.75000e+00	3.267505e-05	
249	-5.80000e+00	3.274277e-05	
250	-5.85000e+00	3.281318e-05	
251	-5.90000e+00	3.288650e-05	
252	-5.95000e+00	3.296296e-05	
253	-6.00000e+00	3.304283e-05	
254	-6.05000e+00	3.312637e-05	
255	-6.10000e+00	3.321385e-05	
256	-6.15000e+00	3.330556e-05	
257	-6.20000e+00	3.340181e-05	
258	-6.25000e+00	3.350292e-05	
259	-6.30000e+00	3.360920e-05	
260	-6.35000e+00	3.372102e-05	
261	-6.40000e+00	3.383871e-05	
262	-6.45000e+00	3.396266e-05	
263	-6.50000e+00	3.409325e-05	
264	-6.55000e+00	3.423087e-05	
265	-6.60000e+00	3.437594e-05	
266	0.000000e+00	0.000000e+00	
267	-5.00000e-02	4.382472e-06	
268	-1.00000e-01	8.608279e-06	
269	-1.50000e-01	1.267928e-05	
270	-2.00000e-01	1.659729e-05	
271	-2.50000e-01	2.036412e-05	
272	-3.00000e-01	2.398154e-05	
273	-3.50000e-01	2.745129e-05	
274	-4.00000e-01	3.077510e-05	
275	-4.50000e-01	3.395466e-05	
276	-5.00000e-01	3.699164e-05	
277	-5.50000e-01	3.988769e-05	
278	-6.00000e-01	4.264444e-05	
279	-6.50000e-01	4.526350e-05	
280	-7.00000e-01	4.774645e-05	
281	-7.50000e-01	5.009488e-05	
282	-8.00000e-01	5.231034e-05	
283	-8.50000e-01	5.439439e-05	
284	-9.00000e-01	5.634859e-05	
285	-9.50000e-01	5.817450e-05	
286	-1.00000e+00	5.987372e-05	

Index   v-sweep         i(vds)          
--------------------------------------------------------------------------------
287	-1.05000e+00	6.144789e-05	
288	-1.10000e+00	6.289875e-05	
289	-1.15000e+00	6.422820e-05	
290	-1.20000e+00	6.543841e-05	
291	-1.25000e+00	6.653204e-05	
292	-1.30000e+00	6.751250e-05	
293	-1.35000e+00	6.838453e-05	
294	-1.40000e+00	6.915485e-05	
295	-1.45000e+00	6.983273e-05	
296	-1.50000e+00	7.042998e-05	
297	-1.55000e+00	7.095982e-05	
298	-1.60000e+00	7.143492e-05	
299	-1.65000e+00	7.186600e-05	
300	-1.70000e+00	7.226139e-05	
301	-1.75000e+00	7.262738e-05	
302	-1.80000e+00	7.296870e-05	
303	-1.85000e+00	7.328898e-05	
304	-1.90000e+00	7.359107e-05	
305	-1.95000e+00	7.387723e-05	
306	-2.00000e+00	7.414935e-05	
307	-2.05000e+00	7.440895e-05	
308	-2.10000e+00	7.465733e-05	
309	-2.15000e+00	7.489561e-05	
310	-2.20000e+00	7.512471e-05	
311	-2.25000e+00	7.534546e-05	
312	-2.30000e+00	7.555858e-05	
313	-2.35000e+00	7.576468e-05	
314	-2.40000e+00	7.596431e-05	
315	-2.45000e+00	7.615797e-05	
316	-2.50000e+00	7.634609e-05	
317	-2.55000e+00	7.652905e-05	
318	-2.60000e+00	7.670721e-05	
319	-2.65000e+00	7.688088e-05	
320	-2.70000e+00	7.705035e-05	
321	-2.75000e+00	7.721588e-05	
322	-2.80000e+00	7.737770e-05	
323	-2.85000e+00	7.753603e-05	
324	-2.90000e+00	7.769107e-05	
325	-2.95000e+00	7.784299e-05	
326	-3.00000e+00	7.799197e-05	
327	-3.05000e+00	7.813816e-05	
328	-3.10000e+00	7.828169e-05	
329	-3.15000e+00	7.842271e-05	
330	-3.20000e+00	7.856133e-05	
331	-3.25000e+00	7.869767e-05	
332	-3.30000e+00	7.883183e-05	
333	-3.35000e+00	7.896392e-05	
334	-3.40000e+00	7.909401e-05	
335	-3.45000e+00	7.922221e-05	
336	-3.50000e+00	7.934859e-05	
337	-3.55000e+00	7.947323e-05	
338	-3.60000e+00	7.959620e-05	
339	-3.65000e+00	7.971756e-05	
340	-3.70000e+00	7.983738e-05	
341	-3.75000e+00	7.995572e-05	
342	-3.80000e+00	8.007263e-05	
343	-3.85000e+00	8.018817e-05	
344	-3.90000e+00	8.030239e-05	

Index   v-sweep         i(vds)          
--------------------------------------------------------------------------------
345	-3.95000e+00	8.041533e-05	
346	-4.00000e+00	8.052705e-05	
347	-4.05000e+00	8.063758e-05	
348	-4.10000e+00	8.074697e-05	
349	-4.15000e+00	8.085525e-05	
350	-4.20000e+00	8.096247e-05	
351	-4.25000e+00	8.106867e-05	
352	-4.30000e+00	8.117387e-05	
353	-4.35000e+00	8.127811e-05	
354	-4.40000e+00	8.138144e-05	
355	-4.45000e+00	8.148388e-05	
356	-4.50000e+00	8.158547e-05	
357	-4.55000e+00	8.168624e-05	
358	-4.60000e+00	8.178623e-05	
359	-4.65000e+00	8.188548e-05	
360	-4.70000e+00	8.198403e-05	
361	-4.75000e+00	8.208191e-05	
362	-4.80000e+00	8.217918e-05	
363	-4.85000e+00	8.227587e-05	
364	-4.90000e+00	8.237204e-05	
365	-4.95000e+00	8.246775e-05	
366	-5.00000e+00	8.256304e-05	
367	-5.05000e+00	8.265799e-05	
368	-5.10000e+00	8.275267e-05	
369	-5.15000e+00	8.284715e-05	
370	-5.20000e+00	8.294152e-05	
371	-5.25000e+00	8.303588e-05	
372	-5.30000e+00	8.313031e-05	
373	-5.35000e+00	8.322495e-05	
374	-5.40000e+00	8.331991e-05	
375	-5.45000e+00	8.341532e-05	
376	-5.50000e+00	8.351134e-05	
377	-5.55000e+00	8.360812e-05	
378	-5.60000e+00	8.370585e-05	
379	-5.65000e+00	8.380470e-05	
380	-5.70000e+00	8.390490e-05	
381	-5.75000e+00	8.400666e-05	
382	-5.80000e+00	8.411022e-05	
383	-5.85000e+00	8.421585e-05	
384	-5.90000e+00	8.432383e-05	
385	-5.95000e+00	8.443447e-05	
386	-6.00000e+00	8.454808e-05	
387	-6.05000e+00	8.466501e-05	
388	-6.10000e+00	8.478564e-05	
389	-6.15000e+00	8.491036e-05	
390	-6.20000e+00	8.503960e-05	
391	-6.25000e+00	8.517379e-05	
392	-6.30000e+00	8.531342e-05	
393	-6.35000e+00	8.545898e-05	
394	-6.40000e+00	8.561101e-05	
395	-6.45000e+00	8.577006e-05	
396	-6.50000e+00	8.593673e-05	
397	-6.55000e+00	8.611164e-05	
398	-6.60000e+00	8.629543e-05	
399	0.000000e+00	0.000000e+00	
400	-5.00000e-02	5.732371e-06	
401	-1.00000e-01	1.131448e-05	
402	-1.50000e-01	1.674790e-05	

Index   v-sweep         i(vds)          
--------------------------------------------------------------------------------
403	-2.00000e-01	2.203421e-05	
404	-2.50000e-01	2.717494e-05	
405	-3.00000e-01	3.217162e-05	
406	-3.50000e-01	3.702575e-05	
407	-4.00000e-01	4.173881e-05	
408	-4.50000e-01	4.631225e-05	
409	-5.00000e-01	5.074753e-05	
410	-5.50000e-01	5.504605e-05	
411	-6.00000e-01	5.920922e-05	
412	-6.50000e-01	6.323842e-05	
413	-7.00000e-01	6.713502e-05	
414	-7.50000e-01	7.090037e-05	
415	-8.00000e-01	7.453580e-05	
416	-8.50000e-01	7.804262e-05	
417	-9.00000e-01	8.142213e-05	
418	-9.50000e-01	8.467561e-05	
419	-1.00000e+00	8.780433e-05	
420	-1.05000e+00	9.080955e-05	
421	-1.10000e+00	9.369250e-05	
422	-1.15000e+00	9.645442e-05	
423	-1.20000e+00	9.909653e-05	
424	-1.25000e+00	1.016200e-04	
425	-1.30000e+00	1.040261e-04	
426	-1.35000e+00	1.063160e-04	
427	-1.40000e+00	1.084909e-04	
428	-1.45000e+00	1.105521e-04	
429	-1.50000e+00	1.125006e-04	
430	-1.55000e+00	1.143379e-04	
431	-1.60000e+00	1.160653e-04	
432	-1.65000e+00	1.176840e-04	
433	-1.70000e+00	1.191957e-04	
434	-1.75000e+00	1.206021e-04	
435	-1.80000e+00	1.219052e-04	
436	-1.85000e+00	1.231076e-04	
437	-1.90000e+00	1.242127e-04	
438	-1.95000e+00	1.252247e-04	
439	-2.00000e+00	1.261495e-04	
440	-2.05000e+00	1.269939e-04	
441	-2.10000e+00	1.277661e-04	
442	-2.15000e+00	1.284748e-04	
443	-2.20000e+00	1.291280e-04	
444	-2.25000e+00	1.297333e-04	
445	-2.30000e+00	1.302971e-04	
446	-2.35000e+00	1.308248e-04	
447	-2.40000e+00	1.313211e-04	
448	-2.45000e+00	1.317897e-04	
449	-2.50000e+00	1.322338e-04	
450	-2.55000e+00	1.326562e-04	
451	-2.60000e+00	1.330591e-04	
452	-2.65000e+00	1.334444e-04	
453	-2.70000e+00	1.338140e-04	
454	-2.75000e+00	1.341691e-04	
455	-2.80000e+00	1.345111e-04	
456	-2.85000e+00	1.348411e-04	
457	-2.90000e+00	1.351600e-04	
458	-2.95000e+00	1.354688e-04	
459	-3.00000e+00	1.357681e-04	
460	-3.05000e+00	1.360588e-04	

Index   v-sweep         i(vds)          
--------------------------------------------------------------------------------
461	-3.10000e+00	1.363413e-04	
462	-3.15000e+00	1.366163e-04	
463	-3.20000e+00	1.368842e-04	
464	-3.25000e+00	1.371454e-04	
465	-3.30000e+00	1.374005e-04	
466	-3.35000e+00	1.376497e-04	
467	-3.40000e+00	1.378935e-04	
468	-3.45000e+00	1.381320e-04	
469	-3.50000e+00	1.383657e-04	
470	-3.55000e+00	1.385947e-04	
471	-3.60000e+00	1.388194e-04	
472	-3.65000e+00	1.390398e-04	
473	-3.70000e+00	1.392563e-04	
474	-3.75000e+00	1.394691e-04	
475	-3.80000e+00	1.396782e-04	
476	-3.85000e+00	1.398839e-04	
477	-3.90000e+00	1.400864e-04	
478	-3.95000e+00	1.402857e-04	
479	-4.00000e+00	1.404821e-04	
480	-4.05000e+00	1.406756e-04	
481	-4.10000e+00	1.408663e-04	
482	-4.15000e+00	1.410545e-04	
483	-4.20000e+00	1.412401e-04	
484	-4.25000e+00	1.414233e-04	
485	-4.30000e+00	1.416041e-04	
486	-4.35000e+00	1.417827e-04	
487	-4.40000e+00	1.419592e-04	
488	-4.45000e+00	1.421336e-04	
489	-4.50000e+00	1.423060e-04	
490	-4.55000e+00	1.424764e-04	
491	-4.60000e+00	1.426450e-04	
492	-4.65000e+00	1.428118e-04	
493	-4.70000e+00	1.429769e-04	
494	-4.75000e+00	1.431403e-04	
495	-4.80000e+00	1.433021e-04	
496	-4.85000e+00	1.434623e-04	
497	-4.90000e+00	1.436210e-04	
498	-4.95000e+00	1.437783e-04	
499	-5.00000e+00	1.439342e-04	
500	-5.05000e+00	1.440888e-04	
501	-5.10000e+00	1.442421e-04	
502	-5.15000e+00	1.443941e-04	
503	-5.20000e+00	1.445451e-04	
504	-5.25000e+00	1.446949e-04	
505	-5.30000e+00	1.448437e-04	
506	-5.35000e+00	1.449916e-04	
507	-5.40000e+00	1.451385e-04	
508	-5.45000e+00	1.452847e-04	
509	-5.50000e+00	1.454302e-04	
510	-5.55000e+00	1.455751e-04	
511	-5.60000e+00	1.457196e-04	
512	-5.65000e+00	1.458636e-04	
513	-5.70000e+00	1.460074e-04	
514	-5.75000e+00	1.461512e-04	
515	-5.80000e+00	1.462950e-04	
516	-5.85000e+00	1.464390e-04	
517	-5.90000e+00	1.465835e-04	
518	-5.95000e+00	1.467287e-04	

Index   v-sweep         i(vds)          
--------------------------------------------------------------------------------
519	-6.00000e+00	1.468747e-04	
520	-6.05000e+00	1.470219e-04	
521	-6.10000e+00	1.471706e-04	
522	-6.15000e+00	1.473209e-04	
523	-6.20000e+00	1.474733e-04	
524	-6.25000e+00	1.476282e-04	
525	-6.30000e+00	1.477859e-04	
526	-6.35000e+00	1.479468e-04	
527	-6.40000e+00	1.481114e-04	
528	-6.45000e+00	1.482802e-04	
529	-6.50000e+00	1.484537e-04	
530	-6.55000e+00	1.486325e-04	
531	-6.60000e+00	1.488171e-04	
532	0.000000e+00	0.000000e+00	
533	-5.00000e-02	6.839489e-06	
534	-1.00000e-01	1.353546e-05	
535	-1.50000e-01	2.008928e-05	
536	-2.00000e-01	2.650231e-05	
537	-2.50000e-01	3.277587e-05	
538	-3.00000e-01	3.891130e-05	
539	-3.50000e-01	4.490989e-05	
540	-4.00000e-01	5.077294e-05	
541	-4.50000e-01	5.650170e-05	
542	-5.00000e-01	6.209745e-05	
543	-5.50000e-01	6.756141e-05	
544	-6.00000e-01	7.289481e-05	
545	-6.50000e-01	7.809886e-05	
546	-7.00000e-01	8.317476e-05	
547	-7.50000e-01	8.812368e-05	
548	-8.00000e-01	9.294680e-05	
549	-8.50000e-01	9.764526e-05	
550	-9.00000e-01	1.022202e-04	
551	-9.50000e-01	1.066728e-04	
552	-1.00000e+00	1.110040e-04	
553	-1.05000e+00	1.152151e-04	
554	-1.10000e+00	1.193071e-04	
555	-1.15000e+00	1.232811e-04	
556	-1.20000e+00	1.271381e-04	
557	-1.25000e+00	1.308792e-04	
558	-1.30000e+00	1.345055e-04	
559	-1.35000e+00	1.380179e-04	
560	-1.40000e+00	1.414174e-04	
561	-1.45000e+00	1.447052e-04	
562	-1.50000e+00	1.478821e-04	
563	-1.55000e+00	1.509492e-04	
564	-1.60000e+00	1.539075e-04	
565	-1.65000e+00	1.567579e-04	
566	-1.70000e+00	1.595014e-04	
567	-1.75000e+00	1.621389e-04	
568	-1.80000e+00	1.646714e-04	
569	-1.85000e+00	1.670999e-04	
570	-1.90000e+00	1.694254e-04	
571	-1.95000e+00	1.716487e-04	
572	-2.00000e+00	1.737709e-04	
573	-2.05000e+00	1.757929e-04	
574	-2.10000e+00	1.777159e-04	
575	-2.15000e+00	1.795407e-04	
576	-2.20000e+00	1.812686e-04	

Index   v-sweep         i(vds)          
--------------------------------------------------------------------------------
577	-2.25000e+00	1.829008e-04	
578	-2.30000e+00	1.844386e-04	
579	-2.35000e+00	1.858836e-04	
580	-2.40000e+00	1.872376e-04	
581	-2.45000e+00	1.885030e-04	
582	-2.50000e+00	1.896826e-04	
583	-2.55000e+00	1.907801e-04	
584	-2.60000e+00	1.918002e-04	
585	-2.65000e+00	1.927482e-04	
586	-2.70000e+00	1.936304e-04	
587	-2.75000e+00	1.944531e-04	
588	-2.80000e+00	1.952225e-04	
589	-2.85000e+00	1.959444e-04	
590	-2.90000e+00	1.966240e-04	
591	-2.95000e+00	1.972660e-04	
592	-3.00000e+00	1.978745e-04	
593	-3.05000e+00	1.984530e-04	
594	-3.10000e+00	1.990045e-04	
595	-3.15000e+00	1.995317e-04	
596	-3.20000e+00	2.000369e-04	
597	-3.25000e+00	2.005221e-04	
598	-3.30000e+00	2.009890e-04	
599	-3.35000e+00	2.014392e-04	
600	-3.40000e+00	2.018740e-04	
601	-3.45000e+00	2.022947e-04	
602	-3.50000e+00	2.027023e-04	
603	-3.55000e+00	2.030978e-04	
604	-3.60000e+00	2.034820e-04	
605	-3.65000e+00	2.038557e-04	
606	-3.70000e+00	2.042197e-04	
607	-3.75000e+00	2.045745e-04	
608	-3.80000e+00	2.049206e-04	
609	-3.85000e+00	2.052587e-04	
610	-3.90000e+00	2.055892e-04	
611	-3.95000e+00	2.059126e-04	
612	-4.00000e+00	2.062292e-04	
613	-4.05000e+00	2.065393e-04	
614	-4.10000e+00	2.068434e-04	
615	-4.15000e+00	2.071418e-04	
616	-4.20000e+00	2.074347e-04	
617	-4.25000e+00	2.077225e-04	
618	-4.30000e+00	2.080052e-04	
619	-4.35000e+00	2.082833e-04	
620	-4.40000e+00	2.085569e-04	
621	-4.45000e+00	2.088262e-04	
622	-4.50000e+00	2.090914e-04	
623	-4.55000e+00	2.093526e-04	
624	-4.60000e+00	2.096101e-04	
625	-4.65000e+00	2.098640e-04	
626	-4.70000e+00	2.101144e-04	
627	-4.75000e+00	2.103615e-04	
628	-4.80000e+00	2.106054e-04	
629	-4.85000e+00	2.108463e-04	
630	-4.90000e+00	2.110841e-04	
631	-4.95000e+00	2.113192e-04	
632	-5.00000e+00	2.115515e-04	
633	-5.05000e+00	2.117811e-04	
634	-5.10000e+00	2.120082e-04	

Index   v-sweep         i(vds)          
--------------------------------------------------------------------------------
635	-5.15000e+00	2.122329e-04	
636	-5.20000e+00	2.124551e-04	
637	-5.25000e+00	2.126751e-04	
638	-5.30000e+00	2.128929e-04	
639	-5.35000e+00	2.131085e-04	
640	-5.40000e+00	2.133221e-04	
641	-5.45000e+00	2.135337e-04	
642	-5.50000e+00	2.137434e-04	
643	-5.55000e+00	2.139513e-04	
644	-5.60000e+00	2.141575e-04	
645	-5.65000e+00	2.143620e-04	
646	-5.70000e+00	2.145649e-04	
647	-5.75000e+00	2.147663e-04	
648	-5.80000e+00	2.149663e-04	
649	-5.85000e+00	2.151650e-04	
650	-5.90000e+00	2.153625e-04	
651	-5.95000e+00	2.155589e-04	
652	-6.00000e+00	2.157544e-04	
653	-6.05000e+00	2.159491e-04	
654	-6.10000e+00	2.161431e-04	
655	-6.15000e+00	2.163366e-04	
656	-6.20000e+00	2.165298e-04	
657	-6.25000e+00	2.167229e-04	
658	-6.30000e+00	2.169161e-04	
659	-6.35000e+00	2.171097e-04	
660	-6.40000e+00	2.173039e-04	
661	-6.45000e+00	2.174990e-04	
662	-6.50000e+00	2.176954e-04	
663	-6.55000e+00	2.178935e-04	
664	-6.60000e+00	2.180935e-04	
665	0.000000e+00	0.000000e+00	
666	-5.00000e-02	7.771318e-06	
667	-1.00000e-01	1.540563e-05	
668	-1.50000e-01	2.290414e-05	
669	-2.00000e-01	3.026803e-05	
670	-2.50000e-01	3.749847e-05	
671	-3.00000e-01	4.459661e-05	
672	-3.50000e-01	5.156359e-05	
673	-4.00000e-01	5.840055e-05	
674	-4.50000e-01	6.510861e-05	
675	-5.00000e-01	7.168886e-05	
676	-5.50000e-01	7.814240e-05	
677	-6.00000e-01	8.447031e-05	
678	-6.50000e-01	9.067366e-05	
679	-7.00000e-01	9.675349e-05	
680	-7.50000e-01	1.027109e-04	
681	-8.00000e-01	1.085468e-04	
682	-8.50000e-01	1.142623e-04	
683	-9.00000e-01	1.198584e-04	
684	-9.50000e-01	1.253361e-04	
685	-1.00000e+00	1.306964e-04	
686	-1.05000e+00	1.359403e-04	
687	-1.10000e+00	1.410686e-04	
688	-1.15000e+00	1.460825e-04	
689	-1.20000e+00	1.509827e-04	
690	-1.25000e+00	1.557703e-04	
691	-1.30000e+00	1.604462e-04	
692	-1.35000e+00	1.650113e-04	

Index   v-sweep         i(vds)          
--------------------------------------------------------------------------------
693	-1.40000e+00	1.694665e-04	
694	-1.45000e+00	1.738126e-04	
695	-1.50000e+00	1.780507e-04	
696	-1.55000e+00	1.821815e-04	
697	-1.60000e+00	1.862060e-04	
698	-1.65000e+00	1.901249e-04	
699	-1.70000e+00	1.939392e-04	
700	-1.75000e+00	1.976496e-04	
701	-1.80000e+00	2.012571e-04	
702	-1.85000e+00	2.047624e-04	
703	-1.90000e+00	2.081665e-04	
704	-1.95000e+00	2.114699e-04	
705	-2.00000e+00	2.146737e-04	
706	-2.05000e+00	2.177786e-04	
707	-2.10000e+00	2.207854e-04	
708	-2.15000e+00	2.236948e-04	
709	-2.20000e+00	2.265077e-04	
710	-2.25000e+00	2.292249e-04	
711	-2.30000e+00	2.318471e-04	
712	-2.35000e+00	2.343751e-04	
713	-2.40000e+00	2.368097e-04	
714	-2.45000e+00	2.391517e-04	
715	-2.50000e+00	2.414018e-04	
716	-2.55000e+00	2.435608e-04	
717	-2.60000e+00	2.456296e-04	
718	-2.65000e+00	2.476088e-04	
719	-2.70000e+00	2.494994e-04	
720	-2.75000e+00	2.513021e-04	
721	-2.80000e+00	2.530178e-04	
722	-2.85000e+00	2.546474e-04	
723	-2.90000e+00	2.561918e-04	
724	-2.95000e+00	2.576521e-04	
725	-3.00000e+00	2.590296e-04	
726	-3.05000e+00	2.603262e-04	
727	-3.10000e+00	2.615445e-04	
728	-3.15000e+00	2.626877e-04	
729	-3.20000e+00	2.637602e-04	
730	-3.25000e+00	2.647670e-04	
731	-3.30000e+00	2.657134e-04	
732	-3.35000e+00	2.666050e-04	
733	-3.40000e+00	2.674470e-04	
734	-3.45000e+00	2.682442e-04	
735	-3.50000e+00	2.690011e-04	
736	-3.55000e+00	2.697215e-04	
737	-3.60000e+00	2.704091e-04	
738	-3.65000e+00	2.710669e-04	
739	-3.70000e+00	2.716976e-04	
740	-3.75000e+00	2.723035e-04	
741	-3.80000e+00	2.728869e-04	
742	-3.85000e+00	2.734496e-04	
743	-3.90000e+00	2.739933e-04	
744	-3.95000e+00	2.745193e-04	
745	-4.00000e+00	2.750291e-04	
746	-4.05000e+00	2.755238e-04	
747	-4.10000e+00	2.760045e-04	
748	-4.15000e+00	2.764720e-04	
749	-4.20000e+00	2.769274e-04	
750	-4.25000e+00	2.773713e-04	

Index   v-sweep         i(vds)          
--------------------------------------------------------------------------------
751	-4.30000e+00	2.778046e-04	
752	-4.35000e+00	2.782277e-04	
753	-4.40000e+00	2.786413e-04	
754	-4.45000e+00	2.790460e-04	
755	-4.50000e+00	2.794423e-04	
756	-4.55000e+00	2.798305e-04	
757	-4.60000e+00	2.802112e-04	
758	-4.65000e+00	2.805847e-04	
759	-4.70000e+00	2.809514e-04	
760	-4.75000e+00	2.813116e-04	
761	-4.80000e+00	2.816657e-04	
762	-4.85000e+00	2.820138e-04	
763	-4.90000e+00	2.823563e-04	
764	-4.95000e+00	2.826935e-04	
765	-5.00000e+00	2.830255e-04	
766	-5.05000e+00	2.833526e-04	
767	-5.10000e+00	2.836750e-04	
768	-5.15000e+00	2.839929e-04	
769	-5.20000e+00	2.843065e-04	
770	-5.25000e+00	2.846159e-04	
771	-5.30000e+00	2.849214e-04	
772	-5.35000e+00	2.852230e-04	
773	-5.40000e+00	2.855209e-04	
774	-5.45000e+00	2.858152e-04	
775	-5.50000e+00	2.861061e-04	
776	-5.55000e+00	2.863937e-04	
777	-5.60000e+00	2.866781e-04	
778	-5.65000e+00	2.869594e-04	
779	-5.70000e+00	2.872378e-04	
780	-5.75000e+00	2.875133e-04	
781	-5.80000e+00	2.877861e-04	
782	-5.85000e+00	2.880562e-04	
783	-5.90000e+00	2.883237e-04	
784	-5.95000e+00	2.885887e-04	
785	-6.00000e+00	2.888514e-04	
786	-6.05000e+00	2.891118e-04	
787	-6.10000e+00	2.893701e-04	
788	-6.15000e+00	2.896262e-04	
789	-6.20000e+00	2.898804e-04	
790	-6.25000e+00	2.901327e-04	
791	-6.30000e+00	2.903833e-04	
792	-6.35000e+00	2.906323e-04	
793	-6.40000e+00	2.908798e-04	
794	-6.45000e+00	2.911260e-04	
795	-6.50000e+00	2.913711e-04	
796	-6.55000e+00	2.916151e-04	
797	-6.60000e+00	2.918584e-04	
Note: No ".plot", ".print", or ".fourier" lines; no simulations run
