
Note: Compatibility modes selected: hs

Warning: m=xx on .subckt line will override multiplier m hierarchy!


Circuit: ***************************

Doing analysis at TEMP = -40.000000 and TNOM = -40.000000


No. of Data Rows : 798
                          ***************************
                          DC transfer characteristic  Mon Jan  9 13:57:53  2023
--------------------------------------------------------------------------------
Index   v-sweep         i(vds)          
--------------------------------------------------------------------------------
0	0.000000e+00	0.000000e+00	
1	-5.00000e-02	4.173214e-09	
2	-1.00000e-01	5.135835e-09	
3	-1.50000e-01	5.283840e-09	
4	-2.00000e-01	5.323828e-09	
5	-2.50000e-01	5.342303e-09	
6	-3.00000e-01	5.353938e-09	
7	-3.50000e-01	5.362628e-09	
8	-4.00000e-01	5.369765e-09	
9	-4.50000e-01	5.375958e-09	
10	-5.00000e-01	5.381517e-09	
11	-5.50000e-01	5.386617e-09	
12	-6.00000e-01	5.391367e-09	
13	-6.50000e-01	5.395839e-09	
14	-7.00000e-01	5.400082e-09	
15	-7.50000e-01	5.404135e-09	
16	-8.00000e-01	5.408023e-09	
17	-8.50000e-01	5.411770e-09	
18	-9.00000e-01	5.415392e-09	
19	-9.50000e-01	5.418904e-09	
20	-1.00000e+00	5.422317e-09	
21	-1.05000e+00	5.425641e-09	
22	-1.10000e+00	5.428885e-09	
23	-1.15000e+00	5.432055e-09	
24	-1.20000e+00	5.435158e-09	
25	-1.25000e+00	5.438198e-09	
26	-1.30000e+00	5.441182e-09	
27	-1.35000e+00	5.444112e-09	
28	-1.40000e+00	5.446993e-09	
29	-1.45000e+00	5.449829e-09	
30	-1.50000e+00	5.452621e-09	
31	-1.55000e+00	5.455373e-09	
32	-1.60000e+00	5.458087e-09	
33	-1.65000e+00	5.460766e-09	
34	-1.70000e+00	5.463411e-09	
35	-1.75000e+00	5.466025e-09	
36	-1.80000e+00	5.468609e-09	
37	-1.85000e+00	5.471164e-09	
38	-1.90000e+00	5.473692e-09	
39	-1.95000e+00	5.476195e-09	
40	-2.00000e+00	5.478674e-09	
41	-2.05000e+00	5.481129e-09	
42	-2.10000e+00	5.483562e-09	
43	-2.15000e+00	5.485974e-09	
44	-2.20000e+00	5.488366e-09	
45	-2.25000e+00	5.490739e-09	
46	-2.30000e+00	5.493093e-09	
47	-2.35000e+00	5.495430e-09	
48	-2.40000e+00	5.497750e-09	
49	-2.45000e+00	5.500053e-09	
50	-2.50000e+00	5.502341e-09	
51	-2.55000e+00	5.504613e-09	
52	-2.60000e+00	5.506871e-09	
53	-2.65000e+00	5.509116e-09	
54	-2.70000e+00	5.511347e-09	

Index   v-sweep         i(vds)          
--------------------------------------------------------------------------------
55	-2.75000e+00	5.513566e-09	
56	-2.80000e+00	5.515772e-09	
57	-2.85000e+00	5.517967e-09	
58	-2.90000e+00	5.520151e-09	
59	-2.95000e+00	5.522324e-09	
60	-3.00000e+00	5.524488e-09	
61	-3.05000e+00	5.526643e-09	
62	-3.10000e+00	5.528790e-09	
63	-3.15000e+00	5.530929e-09	
64	-3.20000e+00	5.533062e-09	
65	-3.25000e+00	5.535191e-09	
66	-3.30000e+00	5.537315e-09	
67	-3.35000e+00	5.539437e-09	
68	-3.40000e+00	5.541558e-09	
69	-3.45000e+00	5.543680e-09	
70	-3.50000e+00	5.545806e-09	
71	-3.55000e+00	5.547938e-09	
72	-3.60000e+00	5.550078e-09	
73	-3.65000e+00	5.552230e-09	
74	-3.70000e+00	5.554397e-09	
75	-3.75000e+00	5.556584e-09	
76	-3.80000e+00	5.558794e-09	
77	-3.85000e+00	5.561034e-09	
78	-3.90000e+00	5.563309e-09	
79	-3.95000e+00	5.565624e-09	
80	-4.00000e+00	5.567988e-09	
81	-4.05000e+00	5.570408e-09	
82	-4.10000e+00	5.572892e-09	
83	-4.15000e+00	5.575451e-09	
84	-4.20000e+00	5.578093e-09	
85	-4.25000e+00	5.580831e-09	
86	-4.30000e+00	5.583678e-09	
87	-4.35000e+00	5.586645e-09	
88	-4.40000e+00	5.589749e-09	
89	-4.45000e+00	5.593004e-09	
90	-4.50000e+00	5.596428e-09	
91	-4.55000e+00	5.600039e-09	
92	-4.60000e+00	5.603857e-09	
93	-4.65000e+00	5.607902e-09	
94	-4.70000e+00	5.612197e-09	
95	-4.75000e+00	5.616766e-09	
96	-4.80000e+00	5.621635e-09	
97	-4.85000e+00	5.626831e-09	
98	-4.90000e+00	5.632382e-09	
99	-4.95000e+00	5.638319e-09	
100	-5.00000e+00	5.644675e-09	
101	-5.05000e+00	5.651482e-09	
102	-5.10000e+00	5.658778e-09	
103	-5.15000e+00	5.666600e-09	
104	-5.20000e+00	5.674987e-09	
105	-5.25000e+00	5.683980e-09	
106	-5.30000e+00	5.693624e-09	
107	-5.35000e+00	5.703963e-09	
108	-5.40000e+00	5.715045e-09	
109	-5.45000e+00	5.726919e-09	
110	-5.50000e+00	5.739637e-09	
111	-5.55000e+00	5.753252e-09	
112	-5.60000e+00	5.767819e-09	

Index   v-sweep         i(vds)          
--------------------------------------------------------------------------------
113	-5.65000e+00	5.783397e-09	
114	-5.70000e+00	5.800045e-09	
115	-5.75000e+00	5.817824e-09	
116	-5.80000e+00	5.836799e-09	
117	-5.85000e+00	5.857035e-09	
118	-5.90000e+00	5.878601e-09	
119	-5.95000e+00	5.901567e-09	
120	-6.00000e+00	5.926005e-09	
121	-6.05000e+00	5.951989e-09	
122	-6.10000e+00	5.979596e-09	
123	-6.15000e+00	6.008905e-09	
124	-6.20000e+00	6.039995e-09	
125	-6.25000e+00	6.072950e-09	
126	-6.30000e+00	6.107854e-09	
127	-6.35000e+00	6.144793e-09	
128	-6.40000e+00	6.183857e-09	
129	-6.45000e+00	6.225136e-09	
130	-6.50000e+00	6.268722e-09	
131	-6.55000e+00	6.314710e-09	
132	-6.60000e+00	6.363195e-09	
133	0.000000e+00	0.000000e+00	
134	-5.00000e-02	1.056086e-07	
135	-1.00000e-01	2.037395e-07	
136	-1.50000e-01	2.944063e-07	
137	-2.00000e-01	3.776237e-07	
138	-2.50000e-01	4.534075e-07	
139	-3.00000e-01	5.217754e-07	
140	-3.50000e-01	5.827487e-07	
141	-4.00000e-01	6.363547e-07	
142	-4.50000e-01	6.826321e-07	
143	-5.00000e-01	7.216414e-07	
144	-5.50000e-01	7.534882e-07	
145	-6.00000e-01	7.783717e-07	
146	-6.50000e-01	7.966862e-07	
147	-7.00000e-01	8.091830e-07	
148	-7.50000e-01	8.170865e-07	
149	-8.00000e-01	8.218962e-07	
150	-8.50000e-01	8.249094e-07	
151	-9.00000e-01	8.269558e-07	
152	-9.50000e-01	8.284783e-07	
153	-1.00000e+00	8.296997e-07	
154	-1.05000e+00	8.307343e-07	
155	-1.10000e+00	8.316446e-07	
156	-1.15000e+00	8.324665e-07	
157	-1.20000e+00	8.332223e-07	
158	-1.25000e+00	8.339267e-07	
159	-1.30000e+00	8.345898e-07	
160	-1.35000e+00	8.352186e-07	
161	-1.40000e+00	8.358187e-07	
162	-1.45000e+00	8.363941e-07	
163	-1.50000e+00	8.369480e-07	
164	-1.55000e+00	8.374831e-07	
165	-1.60000e+00	8.380015e-07	
166	-1.65000e+00	8.385048e-07	
167	-1.70000e+00	8.389948e-07	
168	-1.75000e+00	8.394724e-07	
169	-1.80000e+00	8.399390e-07	
170	-1.85000e+00	8.403953e-07	

Index   v-sweep         i(vds)          
--------------------------------------------------------------------------------
171	-1.90000e+00	8.408423e-07	
172	-1.95000e+00	8.412806e-07	
173	-2.00000e+00	8.417109e-07	
174	-2.05000e+00	8.421338e-07	
175	-2.10000e+00	8.425497e-07	
176	-2.15000e+00	8.429592e-07	
177	-2.20000e+00	8.433626e-07	
178	-2.25000e+00	8.437603e-07	
179	-2.30000e+00	8.441526e-07	
180	-2.35000e+00	8.445399e-07	
181	-2.40000e+00	8.449224e-07	
182	-2.45000e+00	8.453004e-07	
183	-2.50000e+00	8.456741e-07	
184	-2.55000e+00	8.460438e-07	
185	-2.60000e+00	8.464097e-07	
186	-2.65000e+00	8.467719e-07	
187	-2.70000e+00	8.471306e-07	
188	-2.75000e+00	8.474860e-07	
189	-2.80000e+00	8.478383e-07	
190	-2.85000e+00	8.481875e-07	
191	-2.90000e+00	8.485338e-07	
192	-2.95000e+00	8.488773e-07	
193	-3.00000e+00	8.492182e-07	
194	-3.05000e+00	8.495565e-07	
195	-3.10000e+00	8.498924e-07	
196	-3.15000e+00	8.502259e-07	
197	-3.20000e+00	8.505572e-07	
198	-3.25000e+00	8.508864e-07	
199	-3.30000e+00	8.512134e-07	
200	-3.35000e+00	8.515385e-07	
201	-3.40000e+00	8.518616e-07	
202	-3.45000e+00	8.521830e-07	
203	-3.50000e+00	8.525026e-07	
204	-3.55000e+00	8.528205e-07	
205	-3.60000e+00	8.531369e-07	
206	-3.65000e+00	8.534519e-07	
207	-3.70000e+00	8.537655e-07	
208	-3.75000e+00	8.540779e-07	
209	-3.80000e+00	8.543891e-07	
210	-3.85000e+00	8.546994e-07	
211	-3.90000e+00	8.550090e-07	
212	-3.95000e+00	8.553179e-07	
213	-4.00000e+00	8.556264e-07	
214	-4.05000e+00	8.559348e-07	
215	-4.10000e+00	8.562433e-07	
216	-4.15000e+00	8.565523e-07	
217	-4.20000e+00	8.568621e-07	
218	-4.25000e+00	8.571732e-07	
219	-4.30000e+00	8.574859e-07	
220	-4.35000e+00	8.578009e-07	
221	-4.40000e+00	8.581188e-07	
222	-4.45000e+00	8.584401e-07	
223	-4.50000e+00	8.587657e-07	
224	-4.55000e+00	8.590965e-07	
225	-4.60000e+00	8.594333e-07	
226	-4.65000e+00	8.597772e-07	
227	-4.70000e+00	8.601294e-07	
228	-4.75000e+00	8.604912e-07	

Index   v-sweep         i(vds)          
--------------------------------------------------------------------------------
229	-4.80000e+00	8.608640e-07	
230	-4.85000e+00	8.612493e-07	
231	-4.90000e+00	8.616489e-07	
232	-4.95000e+00	8.620645e-07	
233	-5.00000e+00	8.624983e-07	
234	-5.05000e+00	8.629523e-07	
235	-5.10000e+00	8.634290e-07	
236	-5.15000e+00	8.639309e-07	
237	-5.20000e+00	8.644608e-07	
238	-5.25000e+00	8.650216e-07	
239	-5.30000e+00	8.656166e-07	
240	-5.35000e+00	8.662491e-07	
241	-5.40000e+00	8.669227e-07	
242	-5.45000e+00	8.676413e-07	
243	-5.50000e+00	8.684090e-07	
244	-5.55000e+00	8.692302e-07	
245	-5.60000e+00	8.701095e-07	
246	-5.65000e+00	8.710518e-07	
247	-5.70000e+00	8.720622e-07	
248	-5.75000e+00	8.731462e-07	
249	-5.80000e+00	8.743095e-07	
250	-5.85000e+00	8.755581e-07	
251	-5.90000e+00	8.768983e-07	
252	-5.95000e+00	8.783367e-07	
253	-6.00000e+00	8.798802e-07	
254	-6.05000e+00	8.815360e-07	
255	-6.10000e+00	8.833117e-07	
256	-6.15000e+00	8.852151e-07	
257	-6.20000e+00	8.872542e-07	
258	-6.25000e+00	8.894377e-07	
259	-6.30000e+00	8.917742e-07	
260	-6.35000e+00	8.942729e-07	
261	-6.40000e+00	8.969432e-07	
262	-6.45000e+00	8.997948e-07	
263	-6.50000e+00	9.028379e-07	
264	-6.55000e+00	9.060829e-07	
265	-6.60000e+00	9.095403e-07	
266	0.000000e+00	0.000000e+00	
267	-5.00000e-02	1.975398e-07	
268	-1.00000e-01	3.879720e-07	
269	-1.50000e-01	5.713069e-07	
270	-2.00000e-01	7.475550e-07	
271	-2.50000e-01	9.167265e-07	
272	-3.00000e-01	1.078832e-06	
273	-3.50000e-01	1.233882e-06	
274	-4.00000e-01	1.381887e-06	
275	-4.50000e-01	1.522858e-06	
276	-5.00000e-01	1.656806e-06	
277	-5.50000e-01	1.783741e-06	
278	-6.00000e-01	1.903675e-06	
279	-6.50000e-01	2.016621e-06	
280	-7.00000e-01	2.122590e-06	
281	-7.50000e-01	2.221595e-06	
282	-8.00000e-01	2.313650e-06	
283	-8.50000e-01	2.398773e-06	
284	-9.00000e-01	2.476980e-06	
285	-9.50000e-01	2.548295e-06	
286	-1.00000e+00	2.612744e-06	

Index   v-sweep         i(vds)          
--------------------------------------------------------------------------------
287	-1.05000e+00	2.670367e-06	
288	-1.10000e+00	2.721216e-06	
289	-1.15000e+00	2.765372e-06	
290	-1.20000e+00	2.802959e-06	
291	-1.25000e+00	2.834179e-06	
292	-1.30000e+00	2.859362e-06	
293	-1.35000e+00	2.879024e-06	
294	-1.40000e+00	2.893919e-06	
295	-1.45000e+00	2.904998e-06	
296	-1.50000e+00	2.913266e-06	
297	-1.55000e+00	2.919596e-06	
298	-1.60000e+00	2.924638e-06	
299	-1.65000e+00	2.928824e-06	
300	-1.70000e+00	2.932426e-06	
301	-1.75000e+00	2.935616e-06	
302	-1.80000e+00	2.938504e-06	
303	-1.85000e+00	2.941162e-06	
304	-1.90000e+00	2.943637e-06	
305	-1.95000e+00	2.945966e-06	
306	-2.00000e+00	2.948174e-06	
307	-2.05000e+00	2.950278e-06	
308	-2.10000e+00	2.952295e-06	
309	-2.15000e+00	2.954235e-06	
310	-2.20000e+00	2.956108e-06	
311	-2.25000e+00	2.957922e-06	
312	-2.30000e+00	2.959683e-06	
313	-2.35000e+00	2.961395e-06	
314	-2.40000e+00	2.963065e-06	
315	-2.45000e+00	2.964695e-06	
316	-2.50000e+00	2.966289e-06	
317	-2.55000e+00	2.967850e-06	
318	-2.60000e+00	2.969381e-06	
319	-2.65000e+00	2.970883e-06	
320	-2.70000e+00	2.972359e-06	
321	-2.75000e+00	2.973811e-06	
322	-2.80000e+00	2.975240e-06	
323	-2.85000e+00	2.976648e-06	
324	-2.90000e+00	2.978036e-06	
325	-2.95000e+00	2.979405e-06	
326	-3.00000e+00	2.980756e-06	
327	-3.05000e+00	2.982091e-06	
328	-3.10000e+00	2.983409e-06	
329	-3.15000e+00	2.984713e-06	
330	-3.20000e+00	2.986003e-06	
331	-3.25000e+00	2.987280e-06	
332	-3.30000e+00	2.988544e-06	
333	-3.35000e+00	2.989795e-06	
334	-3.40000e+00	2.991035e-06	
335	-3.45000e+00	2.992264e-06	
336	-3.50000e+00	2.993483e-06	
337	-3.55000e+00	2.994691e-06	
338	-3.60000e+00	2.995890e-06	
339	-3.65000e+00	2.997079e-06	
340	-3.70000e+00	2.998260e-06	
341	-3.75000e+00	2.999432e-06	
342	-3.80000e+00	3.000596e-06	
343	-3.85000e+00	3.001752e-06	
344	-3.90000e+00	3.002901e-06	

Index   v-sweep         i(vds)          
--------------------------------------------------------------------------------
345	-3.95000e+00	3.004043e-06	
346	-4.00000e+00	3.005177e-06	
347	-4.05000e+00	3.006305e-06	
348	-4.10000e+00	3.007427e-06	
349	-4.15000e+00	3.008542e-06	
350	-4.20000e+00	3.009652e-06	
351	-4.25000e+00	3.010757e-06	
352	-4.30000e+00	3.011856e-06	
353	-4.35000e+00	3.012950e-06	
354	-4.40000e+00	3.014040e-06	
355	-4.45000e+00	3.015126e-06	
356	-4.50000e+00	3.016209e-06	
357	-4.55000e+00	3.017289e-06	
358	-4.60000e+00	3.018366e-06	
359	-4.65000e+00	3.019441e-06	
360	-4.70000e+00	3.020516e-06	
361	-4.75000e+00	3.021591e-06	
362	-4.80000e+00	3.022667e-06	
363	-4.85000e+00	3.023745e-06	
364	-4.90000e+00	3.024826e-06	
365	-4.95000e+00	3.025913e-06	
366	-5.00000e+00	3.027007e-06	
367	-5.05000e+00	3.028109e-06	
368	-5.10000e+00	3.029222e-06	
369	-5.15000e+00	3.030349e-06	
370	-5.20000e+00	3.031492e-06	
371	-5.25000e+00	3.032655e-06	
372	-5.30000e+00	3.033840e-06	
373	-5.35000e+00	3.035052e-06	
374	-5.40000e+00	3.036295e-06	
375	-5.45000e+00	3.037574e-06	
376	-5.50000e+00	3.038893e-06	
377	-5.55000e+00	3.040259e-06	
378	-5.60000e+00	3.041678e-06	
379	-5.65000e+00	3.043156e-06	
380	-5.70000e+00	3.044700e-06	
381	-5.75000e+00	3.046319e-06	
382	-5.80000e+00	3.048022e-06	
383	-5.85000e+00	3.049817e-06	
384	-5.90000e+00	3.051714e-06	
385	-5.95000e+00	3.053725e-06	
386	-6.00000e+00	3.055860e-06	
387	-6.05000e+00	3.058132e-06	
388	-6.10000e+00	3.060554e-06	
389	-6.15000e+00	3.063141e-06	
390	-6.20000e+00	3.065905e-06	
391	-6.25000e+00	3.068865e-06	
392	-6.30000e+00	3.072035e-06	
393	-6.35000e+00	3.075434e-06	
394	-6.40000e+00	3.079081e-06	
395	-6.45000e+00	3.082994e-06	
396	-6.50000e+00	3.087194e-06	
397	-6.55000e+00	3.091703e-06	
398	-6.60000e+00	3.096544e-06	
399	0.000000e+00	0.000000e+00	
400	-5.00000e-02	2.774770e-07	
401	-1.00000e-01	5.482747e-07	
402	-1.50000e-01	8.124017e-07	

Index   v-sweep         i(vds)          
--------------------------------------------------------------------------------
403	-2.00000e-01	1.069867e-06	
404	-2.50000e-01	1.320679e-06	
405	-3.00000e-01	1.564846e-06	
406	-3.50000e-01	1.802378e-06	
407	-4.00000e-01	2.033282e-06	
408	-4.50000e-01	2.257568e-06	
409	-5.00000e-01	2.475244e-06	
410	-5.50000e-01	2.686319e-06	
411	-6.00000e-01	2.890802e-06	
412	-6.50000e-01	3.088701e-06	
413	-7.00000e-01	3.280025e-06	
414	-7.50000e-01	3.464783e-06	
415	-8.00000e-01	3.642984e-06	
416	-8.50000e-01	3.814637e-06	
417	-9.00000e-01	3.979751e-06	
418	-9.50000e-01	4.138334e-06	
419	-1.00000e+00	4.290396e-06	
420	-1.05000e+00	4.435946e-06	
421	-1.10000e+00	4.574994e-06	
422	-1.15000e+00	4.707550e-06	
423	-1.20000e+00	4.833624e-06	
424	-1.25000e+00	4.953225e-06	
425	-1.30000e+00	5.066366e-06	
426	-1.35000e+00	5.173059e-06	
427	-1.40000e+00	5.273315e-06	
428	-1.45000e+00	5.367151e-06	
429	-1.50000e+00	5.454582e-06	
430	-1.55000e+00	5.535629e-06	
431	-1.60000e+00	5.610314e-06	
432	-1.65000e+00	5.678670e-06	
433	-1.70000e+00	5.740735e-06	
434	-1.75000e+00	5.796565e-06	
435	-1.80000e+00	5.846237e-06	
436	-1.85000e+00	5.889864e-06	
437	-1.90000e+00	5.927613e-06	
438	-1.95000e+00	5.959732e-06	
439	-2.00000e+00	5.986580e-06	
440	-2.05000e+00	6.008659e-06	
441	-2.10000e+00	6.026609e-06	
442	-2.15000e+00	6.041166e-06	
443	-2.20000e+00	6.053073e-06	
444	-2.25000e+00	6.062990e-06	
445	-2.30000e+00	6.071444e-06	
446	-2.35000e+00	6.078824e-06	
447	-2.40000e+00	6.085405e-06	
448	-2.45000e+00	6.091380e-06	
449	-2.50000e+00	6.096884e-06	
450	-2.55000e+00	6.102012e-06	
451	-2.60000e+00	6.106833e-06	
452	-2.65000e+00	6.111401e-06	
453	-2.70000e+00	6.115753e-06	
454	-2.75000e+00	6.119921e-06	
455	-2.80000e+00	6.123928e-06	
456	-2.85000e+00	6.127795e-06	
457	-2.90000e+00	6.131538e-06	
458	-2.95000e+00	6.135169e-06	
459	-3.00000e+00	6.138701e-06	
460	-3.05000e+00	6.142142e-06	

Index   v-sweep         i(vds)          
--------------------------------------------------------------------------------
461	-3.10000e+00	6.145501e-06	
462	-3.15000e+00	6.148786e-06	
463	-3.20000e+00	6.152001e-06	
464	-3.25000e+00	6.155152e-06	
465	-3.30000e+00	6.158246e-06	
466	-3.35000e+00	6.161284e-06	
467	-3.40000e+00	6.164273e-06	
468	-3.45000e+00	6.167214e-06	
469	-3.50000e+00	6.170110e-06	
470	-3.55000e+00	6.172966e-06	
471	-3.60000e+00	6.175783e-06	
472	-3.65000e+00	6.178563e-06	
473	-3.70000e+00	6.181309e-06	
474	-3.75000e+00	6.184022e-06	
475	-3.80000e+00	6.186705e-06	
476	-3.85000e+00	6.189358e-06	
477	-3.90000e+00	6.191984e-06	
478	-3.95000e+00	6.194583e-06	
479	-4.00000e+00	6.197158e-06	
480	-4.05000e+00	6.199709e-06	
481	-4.10000e+00	6.202237e-06	
482	-4.15000e+00	6.204743e-06	
483	-4.20000e+00	6.207229e-06	
484	-4.25000e+00	6.209695e-06	
485	-4.30000e+00	6.212141e-06	
486	-4.35000e+00	6.214570e-06	
487	-4.40000e+00	6.216981e-06	
488	-4.45000e+00	6.219376e-06	
489	-4.50000e+00	6.221754e-06	
490	-4.55000e+00	6.224117e-06	
491	-4.60000e+00	6.226466e-06	
492	-4.65000e+00	6.228800e-06	
493	-4.70000e+00	6.231120e-06	
494	-4.75000e+00	6.233428e-06	
495	-4.80000e+00	6.235722e-06	
496	-4.85000e+00	6.238005e-06	
497	-4.90000e+00	6.240277e-06	
498	-4.95000e+00	6.242538e-06	
499	-5.00000e+00	6.244789e-06	
500	-5.05000e+00	6.247031e-06	
501	-5.10000e+00	6.249264e-06	
502	-5.15000e+00	6.251490e-06	
503	-5.20000e+00	6.253709e-06	
504	-5.25000e+00	6.255923e-06	
505	-5.30000e+00	6.258132e-06	
506	-5.35000e+00	6.260339e-06	
507	-5.40000e+00	6.262545e-06	
508	-5.45000e+00	6.264751e-06	
509	-5.50000e+00	6.266961e-06	
510	-5.55000e+00	6.269177e-06	
511	-5.60000e+00	6.271401e-06	
512	-5.65000e+00	6.273636e-06	
513	-5.70000e+00	6.275888e-06	
514	-5.75000e+00	6.278159e-06	
515	-5.80000e+00	6.280454e-06	
516	-5.85000e+00	6.282779e-06	
517	-5.90000e+00	6.285140e-06	
518	-5.95000e+00	6.287543e-06	

Index   v-sweep         i(vds)          
--------------------------------------------------------------------------------
519	-6.00000e+00	6.289995e-06	
520	-6.05000e+00	6.292506e-06	
521	-6.10000e+00	6.295083e-06	
522	-6.15000e+00	6.297737e-06	
523	-6.20000e+00	6.300479e-06	
524	-6.25000e+00	6.303321e-06	
525	-6.30000e+00	6.306276e-06	
526	-6.35000e+00	6.309358e-06	
527	-6.40000e+00	6.312582e-06	
528	-6.45000e+00	6.315966e-06	
529	-6.50000e+00	6.319528e-06	
530	-6.55000e+00	6.323287e-06	
531	-6.60000e+00	6.327264e-06	
532	0.000000e+00	0.000000e+00	
533	-5.00000e-02	3.473257e-07	
534	-1.00000e-01	6.883857e-07	
535	-1.50000e-01	1.023188e-06	
536	-2.00000e-01	1.351739e-06	
537	-2.50000e-01	1.674047e-06	
538	-3.00000e-01	1.990118e-06	
539	-3.50000e-01	2.299962e-06	
540	-4.00000e-01	2.603584e-06	
541	-4.50000e-01	2.900993e-06	
542	-5.00000e-01	3.192195e-06	
543	-5.50000e-01	3.477198e-06	
544	-6.00000e-01	3.756010e-06	
545	-6.50000e-01	4.028638e-06	
546	-7.00000e-01	4.295089e-06	
547	-7.50000e-01	4.555370e-06	
548	-8.00000e-01	4.809489e-06	
549	-8.50000e-01	5.057453e-06	
550	-9.00000e-01	5.299271e-06	
551	-9.50000e-01	5.534948e-06	
552	-1.00000e+00	5.764492e-06	
553	-1.05000e+00	5.987912e-06	
554	-1.10000e+00	6.205213e-06	
555	-1.15000e+00	6.416404e-06	
556	-1.20000e+00	6.621493e-06	
557	-1.25000e+00	6.820486e-06	
558	-1.30000e+00	7.013390e-06	
559	-1.35000e+00	7.200215e-06	
560	-1.40000e+00	7.380967e-06	
561	-1.45000e+00	7.555653e-06	
562	-1.50000e+00	7.724283e-06	
563	-1.55000e+00	7.886862e-06	
564	-1.60000e+00	8.043401e-06	
565	-1.65000e+00	8.193906e-06	
566	-1.70000e+00	8.338386e-06	
567	-1.75000e+00	8.476849e-06	
568	-1.80000e+00	8.609305e-06	
569	-1.85000e+00	8.735764e-06	
570	-1.90000e+00	8.856233e-06	
571	-1.95000e+00	8.970725e-06	
572	-2.00000e+00	9.079251e-06	
573	-2.05000e+00	9.181823e-06	
574	-2.10000e+00	9.278455e-06	
575	-2.15000e+00	9.369165e-06	
576	-2.20000e+00	9.453970e-06	

Index   v-sweep         i(vds)          
--------------------------------------------------------------------------------
577	-2.25000e+00	9.532895e-06	
578	-2.30000e+00	9.605968e-06	
579	-2.35000e+00	9.673228e-06	
580	-2.40000e+00	9.734723e-06	
581	-2.45000e+00	9.790521e-06	
582	-2.50000e+00	9.840712e-06	
583	-2.55000e+00	9.885425e-06	
584	-2.60000e+00	9.924839e-06	
585	-2.65000e+00	9.959204e-06	
586	-2.70000e+00	9.988858e-06	
587	-2.75000e+00	1.001424e-05	
588	-2.80000e+00	1.003586e-05	
589	-2.85000e+00	1.005432e-05	
590	-2.90000e+00	1.007019e-05	
591	-2.95000e+00	1.008401e-05	
592	-3.00000e+00	1.009622e-05	
593	-3.05000e+00	1.010719e-05	
594	-3.10000e+00	1.011716e-05	
595	-3.15000e+00	1.012636e-05	
596	-3.20000e+00	1.013493e-05	
597	-3.25000e+00	1.014298e-05	
598	-3.30000e+00	1.015061e-05	
599	-3.35000e+00	1.015786e-05	
600	-3.40000e+00	1.016480e-05	
601	-3.45000e+00	1.017147e-05	
602	-3.50000e+00	1.017791e-05	
603	-3.55000e+00	1.018413e-05	
604	-3.60000e+00	1.019016e-05	
605	-3.65000e+00	1.019602e-05	
606	-3.70000e+00	1.020174e-05	
607	-3.75000e+00	1.020731e-05	
608	-3.80000e+00	1.021275e-05	
609	-3.85000e+00	1.021808e-05	
610	-3.90000e+00	1.022331e-05	
611	-3.95000e+00	1.022843e-05	
612	-4.00000e+00	1.023347e-05	
613	-4.05000e+00	1.023841e-05	
614	-4.10000e+00	1.024328e-05	
615	-4.15000e+00	1.024808e-05	
616	-4.20000e+00	1.025281e-05	
617	-4.25000e+00	1.025747e-05	
618	-4.30000e+00	1.026207e-05	
619	-4.35000e+00	1.026661e-05	
620	-4.40000e+00	1.027110e-05	
621	-4.45000e+00	1.027554e-05	
622	-4.50000e+00	1.027992e-05	
623	-4.55000e+00	1.028427e-05	
624	-4.60000e+00	1.028857e-05	
625	-4.65000e+00	1.029282e-05	
626	-4.70000e+00	1.029704e-05	
627	-4.75000e+00	1.030122e-05	
628	-4.80000e+00	1.030537e-05	
629	-4.85000e+00	1.030948e-05	
630	-4.90000e+00	1.031355e-05	
631	-4.95000e+00	1.031760e-05	
632	-5.00000e+00	1.032161e-05	
633	-5.05000e+00	1.032560e-05	
634	-5.10000e+00	1.032956e-05	

Index   v-sweep         i(vds)          
--------------------------------------------------------------------------------
635	-5.15000e+00	1.033349e-05	
636	-5.20000e+00	1.033740e-05	
637	-5.25000e+00	1.034128e-05	
638	-5.30000e+00	1.034514e-05	
639	-5.35000e+00	1.034897e-05	
640	-5.40000e+00	1.035278e-05	
641	-5.45000e+00	1.035658e-05	
642	-5.50000e+00	1.036035e-05	
643	-5.55000e+00	1.036411e-05	
644	-5.60000e+00	1.036784e-05	
645	-5.65000e+00	1.037156e-05	
646	-5.70000e+00	1.037526e-05	
647	-5.75000e+00	1.037895e-05	
648	-5.80000e+00	1.038263e-05	
649	-5.85000e+00	1.038629e-05	
650	-5.90000e+00	1.038995e-05	
651	-5.95000e+00	1.039359e-05	
652	-6.00000e+00	1.039723e-05	
653	-6.05000e+00	1.040087e-05	
654	-6.10000e+00	1.040450e-05	
655	-6.15000e+00	1.040814e-05	
656	-6.20000e+00	1.041178e-05	
657	-6.25000e+00	1.041543e-05	
658	-6.30000e+00	1.041910e-05	
659	-6.35000e+00	1.042279e-05	
660	-6.40000e+00	1.042651e-05	
661	-6.45000e+00	1.043026e-05	
662	-6.50000e+00	1.043405e-05	
663	-6.55000e+00	1.043789e-05	
664	-6.60000e+00	1.044179e-05	
665	0.000000e+00	0.000000e+00	
666	-5.00000e-02	4.086827e-07	
667	-1.00000e-01	8.114864e-07	
668	-1.50000e-01	1.208417e-06	
669	-2.00000e-01	1.599482e-06	
670	-2.50000e-01	1.984687e-06	
671	-3.00000e-01	2.364038e-06	
672	-3.50000e-01	2.737543e-06	
673	-4.00000e-01	3.105206e-06	
674	-4.50000e-01	3.467035e-06	
675	-5.00000e-01	3.823037e-06	
676	-5.50000e-01	4.173216e-06	
677	-6.00000e-01	4.517580e-06	
678	-6.50000e-01	4.856135e-06	
679	-7.00000e-01	5.188888e-06	
680	-7.50000e-01	5.515844e-06	
681	-8.00000e-01	5.837010e-06	
682	-8.50000e-01	6.152392e-06	
683	-9.00000e-01	6.461997e-06	
684	-9.50000e-01	6.765831e-06	
685	-1.00000e+00	7.063900e-06	
686	-1.05000e+00	7.356211e-06	
687	-1.10000e+00	7.642769e-06	
688	-1.15000e+00	7.923582e-06	
689	-1.20000e+00	8.198654e-06	
690	-1.25000e+00	8.467994e-06	
691	-1.30000e+00	8.731606e-06	
692	-1.35000e+00	8.989498e-06	

Index   v-sweep         i(vds)          
--------------------------------------------------------------------------------
693	-1.40000e+00	9.241675e-06	
694	-1.45000e+00	9.488144e-06	
695	-1.50000e+00	9.728912e-06	
696	-1.55000e+00	9.963983e-06	
697	-1.60000e+00	1.019337e-05	
698	-1.65000e+00	1.041707e-05	
699	-1.70000e+00	1.063509e-05	
700	-1.75000e+00	1.084744e-05	
701	-1.80000e+00	1.105413e-05	
702	-1.85000e+00	1.125516e-05	
703	-1.90000e+00	1.145055e-05	
704	-1.95000e+00	1.164028e-05	
705	-2.00000e+00	1.182438e-05	
706	-2.05000e+00	1.200285e-05	
707	-2.10000e+00	1.217570e-05	
708	-2.15000e+00	1.234293e-05	
709	-2.20000e+00	1.250454e-05	
710	-2.25000e+00	1.266056e-05	
711	-2.30000e+00	1.281098e-05	
712	-2.35000e+00	1.295581e-05	
713	-2.40000e+00	1.309506e-05	
714	-2.45000e+00	1.322873e-05	
715	-2.50000e+00	1.335685e-05	
716	-2.55000e+00	1.347941e-05	
717	-2.60000e+00	1.359642e-05	
718	-2.65000e+00	1.370790e-05	
719	-2.70000e+00	1.381386e-05	
720	-2.75000e+00	1.391430e-05	
721	-2.80000e+00	1.400926e-05	
722	-2.85000e+00	1.409874e-05	
723	-2.90000e+00	1.418276e-05	
724	-2.95000e+00	1.426135e-05	
725	-3.00000e+00	1.433455e-05	
726	-3.05000e+00	1.440239e-05	
727	-3.10000e+00	1.446494e-05	
728	-3.15000e+00	1.452224e-05	
729	-3.20000e+00	1.457442e-05	
730	-3.25000e+00	1.462158e-05	
731	-3.30000e+00	1.466390e-05	
732	-3.35000e+00	1.470161e-05	
733	-3.40000e+00	1.473499e-05	
734	-3.45000e+00	1.476442e-05	
735	-3.50000e+00	1.479031e-05	
736	-3.55000e+00	1.481313e-05	
737	-3.60000e+00	1.483337e-05	
738	-3.65000e+00	1.485145e-05	
739	-3.70000e+00	1.486779e-05	
740	-3.75000e+00	1.488270e-05	
741	-3.80000e+00	1.489645e-05	
742	-3.85000e+00	1.490926e-05	
743	-3.90000e+00	1.492128e-05	
744	-3.95000e+00	1.493264e-05	
745	-4.00000e+00	1.494344e-05	
746	-4.05000e+00	1.495376e-05	
747	-4.10000e+00	1.496367e-05	
748	-4.15000e+00	1.497321e-05	
749	-4.20000e+00	1.498243e-05	
750	-4.25000e+00	1.499136e-05	

Index   v-sweep         i(vds)          
--------------------------------------------------------------------------------
751	-4.30000e+00	1.500004e-05	
752	-4.35000e+00	1.500848e-05	
753	-4.40000e+00	1.501672e-05	
754	-4.45000e+00	1.502476e-05	
755	-4.50000e+00	1.503263e-05	
756	-4.55000e+00	1.504033e-05	
757	-4.60000e+00	1.504789e-05	
758	-4.65000e+00	1.505531e-05	
759	-4.70000e+00	1.506260e-05	
760	-4.75000e+00	1.506977e-05	
761	-4.80000e+00	1.507683e-05	
762	-4.85000e+00	1.508379e-05	
763	-4.90000e+00	1.509065e-05	
764	-4.95000e+00	1.509742e-05	
765	-5.00000e+00	1.510410e-05	
766	-5.05000e+00	1.511070e-05	
767	-5.10000e+00	1.511722e-05	
768	-5.15000e+00	1.512368e-05	
769	-5.20000e+00	1.513006e-05	
770	-5.25000e+00	1.513638e-05	
771	-5.30000e+00	1.514264e-05	
772	-5.35000e+00	1.514883e-05	
773	-5.40000e+00	1.515497e-05	
774	-5.45000e+00	1.516106e-05	
775	-5.50000e+00	1.516710e-05	
776	-5.55000e+00	1.517309e-05	
777	-5.60000e+00	1.517903e-05	
778	-5.65000e+00	1.518492e-05	
779	-5.70000e+00	1.519078e-05	
780	-5.75000e+00	1.519659e-05	
781	-5.80000e+00	1.520236e-05	
782	-5.85000e+00	1.520810e-05	
783	-5.90000e+00	1.521380e-05	
784	-5.95000e+00	1.521946e-05	
785	-6.00000e+00	1.522509e-05	
786	-6.05000e+00	1.523069e-05	
787	-6.10000e+00	1.523625e-05	
788	-6.15000e+00	1.524179e-05	
789	-6.20000e+00	1.524730e-05	
790	-6.25000e+00	1.525278e-05	
791	-6.30000e+00	1.525824e-05	
792	-6.35000e+00	1.526367e-05	
793	-6.40000e+00	1.526908e-05	
794	-6.45000e+00	1.527447e-05	
795	-6.50000e+00	1.527984e-05	
796	-6.55000e+00	1.528519e-05	
797	-6.60000e+00	1.529053e-05	
Note: No ".plot", ".print", or ".fourier" lines; no simulations run
