
Note: Compatibility modes selected: hs

Warning: m=xx on .subckt line will override multiplier m hierarchy!


Circuit: ***************************

Doing analysis at TEMP = 25.000000 and TNOM = 25.000000


No. of Data Rows : 798
                          ***************************
                          DC transfer characteristic  Mon Jan  9 13:57:52  2023
--------------------------------------------------------------------------------
Index   v-sweep         i(vds)          
--------------------------------------------------------------------------------
0	0.000000e+00	0.000000e+00	
1	-5.00000e-02	5.340380e-08	
2	-1.00000e-01	7.772571e-08	
3	-1.50000e-01	8.424769e-08	
4	-2.00000e-01	8.567844e-08	
5	-2.50000e-01	8.612840e-08	
6	-3.00000e-01	8.633600e-08	
7	-3.50000e-01	8.646087e-08	
8	-4.00000e-01	8.655008e-08	
9	-4.50000e-01	8.662114e-08	
10	-5.00000e-01	8.668177e-08	
11	-5.50000e-01	8.673581e-08	
12	-6.00000e-01	8.678539e-08	
13	-6.50000e-01	8.683174e-08	
14	-7.00000e-01	8.687566e-08	
15	-7.50000e-01	8.691769e-08	
16	-8.00000e-01	8.695817e-08	
17	-8.50000e-01	8.699739e-08	
18	-9.00000e-01	8.703554e-08	
19	-9.50000e-01	8.707277e-08	
20	-1.00000e+00	8.710919e-08	
21	-1.05000e+00	8.714492e-08	
22	-1.10000e+00	8.718001e-08	
23	-1.15000e+00	8.721455e-08	
24	-1.20000e+00	8.724857e-08	
25	-1.25000e+00	8.728213e-08	
26	-1.30000e+00	8.731527e-08	
27	-1.35000e+00	8.734801e-08	
28	-1.40000e+00	8.738040e-08	
29	-1.45000e+00	8.741246e-08	
30	-1.50000e+00	8.744420e-08	
31	-1.55000e+00	8.747566e-08	
32	-1.60000e+00	8.750684e-08	
33	-1.65000e+00	8.753777e-08	
34	-1.70000e+00	8.756847e-08	
35	-1.75000e+00	8.759894e-08	
36	-1.80000e+00	8.762919e-08	
37	-1.85000e+00	8.765925e-08	
38	-1.90000e+00	8.768912e-08	
39	-1.95000e+00	8.771880e-08	
40	-2.00000e+00	8.774832e-08	
41	-2.05000e+00	8.777767e-08	
42	-2.10000e+00	8.780687e-08	
43	-2.15000e+00	8.783592e-08	
44	-2.20000e+00	8.786483e-08	
45	-2.25000e+00	8.789360e-08	
46	-2.30000e+00	8.792224e-08	
47	-2.35000e+00	8.795076e-08	
48	-2.40000e+00	8.797916e-08	
49	-2.45000e+00	8.800745e-08	
50	-2.50000e+00	8.803563e-08	
51	-2.55000e+00	8.806370e-08	
52	-2.60000e+00	8.809167e-08	
53	-2.65000e+00	8.811955e-08	
54	-2.70000e+00	8.814734e-08	

Index   v-sweep         i(vds)          
--------------------------------------------------------------------------------
55	-2.75000e+00	8.817504e-08	
56	-2.80000e+00	8.820266e-08	
57	-2.85000e+00	8.823020e-08	
58	-2.90000e+00	8.825768e-08	
59	-2.95000e+00	8.828509e-08	
60	-3.00000e+00	8.831245e-08	
61	-3.05000e+00	8.833976e-08	
62	-3.10000e+00	8.836703e-08	
63	-3.15000e+00	8.839428e-08	
64	-3.20000e+00	8.842151e-08	
65	-3.25000e+00	8.844876e-08	
66	-3.30000e+00	8.847602e-08	
67	-3.35000e+00	8.850333e-08	
68	-3.40000e+00	8.853072e-08	
69	-3.45000e+00	8.855820e-08	
70	-3.50000e+00	8.858582e-08	
71	-3.55000e+00	8.861361e-08	
72	-3.60000e+00	8.864163e-08	
73	-3.65000e+00	8.866991e-08	
74	-3.70000e+00	8.869853e-08	
75	-3.75000e+00	8.872755e-08	
76	-3.80000e+00	8.875704e-08	
77	-3.85000e+00	8.878708e-08	
78	-3.90000e+00	8.881779e-08	
79	-3.95000e+00	8.884925e-08	
80	-4.00000e+00	8.888159e-08	
81	-4.05000e+00	8.891494e-08	
82	-4.10000e+00	8.894945e-08	
83	-4.15000e+00	8.898528e-08	
84	-4.20000e+00	8.902259e-08	
85	-4.25000e+00	8.906159e-08	
86	-4.30000e+00	8.910247e-08	
87	-4.35000e+00	8.914548e-08	
88	-4.40000e+00	8.919085e-08	
89	-4.45000e+00	8.923886e-08	
90	-4.50000e+00	8.928978e-08	
91	-4.55000e+00	8.934394e-08	
92	-4.60000e+00	8.940167e-08	
93	-4.65000e+00	8.946331e-08	
94	-4.70000e+00	8.952927e-08	
95	-4.75000e+00	8.959993e-08	
96	-4.80000e+00	8.967574e-08	
97	-4.85000e+00	8.975716e-08	
98	-4.90000e+00	8.984468e-08	
99	-4.95000e+00	8.993881e-08	
100	-5.00000e+00	9.004010e-08	
101	-5.05000e+00	9.014914e-08	
102	-5.10000e+00	9.026651e-08	
103	-5.15000e+00	9.039288e-08	
104	-5.20000e+00	9.052890e-08	
105	-5.25000e+00	9.067527e-08	
106	-5.30000e+00	9.083274e-08	
107	-5.35000e+00	9.100208e-08	
108	-5.40000e+00	9.118407e-08	
109	-5.45000e+00	9.137957e-08	
110	-5.50000e+00	9.158943e-08	
111	-5.55000e+00	9.181457e-08	
112	-5.60000e+00	9.205592e-08	

Index   v-sweep         i(vds)          
--------------------------------------------------------------------------------
113	-5.65000e+00	9.231445e-08	
114	-5.70000e+00	9.259117e-08	
115	-5.75000e+00	9.288713e-08	
116	-5.80000e+00	9.320341e-08	
117	-5.85000e+00	9.354110e-08	
118	-5.90000e+00	9.390137e-08	
119	-5.95000e+00	9.428539e-08	
120	-6.00000e+00	9.469438e-08	
121	-6.05000e+00	9.512960e-08	
122	-6.10000e+00	9.559232e-08	
123	-6.15000e+00	9.608387e-08	
124	-6.20000e+00	9.660559e-08	
125	-6.25000e+00	9.715888e-08	
126	-6.30000e+00	9.774516e-08	
127	-6.35000e+00	9.836588e-08	
128	-6.40000e+00	9.902251e-08	
129	-6.45000e+00	9.971659e-08	
130	-6.50000e+00	1.004496e-07	
131	-6.55000e+00	1.012233e-07	
132	-6.60000e+00	1.020391e-07	
133	0.000000e+00	0.000000e+00	
134	-5.00000e-02	6.317249e-07	
135	-1.00000e-01	1.222344e-06	
136	-1.50000e-01	1.771891e-06	
137	-2.00000e-01	2.280401e-06	
138	-2.50000e-01	2.747916e-06	
139	-3.00000e-01	3.174484e-06	
140	-3.50000e-01	3.560163e-06	
141	-4.00000e-01	3.905034e-06	
142	-4.50000e-01	4.209208e-06	
143	-5.00000e-01	4.472858e-06	
144	-5.50000e-01	4.696271e-06	
145	-6.00000e-01	4.879962e-06	
146	-6.50000e-01	5.024904e-06	
147	-7.00000e-01	5.133004e-06	
148	-7.50000e-01	5.207886e-06	
149	-8.00000e-01	5.255616e-06	
150	-8.50000e-01	5.284150e-06	
151	-9.00000e-01	5.301058e-06	
152	-9.50000e-01	5.311631e-06	
153	-1.00000e+00	5.318860e-06	
154	-1.05000e+00	5.324275e-06	
155	-1.10000e+00	5.328648e-06	
156	-1.15000e+00	5.332385e-06	
157	-1.20000e+00	5.335708e-06	
158	-1.25000e+00	5.338747e-06	
159	-1.30000e+00	5.341579e-06	
160	-1.35000e+00	5.344257e-06	
161	-1.40000e+00	5.346814e-06	
162	-1.45000e+00	5.349273e-06	
163	-1.50000e+00	5.351653e-06	
164	-1.55000e+00	5.353965e-06	
165	-1.60000e+00	5.356220e-06	
166	-1.65000e+00	5.358425e-06	
167	-1.70000e+00	5.360586e-06	
168	-1.75000e+00	5.362708e-06	
169	-1.80000e+00	5.364795e-06	
170	-1.85000e+00	5.366851e-06	

Index   v-sweep         i(vds)          
--------------------------------------------------------------------------------
171	-1.90000e+00	5.368878e-06	
172	-1.95000e+00	5.370879e-06	
173	-2.00000e+00	5.372856e-06	
174	-2.05000e+00	5.374811e-06	
175	-2.10000e+00	5.376746e-06	
176	-2.15000e+00	5.378661e-06	
177	-2.20000e+00	5.380559e-06	
178	-2.25000e+00	5.382440e-06	
179	-2.30000e+00	5.384306e-06	
180	-2.35000e+00	5.386157e-06	
181	-2.40000e+00	5.387995e-06	
182	-2.45000e+00	5.389819e-06	
183	-2.50000e+00	5.391631e-06	
184	-2.55000e+00	5.393432e-06	
185	-2.60000e+00	5.395222e-06	
186	-2.65000e+00	5.397001e-06	
187	-2.70000e+00	5.398770e-06	
188	-2.75000e+00	5.400529e-06	
189	-2.80000e+00	5.402280e-06	
190	-2.85000e+00	5.404022e-06	
191	-2.90000e+00	5.405756e-06	
192	-2.95000e+00	5.407481e-06	
193	-3.00000e+00	5.409200e-06	
194	-3.05000e+00	5.410911e-06	
195	-3.10000e+00	5.412615e-06	
196	-3.15000e+00	5.414312e-06	
197	-3.20000e+00	5.416003e-06	
198	-3.25000e+00	5.417688e-06	
199	-3.30000e+00	5.419367e-06	
200	-3.35000e+00	5.421040e-06	
201	-3.40000e+00	5.422708e-06	
202	-3.45000e+00	5.424371e-06	
203	-3.50000e+00	5.426029e-06	
204	-3.55000e+00	5.427683e-06	
205	-3.60000e+00	5.429333e-06	
206	-3.65000e+00	5.430979e-06	
207	-3.70000e+00	5.432622e-06	
208	-3.75000e+00	5.434263e-06	
209	-3.80000e+00	5.435901e-06	
210	-3.85000e+00	5.437539e-06	
211	-3.90000e+00	5.439176e-06	
212	-3.95000e+00	5.440814e-06	
213	-4.00000e+00	5.442453e-06	
214	-4.05000e+00	5.444096e-06	
215	-4.10000e+00	5.445744e-06	
216	-4.15000e+00	5.447399e-06	
217	-4.20000e+00	5.449063e-06	
218	-4.25000e+00	5.450738e-06	
219	-4.30000e+00	5.452428e-06	
220	-4.35000e+00	5.454135e-06	
221	-4.40000e+00	5.455864e-06	
222	-4.45000e+00	5.457619e-06	
223	-4.50000e+00	5.459404e-06	
224	-4.55000e+00	5.461225e-06	
225	-4.60000e+00	5.463088e-06	
226	-4.65000e+00	5.465000e-06	
227	-4.70000e+00	5.466968e-06	
228	-4.75000e+00	5.469000e-06	

Index   v-sweep         i(vds)          
--------------------------------------------------------------------------------
229	-4.80000e+00	5.471106e-06	
230	-4.85000e+00	5.473295e-06	
231	-4.90000e+00	5.475579e-06	
232	-4.95000e+00	5.477970e-06	
233	-5.00000e+00	5.480480e-06	
234	-5.05000e+00	5.483125e-06	
235	-5.10000e+00	5.485919e-06	
236	-5.15000e+00	5.488880e-06	
237	-5.20000e+00	5.492024e-06	
238	-5.25000e+00	5.495373e-06	
239	-5.30000e+00	5.498947e-06	
240	-5.35000e+00	5.502767e-06	
241	-5.40000e+00	5.506859e-06	
242	-5.45000e+00	5.511247e-06	
243	-5.50000e+00	5.515958e-06	
244	-5.55000e+00	5.521022e-06	
245	-5.60000e+00	5.526468e-06	
246	-5.65000e+00	5.532329e-06	
247	-5.70000e+00	5.538640e-06	
248	-5.75000e+00	5.545435e-06	
249	-5.80000e+00	5.552754e-06	
250	-5.85000e+00	5.560635e-06	
251	-5.90000e+00	5.569120e-06	
252	-5.95000e+00	5.578253e-06	
253	-6.00000e+00	5.588080e-06	
254	-6.05000e+00	5.598648e-06	
255	-6.10000e+00	5.610008e-06	
256	-6.15000e+00	5.622210e-06	
257	-6.20000e+00	5.635310e-06	
258	-6.25000e+00	5.649363e-06	
259	-6.30000e+00	5.664427e-06	
260	-6.35000e+00	5.680562e-06	
261	-6.40000e+00	5.697832e-06	
262	-6.45000e+00	5.716301e-06	
263	-6.50000e+00	5.736035e-06	
264	-6.55000e+00	5.757103e-06	
265	-6.60000e+00	5.779577e-06	
266	0.000000e+00	0.000000e+00	
267	-5.00000e-02	1.123248e-06	
268	-1.00000e-01	2.208474e-06	
269	-1.50000e-01	3.255702e-06	
270	-2.00000e-01	4.264954e-06	
271	-2.50000e-01	5.236253e-06	
272	-3.00000e-01	6.169624e-06	
273	-3.50000e-01	7.065089e-06	
274	-4.00000e-01	7.922673e-06	
275	-4.50000e-01	8.742400e-06	
276	-5.00000e-01	9.524296e-06	
277	-5.50000e-01	1.026839e-05	
278	-6.00000e-01	1.097470e-05	
279	-6.50000e-01	1.164327e-05	
280	-7.00000e-01	1.227412e-05	
281	-7.50000e-01	1.286728e-05	
282	-8.00000e-01	1.342280e-05	
283	-8.50000e-01	1.394072e-05	
284	-9.00000e-01	1.442109e-05	
285	-9.50000e-01	1.486397e-05	
286	-1.00000e+00	1.526943e-05	

Index   v-sweep         i(vds)          
--------------------------------------------------------------------------------
287	-1.05000e+00	1.563760e-05	
288	-1.10000e+00	1.596861e-05	
289	-1.15000e+00	1.626267e-05	
290	-1.20000e+00	1.652011e-05	
291	-1.25000e+00	1.674141e-05	
292	-1.30000e+00	1.692737e-05	
293	-1.35000e+00	1.707928e-05	
294	-1.40000e+00	1.719920e-05	
295	-1.45000e+00	1.729030e-05	
296	-1.50000e+00	1.735703e-05	
297	-1.55000e+00	1.740473e-05	
298	-1.60000e+00	1.743880e-05	
299	-1.65000e+00	1.746377e-05	
300	-1.70000e+00	1.748291e-05	
301	-1.75000e+00	1.749834e-05	
302	-1.80000e+00	1.751139e-05	
303	-1.85000e+00	1.752286e-05	
304	-1.90000e+00	1.753322e-05	
305	-1.95000e+00	1.754280e-05	
306	-2.00000e+00	1.755180e-05	
307	-2.05000e+00	1.756034e-05	
308	-2.10000e+00	1.756853e-05	
309	-2.15000e+00	1.757643e-05	
310	-2.20000e+00	1.758409e-05	
311	-2.25000e+00	1.759154e-05	
312	-2.30000e+00	1.759882e-05	
313	-2.35000e+00	1.760595e-05	
314	-2.40000e+00	1.761294e-05	
315	-2.45000e+00	1.761981e-05	
316	-2.50000e+00	1.762658e-05	
317	-2.55000e+00	1.763325e-05	
318	-2.60000e+00	1.763983e-05	
319	-2.65000e+00	1.764632e-05	
320	-2.70000e+00	1.765275e-05	
321	-2.75000e+00	1.765910e-05	
322	-2.80000e+00	1.766539e-05	
323	-2.85000e+00	1.767163e-05	
324	-2.90000e+00	1.767780e-05	
325	-2.95000e+00	1.768393e-05	
326	-3.00000e+00	1.769000e-05	
327	-3.05000e+00	1.769603e-05	
328	-3.10000e+00	1.770202e-05	
329	-3.15000e+00	1.770796e-05	
330	-3.20000e+00	1.771387e-05	
331	-3.25000e+00	1.771974e-05	
332	-3.30000e+00	1.772558e-05	
333	-3.35000e+00	1.773138e-05	
334	-3.40000e+00	1.773715e-05	
335	-3.45000e+00	1.774289e-05	
336	-3.50000e+00	1.774860e-05	
337	-3.55000e+00	1.775429e-05	
338	-3.60000e+00	1.775995e-05	
339	-3.65000e+00	1.776558e-05	
340	-3.70000e+00	1.777119e-05	
341	-3.75000e+00	1.777678e-05	
342	-3.80000e+00	1.778234e-05	
343	-3.85000e+00	1.778788e-05	
344	-3.90000e+00	1.779341e-05	

Index   v-sweep         i(vds)          
--------------------------------------------------------------------------------
345	-3.95000e+00	1.779891e-05	
346	-4.00000e+00	1.780440e-05	
347	-4.05000e+00	1.780986e-05	
348	-4.10000e+00	1.781531e-05	
349	-4.15000e+00	1.782075e-05	
350	-4.20000e+00	1.782617e-05	
351	-4.25000e+00	1.783157e-05	
352	-4.30000e+00	1.783696e-05	
353	-4.35000e+00	1.784234e-05	
354	-4.40000e+00	1.784771e-05	
355	-4.45000e+00	1.785308e-05	
356	-4.50000e+00	1.785843e-05	
357	-4.55000e+00	1.786378e-05	
358	-4.60000e+00	1.786913e-05	
359	-4.65000e+00	1.787449e-05	
360	-4.70000e+00	1.787985e-05	
361	-4.75000e+00	1.788522e-05	
362	-4.80000e+00	1.789060e-05	
363	-4.85000e+00	1.789601e-05	
364	-4.90000e+00	1.790144e-05	
365	-4.95000e+00	1.790691e-05	
366	-5.00000e+00	1.791243e-05	
367	-5.05000e+00	1.791800e-05	
368	-5.10000e+00	1.792365e-05	
369	-5.15000e+00	1.792937e-05	
370	-5.20000e+00	1.793519e-05	
371	-5.25000e+00	1.794113e-05	
372	-5.30000e+00	1.794720e-05	
373	-5.35000e+00	1.795343e-05	
374	-5.40000e+00	1.795983e-05	
375	-5.45000e+00	1.796644e-05	
376	-5.50000e+00	1.797329e-05	
377	-5.55000e+00	1.798041e-05	
378	-5.60000e+00	1.798783e-05	
379	-5.65000e+00	1.799559e-05	
380	-5.70000e+00	1.800374e-05	
381	-5.75000e+00	1.801232e-05	
382	-5.80000e+00	1.802138e-05	
383	-5.85000e+00	1.803098e-05	
384	-5.90000e+00	1.804117e-05	
385	-5.95000e+00	1.805202e-05	
386	-6.00000e+00	1.806359e-05	
387	-6.05000e+00	1.807596e-05	
388	-6.10000e+00	1.808921e-05	
389	-6.15000e+00	1.810341e-05	
390	-6.20000e+00	1.811866e-05	
391	-6.25000e+00	1.813504e-05	
392	-6.30000e+00	1.815267e-05	
393	-6.35000e+00	1.817163e-05	
394	-6.40000e+00	1.819205e-05	
395	-6.45000e+00	1.821404e-05	
396	-6.50000e+00	1.823772e-05	
397	-6.55000e+00	1.826322e-05	
398	-6.60000e+00	1.829068e-05	
399	0.000000e+00	0.000000e+00	
400	-5.00000e-02	1.533272e-06	
401	-1.00000e-01	3.031686e-06	
402	-1.50000e-01	4.495264e-06	

Index   v-sweep         i(vds)          
--------------------------------------------------------------------------------
403	-2.00000e-01	5.924022e-06	
404	-2.50000e-01	7.317982e-06	
405	-3.00000e-01	8.677161e-06	
406	-3.50000e-01	1.000158e-05	
407	-4.00000e-01	1.129126e-05	
408	-4.50000e-01	1.254621e-05	
409	-5.00000e-01	1.376646e-05	
410	-5.50000e-01	1.495203e-05	
411	-6.00000e-01	1.610294e-05	
412	-6.50000e-01	1.721920e-05	
413	-7.00000e-01	1.830084e-05	
414	-7.50000e-01	1.934787e-05	
415	-8.00000e-01	2.036032e-05	
416	-8.50000e-01	2.133821e-05	
417	-9.00000e-01	2.228155e-05	
418	-9.50000e-01	2.319037e-05	
419	-1.00000e+00	2.406470e-05	
420	-1.05000e+00	2.490455e-05	
421	-1.10000e+00	2.570994e-05	
422	-1.15000e+00	2.648090e-05	
423	-1.20000e+00	2.721746e-05	
424	-1.25000e+00	2.791964e-05	
425	-1.30000e+00	2.858748e-05	
426	-1.35000e+00	2.922099e-05	
427	-1.40000e+00	2.982023e-05	
428	-1.45000e+00	3.038521e-05	
429	-1.50000e+00	3.091600e-05	
430	-1.55000e+00	3.141264e-05	
431	-1.60000e+00	3.187521e-05	
432	-1.65000e+00	3.230376e-05	
433	-1.70000e+00	3.269842e-05	
434	-1.75000e+00	3.305932e-05	
435	-1.80000e+00	3.338664e-05	
436	-1.85000e+00	3.368064e-05	
437	-1.90000e+00	3.394168e-05	
438	-1.95000e+00	3.417031e-05	
439	-2.00000e+00	3.436730e-05	
440	-2.05000e+00	3.453384e-05	
441	-2.10000e+00	3.467163e-05	
442	-2.15000e+00	3.478309e-05	
443	-2.20000e+00	3.487141e-05	
444	-2.25000e+00	3.494045e-05	
445	-2.30000e+00	3.499431e-05	
446	-2.35000e+00	3.503688e-05	
447	-2.40000e+00	3.507139e-05	
448	-2.45000e+00	3.510027e-05	
449	-2.50000e+00	3.512524e-05	
450	-2.55000e+00	3.514746e-05	
451	-2.60000e+00	3.516772e-05	
452	-2.65000e+00	3.518653e-05	
453	-2.70000e+00	3.520424e-05	
454	-2.75000e+00	3.522111e-05	
455	-2.80000e+00	3.523729e-05	
456	-2.85000e+00	3.525292e-05	
457	-2.90000e+00	3.526809e-05	
458	-2.95000e+00	3.528287e-05	
459	-3.00000e+00	3.529731e-05	
460	-3.05000e+00	3.531146e-05	

Index   v-sweep         i(vds)          
--------------------------------------------------------------------------------
461	-3.10000e+00	3.532535e-05	
462	-3.15000e+00	3.533901e-05	
463	-3.20000e+00	3.535246e-05	
464	-3.25000e+00	3.536572e-05	
465	-3.30000e+00	3.537881e-05	
466	-3.35000e+00	3.539175e-05	
467	-3.40000e+00	3.540454e-05	
468	-3.45000e+00	3.541720e-05	
469	-3.50000e+00	3.542973e-05	
470	-3.55000e+00	3.544215e-05	
471	-3.60000e+00	3.545446e-05	
472	-3.65000e+00	3.546667e-05	
473	-3.70000e+00	3.547878e-05	
474	-3.75000e+00	3.549081e-05	
475	-3.80000e+00	3.550275e-05	
476	-3.85000e+00	3.551461e-05	
477	-3.90000e+00	3.552640e-05	
478	-3.95000e+00	3.553811e-05	
479	-4.00000e+00	3.554976e-05	
480	-4.05000e+00	3.556134e-05	
481	-4.10000e+00	3.557286e-05	
482	-4.15000e+00	3.558433e-05	
483	-4.20000e+00	3.559573e-05	
484	-4.25000e+00	3.560709e-05	
485	-4.30000e+00	3.561839e-05	
486	-4.35000e+00	3.562964e-05	
487	-4.40000e+00	3.564085e-05	
488	-4.45000e+00	3.565201e-05	
489	-4.50000e+00	3.566313e-05	
490	-4.55000e+00	3.567420e-05	
491	-4.60000e+00	3.568524e-05	
492	-4.65000e+00	3.569624e-05	
493	-4.70000e+00	3.570720e-05	
494	-4.75000e+00	3.571813e-05	
495	-4.80000e+00	3.572902e-05	
496	-4.85000e+00	3.573988e-05	
497	-4.90000e+00	3.575071e-05	
498	-4.95000e+00	3.576152e-05	
499	-5.00000e+00	3.577229e-05	
500	-5.05000e+00	3.578305e-05	
501	-5.10000e+00	3.579378e-05	
502	-5.15000e+00	3.580450e-05	
503	-5.20000e+00	3.581520e-05	
504	-5.25000e+00	3.582589e-05	
505	-5.30000e+00	3.583658e-05	
506	-5.35000e+00	3.584727e-05	
507	-5.40000e+00	3.585797e-05	
508	-5.45000e+00	3.586869e-05	
509	-5.50000e+00	3.587943e-05	
510	-5.55000e+00	3.589021e-05	
511	-5.60000e+00	3.590104e-05	
512	-5.65000e+00	3.591194e-05	
513	-5.70000e+00	3.592292e-05	
514	-5.75000e+00	3.593401e-05	
515	-5.80000e+00	3.594522e-05	
516	-5.85000e+00	3.595658e-05	
517	-5.90000e+00	3.596812e-05	
518	-5.95000e+00	3.597987e-05	

Index   v-sweep         i(vds)          
--------------------------------------------------------------------------------
519	-6.00000e+00	3.599188e-05	
520	-6.05000e+00	3.600417e-05	
521	-6.10000e+00	3.601680e-05	
522	-6.15000e+00	3.602982e-05	
523	-6.20000e+00	3.604329e-05	
524	-6.25000e+00	3.605726e-05	
525	-6.30000e+00	3.607180e-05	
526	-6.35000e+00	3.608699e-05	
527	-6.40000e+00	3.610291e-05	
528	-6.45000e+00	3.611965e-05	
529	-6.50000e+00	3.613730e-05	
530	-6.55000e+00	3.615598e-05	
531	-6.60000e+00	3.617578e-05	
532	0.000000e+00	0.000000e+00	
533	-5.00000e-02	1.878136e-06	
534	-1.00000e-01	3.724293e-06	
535	-1.50000e-01	5.538488e-06	
536	-2.00000e-01	7.320737e-06	
537	-2.50000e-01	9.071057e-06	
538	-3.00000e-01	1.078946e-05	
539	-3.50000e-01	1.247597e-05	
540	-4.00000e-01	1.413060e-05	
541	-4.50000e-01	1.575337e-05	
542	-5.00000e-01	1.734429e-05	
543	-5.50000e-01	1.890338e-05	
544	-6.00000e-01	2.043065e-05	
545	-6.50000e-01	2.192613e-05	
546	-7.00000e-01	2.338983e-05	
547	-7.50000e-01	2.482176e-05	
548	-8.00000e-01	2.622194e-05	
549	-8.50000e-01	2.759040e-05	
550	-9.00000e-01	2.892713e-05	
551	-9.50000e-01	3.023217e-05	
552	-1.00000e+00	3.150553e-05	
553	-1.05000e+00	3.274723e-05	
554	-1.10000e+00	3.395728e-05	
555	-1.15000e+00	3.513570e-05	
556	-1.20000e+00	3.628250e-05	
557	-1.25000e+00	3.739771e-05	
558	-1.30000e+00	3.848135e-05	
559	-1.35000e+00	3.953342e-05	
560	-1.40000e+00	4.055395e-05	
561	-1.45000e+00	4.154296e-05	
562	-1.50000e+00	4.250046e-05	
563	-1.55000e+00	4.342647e-05	
564	-1.60000e+00	4.432102e-05	
565	-1.65000e+00	4.518412e-05	
566	-1.70000e+00	4.601579e-05	
567	-1.75000e+00	4.681606e-05	
568	-1.80000e+00	4.758495e-05	
569	-1.85000e+00	4.832247e-05	
570	-1.90000e+00	4.902867e-05	
571	-1.95000e+00	4.970355e-05	
572	-2.00000e+00	5.034716e-05	
573	-2.05000e+00	5.095953e-05	
574	-2.10000e+00	5.154069e-05	
575	-2.15000e+00	5.209068e-05	
576	-2.20000e+00	5.260956e-05	

Index   v-sweep         i(vds)          
--------------------------------------------------------------------------------
577	-2.25000e+00	5.309738e-05	
578	-2.30000e+00	5.355421e-05	
579	-2.35000e+00	5.398013e-05	
580	-2.40000e+00	5.437527e-05	
581	-2.45000e+00	5.473976e-05	
582	-2.50000e+00	5.507378e-05	
583	-2.55000e+00	5.537760e-05	
584	-2.60000e+00	5.565153e-05	
585	-2.65000e+00	5.589607e-05	
586	-2.70000e+00	5.611187e-05	
587	-2.75000e+00	5.629984e-05	
588	-2.80000e+00	5.646126e-05	
589	-2.85000e+00	5.659787e-05	
590	-2.90000e+00	5.671191e-05	
591	-2.95000e+00	5.680615e-05	
592	-3.00000e+00	5.688372e-05	
593	-3.05000e+00	5.694787e-05	
594	-3.10000e+00	5.700162e-05	
595	-3.15000e+00	5.704755e-05	
596	-3.20000e+00	5.708773e-05	
597	-3.25000e+00	5.712368e-05	
598	-3.30000e+00	5.715651e-05	
599	-3.35000e+00	5.718701e-05	
600	-3.40000e+00	5.721571e-05	
601	-3.45000e+00	5.724302e-05	
602	-3.50000e+00	5.726923e-05	
603	-3.55000e+00	5.729452e-05	
604	-3.60000e+00	5.731907e-05	
605	-3.65000e+00	5.734297e-05	
606	-3.70000e+00	5.736634e-05	
607	-3.75000e+00	5.738922e-05	
608	-3.80000e+00	5.741170e-05	
609	-3.85000e+00	5.743379e-05	
610	-3.90000e+00	5.745556e-05	
611	-3.95000e+00	5.747702e-05	
612	-4.00000e+00	5.749821e-05	
613	-4.05000e+00	5.751915e-05	
614	-4.10000e+00	5.753986e-05	
615	-4.15000e+00	5.756035e-05	
616	-4.20000e+00	5.758065e-05	
617	-4.25000e+00	5.760076e-05	
618	-4.30000e+00	5.762070e-05	
619	-4.35000e+00	5.764048e-05	
620	-4.40000e+00	5.766010e-05	
621	-4.45000e+00	5.767959e-05	
622	-4.50000e+00	5.769894e-05	
623	-4.55000e+00	5.771816e-05	
624	-4.60000e+00	5.773726e-05	
625	-4.65000e+00	5.775625e-05	
626	-4.70000e+00	5.777513e-05	
627	-4.75000e+00	5.779390e-05	
628	-4.80000e+00	5.781258e-05	
629	-4.85000e+00	5.783116e-05	
630	-4.90000e+00	5.784966e-05	
631	-4.95000e+00	5.786806e-05	
632	-5.00000e+00	5.788639e-05	
633	-5.05000e+00	5.790464e-05	
634	-5.10000e+00	5.792281e-05	

Index   v-sweep         i(vds)          
--------------------------------------------------------------------------------
635	-5.15000e+00	5.794091e-05	
636	-5.20000e+00	5.795894e-05	
637	-5.25000e+00	5.797690e-05	
638	-5.30000e+00	5.799480e-05	
639	-5.35000e+00	5.801264e-05	
640	-5.40000e+00	5.803042e-05	
641	-5.45000e+00	5.804814e-05	
642	-5.50000e+00	5.806581e-05	
643	-5.55000e+00	5.808342e-05	
644	-5.60000e+00	5.810099e-05	
645	-5.65000e+00	5.811851e-05	
646	-5.70000e+00	5.813599e-05	
647	-5.75000e+00	5.815343e-05	
648	-5.80000e+00	5.817083e-05	
649	-5.85000e+00	5.818820e-05	
650	-5.90000e+00	5.820555e-05	
651	-5.95000e+00	5.822287e-05	
652	-6.00000e+00	5.824019e-05	
653	-6.05000e+00	5.825750e-05	
654	-6.10000e+00	5.827482e-05	
655	-6.15000e+00	5.829215e-05	
656	-6.20000e+00	5.830952e-05	
657	-6.25000e+00	5.832693e-05	
658	-6.30000e+00	5.834441e-05	
659	-6.35000e+00	5.836198e-05	
660	-6.40000e+00	5.837966e-05	
661	-6.45000e+00	5.839748e-05	
662	-6.50000e+00	5.841548e-05	
663	-6.55000e+00	5.843369e-05	
664	-6.60000e+00	5.845215e-05	
665	0.000000e+00	0.000000e+00	
666	-5.00000e-02	2.170331e-06	
667	-1.00000e-01	4.311252e-06	
668	-1.50000e-01	6.422779e-06	
669	-2.00000e-01	8.504926e-06	
670	-2.50000e-01	1.055771e-05	
671	-3.00000e-01	1.258114e-05	
672	-3.50000e-01	1.457523e-05	
673	-4.00000e-01	1.654000e-05	
674	-4.50000e-01	1.847546e-05	
675	-5.00000e-01	2.038162e-05	
676	-5.50000e-01	2.225851e-05	
677	-6.00000e-01	2.410613e-05	
678	-6.50000e-01	2.592449e-05	
679	-7.00000e-01	2.771362e-05	
680	-7.50000e-01	2.947353e-05	
681	-8.00000e-01	3.120423e-05	
682	-8.50000e-01	3.290573e-05	
683	-9.00000e-01	3.457805e-05	
684	-9.50000e-01	3.622121e-05	
685	-1.00000e+00	3.783521e-05	
686	-1.05000e+00	3.942008e-05	
687	-1.10000e+00	4.097582e-05	
688	-1.15000e+00	4.250245e-05	
689	-1.20000e+00	4.399999e-05	
690	-1.25000e+00	4.546845e-05	
691	-1.30000e+00	4.690785e-05	
692	-1.35000e+00	4.831819e-05	

Index   v-sweep         i(vds)          
--------------------------------------------------------------------------------
693	-1.40000e+00	4.969950e-05	
694	-1.45000e+00	5.105178e-05	
695	-1.50000e+00	5.237506e-05	
696	-1.55000e+00	5.366935e-05	
697	-1.60000e+00	5.493465e-05	
698	-1.65000e+00	5.617100e-05	
699	-1.70000e+00	5.737839e-05	
700	-1.75000e+00	5.855686e-05	
701	-1.80000e+00	5.970640e-05	
702	-1.85000e+00	6.082704e-05	
703	-1.90000e+00	6.191880e-05	
704	-1.95000e+00	6.298168e-05	
705	-2.00000e+00	6.401571e-05	
706	-2.05000e+00	6.502090e-05	
707	-2.10000e+00	6.599726e-05	
708	-2.15000e+00	6.694482e-05	
709	-2.20000e+00	6.786359e-05	
710	-2.25000e+00	6.875358e-05	
711	-2.30000e+00	6.961483e-05	
712	-2.35000e+00	7.044733e-05	
713	-2.40000e+00	7.125113e-05	
714	-2.45000e+00	7.202623e-05	
715	-2.50000e+00	7.277265e-05	
716	-2.55000e+00	7.349042e-05	
717	-2.60000e+00	7.417957e-05	
718	-2.65000e+00	7.484012e-05	
719	-2.70000e+00	7.547211e-05	
720	-2.75000e+00	7.607555e-05	
721	-2.80000e+00	7.665050e-05	
722	-2.85000e+00	7.719699e-05	
723	-2.90000e+00	7.771507e-05	
724	-2.95000e+00	7.820479e-05	
725	-3.00000e+00	7.866624e-05	
726	-3.05000e+00	7.909949e-05	
727	-3.10000e+00	7.950463e-05	
728	-3.15000e+00	7.988181e-05	
729	-3.20000e+00	8.023119e-05	
730	-3.25000e+00	8.055298e-05	
731	-3.30000e+00	8.084745e-05	
732	-3.35000e+00	8.111499e-05	
733	-3.40000e+00	8.135607e-05	
734	-3.45000e+00	8.157138e-05	
735	-3.50000e+00	8.176179e-05	
736	-3.55000e+00	8.192849e-05	
737	-3.60000e+00	8.207299e-05	
738	-3.65000e+00	8.219721e-05	
739	-3.70000e+00	8.230341e-05	
740	-3.75000e+00	8.239414e-05	
741	-3.80000e+00	8.247202e-05	
742	-3.85000e+00	8.253957e-05	
743	-3.90000e+00	8.259905e-05	
744	-3.95000e+00	8.265232e-05	
745	-4.00000e+00	8.270085e-05	
746	-4.05000e+00	8.274576e-05	
747	-4.10000e+00	8.278788e-05	
748	-4.15000e+00	8.282783e-05	
749	-4.20000e+00	8.286604e-05	
750	-4.25000e+00	8.290286e-05	

Index   v-sweep         i(vds)          
--------------------------------------------------------------------------------
751	-4.30000e+00	8.293852e-05	
752	-4.35000e+00	8.297322e-05	
753	-4.40000e+00	8.300709e-05	
754	-4.45000e+00	8.304026e-05	
755	-4.50000e+00	8.307280e-05	
756	-4.55000e+00	8.310479e-05	
757	-4.60000e+00	8.313629e-05	
758	-4.65000e+00	8.316734e-05	
759	-4.70000e+00	8.319800e-05	
760	-4.75000e+00	8.322828e-05	
761	-4.80000e+00	8.325823e-05	
762	-4.85000e+00	8.328787e-05	
763	-4.90000e+00	8.331722e-05	
764	-4.95000e+00	8.334631e-05	
765	-5.00000e+00	8.337514e-05	
766	-5.05000e+00	8.340374e-05	
767	-5.10000e+00	8.343213e-05	
768	-5.15000e+00	8.346030e-05	
769	-5.20000e+00	8.348828e-05	
770	-5.25000e+00	8.351608e-05	
771	-5.30000e+00	8.354370e-05	
772	-5.35000e+00	8.357116e-05	
773	-5.40000e+00	8.359846e-05	
774	-5.45000e+00	8.362561e-05	
775	-5.50000e+00	8.365261e-05	
776	-5.55000e+00	8.367949e-05	
777	-5.60000e+00	8.370623e-05	
778	-5.65000e+00	8.373285e-05	
779	-5.70000e+00	8.375935e-05	
780	-5.75000e+00	8.378573e-05	
781	-5.80000e+00	8.381201e-05	
782	-5.85000e+00	8.383819e-05	
783	-5.90000e+00	8.386426e-05	
784	-5.95000e+00	8.389023e-05	
785	-6.00000e+00	8.391612e-05	
786	-6.05000e+00	8.394191e-05	
787	-6.10000e+00	8.396762e-05	
788	-6.15000e+00	8.399324e-05	
789	-6.20000e+00	8.401879e-05	
790	-6.25000e+00	8.404426e-05	
791	-6.30000e+00	8.406966e-05	
792	-6.35000e+00	8.409499e-05	
793	-6.40000e+00	8.412026e-05	
794	-6.45000e+00	8.414546e-05	
795	-6.50000e+00	8.417061e-05	
796	-6.55000e+00	8.419571e-05	
797	-6.60000e+00	8.422077e-05	
Note: No ".plot", ".print", or ".fourier" lines; no simulations run
