
Note: Compatibility modes selected: hs

Warning: m=xx on .subckt line will override multiplier m hierarchy!


Circuit: ***************************

Doing analysis at TEMP = 25.000000 and TNOM = 25.000000


No. of Data Rows : 798
                          ***************************
                          DC transfer characteristic  Mon Jan  9 13:57:53  2023
--------------------------------------------------------------------------------
Index   v-sweep         i(vds)          
--------------------------------------------------------------------------------
0	0.000000e+00	0.000000e+00	
1	-5.00000e-02	1.604187e-07	
2	-1.00000e-01	2.550644e-07	
3	-1.50000e-01	2.954702e-07	
4	-2.00000e-01	3.077540e-07	
5	-2.50000e-01	3.121073e-07	
6	-3.00000e-01	3.145050e-07	
7	-3.50000e-01	3.162553e-07	
8	-4.00000e-01	3.177100e-07	
9	-4.50000e-01	3.189932e-07	
10	-5.00000e-01	3.201598e-07	
11	-5.50000e-01	3.212390e-07	
12	-6.00000e-01	3.222482e-07	
13	-6.50000e-01	3.231993e-07	
14	-7.00000e-01	3.241007e-07	
15	-7.50000e-01	3.249588e-07	
16	-8.00000e-01	3.257787e-07	
17	-8.50000e-01	3.265644e-07	
18	-9.00000e-01	3.273193e-07	
19	-9.50000e-01	3.280464e-07	
20	-1.00000e+00	3.287481e-07	
21	-1.05000e+00	3.294265e-07	
22	-1.10000e+00	3.300834e-07	
23	-1.15000e+00	3.307206e-07	
24	-1.20000e+00	3.313394e-07	
25	-1.25000e+00	3.319412e-07	
26	-1.30000e+00	3.325271e-07	
27	-1.35000e+00	3.330981e-07	
28	-1.40000e+00	3.336552e-07	
29	-1.45000e+00	3.341992e-07	
30	-1.50000e+00	3.347309e-07	
31	-1.55000e+00	3.352511e-07	
32	-1.60000e+00	3.357603e-07	
33	-1.65000e+00	3.362591e-07	
34	-1.70000e+00	3.367482e-07	
35	-1.75000e+00	3.372279e-07	
36	-1.80000e+00	3.376988e-07	
37	-1.85000e+00	3.381614e-07	
38	-1.90000e+00	3.386159e-07	
39	-1.95000e+00	3.390628e-07	
40	-2.00000e+00	3.395024e-07	
41	-2.05000e+00	3.399351e-07	
42	-2.10000e+00	3.403612e-07	
43	-2.15000e+00	3.407808e-07	
44	-2.20000e+00	3.411944e-07	
45	-2.25000e+00	3.416021e-07	
46	-2.30000e+00	3.420042e-07	
47	-2.35000e+00	3.424010e-07	
48	-2.40000e+00	3.427925e-07	
49	-2.45000e+00	3.431790e-07	
50	-2.50000e+00	3.435608e-07	
51	-2.55000e+00	3.439379e-07	
52	-2.60000e+00	3.443106e-07	
53	-2.65000e+00	3.446790e-07	
54	-2.70000e+00	3.450432e-07	

Index   v-sweep         i(vds)          
--------------------------------------------------------------------------------
55	-2.75000e+00	3.454034e-07	
56	-2.80000e+00	3.457598e-07	
57	-2.85000e+00	3.461125e-07	
58	-2.90000e+00	3.464615e-07	
59	-2.95000e+00	3.468071e-07	
60	-3.00000e+00	3.471494e-07	
61	-3.05000e+00	3.474884e-07	
62	-3.10000e+00	3.478244e-07	
63	-3.15000e+00	3.481574e-07	
64	-3.20000e+00	3.484875e-07	
65	-3.25000e+00	3.488150e-07	
66	-3.30000e+00	3.491399e-07	
67	-3.35000e+00	3.494624e-07	
68	-3.40000e+00	3.497827e-07	
69	-3.45000e+00	3.501008e-07	
70	-3.50000e+00	3.504171e-07	
71	-3.55000e+00	3.507316e-07	
72	-3.60000e+00	3.510446e-07	
73	-3.65000e+00	3.513564e-07	
74	-3.70000e+00	3.516672e-07	
75	-3.75000e+00	3.519772e-07	
76	-3.80000e+00	3.522869e-07	
77	-3.85000e+00	3.525965e-07	
78	-3.90000e+00	3.529064e-07	
79	-3.95000e+00	3.532170e-07	
80	-4.00000e+00	3.535289e-07	
81	-4.05000e+00	3.538425e-07	
82	-4.10000e+00	3.541584e-07	
83	-4.15000e+00	3.544771e-07	
84	-4.20000e+00	3.547994e-07	
85	-4.25000e+00	3.551261e-07	
86	-4.30000e+00	3.554578e-07	
87	-4.35000e+00	3.557954e-07	
88	-4.40000e+00	3.561400e-07	
89	-4.45000e+00	3.564924e-07	
90	-4.50000e+00	3.568538e-07	
91	-4.55000e+00	3.572255e-07	
92	-4.60000e+00	3.576085e-07	
93	-4.65000e+00	3.580044e-07	
94	-4.70000e+00	3.584145e-07	
95	-4.75000e+00	3.588404e-07	
96	-4.80000e+00	3.592838e-07	
97	-4.85000e+00	3.597464e-07	
98	-4.90000e+00	3.602301e-07	
99	-4.95000e+00	3.607369e-07	
100	-5.00000e+00	3.612689e-07	
101	-5.05000e+00	3.618283e-07	
102	-5.10000e+00	3.624174e-07	
103	-5.15000e+00	3.630387e-07	
104	-5.20000e+00	3.636949e-07	
105	-5.25000e+00	3.643886e-07	
106	-5.30000e+00	3.651227e-07	
107	-5.35000e+00	3.659001e-07	
108	-5.40000e+00	3.667241e-07	
109	-5.45000e+00	3.675978e-07	
110	-5.50000e+00	3.685247e-07	
111	-5.55000e+00	3.695083e-07	
112	-5.60000e+00	3.705523e-07	

Index   v-sweep         i(vds)          
--------------------------------------------------------------------------------
113	-5.65000e+00	3.716605e-07	
114	-5.70000e+00	3.728370e-07	
115	-5.75000e+00	3.740858e-07	
116	-5.80000e+00	3.754111e-07	
117	-5.85000e+00	3.768175e-07	
118	-5.90000e+00	3.783094e-07	
119	-5.95000e+00	3.798916e-07	
120	-6.00000e+00	3.815689e-07	
121	-6.05000e+00	3.833463e-07	
122	-6.10000e+00	3.852289e-07	
123	-6.15000e+00	3.872220e-07	
124	-6.20000e+00	3.893311e-07	
125	-6.25000e+00	3.915618e-07	
126	-6.30000e+00	3.939197e-07	
127	-6.35000e+00	3.964107e-07	
128	-6.40000e+00	3.990408e-07	
129	-6.45000e+00	4.018161e-07	
130	-6.50000e+00	4.047430e-07	
131	-6.55000e+00	4.078277e-07	
132	-6.60000e+00	4.110770e-07	
133	0.000000e+00	0.000000e+00	
134	-5.00000e-02	1.353332e-06	
135	-1.00000e-01	2.623234e-06	
136	-1.50000e-01	3.810274e-06	
137	-2.00000e-01	4.915024e-06	
138	-2.50000e-01	5.938055e-06	
139	-3.00000e-01	6.879942e-06	
140	-3.50000e-01	7.741271e-06	
141	-4.00000e-01	8.522646e-06	
142	-4.50000e-01	9.224702e-06	
143	-5.00000e-01	9.848139e-06	
144	-5.50000e-01	1.039377e-05	
145	-6.00000e-01	1.086261e-05	
146	-6.50000e-01	1.125613e-05	
147	-7.00000e-01	1.157661e-05	
148	-7.50000e-01	1.182805e-05	
149	-8.00000e-01	1.201738e-05	
150	-8.50000e-01	1.215559e-05	
151	-9.00000e-01	1.225653e-05	
152	-9.50000e-01	1.233329e-05	
153	-1.00000e+00	1.239518e-05	
154	-1.05000e+00	1.244779e-05	
155	-1.10000e+00	1.249419e-05	
156	-1.15000e+00	1.253615e-05	
157	-1.20000e+00	1.257472e-05	
158	-1.25000e+00	1.261057e-05	
159	-1.30000e+00	1.264417e-05	
160	-1.35000e+00	1.267586e-05	
161	-1.40000e+00	1.270589e-05	
162	-1.45000e+00	1.273446e-05	
163	-1.50000e+00	1.276175e-05	
164	-1.55000e+00	1.278788e-05	
165	-1.60000e+00	1.281297e-05	
166	-1.65000e+00	1.283711e-05	
167	-1.70000e+00	1.286038e-05	
168	-1.75000e+00	1.288287e-05	
169	-1.80000e+00	1.290463e-05	
170	-1.85000e+00	1.292571e-05	

Index   v-sweep         i(vds)          
--------------------------------------------------------------------------------
171	-1.90000e+00	1.294617e-05	
172	-1.95000e+00	1.296605e-05	
173	-2.00000e+00	1.298539e-05	
174	-2.05000e+00	1.300422e-05	
175	-2.10000e+00	1.302259e-05	
176	-2.15000e+00	1.304050e-05	
177	-2.20000e+00	1.305800e-05	
178	-2.25000e+00	1.307511e-05	
179	-2.30000e+00	1.309184e-05	
180	-2.35000e+00	1.310822e-05	
181	-2.40000e+00	1.312427e-05	
182	-2.45000e+00	1.314000e-05	
183	-2.50000e+00	1.315543e-05	
184	-2.55000e+00	1.317058e-05	
185	-2.60000e+00	1.318546e-05	
186	-2.65000e+00	1.320008e-05	
187	-2.70000e+00	1.321445e-05	
188	-2.75000e+00	1.322858e-05	
189	-2.80000e+00	1.324249e-05	
190	-2.85000e+00	1.325618e-05	
191	-2.90000e+00	1.326967e-05	
192	-2.95000e+00	1.328296e-05	
193	-3.00000e+00	1.329605e-05	
194	-3.05000e+00	1.330897e-05	
195	-3.10000e+00	1.332170e-05	
196	-3.15000e+00	1.333427e-05	
197	-3.20000e+00	1.334668e-05	
198	-3.25000e+00	1.335893e-05	
199	-3.30000e+00	1.337103e-05	
200	-3.35000e+00	1.338298e-05	
201	-3.40000e+00	1.339479e-05	
202	-3.45000e+00	1.340647e-05	
203	-3.50000e+00	1.341801e-05	
204	-3.55000e+00	1.342943e-05	
205	-3.60000e+00	1.344073e-05	
206	-3.65000e+00	1.345191e-05	
207	-3.70000e+00	1.346297e-05	
208	-3.75000e+00	1.347393e-05	
209	-3.80000e+00	1.348478e-05	
210	-3.85000e+00	1.349554e-05	
211	-3.90000e+00	1.350620e-05	
212	-3.95000e+00	1.351676e-05	
213	-4.00000e+00	1.352725e-05	
214	-4.05000e+00	1.353765e-05	
215	-4.10000e+00	1.354798e-05	
216	-4.15000e+00	1.355823e-05	
217	-4.20000e+00	1.356843e-05	
218	-4.25000e+00	1.357857e-05	
219	-4.30000e+00	1.358867e-05	
220	-4.35000e+00	1.359873e-05	
221	-4.40000e+00	1.360876e-05	
222	-4.45000e+00	1.361877e-05	
223	-4.50000e+00	1.362878e-05	
224	-4.55000e+00	1.363879e-05	
225	-4.60000e+00	1.364883e-05	
226	-4.65000e+00	1.365890e-05	
227	-4.70000e+00	1.366903e-05	
228	-4.75000e+00	1.367923e-05	

Index   v-sweep         i(vds)          
--------------------------------------------------------------------------------
229	-4.80000e+00	1.368954e-05	
230	-4.85000e+00	1.369996e-05	
231	-4.90000e+00	1.371052e-05	
232	-4.95000e+00	1.372126e-05	
233	-5.00000e+00	1.373221e-05	
234	-5.05000e+00	1.374339e-05	
235	-5.10000e+00	1.375484e-05	
236	-5.15000e+00	1.376661e-05	
237	-5.20000e+00	1.377873e-05	
238	-5.25000e+00	1.379125e-05	
239	-5.30000e+00	1.380421e-05	
240	-5.35000e+00	1.381767e-05	
241	-5.40000e+00	1.383169e-05	
242	-5.45000e+00	1.384633e-05	
243	-5.50000e+00	1.386164e-05	
244	-5.55000e+00	1.387770e-05	
245	-5.60000e+00	1.389457e-05	
246	-5.65000e+00	1.391234e-05	
247	-5.70000e+00	1.393108e-05	
248	-5.75000e+00	1.395089e-05	
249	-5.80000e+00	1.397184e-05	
250	-5.85000e+00	1.399403e-05	
251	-5.90000e+00	1.401757e-05	
252	-5.95000e+00	1.404255e-05	
253	-6.00000e+00	1.406909e-05	
254	-6.05000e+00	1.409730e-05	
255	-6.10000e+00	1.412730e-05	
256	-6.15000e+00	1.415922e-05	
257	-6.20000e+00	1.419318e-05	
258	-6.25000e+00	1.422932e-05	
259	-6.30000e+00	1.426779e-05	
260	-6.35000e+00	1.430872e-05	
261	-6.40000e+00	1.435228e-05	
262	-6.45000e+00	1.439861e-05	
263	-6.50000e+00	1.444789e-05	
264	-6.55000e+00	1.450027e-05	
265	-6.60000e+00	1.455594e-05	
266	0.000000e+00	0.000000e+00	
267	-5.00000e-02	2.313816e-06	
268	-1.00000e-01	4.547855e-06	
269	-1.50000e-01	6.702595e-06	
270	-2.00000e-01	8.778512e-06	
271	-2.50000e-01	1.077608e-05	
272	-3.00000e-01	1.269576e-05	
273	-3.50000e-01	1.453803e-05	
274	-4.00000e-01	1.630335e-05	
275	-4.50000e-01	1.799217e-05	
276	-5.00000e-01	1.960496e-05	
277	-5.50000e-01	2.114217e-05	
278	-6.00000e-01	2.260425e-05	
279	-6.50000e-01	2.399166e-05	
280	-7.00000e-01	2.530485e-05	
281	-7.50000e-01	2.654428e-05	
282	-8.00000e-01	2.771041e-05	
283	-8.50000e-01	2.880369e-05	
284	-9.00000e-01	2.982460e-05	
285	-9.50000e-01	3.077363e-05	
286	-1.00000e+00	3.165129e-05	

Index   v-sweep         i(vds)          
--------------------------------------------------------------------------------
287	-1.05000e+00	3.245813e-05	
288	-1.10000e+00	3.319476e-05	
289	-1.15000e+00	3.386190e-05	
290	-1.20000e+00	3.446044e-05	
291	-1.25000e+00	3.499153e-05	
292	-1.30000e+00	3.545681e-05	
293	-1.35000e+00	3.585870e-05	
294	-1.40000e+00	3.620086e-05	
295	-1.45000e+00	3.648867e-05	
296	-1.50000e+00	3.672943e-05	
297	-1.55000e+00	3.693179e-05	
298	-1.60000e+00	3.710444e-05	
299	-1.65000e+00	3.725479e-05	
300	-1.70000e+00	3.738843e-05	
301	-1.75000e+00	3.750929e-05	
302	-1.80000e+00	3.762011e-05	
303	-1.85000e+00	3.772279e-05	
304	-1.90000e+00	3.781871e-05	
305	-1.95000e+00	3.790888e-05	
306	-2.00000e+00	3.799410e-05	
307	-2.05000e+00	3.807498e-05	
308	-2.10000e+00	3.815204e-05	
309	-2.15000e+00	3.822567e-05	
310	-2.20000e+00	3.829624e-05	
311	-2.25000e+00	3.836403e-05	
312	-2.30000e+00	3.842930e-05	
313	-2.35000e+00	3.849227e-05	
314	-2.40000e+00	3.855311e-05	
315	-2.45000e+00	3.861201e-05	
316	-2.50000e+00	3.866911e-05	
317	-2.55000e+00	3.872454e-05	
318	-2.60000e+00	3.877842e-05	
319	-2.65000e+00	3.883085e-05	
320	-2.70000e+00	3.888193e-05	
321	-2.75000e+00	3.893174e-05	
322	-2.80000e+00	3.898036e-05	
323	-2.85000e+00	3.902787e-05	
324	-2.90000e+00	3.907431e-05	
325	-2.95000e+00	3.911977e-05	
326	-3.00000e+00	3.916428e-05	
327	-3.05000e+00	3.920790e-05	
328	-3.10000e+00	3.925068e-05	
329	-3.15000e+00	3.929265e-05	
330	-3.20000e+00	3.933386e-05	
331	-3.25000e+00	3.937435e-05	
332	-3.30000e+00	3.941414e-05	
333	-3.35000e+00	3.945327e-05	
334	-3.40000e+00	3.949177e-05	
335	-3.45000e+00	3.952967e-05	
336	-3.50000e+00	3.956699e-05	
337	-3.55000e+00	3.960376e-05	
338	-3.60000e+00	3.963999e-05	
339	-3.65000e+00	3.967572e-05	
340	-3.70000e+00	3.971096e-05	
341	-3.75000e+00	3.974573e-05	
342	-3.80000e+00	3.978004e-05	
343	-3.85000e+00	3.981392e-05	
344	-3.90000e+00	3.984738e-05	

Index   v-sweep         i(vds)          
--------------------------------------------------------------------------------
345	-3.95000e+00	3.988044e-05	
346	-4.00000e+00	3.991311e-05	
347	-4.05000e+00	3.994540e-05	
348	-4.10000e+00	3.997733e-05	
349	-4.15000e+00	4.000891e-05	
350	-4.20000e+00	4.004015e-05	
351	-4.25000e+00	4.007107e-05	
352	-4.30000e+00	4.010168e-05	
353	-4.35000e+00	4.013198e-05	
354	-4.40000e+00	4.016200e-05	
355	-4.45000e+00	4.019173e-05	
356	-4.50000e+00	4.022121e-05	
357	-4.55000e+00	4.025043e-05	
358	-4.60000e+00	4.027941e-05	
359	-4.65000e+00	4.030816e-05	
360	-4.70000e+00	4.033670e-05	
361	-4.75000e+00	4.036505e-05	
362	-4.80000e+00	4.039322e-05	
363	-4.85000e+00	4.042123e-05	
364	-4.90000e+00	4.044911e-05	
365	-4.95000e+00	4.047686e-05	
366	-5.00000e+00	4.050453e-05	
367	-5.05000e+00	4.053214e-05	
368	-5.10000e+00	4.055971e-05	
369	-5.15000e+00	4.058729e-05	
370	-5.20000e+00	4.061490e-05	
371	-5.25000e+00	4.064260e-05	
372	-5.30000e+00	4.067043e-05	
373	-5.35000e+00	4.069845e-05	
374	-5.40000e+00	4.072670e-05	
375	-5.45000e+00	4.075525e-05	
376	-5.50000e+00	4.078417e-05	
377	-5.55000e+00	4.081353e-05	
378	-5.60000e+00	4.084342e-05	
379	-5.65000e+00	4.087392e-05	
380	-5.70000e+00	4.090514e-05	
381	-5.75000e+00	4.093717e-05	
382	-5.80000e+00	4.097014e-05	
383	-5.85000e+00	4.100416e-05	
384	-5.90000e+00	4.103937e-05	
385	-5.95000e+00	4.107590e-05	
386	-6.00000e+00	4.111393e-05	
387	-6.05000e+00	4.115360e-05	
388	-6.10000e+00	4.119509e-05	
389	-6.15000e+00	4.123860e-05	
390	-6.20000e+00	4.128431e-05	
391	-6.25000e+00	4.133245e-05	
392	-6.30000e+00	4.138323e-05	
393	-6.35000e+00	4.143689e-05	
394	-6.40000e+00	4.149369e-05	
395	-6.45000e+00	4.155388e-05	
396	-6.50000e+00	4.161775e-05	
397	-6.55000e+00	4.168559e-05	
398	-6.60000e+00	4.175771e-05	
399	0.000000e+00	0.000000e+00	
400	-5.00000e-02	3.100261e-06	
401	-1.00000e-01	6.125026e-06	
402	-1.50000e-01	9.074709e-06	

Index   v-sweep         i(vds)          
--------------------------------------------------------------------------------
403	-2.00000e-01	1.194972e-05	
404	-2.50000e-01	1.475046e-05	
405	-3.00000e-01	1.747733e-05	
406	-3.50000e-01	2.013073e-05	
407	-4.00000e-01	2.271107e-05	
408	-4.50000e-01	2.521874e-05	
409	-5.00000e-01	2.765412e-05	
410	-5.50000e-01	3.001761e-05	
411	-6.00000e-01	3.230959e-05	
412	-6.50000e-01	3.453045e-05	
413	-7.00000e-01	3.668057e-05	
414	-7.50000e-01	3.876034e-05	
415	-8.00000e-01	4.077012e-05	
416	-8.50000e-01	4.271029e-05	
417	-9.00000e-01	4.458123e-05	
418	-9.50000e-01	4.638331e-05	
419	-1.00000e+00	4.811690e-05	
420	-1.05000e+00	4.978237e-05	
421	-1.10000e+00	5.138008e-05	
422	-1.15000e+00	5.291041e-05	
423	-1.20000e+00	5.437372e-05	
424	-1.25000e+00	5.577037e-05	
425	-1.30000e+00	5.710075e-05	
426	-1.35000e+00	5.836522e-05	
427	-1.40000e+00	5.956416e-05	
428	-1.45000e+00	6.069797e-05	
429	-1.50000e+00	6.176703e-05	
430	-1.55000e+00	6.277177e-05	
431	-1.60000e+00	6.371263e-05	
432	-1.65000e+00	6.459009e-05	
433	-1.70000e+00	6.540469e-05	
434	-1.75000e+00	6.615707e-05	
435	-1.80000e+00	6.684799e-05	
436	-1.85000e+00	6.747843e-05	
437	-1.90000e+00	6.804970e-05	
438	-1.95000e+00	6.856359e-05	
439	-2.00000e+00	6.902262e-05	
440	-2.05000e+00	6.943025e-05	
441	-2.10000e+00	6.979105e-05	
442	-2.15000e+00	7.011057e-05	
443	-2.20000e+00	7.039489e-05	
444	-2.25000e+00	7.064994e-05	
445	-2.30000e+00	7.088100e-05	
446	-2.35000e+00	7.109238e-05	
447	-2.40000e+00	7.128748e-05	
448	-2.45000e+00	7.146895e-05	
449	-2.50000e+00	7.163882e-05	
450	-2.55000e+00	7.179873e-05	
451	-2.60000e+00	7.194994e-05	
452	-2.65000e+00	7.209352e-05	
453	-2.70000e+00	7.223031e-05	
454	-2.75000e+00	7.236105e-05	
455	-2.80000e+00	7.248633e-05	
456	-2.85000e+00	7.260667e-05	
457	-2.90000e+00	7.272253e-05	
458	-2.95000e+00	7.283429e-05	
459	-3.00000e+00	7.294228e-05	
460	-3.05000e+00	7.304682e-05	

Index   v-sweep         i(vds)          
--------------------------------------------------------------------------------
461	-3.10000e+00	7.314815e-05	
462	-3.15000e+00	7.324651e-05	
463	-3.20000e+00	7.334212e-05	
464	-3.25000e+00	7.343516e-05	
465	-3.30000e+00	7.352580e-05	
466	-3.35000e+00	7.361420e-05	
467	-3.40000e+00	7.370049e-05	
468	-3.45000e+00	7.378479e-05	
469	-3.50000e+00	7.386724e-05	
470	-3.55000e+00	7.394792e-05	
471	-3.60000e+00	7.402693e-05	
472	-3.65000e+00	7.410438e-05	
473	-3.70000e+00	7.418033e-05	
474	-3.75000e+00	7.425486e-05	
475	-3.80000e+00	7.432805e-05	
476	-3.85000e+00	7.439995e-05	
477	-3.90000e+00	7.447064e-05	
478	-3.95000e+00	7.454016e-05	
479	-4.00000e+00	7.460857e-05	
480	-4.05000e+00	7.467592e-05	
481	-4.10000e+00	7.474225e-05	
482	-4.15000e+00	7.480760e-05	
483	-4.20000e+00	7.487203e-05	
484	-4.25000e+00	7.493555e-05	
485	-4.30000e+00	7.499822e-05	
486	-4.35000e+00	7.506006e-05	
487	-4.40000e+00	7.512111e-05	
488	-4.45000e+00	7.518139e-05	
489	-4.50000e+00	7.524094e-05	
490	-4.55000e+00	7.529977e-05	
491	-4.60000e+00	7.535793e-05	
492	-4.65000e+00	7.541542e-05	
493	-4.70000e+00	7.547228e-05	
494	-4.75000e+00	7.552853e-05	
495	-4.80000e+00	7.558418e-05	
496	-4.85000e+00	7.563927e-05	
497	-4.90000e+00	7.569380e-05	
498	-4.95000e+00	7.574781e-05	
499	-5.00000e+00	7.580131e-05	
500	-5.05000e+00	7.585432e-05	
501	-5.10000e+00	7.590687e-05	
502	-5.15000e+00	7.595897e-05	
503	-5.20000e+00	7.601065e-05	
504	-5.25000e+00	7.606193e-05	
505	-5.30000e+00	7.611285e-05	
506	-5.35000e+00	7.616341e-05	
507	-5.40000e+00	7.621367e-05	
508	-5.45000e+00	7.626364e-05	
509	-5.50000e+00	7.631337e-05	
510	-5.55000e+00	7.636289e-05	
511	-5.60000e+00	7.641225e-05	
512	-5.65000e+00	7.646150e-05	
513	-5.70000e+00	7.651069e-05	
514	-5.75000e+00	7.655988e-05	
515	-5.80000e+00	7.660914e-05	
516	-5.85000e+00	7.665855e-05	
517	-5.90000e+00	7.670818e-05	
518	-5.95000e+00	7.675813e-05	

Index   v-sweep         i(vds)          
--------------------------------------------------------------------------------
519	-6.00000e+00	7.680850e-05	
520	-6.05000e+00	7.685939e-05	
521	-6.10000e+00	7.691094e-05	
522	-6.15000e+00	7.696328e-05	
523	-6.20000e+00	7.701654e-05	
524	-6.25000e+00	7.707090e-05	
525	-6.30000e+00	7.712653e-05	
526	-6.35000e+00	7.718361e-05	
527	-6.40000e+00	7.724235e-05	
528	-6.45000e+00	7.730298e-05	
529	-6.50000e+00	7.736573e-05	
530	-6.55000e+00	7.743086e-05	
531	-6.60000e+00	7.749865e-05	
532	0.000000e+00	0.000000e+00	
533	-5.00000e-02	3.758948e-06	
534	-1.00000e-01	7.446499e-06	
535	-1.50000e-01	1.106301e-05	
536	-2.00000e-01	1.460884e-05	
537	-2.50000e-01	1.808433e-05	
538	-3.00000e-01	2.148985e-05	
539	-3.50000e-01	2.482573e-05	
540	-4.00000e-01	2.809233e-05	
541	-4.50000e-01	3.128998e-05	
542	-5.00000e-01	3.441904e-05	
543	-5.50000e-01	3.747983e-05	
544	-6.00000e-01	4.047270e-05	
545	-6.50000e-01	4.339798e-05	
546	-7.00000e-01	4.625600e-05	
547	-7.50000e-01	4.904710e-05	
548	-8.00000e-01	5.177160e-05	
549	-8.50000e-01	5.442984e-05	
550	-9.00000e-01	5.702213e-05	
551	-9.50000e-01	5.954880e-05	
552	-1.00000e+00	6.201017e-05	
553	-1.05000e+00	6.440656e-05	
554	-1.10000e+00	6.673829e-05	
555	-1.15000e+00	6.900566e-05	
556	-1.20000e+00	7.120901e-05	
557	-1.25000e+00	7.334863e-05	
558	-1.30000e+00	7.542485e-05	
559	-1.35000e+00	7.743796e-05	
560	-1.40000e+00	7.938828e-05	
561	-1.45000e+00	8.127611e-05	
562	-1.50000e+00	8.310176e-05	
563	-1.55000e+00	8.486554e-05	
564	-1.60000e+00	8.656774e-05	
565	-1.65000e+00	8.820868e-05	
566	-1.70000e+00	8.978865e-05	
567	-1.75000e+00	9.130797e-05	
568	-1.80000e+00	9.276693e-05	
569	-1.85000e+00	9.416586e-05	
570	-1.90000e+00	9.550504e-05	
571	-1.95000e+00	9.678482e-05	
572	-2.00000e+00	9.800550e-05	
573	-2.05000e+00	9.916741e-05	
574	-2.10000e+00	1.002709e-04	
575	-2.15000e+00	1.013164e-04	
576	-2.20000e+00	1.023042e-04	

Index   v-sweep         i(vds)          
--------------------------------------------------------------------------------
577	-2.25000e+00	1.032347e-04	
578	-2.30000e+00	1.041086e-04	
579	-2.35000e+00	1.049262e-04	
580	-2.40000e+00	1.056883e-04	
581	-2.45000e+00	1.063958e-04	
582	-2.50000e+00	1.070498e-04	
583	-2.55000e+00	1.076516e-04	
584	-2.60000e+00	1.082031e-04	
585	-2.65000e+00	1.087070e-04	
586	-2.70000e+00	1.091663e-04	
587	-2.75000e+00	1.095850e-04	
588	-2.80000e+00	1.099673e-04	
589	-2.85000e+00	1.103176e-04	
590	-2.90000e+00	1.106402e-04	
591	-2.95000e+00	1.109389e-04	
592	-3.00000e+00	1.112171e-04	
593	-3.05000e+00	1.114774e-04	
594	-3.10000e+00	1.117223e-04	
595	-3.15000e+00	1.119535e-04	
596	-3.20000e+00	1.121728e-04	
597	-3.25000e+00	1.123814e-04	
598	-3.30000e+00	1.125805e-04	
599	-3.35000e+00	1.127710e-04	
600	-3.40000e+00	1.129538e-04	
601	-3.45000e+00	1.131295e-04	
602	-3.50000e+00	1.132989e-04	
603	-3.55000e+00	1.134624e-04	
604	-3.60000e+00	1.136204e-04	
605	-3.65000e+00	1.137735e-04	
606	-3.70000e+00	1.139220e-04	
607	-3.75000e+00	1.140663e-04	
608	-3.80000e+00	1.142065e-04	
609	-3.85000e+00	1.143431e-04	
610	-3.90000e+00	1.144762e-04	
611	-3.95000e+00	1.146060e-04	
612	-4.00000e+00	1.147328e-04	
613	-4.05000e+00	1.148568e-04	
614	-4.10000e+00	1.149780e-04	
615	-4.15000e+00	1.150967e-04	
616	-4.20000e+00	1.152130e-04	
617	-4.25000e+00	1.153270e-04	
618	-4.30000e+00	1.154389e-04	
619	-4.35000e+00	1.155487e-04	
620	-4.40000e+00	1.156566e-04	
621	-4.45000e+00	1.157626e-04	
622	-4.50000e+00	1.158669e-04	
623	-4.55000e+00	1.159694e-04	
624	-4.60000e+00	1.160704e-04	
625	-4.65000e+00	1.161698e-04	
626	-4.70000e+00	1.162677e-04	
627	-4.75000e+00	1.163643e-04	
628	-4.80000e+00	1.164594e-04	
629	-4.85000e+00	1.165533e-04	
630	-4.90000e+00	1.166460e-04	
631	-4.95000e+00	1.167374e-04	
632	-5.00000e+00	1.168277e-04	
633	-5.05000e+00	1.169169e-04	
634	-5.10000e+00	1.170050e-04	

Index   v-sweep         i(vds)          
--------------------------------------------------------------------------------
635	-5.15000e+00	1.170921e-04	
636	-5.20000e+00	1.171782e-04	
637	-5.25000e+00	1.172633e-04	
638	-5.30000e+00	1.173475e-04	
639	-5.35000e+00	1.174309e-04	
640	-5.40000e+00	1.175134e-04	
641	-5.45000e+00	1.175950e-04	
642	-5.50000e+00	1.176759e-04	
643	-5.55000e+00	1.177560e-04	
644	-5.60000e+00	1.178353e-04	
645	-5.65000e+00	1.179140e-04	
646	-5.70000e+00	1.179920e-04	
647	-5.75000e+00	1.180693e-04	
648	-5.80000e+00	1.181460e-04	
649	-5.85000e+00	1.182222e-04	
650	-5.90000e+00	1.182978e-04	
651	-5.95000e+00	1.183729e-04	
652	-6.00000e+00	1.184476e-04	
653	-6.05000e+00	1.185219e-04	
654	-6.10000e+00	1.185958e-04	
655	-6.15000e+00	1.186694e-04	
656	-6.20000e+00	1.187429e-04	
657	-6.25000e+00	1.188161e-04	
658	-6.30000e+00	1.188893e-04	
659	-6.35000e+00	1.189625e-04	
660	-6.40000e+00	1.190359e-04	
661	-6.45000e+00	1.191095e-04	
662	-6.50000e+00	1.191834e-04	
663	-6.55000e+00	1.192579e-04	
664	-6.60000e+00	1.193329e-04	
665	0.000000e+00	0.000000e+00	
666	-5.00000e-02	4.320862e-06	
667	-1.00000e-01	8.574105e-06	
668	-1.50000e-01	1.276004e-05	
669	-2.00000e-01	1.687899e-05	
670	-2.50000e-01	2.093125e-05	
671	-3.00000e-01	2.491713e-05	
672	-3.50000e-01	2.883695e-05	
673	-4.00000e-01	3.269100e-05	
674	-4.50000e-01	3.647959e-05	
675	-5.00000e-01	4.020302e-05	
676	-5.50000e-01	4.386159e-05	
677	-6.00000e-01	4.745559e-05	
678	-6.50000e-01	5.098533e-05	
679	-7.00000e-01	5.445108e-05	
680	-7.50000e-01	5.785316e-05	
681	-8.00000e-01	6.119184e-05	
682	-8.50000e-01	6.446741e-05	
683	-9.00000e-01	6.768017e-05	
684	-9.50000e-01	7.083039e-05	
685	-1.00000e+00	7.391836e-05	
686	-1.05000e+00	7.694436e-05	
687	-1.10000e+00	7.990868e-05	
688	-1.15000e+00	8.281158e-05	
689	-1.20000e+00	8.565335e-05	
690	-1.25000e+00	8.843427e-05	
691	-1.30000e+00	9.115460e-05	
692	-1.35000e+00	9.381462e-05	

Index   v-sweep         i(vds)          
--------------------------------------------------------------------------------
693	-1.40000e+00	9.641460e-05	
694	-1.45000e+00	9.895481e-05	
695	-1.50000e+00	1.014355e-04	
696	-1.55000e+00	1.038570e-04	
697	-1.60000e+00	1.062195e-04	
698	-1.65000e+00	1.085233e-04	
699	-1.70000e+00	1.107686e-04	
700	-1.75000e+00	1.129558e-04	
701	-1.80000e+00	1.150851e-04	
702	-1.85000e+00	1.171566e-04	
703	-1.90000e+00	1.191708e-04	
704	-1.95000e+00	1.211279e-04	
705	-2.00000e+00	1.230280e-04	
706	-2.05000e+00	1.248715e-04	
707	-2.10000e+00	1.266587e-04	
708	-2.15000e+00	1.283897e-04	
709	-2.20000e+00	1.300649e-04	
710	-2.25000e+00	1.316844e-04	
711	-2.30000e+00	1.332486e-04	
712	-2.35000e+00	1.347578e-04	
713	-2.40000e+00	1.362121e-04	
714	-2.45000e+00	1.376118e-04	
715	-2.50000e+00	1.389572e-04	
716	-2.55000e+00	1.402486e-04	
717	-2.60000e+00	1.414863e-04	
718	-2.65000e+00	1.426705e-04	
719	-2.70000e+00	1.438016e-04	
720	-2.75000e+00	1.448798e-04	
721	-2.80000e+00	1.459056e-04	
722	-2.85000e+00	1.468793e-04	
723	-2.90000e+00	1.478014e-04	
724	-2.95000e+00	1.486724e-04	
725	-3.00000e+00	1.494928e-04	
726	-3.05000e+00	1.502634e-04	
727	-3.10000e+00	1.509851e-04	
728	-3.15000e+00	1.516592e-04	
729	-3.20000e+00	1.522870e-04	
730	-3.25000e+00	1.528706e-04	
731	-3.30000e+00	1.534122e-04	
732	-3.35000e+00	1.539146e-04	
733	-3.40000e+00	1.543810e-04	
734	-3.45000e+00	1.548148e-04	
735	-3.50000e+00	1.552191e-04	
736	-3.55000e+00	1.555974e-04	
737	-3.60000e+00	1.559524e-04	
738	-3.65000e+00	1.562868e-04	
739	-3.70000e+00	1.566029e-04	
740	-3.75000e+00	1.569027e-04	
741	-3.80000e+00	1.571879e-04	
742	-3.85000e+00	1.574600e-04	
743	-3.90000e+00	1.577203e-04	
744	-3.95000e+00	1.579699e-04	
745	-4.00000e+00	1.582098e-04	
746	-4.05000e+00	1.584408e-04	
747	-4.10000e+00	1.586637e-04	
748	-4.15000e+00	1.588791e-04	
749	-4.20000e+00	1.590877e-04	
750	-4.25000e+00	1.592899e-04	

Index   v-sweep         i(vds)          
--------------------------------------------------------------------------------
751	-4.30000e+00	1.594861e-04	
752	-4.35000e+00	1.596770e-04	
753	-4.40000e+00	1.598627e-04	
754	-4.45000e+00	1.600436e-04	
755	-4.50000e+00	1.602201e-04	
756	-4.55000e+00	1.603924e-04	
757	-4.60000e+00	1.605608e-04	
758	-4.65000e+00	1.607254e-04	
759	-4.70000e+00	1.608866e-04	
760	-4.75000e+00	1.610445e-04	
761	-4.80000e+00	1.611992e-04	
762	-4.85000e+00	1.613511e-04	
763	-4.90000e+00	1.615001e-04	
764	-4.95000e+00	1.616464e-04	
765	-5.00000e+00	1.617902e-04	
766	-5.05000e+00	1.619316e-04	
767	-5.10000e+00	1.620707e-04	
768	-5.15000e+00	1.622077e-04	
769	-5.20000e+00	1.623425e-04	
770	-5.25000e+00	1.624753e-04	
771	-5.30000e+00	1.626062e-04	
772	-5.35000e+00	1.627353e-04	
773	-5.40000e+00	1.628626e-04	
774	-5.45000e+00	1.629882e-04	
775	-5.50000e+00	1.631122e-04	
776	-5.55000e+00	1.632346e-04	
777	-5.60000e+00	1.633555e-04	
778	-5.65000e+00	1.634750e-04	
779	-5.70000e+00	1.635931e-04	
780	-5.75000e+00	1.637098e-04	
781	-5.80000e+00	1.638253e-04	
782	-5.85000e+00	1.639395e-04	
783	-5.90000e+00	1.640525e-04	
784	-5.95000e+00	1.641643e-04	
785	-6.00000e+00	1.642750e-04	
786	-6.05000e+00	1.643847e-04	
787	-6.10000e+00	1.644933e-04	
788	-6.15000e+00	1.646009e-04	
789	-6.20000e+00	1.647076e-04	
790	-6.25000e+00	1.648133e-04	
791	-6.30000e+00	1.649181e-04	
792	-6.35000e+00	1.650221e-04	
793	-6.40000e+00	1.651254e-04	
794	-6.45000e+00	1.652278e-04	
795	-6.50000e+00	1.653296e-04	
796	-6.55000e+00	1.654308e-04	
797	-6.60000e+00	1.655314e-04	
Note: No ".plot", ".print", or ".fourier" lines; no simulations run
