
Note: Compatibility modes selected: hs

Warning: m=xx on .subckt line will override multiplier m hierarchy!


Circuit: ***************************

Doing analysis at TEMP = -40.000000 and TNOM = -40.000000


No. of Data Rows : 798
                          ***************************
                          DC transfer characteristic  Mon Jan  9 13:57:53  2023
--------------------------------------------------------------------------------
Index   v-sweep         i(vds)          
--------------------------------------------------------------------------------
0	0.000000e+00	0.000000e+00	
1	-5.00000e-02	6.193625e-07	
2	-1.00000e-01	7.590005e-07	
3	-1.50000e-01	7.835823e-07	
4	-2.00000e-01	7.928142e-07	
5	-2.50000e-01	7.986432e-07	
6	-3.00000e-01	8.031828e-07	
7	-3.50000e-01	8.070401e-07	
8	-4.00000e-01	8.104580e-07	
9	-4.50000e-01	8.135583e-07	
10	-5.00000e-01	8.164128e-07	
11	-5.50000e-01	8.190684e-07	
12	-6.00000e-01	8.215580e-07	
13	-6.50000e-01	8.239064e-07	
14	-7.00000e-01	8.261325e-07	
15	-7.50000e-01	8.282515e-07	
16	-8.00000e-01	8.302757e-07	
17	-8.50000e-01	8.322153e-07	
18	-9.00000e-01	8.340790e-07	
19	-9.50000e-01	8.358739e-07	
20	-1.00000e+00	8.376064e-07	
21	-1.05000e+00	8.392818e-07	
22	-1.10000e+00	8.409050e-07	
23	-1.15000e+00	8.424800e-07	
24	-1.20000e+00	8.440106e-07	
25	-1.25000e+00	8.454999e-07	
26	-1.30000e+00	8.469510e-07	
27	-1.35000e+00	8.483664e-07	
28	-1.40000e+00	8.497485e-07	
29	-1.45000e+00	8.510994e-07	
30	-1.50000e+00	8.524210e-07	
31	-1.55000e+00	8.537151e-07	
32	-1.60000e+00	8.549833e-07	
33	-1.65000e+00	8.562271e-07	
34	-1.70000e+00	8.574478e-07	
35	-1.75000e+00	8.586466e-07	
36	-1.80000e+00	8.598248e-07	
37	-1.85000e+00	8.609832e-07	
38	-1.90000e+00	8.621230e-07	
39	-1.95000e+00	8.632450e-07	
40	-2.00000e+00	8.643501e-07	
41	-2.05000e+00	8.654391e-07	
42	-2.10000e+00	8.665126e-07	
43	-2.15000e+00	8.675714e-07	
44	-2.20000e+00	8.686161e-07	
45	-2.25000e+00	8.696473e-07	
46	-2.30000e+00	8.706655e-07	
47	-2.35000e+00	8.716714e-07	
48	-2.40000e+00	8.726654e-07	
49	-2.45000e+00	8.736479e-07	
50	-2.50000e+00	8.746194e-07	
51	-2.55000e+00	8.755804e-07	
52	-2.60000e+00	8.765312e-07	
53	-2.65000e+00	8.774722e-07	
54	-2.70000e+00	8.784038e-07	

Index   v-sweep         i(vds)          
--------------------------------------------------------------------------------
55	-2.75000e+00	8.793264e-07	
56	-2.80000e+00	8.802402e-07	
57	-2.85000e+00	8.811456e-07	
58	-2.90000e+00	8.820429e-07	
59	-2.95000e+00	8.829325e-07	
60	-3.00000e+00	8.838147e-07	
61	-3.05000e+00	8.846898e-07	
62	-3.10000e+00	8.855582e-07	
63	-3.15000e+00	8.864201e-07	
64	-3.20000e+00	8.872759e-07	
65	-3.25000e+00	8.881261e-07	
66	-3.30000e+00	8.889709e-07	
67	-3.35000e+00	8.898109e-07	
68	-3.40000e+00	8.906465e-07	
69	-3.45000e+00	8.914782e-07	
70	-3.50000e+00	8.923066e-07	
71	-3.55000e+00	8.931323e-07	
72	-3.60000e+00	8.939558e-07	
73	-3.65000e+00	8.947781e-07	
74	-3.70000e+00	8.955999e-07	
75	-3.75000e+00	8.964220e-07	
76	-3.80000e+00	8.972455e-07	
77	-3.85000e+00	8.980715e-07	
78	-3.90000e+00	8.989012e-07	
79	-3.95000e+00	8.997359e-07	
80	-4.00000e+00	9.005771e-07	
81	-4.05000e+00	9.014264e-07	
82	-4.10000e+00	9.022854e-07	
83	-4.15000e+00	9.031562e-07	
84	-4.20000e+00	9.040408e-07	
85	-4.25000e+00	9.049415e-07	
86	-4.30000e+00	9.058607e-07	
87	-4.35000e+00	9.068010e-07	
88	-4.40000e+00	9.077654e-07	
89	-4.45000e+00	9.087569e-07	
90	-4.50000e+00	9.097789e-07	
91	-4.55000e+00	9.108349e-07	
92	-4.60000e+00	9.119286e-07	
93	-4.65000e+00	9.130643e-07	
94	-4.70000e+00	9.142462e-07	
95	-4.75000e+00	9.154789e-07	
96	-4.80000e+00	9.167674e-07	
97	-4.85000e+00	9.181168e-07	
98	-4.90000e+00	9.195328e-07	
99	-4.95000e+00	9.210210e-07	
100	-5.00000e+00	9.225877e-07	
101	-5.05000e+00	9.242393e-07	
102	-5.10000e+00	9.259826e-07	
103	-5.15000e+00	9.278248e-07	
104	-5.20000e+00	9.297734e-07	
105	-5.25000e+00	9.318362e-07	
106	-5.30000e+00	9.340214e-07	
107	-5.35000e+00	9.363377e-07	
108	-5.40000e+00	9.387938e-07	
109	-5.45000e+00	9.413992e-07	
110	-5.50000e+00	9.441634e-07	
111	-5.55000e+00	9.470966e-07	
112	-5.60000e+00	9.502092e-07	

Index   v-sweep         i(vds)          
--------------------------------------------------------------------------------
113	-5.65000e+00	9.535120e-07	
114	-5.70000e+00	9.570161e-07	
115	-5.75000e+00	9.607332e-07	
116	-5.80000e+00	9.646752e-07	
117	-5.85000e+00	9.688544e-07	
118	-5.90000e+00	9.732836e-07	
119	-5.95000e+00	9.779758e-07	
120	-6.00000e+00	9.829447e-07	
121	-6.05000e+00	9.882039e-07	
122	-6.10000e+00	9.937678e-07	
123	-6.15000e+00	9.996510e-07	
124	-6.20000e+00	1.005868e-06	
125	-6.25000e+00	1.012436e-06	
126	-6.30000e+00	1.019368e-06	
127	-6.35000e+00	1.026682e-06	
128	-6.40000e+00	1.034394e-06	
129	-6.45000e+00	1.042521e-06	
130	-6.50000e+00	1.051079e-06	
131	-6.55000e+00	1.060087e-06	
132	-6.60000e+00	1.069562e-06	
133	0.000000e+00	0.000000e+00	
134	-5.00000e-02	1.768568e-05	
135	-1.00000e-01	3.410612e-05	
136	-1.50000e-01	4.927568e-05	
137	-2.00000e-01	6.320860e-05	
138	-2.50000e-01	7.591911e-05	
139	-3.00000e-01	8.742147e-05	
140	-3.50000e-01	9.773022e-05	
141	-4.00000e-01	1.068604e-04	
142	-4.50000e-01	1.148285e-04	
143	-5.00000e-01	1.216532e-04	
144	-5.50000e-01	1.273587e-04	
145	-6.00000e-01	1.319806e-04	
146	-6.50000e-01	1.355776e-04	
147	-7.00000e-01	1.382533e-04	
148	-7.50000e-01	1.401737e-04	
149	-8.00000e-01	1.415500e-04	
150	-8.50000e-01	1.425767e-04	
151	-9.00000e-01	1.433888e-04	
152	-9.50000e-01	1.440649e-04	
153	-1.00000e+00	1.446493e-04	
154	-1.05000e+00	1.451675e-04	
155	-1.10000e+00	1.456353e-04	
156	-1.15000e+00	1.460633e-04	
157	-1.20000e+00	1.464587e-04	
158	-1.25000e+00	1.468270e-04	
159	-1.30000e+00	1.471721e-04	
160	-1.35000e+00	1.474974e-04	
161	-1.40000e+00	1.478052e-04	
162	-1.45000e+00	1.480977e-04	
163	-1.50000e+00	1.483767e-04	
164	-1.55000e+00	1.486434e-04	
165	-1.60000e+00	1.488992e-04	
166	-1.65000e+00	1.491450e-04	
167	-1.70000e+00	1.493818e-04	
168	-1.75000e+00	1.496103e-04	
169	-1.80000e+00	1.498313e-04	
170	-1.85000e+00	1.500453e-04	

Index   v-sweep         i(vds)          
--------------------------------------------------------------------------------
171	-1.90000e+00	1.502528e-04	
172	-1.95000e+00	1.504543e-04	
173	-2.00000e+00	1.506503e-04	
174	-2.05000e+00	1.508411e-04	
175	-2.10000e+00	1.510271e-04	
176	-2.15000e+00	1.512085e-04	
177	-2.20000e+00	1.513857e-04	
178	-2.25000e+00	1.515589e-04	
179	-2.30000e+00	1.517283e-04	
180	-2.35000e+00	1.518941e-04	
181	-2.40000e+00	1.520566e-04	
182	-2.45000e+00	1.522160e-04	
183	-2.50000e+00	1.523723e-04	
184	-2.55000e+00	1.525257e-04	
185	-2.60000e+00	1.526764e-04	
186	-2.65000e+00	1.528246e-04	
187	-2.70000e+00	1.529702e-04	
188	-2.75000e+00	1.531135e-04	
189	-2.80000e+00	1.532546e-04	
190	-2.85000e+00	1.533935e-04	
191	-2.90000e+00	1.535304e-04	
192	-2.95000e+00	1.536653e-04	
193	-3.00000e+00	1.537983e-04	
194	-3.05000e+00	1.539295e-04	
195	-3.10000e+00	1.540589e-04	
196	-3.15000e+00	1.541867e-04	
197	-3.20000e+00	1.543129e-04	
198	-3.25000e+00	1.544375e-04	
199	-3.30000e+00	1.545607e-04	
200	-3.35000e+00	1.546824e-04	
201	-3.40000e+00	1.548027e-04	
202	-3.45000e+00	1.549218e-04	
203	-3.50000e+00	1.550395e-04	
204	-3.55000e+00	1.551560e-04	
205	-3.60000e+00	1.552714e-04	
206	-3.65000e+00	1.553856e-04	
207	-3.70000e+00	1.554988e-04	
208	-3.75000e+00	1.556109e-04	
209	-3.80000e+00	1.557221e-04	
210	-3.85000e+00	1.558323e-04	
211	-3.90000e+00	1.559417e-04	
212	-3.95000e+00	1.560503e-04	
213	-4.00000e+00	1.561582e-04	
214	-4.05000e+00	1.562654e-04	
215	-4.10000e+00	1.563720e-04	
216	-4.15000e+00	1.564782e-04	
217	-4.20000e+00	1.565839e-04	
218	-4.25000e+00	1.566894e-04	
219	-4.30000e+00	1.567948e-04	
220	-4.35000e+00	1.569000e-04	
221	-4.40000e+00	1.570055e-04	
222	-4.45000e+00	1.571111e-04	
223	-4.50000e+00	1.572173e-04	
224	-4.55000e+00	1.573241e-04	
225	-4.60000e+00	1.574317e-04	
226	-4.65000e+00	1.575405e-04	
227	-4.70000e+00	1.576506e-04	
228	-4.75000e+00	1.577624e-04	

Index   v-sweep         i(vds)          
--------------------------------------------------------------------------------
229	-4.80000e+00	1.578762e-04	
230	-4.85000e+00	1.579923e-04	
231	-4.90000e+00	1.581111e-04	
232	-4.95000e+00	1.582329e-04	
233	-5.00000e+00	1.583584e-04	
234	-5.05000e+00	1.584878e-04	
235	-5.10000e+00	1.586218e-04	
236	-5.15000e+00	1.587609e-04	
237	-5.20000e+00	1.589056e-04	
238	-5.25000e+00	1.590567e-04	
239	-5.30000e+00	1.592147e-04	
240	-5.35000e+00	1.593805e-04	
241	-5.40000e+00	1.595548e-04	
242	-5.45000e+00	1.597384e-04	
243	-5.50000e+00	1.599322e-04	
244	-5.55000e+00	1.601371e-04	
245	-5.60000e+00	1.603541e-04	
246	-5.65000e+00	1.605843e-04	
247	-5.70000e+00	1.608286e-04	
248	-5.75000e+00	1.610884e-04	
249	-5.80000e+00	1.613647e-04	
250	-5.85000e+00	1.616588e-04	
251	-5.90000e+00	1.619721e-04	
252	-5.95000e+00	1.623059e-04	
253	-6.00000e+00	1.626616e-04	
254	-6.05000e+00	1.630409e-04	
255	-6.10000e+00	1.634452e-04	
256	-6.15000e+00	1.638762e-04	
257	-6.20000e+00	1.643355e-04	
258	-6.25000e+00	1.648250e-04	
259	-6.30000e+00	1.653465e-04	
260	-6.35000e+00	1.659018e-04	
261	-6.40000e+00	1.664929e-04	
262	-6.45000e+00	1.671218e-04	
263	-6.50000e+00	1.677906e-04	
264	-6.55000e+00	1.685014e-04	
265	-6.60000e+00	1.692565e-04	
266	0.000000e+00	0.000000e+00	
267	-5.00000e-02	3.117074e-05	
268	-1.00000e-01	6.112880e-05	
269	-1.50000e-01	8.988620e-05	
270	-2.00000e-01	1.174548e-04	
271	-2.50000e-01	1.438463e-04	
272	-3.00000e-01	1.690723e-04	
273	-3.50000e-01	1.931442e-04	
274	-4.00000e-01	2.160732e-04	
275	-4.50000e-01	2.378707e-04	
276	-5.00000e-01	2.585475e-04	
277	-5.50000e-01	2.781147e-04	
278	-6.00000e-01	2.965831e-04	
279	-6.50000e-01	3.139634e-04	
280	-7.00000e-01	3.302664e-04	
281	-7.50000e-01	3.455027e-04	
282	-8.00000e-01	3.596831e-04	
283	-8.50000e-01	3.728184e-04	
284	-9.00000e-01	3.849196e-04	
285	-9.50000e-01	3.959983e-04	
286	-1.00000e+00	4.060668e-04	

Index   v-sweep         i(vds)          
--------------------------------------------------------------------------------
287	-1.05000e+00	4.151386e-04	
288	-1.10000e+00	4.232299e-04	
289	-1.15000e+00	4.303610e-04	
290	-1.20000e+00	4.365596e-04	
291	-1.25000e+00	4.418663e-04	
292	-1.30000e+00	4.463416e-04	
293	-1.35000e+00	4.500725e-04	
294	-1.40000e+00	4.531712e-04	
295	-1.45000e+00	4.557617e-04	
296	-1.50000e+00	4.579596e-04	
297	-1.55000e+00	4.598591e-04	
298	-1.60000e+00	4.615304e-04	
299	-1.65000e+00	4.630241e-04	
300	-1.70000e+00	4.643764e-04	
301	-1.75000e+00	4.656141e-04	
302	-1.80000e+00	4.667568e-04	
303	-1.85000e+00	4.678196e-04	
304	-1.90000e+00	4.688144e-04	
305	-1.95000e+00	4.697503e-04	
306	-2.00000e+00	4.706350e-04	
307	-2.05000e+00	4.714746e-04	
308	-2.10000e+00	4.722742e-04	
309	-2.15000e+00	4.730381e-04	
310	-2.20000e+00	4.737699e-04	
311	-2.25000e+00	4.744727e-04	
312	-2.30000e+00	4.751492e-04	
313	-2.35000e+00	4.758017e-04	
314	-2.40000e+00	4.764322e-04	
315	-2.45000e+00	4.770425e-04	
316	-2.50000e+00	4.776342e-04	
317	-2.55000e+00	4.782087e-04	
318	-2.60000e+00	4.787671e-04	
319	-2.65000e+00	4.793107e-04	
320	-2.70000e+00	4.798404e-04	
321	-2.75000e+00	4.803571e-04	
322	-2.80000e+00	4.808617e-04	
323	-2.85000e+00	4.813549e-04	
324	-2.90000e+00	4.818373e-04	
325	-2.95000e+00	4.823096e-04	
326	-3.00000e+00	4.827724e-04	
327	-3.05000e+00	4.832261e-04	
328	-3.10000e+00	4.836713e-04	
329	-3.15000e+00	4.841083e-04	
330	-3.20000e+00	4.845377e-04	
331	-3.25000e+00	4.849597e-04	
332	-3.30000e+00	4.853748e-04	
333	-3.35000e+00	4.857832e-04	
334	-3.40000e+00	4.861853e-04	
335	-3.45000e+00	4.865814e-04	
336	-3.50000e+00	4.869716e-04	
337	-3.55000e+00	4.873564e-04	
338	-3.60000e+00	4.877358e-04	
339	-3.65000e+00	4.881101e-04	
340	-3.70000e+00	4.884795e-04	
341	-3.75000e+00	4.888443e-04	
342	-3.80000e+00	4.892045e-04	
343	-3.85000e+00	4.895605e-04	
344	-3.90000e+00	4.899122e-04	

Index   v-sweep         i(vds)          
--------------------------------------------------------------------------------
345	-3.95000e+00	4.902600e-04	
346	-4.00000e+00	4.906039e-04	
347	-4.05000e+00	4.909441e-04	
348	-4.10000e+00	4.912808e-04	
349	-4.15000e+00	4.916140e-04	
350	-4.20000e+00	4.919440e-04	
351	-4.25000e+00	4.922708e-04	
352	-4.30000e+00	4.925947e-04	
353	-4.35000e+00	4.929157e-04	
354	-4.40000e+00	4.932340e-04	
355	-4.45000e+00	4.935497e-04	
356	-4.50000e+00	4.938631e-04	
357	-4.55000e+00	4.941742e-04	
358	-4.60000e+00	4.944834e-04	
359	-4.65000e+00	4.947908e-04	
360	-4.70000e+00	4.950966e-04	
361	-4.75000e+00	4.954011e-04	
362	-4.80000e+00	4.957046e-04	
363	-4.85000e+00	4.960074e-04	
364	-4.90000e+00	4.963099e-04	
365	-4.95000e+00	4.966123e-04	
366	-5.00000e+00	4.969153e-04	
367	-5.05000e+00	4.972191e-04	
368	-5.10000e+00	4.975245e-04	
369	-5.15000e+00	4.978319e-04	
370	-5.20000e+00	4.981420e-04	
371	-5.25000e+00	4.984555e-04	
372	-5.30000e+00	4.987732e-04	
373	-5.35000e+00	4.990960e-04	
374	-5.40000e+00	4.994249e-04	
375	-5.45000e+00	4.997608e-04	
376	-5.50000e+00	5.001049e-04	
377	-5.55000e+00	5.004584e-04	
378	-5.60000e+00	5.008227e-04	
379	-5.65000e+00	5.011992e-04	
380	-5.70000e+00	5.015895e-04	
381	-5.75000e+00	5.019952e-04	
382	-5.80000e+00	5.024182e-04	
383	-5.85000e+00	5.028604e-04	
384	-5.90000e+00	5.033239e-04	
385	-5.95000e+00	5.038109e-04	
386	-6.00000e+00	5.043237e-04	
387	-6.05000e+00	5.048650e-04	
388	-6.10000e+00	5.054373e-04	
389	-6.15000e+00	5.060435e-04	
390	-6.20000e+00	5.066866e-04	
391	-6.25000e+00	5.073698e-04	
392	-6.30000e+00	5.080964e-04	
393	-6.35000e+00	5.088699e-04	
394	-6.40000e+00	5.096942e-04	
395	-6.45000e+00	5.105729e-04	
396	-6.50000e+00	5.115103e-04	
397	-6.55000e+00	5.125105e-04	
398	-6.60000e+00	5.135781e-04	
399	0.000000e+00	0.000000e+00	
400	-5.00000e-02	4.154282e-05	
401	-1.00000e-01	8.194461e-05	
402	-1.50000e-01	1.212155e-04	

Index   v-sweep         i(vds)          
--------------------------------------------------------------------------------
403	-2.00000e-01	1.593656e-04	
404	-2.50000e-01	1.964048e-04	
405	-3.00000e-01	2.323430e-04	
406	-3.50000e-01	2.671897e-04	
407	-4.00000e-01	3.009546e-04	
408	-4.50000e-01	3.336472e-04	
409	-5.00000e-01	3.652768e-04	
410	-5.50000e-01	3.958528e-04	
411	-6.00000e-01	4.253842e-04	
412	-6.50000e-01	4.538801e-04	
413	-7.00000e-01	4.813495e-04	
414	-7.50000e-01	5.078012e-04	
415	-8.00000e-01	5.332441e-04	
416	-8.50000e-01	5.576868e-04	
417	-9.00000e-01	5.811378e-04	
418	-9.50000e-01	6.036058e-04	
419	-1.00000e+00	6.250991e-04	
420	-1.05000e+00	6.456261e-04	
421	-1.10000e+00	6.651951e-04	
422	-1.15000e+00	6.838143e-04	
423	-1.20000e+00	7.014920e-04	
424	-1.25000e+00	7.182364e-04	
425	-1.30000e+00	7.340555e-04	
426	-1.35000e+00	7.489577e-04	
427	-1.40000e+00	7.629513e-04	
428	-1.45000e+00	7.760446e-04	
429	-1.50000e+00	7.882466e-04	
430	-1.55000e+00	7.995663e-04	
431	-1.60000e+00	8.100139e-04	
432	-1.65000e+00	8.196005e-04	
433	-1.70000e+00	8.283396e-04	
434	-1.75000e+00	8.362477e-04	
435	-1.80000e+00	8.433472e-04	
436	-1.85000e+00	8.496688e-04	
437	-1.90000e+00	8.552557e-04	
438	-1.95000e+00	8.601661e-04	
439	-2.00000e+00	8.644727e-04	
440	-2.05000e+00	8.682575e-04	
441	-2.10000e+00	8.716031e-04	
442	-2.15000e+00	8.745849e-04	
443	-2.20000e+00	8.772671e-04	
444	-2.25000e+00	8.797019e-04	
445	-2.30000e+00	8.819311e-04	
446	-2.35000e+00	8.839877e-04	
447	-2.40000e+00	8.858980e-04	
448	-2.45000e+00	8.876832e-04	
449	-2.50000e+00	8.893600e-04	
450	-2.55000e+00	8.909425e-04	
451	-2.60000e+00	8.924420e-04	
452	-2.65000e+00	8.938681e-04	
453	-2.70000e+00	8.952287e-04	
454	-2.75000e+00	8.965307e-04	
455	-2.80000e+00	8.977798e-04	
456	-2.85000e+00	8.989811e-04	
457	-2.90000e+00	9.001387e-04	
458	-2.95000e+00	9.012565e-04	
459	-3.00000e+00	9.023378e-04	
460	-3.05000e+00	9.033856e-04	

Index   v-sweep         i(vds)          
--------------------------------------------------------------------------------
461	-3.10000e+00	9.044022e-04	
462	-3.15000e+00	9.053902e-04	
463	-3.20000e+00	9.063515e-04	
464	-3.25000e+00	9.072879e-04	
465	-3.30000e+00	9.082012e-04	
466	-3.35000e+00	9.090927e-04	
467	-3.40000e+00	9.099639e-04	
468	-3.45000e+00	9.108160e-04	
469	-3.50000e+00	9.116502e-04	
470	-3.55000e+00	9.124674e-04	
471	-3.60000e+00	9.132686e-04	
472	-3.65000e+00	9.140547e-04	
473	-3.70000e+00	9.148264e-04	
474	-3.75000e+00	9.155846e-04	
475	-3.80000e+00	9.163298e-04	
476	-3.85000e+00	9.170627e-04	
477	-3.90000e+00	9.177840e-04	
478	-3.95000e+00	9.184941e-04	
479	-4.00000e+00	9.191936e-04	
480	-4.05000e+00	9.198829e-04	
481	-4.10000e+00	9.205625e-04	
482	-4.15000e+00	9.212328e-04	
483	-4.20000e+00	9.218942e-04	
484	-4.25000e+00	9.225470e-04	
485	-4.30000e+00	9.231917e-04	
486	-4.35000e+00	9.238284e-04	
487	-4.40000e+00	9.244577e-04	
488	-4.45000e+00	9.250796e-04	
489	-4.50000e+00	9.256946e-04	
490	-4.55000e+00	9.263029e-04	
491	-4.60000e+00	9.269047e-04	
492	-4.65000e+00	9.275003e-04	
493	-4.70000e+00	9.280899e-04	
494	-4.75000e+00	9.286738e-04	
495	-4.80000e+00	9.292523e-04	
496	-4.85000e+00	9.298255e-04	
497	-4.90000e+00	9.303938e-04	
498	-4.95000e+00	9.309573e-04	
499	-5.00000e+00	9.315163e-04	
500	-5.05000e+00	9.320712e-04	
501	-5.10000e+00	9.326223e-04	
502	-5.15000e+00	9.331698e-04	
503	-5.20000e+00	9.337141e-04	
504	-5.25000e+00	9.342556e-04	
505	-5.30000e+00	9.347948e-04	
506	-5.35000e+00	9.353322e-04	
507	-5.40000e+00	9.358682e-04	
508	-5.45000e+00	9.364035e-04	
509	-5.50000e+00	9.369387e-04	
510	-5.55000e+00	9.374746e-04	
511	-5.60000e+00	9.380120e-04	
512	-5.65000e+00	9.385518e-04	
513	-5.70000e+00	9.390951e-04	
514	-5.75000e+00	9.396429e-04	
515	-5.80000e+00	9.401965e-04	
516	-5.85000e+00	9.407574e-04	
517	-5.90000e+00	9.413269e-04	
518	-5.95000e+00	9.419069e-04	

Index   v-sweep         i(vds)          
--------------------------------------------------------------------------------
519	-6.00000e+00	9.424990e-04	
520	-6.05000e+00	9.431054e-04	
521	-6.10000e+00	9.437281e-04	
522	-6.15000e+00	9.443695e-04	
523	-6.20000e+00	9.450323e-04	
524	-6.25000e+00	9.457191e-04	
525	-6.30000e+00	9.464330e-04	
526	-6.35000e+00	9.471772e-04	
527	-6.40000e+00	9.479552e-04	
528	-6.45000e+00	9.487707e-04	
529	-6.50000e+00	9.496276e-04	
530	-6.55000e+00	9.505302e-04	
531	-6.60000e+00	9.514831e-04	
532	0.000000e+00	0.000000e+00	
533	-5.00000e-02	4.965268e-05	
534	-1.00000e-01	9.823775e-05	
535	-1.50000e-01	1.457638e-04	
536	-2.00000e-01	1.922395e-04	
537	-2.50000e-01	2.376732e-04	
538	-3.00000e-01	2.820734e-04	
539	-3.50000e-01	3.254482e-04	
540	-4.00000e-01	3.678059e-04	
541	-4.50000e-01	4.091546e-04	
542	-5.00000e-01	4.495024e-04	
543	-5.50000e-01	4.888570e-04	
544	-6.00000e-01	5.272265e-04	
545	-6.50000e-01	5.646186e-04	
546	-7.00000e-01	6.010410e-04	
547	-7.50000e-01	6.365012e-04	
548	-8.00000e-01	6.710069e-04	
549	-8.50000e-01	7.045655e-04	
550	-9.00000e-01	7.371844e-04	
551	-9.50000e-01	7.688708e-04	
552	-1.00000e+00	7.996321e-04	
553	-1.05000e+00	8.294754e-04	
554	-1.10000e+00	8.584077e-04	
555	-1.15000e+00	8.864362e-04	
556	-1.20000e+00	9.135677e-04	
557	-1.25000e+00	9.398092e-04	
558	-1.30000e+00	9.651675e-04	
559	-1.35000e+00	9.896494e-04	
560	-1.40000e+00	1.013262e-03	
561	-1.45000e+00	1.036011e-03	
562	-1.50000e+00	1.057903e-03	
563	-1.55000e+00	1.078946e-03	
564	-1.60000e+00	1.099145e-03	
565	-1.65000e+00	1.118508e-03	
566	-1.70000e+00	1.137039e-03	
567	-1.75000e+00	1.154747e-03	
568	-1.80000e+00	1.171637e-03	
569	-1.85000e+00	1.187715e-03	
570	-1.90000e+00	1.202988e-03	
571	-1.95000e+00	1.217463e-03	
572	-2.00000e+00	1.231145e-03	
573	-2.05000e+00	1.244042e-03	
574	-2.10000e+00	1.256161e-03	
575	-2.15000e+00	1.267508e-03	
576	-2.20000e+00	1.278091e-03	

Index   v-sweep         i(vds)          
--------------------------------------------------------------------------------
577	-2.25000e+00	1.287918e-03	
578	-2.30000e+00	1.297002e-03	
579	-2.35000e+00	1.305352e-03	
580	-2.40000e+00	1.312988e-03	
581	-2.45000e+00	1.319932e-03	
582	-2.50000e+00	1.326217e-03	
583	-2.55000e+00	1.331886e-03	
584	-2.60000e+00	1.336992e-03	
585	-2.65000e+00	1.341598e-03	
586	-2.70000e+00	1.345765e-03	
587	-2.75000e+00	1.349555e-03	
588	-2.80000e+00	1.353022e-03	
589	-2.85000e+00	1.356212e-03	
590	-2.90000e+00	1.359166e-03	
591	-2.95000e+00	1.361917e-03	
592	-3.00000e+00	1.364492e-03	
593	-3.05000e+00	1.366913e-03	
594	-3.10000e+00	1.369200e-03	
595	-3.15000e+00	1.371368e-03	
596	-3.20000e+00	1.373431e-03	
597	-3.25000e+00	1.375400e-03	
598	-3.30000e+00	1.377285e-03	
599	-3.35000e+00	1.379093e-03	
600	-3.40000e+00	1.380833e-03	
601	-3.45000e+00	1.382509e-03	
602	-3.50000e+00	1.384129e-03	
603	-3.55000e+00	1.385695e-03	
604	-3.60000e+00	1.387214e-03	
605	-3.65000e+00	1.388687e-03	
606	-3.70000e+00	1.390120e-03	
607	-3.75000e+00	1.391513e-03	
608	-3.80000e+00	1.392872e-03	
609	-3.85000e+00	1.394196e-03	
610	-3.90000e+00	1.395490e-03	
611	-3.95000e+00	1.396754e-03	
612	-4.00000e+00	1.397991e-03	
613	-4.05000e+00	1.399202e-03	
614	-4.10000e+00	1.400389e-03	
615	-4.15000e+00	1.401553e-03	
616	-4.20000e+00	1.402695e-03	
617	-4.25000e+00	1.403816e-03	
618	-4.30000e+00	1.404918e-03	
619	-4.35000e+00	1.406002e-03	
620	-4.40000e+00	1.407067e-03	
621	-4.45000e+00	1.408116e-03	
622	-4.50000e+00	1.409150e-03	
623	-4.55000e+00	1.410168e-03	
624	-4.60000e+00	1.411171e-03	
625	-4.65000e+00	1.412160e-03	
626	-4.70000e+00	1.413137e-03	
627	-4.75000e+00	1.414100e-03	
628	-4.80000e+00	1.415051e-03	
629	-4.85000e+00	1.415991e-03	
630	-4.90000e+00	1.416919e-03	
631	-4.95000e+00	1.417836e-03	
632	-5.00000e+00	1.418743e-03	
633	-5.05000e+00	1.419640e-03	
634	-5.10000e+00	1.420528e-03	

Index   v-sweep         i(vds)          
--------------------------------------------------------------------------------
635	-5.15000e+00	1.421406e-03	
636	-5.20000e+00	1.422276e-03	
637	-5.25000e+00	1.423137e-03	
638	-5.30000e+00	1.423989e-03	
639	-5.35000e+00	1.424834e-03	
640	-5.40000e+00	1.425672e-03	
641	-5.45000e+00	1.426502e-03	
642	-5.50000e+00	1.427326e-03	
643	-5.55000e+00	1.428143e-03	
644	-5.60000e+00	1.428954e-03	
645	-5.65000e+00	1.429760e-03	
646	-5.70000e+00	1.430561e-03	
647	-5.75000e+00	1.431357e-03	
648	-5.80000e+00	1.432150e-03	
649	-5.85000e+00	1.432939e-03	
650	-5.90000e+00	1.433725e-03	
651	-5.95000e+00	1.434510e-03	
652	-6.00000e+00	1.435294e-03	
653	-6.05000e+00	1.436077e-03	
654	-6.10000e+00	1.436862e-03	
655	-6.15000e+00	1.437649e-03	
656	-6.20000e+00	1.438440e-03	
657	-6.25000e+00	1.439236e-03	
658	-6.30000e+00	1.440039e-03	
659	-6.35000e+00	1.440850e-03	
660	-6.40000e+00	1.441672e-03	
661	-6.45000e+00	1.442507e-03	
662	-6.50000e+00	1.443358e-03	
663	-6.55000e+00	1.444226e-03	
664	-6.60000e+00	1.445116e-03	
665	0.000000e+00	0.000000e+00	
666	-5.00000e-02	5.606967e-05	
667	-1.00000e-01	1.111424e-04	
668	-1.50000e-01	1.652255e-04	
669	-2.00000e-01	2.183263e-04	
670	-2.50000e-01	2.704521e-04	
671	-3.00000e-01	3.216102e-04	
672	-3.50000e-01	3.718075e-04	
673	-4.00000e-01	4.210511e-04	
674	-4.50000e-01	4.693480e-04	
675	-5.00000e-01	5.167051e-04	
676	-5.50000e-01	5.631293e-04	
677	-6.00000e-01	6.086273e-04	
678	-6.50000e-01	6.532059e-04	
679	-7.00000e-01	6.968716e-04	
680	-7.50000e-01	7.396310e-04	
681	-8.00000e-01	7.814908e-04	
682	-8.50000e-01	8.224572e-04	
683	-9.00000e-01	8.625368e-04	
684	-9.50000e-01	9.017359e-04	
685	-1.00000e+00	9.400607e-04	
686	-1.05000e+00	9.775174e-04	
687	-1.10000e+00	1.014112e-03	
688	-1.15000e+00	1.049851e-03	
689	-1.20000e+00	1.084741e-03	
690	-1.25000e+00	1.118786e-03	
691	-1.30000e+00	1.151994e-03	
692	-1.35000e+00	1.184370e-03	

Index   v-sweep         i(vds)          
--------------------------------------------------------------------------------
693	-1.40000e+00	1.215920e-03	
694	-1.45000e+00	1.246649e-03	
695	-1.50000e+00	1.276564e-03	
696	-1.55000e+00	1.305670e-03	
697	-1.60000e+00	1.333973e-03	
698	-1.65000e+00	1.361478e-03	
699	-1.70000e+00	1.388190e-03	
700	-1.75000e+00	1.414116e-03	
701	-1.80000e+00	1.439261e-03	
702	-1.85000e+00	1.463630e-03	
703	-1.90000e+00	1.487229e-03	
704	-1.95000e+00	1.510062e-03	
705	-2.00000e+00	1.532135e-03	
706	-2.05000e+00	1.553454e-03	
707	-2.10000e+00	1.574022e-03	
708	-2.15000e+00	1.593847e-03	
709	-2.20000e+00	1.612932e-03	
710	-2.25000e+00	1.631283e-03	
711	-2.30000e+00	1.648905e-03	
712	-2.35000e+00	1.665803e-03	
713	-2.40000e+00	1.681982e-03	
714	-2.45000e+00	1.697447e-03	
715	-2.50000e+00	1.712202e-03	
716	-2.55000e+00	1.726253e-03	
717	-2.60000e+00	1.739604e-03	
718	-2.65000e+00	1.752261e-03	
719	-2.70000e+00	1.764228e-03	
720	-2.75000e+00	1.775511e-03	
721	-2.80000e+00	1.786114e-03	
722	-2.85000e+00	1.796042e-03	
723	-2.90000e+00	1.805303e-03	
724	-2.95000e+00	1.813905e-03	
725	-3.00000e+00	1.821861e-03	
726	-3.05000e+00	1.829188e-03	
727	-3.10000e+00	1.835914e-03	
728	-3.15000e+00	1.842074e-03	
729	-3.20000e+00	1.847712e-03	
730	-3.25000e+00	1.852879e-03	
731	-3.30000e+00	1.857628e-03	
732	-3.35000e+00	1.862007e-03	
733	-3.40000e+00	1.866064e-03	
734	-3.45000e+00	1.869839e-03	
735	-3.50000e+00	1.873368e-03	
736	-3.55000e+00	1.876682e-03	
737	-3.60000e+00	1.879806e-03	
738	-3.65000e+00	1.882763e-03	
739	-3.70000e+00	1.885571e-03	
740	-3.75000e+00	1.888247e-03	
741	-3.80000e+00	1.890805e-03	
742	-3.85000e+00	1.893255e-03	
743	-3.90000e+00	1.895609e-03	
744	-3.95000e+00	1.897874e-03	
745	-4.00000e+00	1.900060e-03	
746	-4.05000e+00	1.902172e-03	
747	-4.10000e+00	1.904217e-03	
748	-4.15000e+00	1.906201e-03	
749	-4.20000e+00	1.908126e-03	
750	-4.25000e+00	1.909999e-03	

Index   v-sweep         i(vds)          
--------------------------------------------------------------------------------
751	-4.30000e+00	1.911823e-03	
752	-4.35000e+00	1.913600e-03	
753	-4.40000e+00	1.915335e-03	
754	-4.45000e+00	1.917030e-03	
755	-4.50000e+00	1.918687e-03	
756	-4.55000e+00	1.920308e-03	
757	-4.60000e+00	1.921897e-03	
758	-4.65000e+00	1.923454e-03	
759	-4.70000e+00	1.924982e-03	
760	-4.75000e+00	1.926482e-03	
761	-4.80000e+00	1.927955e-03	
762	-4.85000e+00	1.929403e-03	
763	-4.90000e+00	1.930827e-03	
764	-4.95000e+00	1.932229e-03	
765	-5.00000e+00	1.933609e-03	
766	-5.05000e+00	1.934968e-03	
767	-5.10000e+00	1.936308e-03	
768	-5.15000e+00	1.937629e-03	
769	-5.20000e+00	1.938933e-03	
770	-5.25000e+00	1.940219e-03	
771	-5.30000e+00	1.941488e-03	
772	-5.35000e+00	1.942742e-03	
773	-5.40000e+00	1.943981e-03	
774	-5.45000e+00	1.945205e-03	
775	-5.50000e+00	1.946416e-03	
776	-5.55000e+00	1.947613e-03	
777	-5.60000e+00	1.948797e-03	
778	-5.65000e+00	1.949969e-03	
779	-5.70000e+00	1.951129e-03	
780	-5.75000e+00	1.952277e-03	
781	-5.80000e+00	1.953415e-03	
782	-5.85000e+00	1.954542e-03	
783	-5.90000e+00	1.955659e-03	
784	-5.95000e+00	1.956766e-03	
785	-6.00000e+00	1.957865e-03	
786	-6.05000e+00	1.958954e-03	
787	-6.10000e+00	1.960036e-03	
788	-6.15000e+00	1.961109e-03	
789	-6.20000e+00	1.962176e-03	
790	-6.25000e+00	1.963237e-03	
791	-6.30000e+00	1.964291e-03	
792	-6.35000e+00	1.965341e-03	
793	-6.40000e+00	1.966387e-03	
794	-6.45000e+00	1.967429e-03	
795	-6.50000e+00	1.968470e-03	
796	-6.55000e+00	1.969509e-03	
797	-6.60000e+00	1.970549e-03	
Note: No ".plot", ".print", or ".fourier" lines; no simulations run
