
Note: Compatibility modes selected: hs

Warning: m=xx on .subckt line will override multiplier m hierarchy!


Circuit: ***************************

Doing analysis at TEMP = 25.000000 and TNOM = 25.000000


No. of Data Rows : 798
                          ***************************
                          DC transfer characteristic  Mon Jan  9 13:57:52  2023
--------------------------------------------------------------------------------
Index   v-sweep         i(vds)          
--------------------------------------------------------------------------------
0	0.000000e+00	0.000000e+00	
1	-5.00000e-02	1.440342e-06	
2	-1.00000e-01	2.219276e-06	
3	-1.50000e-01	2.502473e-06	
4	-2.00000e-01	2.580416e-06	
5	-2.50000e-01	2.610077e-06	
6	-3.00000e-01	2.627668e-06	
7	-3.50000e-01	2.640933e-06	
8	-4.00000e-01	2.652080e-06	
9	-4.50000e-01	2.661941e-06	
10	-5.00000e-01	2.670905e-06	
11	-5.50000e-01	2.679188e-06	
12	-6.00000e-01	2.686925e-06	
13	-6.50000e-01	2.694205e-06	
14	-7.00000e-01	2.701097e-06	
15	-7.50000e-01	2.707651e-06	
16	-8.00000e-01	2.713907e-06	
17	-8.50000e-01	2.719899e-06	
18	-9.00000e-01	2.725653e-06	
19	-9.50000e-01	2.731192e-06	
20	-1.00000e+00	2.736536e-06	
21	-1.05000e+00	2.741702e-06	
22	-1.10000e+00	2.746704e-06	
23	-1.15000e+00	2.751554e-06	
24	-1.20000e+00	2.756266e-06	
25	-1.25000e+00	2.760848e-06	
26	-1.30000e+00	2.765309e-06	
27	-1.35000e+00	2.769658e-06	
28	-1.40000e+00	2.773902e-06	
29	-1.45000e+00	2.778048e-06	
30	-1.50000e+00	2.782101e-06	
31	-1.55000e+00	2.786067e-06	
32	-1.60000e+00	2.789951e-06	
33	-1.65000e+00	2.793757e-06	
34	-1.70000e+00	2.797491e-06	
35	-1.75000e+00	2.801154e-06	
36	-1.80000e+00	2.804752e-06	
37	-1.85000e+00	2.808287e-06	
38	-1.90000e+00	2.811763e-06	
39	-1.95000e+00	2.815182e-06	
40	-2.00000e+00	2.818547e-06	
41	-2.05000e+00	2.821860e-06	
42	-2.10000e+00	2.825124e-06	
43	-2.15000e+00	2.828341e-06	
44	-2.20000e+00	2.831513e-06	
45	-2.25000e+00	2.834641e-06	
46	-2.30000e+00	2.837728e-06	
47	-2.35000e+00	2.840775e-06	
48	-2.40000e+00	2.843784e-06	
49	-2.45000e+00	2.846756e-06	
50	-2.50000e+00	2.849693e-06	
51	-2.55000e+00	2.852595e-06	
52	-2.60000e+00	2.855465e-06	
53	-2.65000e+00	2.858303e-06	
54	-2.70000e+00	2.861111e-06	

Index   v-sweep         i(vds)          
--------------------------------------------------------------------------------
55	-2.75000e+00	2.863889e-06	
56	-2.80000e+00	2.866640e-06	
57	-2.85000e+00	2.869362e-06	
58	-2.90000e+00	2.872059e-06	
59	-2.95000e+00	2.874730e-06	
60	-3.00000e+00	2.877377e-06	
61	-3.05000e+00	2.880001e-06	
62	-3.10000e+00	2.882603e-06	
63	-3.15000e+00	2.885183e-06	
64	-3.20000e+00	2.887742e-06	
65	-3.25000e+00	2.890283e-06	
66	-3.30000e+00	2.892806e-06	
67	-3.35000e+00	2.895311e-06	
68	-3.40000e+00	2.897802e-06	
69	-3.45000e+00	2.900278e-06	
70	-3.50000e+00	2.902742e-06	
71	-3.55000e+00	2.905195e-06	
72	-3.60000e+00	2.907639e-06	
73	-3.65000e+00	2.910077e-06	
74	-3.70000e+00	2.912510e-06	
75	-3.75000e+00	2.914941e-06	
76	-3.80000e+00	2.917372e-06	
77	-3.85000e+00	2.919808e-06	
78	-3.90000e+00	2.922251e-06	
79	-3.95000e+00	2.924706e-06	
80	-4.00000e+00	2.927176e-06	
81	-4.05000e+00	2.929666e-06	
82	-4.10000e+00	2.932180e-06	
83	-4.15000e+00	2.934726e-06	
84	-4.20000e+00	2.937308e-06	
85	-4.25000e+00	2.939933e-06	
86	-4.30000e+00	2.942608e-06	
87	-4.35000e+00	2.945341e-06	
88	-4.40000e+00	2.948141e-06	
89	-4.45000e+00	2.951016e-06	
90	-4.50000e+00	2.953977e-06	
91	-4.55000e+00	2.957033e-06	
92	-4.60000e+00	2.960197e-06	
93	-4.65000e+00	2.963480e-06	
94	-4.70000e+00	2.966895e-06	
95	-4.75000e+00	2.970456e-06	
96	-4.80000e+00	2.974178e-06	
97	-4.85000e+00	2.978076e-06	
98	-4.90000e+00	2.982167e-06	
99	-4.95000e+00	2.986469e-06	
100	-5.00000e+00	2.991000e-06	
101	-5.05000e+00	2.995779e-06	
102	-5.10000e+00	3.000828e-06	
103	-5.15000e+00	3.006168e-06	
104	-5.20000e+00	3.011822e-06	
105	-5.25000e+00	3.017813e-06	
106	-5.30000e+00	3.024168e-06	
107	-5.35000e+00	3.030912e-06	
108	-5.40000e+00	3.038072e-06	
109	-5.45000e+00	3.045677e-06	
110	-5.50000e+00	3.053757e-06	
111	-5.55000e+00	3.062342e-06	
112	-5.60000e+00	3.071466e-06	

Index   v-sweep         i(vds)          
--------------------------------------------------------------------------------
113	-5.65000e+00	3.081160e-06	
114	-5.70000e+00	3.091461e-06	
115	-5.75000e+00	3.102403e-06	
116	-5.80000e+00	3.114023e-06	
117	-5.85000e+00	3.126361e-06	
118	-5.90000e+00	3.139455e-06	
119	-5.95000e+00	3.153346e-06	
120	-6.00000e+00	3.168077e-06	
121	-6.05000e+00	3.183689e-06	
122	-6.10000e+00	3.200229e-06	
123	-6.15000e+00	3.217741e-06	
124	-6.20000e+00	3.236272e-06	
125	-6.25000e+00	3.255870e-06	
126	-6.30000e+00	3.276585e-06	
127	-6.35000e+00	3.298466e-06	
128	-6.40000e+00	3.321566e-06	
129	-6.45000e+00	3.345937e-06	
130	-6.50000e+00	3.371634e-06	
131	-6.55000e+00	3.398710e-06	
132	-6.60000e+00	3.427222e-06	
133	0.000000e+00	0.000000e+00	
134	-5.00000e-02	1.408868e-05	
135	-1.00000e-01	2.729249e-05	
136	-1.50000e-01	3.961778e-05	
137	-2.00000e-01	5.107088e-05	
138	-2.50000e-01	6.165814e-05	
139	-3.00000e-01	7.138594e-05	
140	-3.50000e-01	8.026080e-05	
141	-4.00000e-01	8.828944e-05	
142	-4.50000e-01	9.547895e-05	
143	-5.00000e-01	1.018372e-04	
144	-5.50000e-01	1.073733e-04	
145	-6.00000e-01	1.120992e-04	
146	-6.50000e-01	1.160320e-04	
147	-7.00000e-01	1.191993e-04	
148	-7.50000e-01	1.216497e-04	
149	-8.00000e-01	1.234667e-04	
150	-8.50000e-01	1.247771e-04	
151	-9.00000e-01	1.257304e-04	
152	-9.50000e-01	1.264570e-04	
153	-1.00000e+00	1.270448e-04	
154	-1.05000e+00	1.275449e-04	
155	-1.10000e+00	1.279855e-04	
156	-1.15000e+00	1.283829e-04	
157	-1.20000e+00	1.287473e-04	
158	-1.25000e+00	1.290851e-04	
159	-1.30000e+00	1.294008e-04	
160	-1.35000e+00	1.296980e-04	
161	-1.40000e+00	1.299790e-04	
162	-1.45000e+00	1.302460e-04	
163	-1.50000e+00	1.305006e-04	
164	-1.55000e+00	1.307441e-04	
165	-1.60000e+00	1.309775e-04	
166	-1.65000e+00	1.312020e-04	
167	-1.70000e+00	1.314183e-04	
168	-1.75000e+00	1.316270e-04	
169	-1.80000e+00	1.318289e-04	
170	-1.85000e+00	1.320245e-04	

Index   v-sweep         i(vds)          
--------------------------------------------------------------------------------
171	-1.90000e+00	1.322142e-04	
172	-1.95000e+00	1.323984e-04	
173	-2.00000e+00	1.325776e-04	
174	-2.05000e+00	1.327521e-04	
175	-2.10000e+00	1.329221e-04	
176	-2.15000e+00	1.330881e-04	
177	-2.20000e+00	1.332501e-04	
178	-2.25000e+00	1.334085e-04	
179	-2.30000e+00	1.335635e-04	
180	-2.35000e+00	1.337152e-04	
181	-2.40000e+00	1.338638e-04	
182	-2.45000e+00	1.340096e-04	
183	-2.50000e+00	1.341526e-04	
184	-2.55000e+00	1.342929e-04	
185	-2.60000e+00	1.344308e-04	
186	-2.65000e+00	1.345663e-04	
187	-2.70000e+00	1.346995e-04	
188	-2.75000e+00	1.348305e-04	
189	-2.80000e+00	1.349595e-04	
190	-2.85000e+00	1.350866e-04	
191	-2.90000e+00	1.352117e-04	
192	-2.95000e+00	1.353350e-04	
193	-3.00000e+00	1.354566e-04	
194	-3.05000e+00	1.355765e-04	
195	-3.10000e+00	1.356948e-04	
196	-3.15000e+00	1.358116e-04	
197	-3.20000e+00	1.359269e-04	
198	-3.25000e+00	1.360408e-04	
199	-3.30000e+00	1.361533e-04	
200	-3.35000e+00	1.362645e-04	
201	-3.40000e+00	1.363744e-04	
202	-3.45000e+00	1.364831e-04	
203	-3.50000e+00	1.365906e-04	
204	-3.55000e+00	1.366969e-04	
205	-3.60000e+00	1.368022e-04	
206	-3.65000e+00	1.369064e-04	
207	-3.70000e+00	1.370096e-04	
208	-3.75000e+00	1.371118e-04	
209	-3.80000e+00	1.372131e-04	
210	-3.85000e+00	1.373135e-04	
211	-3.90000e+00	1.374131e-04	
212	-3.95000e+00	1.375119e-04	
213	-4.00000e+00	1.376099e-04	
214	-4.05000e+00	1.377072e-04	
215	-4.10000e+00	1.378040e-04	
216	-4.15000e+00	1.379001e-04	
217	-4.20000e+00	1.379958e-04	
218	-4.25000e+00	1.380911e-04	
219	-4.30000e+00	1.381860e-04	
220	-4.35000e+00	1.382807e-04	
221	-4.40000e+00	1.383753e-04	
222	-4.45000e+00	1.384698e-04	
223	-4.50000e+00	1.385645e-04	
224	-4.55000e+00	1.386595e-04	
225	-4.60000e+00	1.387549e-04	
226	-4.65000e+00	1.388509e-04	
227	-4.70000e+00	1.389477e-04	
228	-4.75000e+00	1.390455e-04	

Index   v-sweep         i(vds)          
--------------------------------------------------------------------------------
229	-4.80000e+00	1.391445e-04	
230	-4.85000e+00	1.392451e-04	
231	-4.90000e+00	1.393475e-04	
232	-4.95000e+00	1.394519e-04	
233	-5.00000e+00	1.395588e-04	
234	-5.05000e+00	1.396685e-04	
235	-5.10000e+00	1.397814e-04	
236	-5.15000e+00	1.398979e-04	
237	-5.20000e+00	1.400185e-04	
238	-5.25000e+00	1.401436e-04	
239	-5.30000e+00	1.402739e-04	
240	-5.35000e+00	1.404098e-04	
241	-5.40000e+00	1.405520e-04	
242	-5.45000e+00	1.407012e-04	
243	-5.50000e+00	1.408579e-04	
244	-5.55000e+00	1.410231e-04	
245	-5.60000e+00	1.411973e-04	
246	-5.65000e+00	1.413815e-04	
247	-5.70000e+00	1.415766e-04	
248	-5.75000e+00	1.417833e-04	
249	-5.80000e+00	1.420028e-04	
250	-5.85000e+00	1.422361e-04	
251	-5.90000e+00	1.424841e-04	
252	-5.95000e+00	1.427481e-04	
253	-6.00000e+00	1.430292e-04	
254	-6.05000e+00	1.433287e-04	
255	-6.10000e+00	1.436477e-04	
256	-6.15000e+00	1.439877e-04	
257	-6.20000e+00	1.443501e-04	
258	-6.25000e+00	1.447363e-04	
259	-6.30000e+00	1.451478e-04	
260	-6.35000e+00	1.455862e-04	
261	-6.40000e+00	1.460530e-04	
262	-6.45000e+00	1.465501e-04	
263	-6.50000e+00	1.470790e-04	
264	-6.55000e+00	1.476417e-04	
265	-6.60000e+00	1.482399e-04	
266	0.000000e+00	0.000000e+00	
267	-5.00000e-02	2.408355e-05	
268	-1.00000e-01	4.732614e-05	
269	-1.50000e-01	6.973309e-05	
270	-2.00000e-01	9.130969e-05	
271	-2.50000e-01	1.120612e-04	
272	-3.00000e-01	1.319928e-04	
273	-3.50000e-01	1.511098e-04	
274	-4.00000e-01	1.694171e-04	
275	-4.50000e-01	1.869200e-04	
276	-5.00000e-01	2.036236e-04	
277	-5.50000e-01	2.195328e-04	
278	-6.00000e-01	2.346527e-04	
279	-6.50000e-01	2.489883e-04	
280	-7.00000e-01	2.625447e-04	
281	-7.50000e-01	2.753268e-04	
282	-8.00000e-01	2.873398e-04	
283	-8.50000e-01	2.985887e-04	
284	-9.00000e-01	3.090788e-04	
285	-9.50000e-01	3.188154e-04	
286	-1.00000e+00	3.278042e-04	

Index   v-sweep         i(vds)          
--------------------------------------------------------------------------------
287	-1.05000e+00	3.360512e-04	
288	-1.10000e+00	3.435633e-04	
289	-1.15000e+00	3.503483e-04	
290	-1.20000e+00	3.564160e-04	
291	-1.25000e+00	3.617795e-04	
292	-1.30000e+00	3.664570e-04	
293	-1.35000e+00	3.704759e-04	
294	-1.40000e+00	3.738775e-04	
295	-1.45000e+00	3.767215e-04	
296	-1.50000e+00	3.790879e-04	
297	-1.55000e+00	3.810681e-04	
298	-1.60000e+00	3.827514e-04	
299	-1.65000e+00	3.842122e-04	
300	-1.70000e+00	3.855058e-04	
301	-1.75000e+00	3.866714e-04	
302	-1.80000e+00	3.877361e-04	
303	-1.85000e+00	3.887190e-04	
304	-1.90000e+00	3.896343e-04	
305	-1.95000e+00	3.904923e-04	
306	-2.00000e+00	3.913011e-04	
307	-2.05000e+00	3.920670e-04	
308	-2.10000e+00	3.927953e-04	
309	-2.15000e+00	3.934901e-04	
310	-2.20000e+00	3.941550e-04	
311	-2.25000e+00	3.947929e-04	
312	-2.30000e+00	3.954064e-04	
313	-2.35000e+00	3.959977e-04	
314	-2.40000e+00	3.965687e-04	
315	-2.45000e+00	3.971210e-04	
316	-2.50000e+00	3.976561e-04	
317	-2.55000e+00	3.981754e-04	
318	-2.60000e+00	3.986799e-04	
319	-2.65000e+00	3.991707e-04	
320	-2.70000e+00	3.996487e-04	
321	-2.75000e+00	4.001147e-04	
322	-2.80000e+00	4.005695e-04	
323	-2.85000e+00	4.010139e-04	
324	-2.90000e+00	4.014483e-04	
325	-2.95000e+00	4.018735e-04	
326	-3.00000e+00	4.022898e-04	
327	-3.05000e+00	4.026978e-04	
328	-3.10000e+00	4.030980e-04	
329	-3.15000e+00	4.034907e-04	
330	-3.20000e+00	4.038762e-04	
331	-3.25000e+00	4.042551e-04	
332	-3.30000e+00	4.046275e-04	
333	-3.35000e+00	4.049938e-04	
334	-3.40000e+00	4.053543e-04	
335	-3.45000e+00	4.057092e-04	
336	-3.50000e+00	4.060587e-04	
337	-3.55000e+00	4.064032e-04	
338	-3.60000e+00	4.067427e-04	
339	-3.65000e+00	4.070776e-04	
340	-3.70000e+00	4.074079e-04	
341	-3.75000e+00	4.077340e-04	
342	-3.80000e+00	4.080559e-04	
343	-3.85000e+00	4.083738e-04	
344	-3.90000e+00	4.086878e-04	

Index   v-sweep         i(vds)          
--------------------------------------------------------------------------------
345	-3.95000e+00	4.089982e-04	
346	-4.00000e+00	4.093049e-04	
347	-4.05000e+00	4.096083e-04	
348	-4.10000e+00	4.099083e-04	
349	-4.15000e+00	4.102052e-04	
350	-4.20000e+00	4.104989e-04	
351	-4.25000e+00	4.107898e-04	
352	-4.30000e+00	4.110778e-04	
353	-4.35000e+00	4.113630e-04	
354	-4.40000e+00	4.116457e-04	
355	-4.45000e+00	4.119258e-04	
356	-4.50000e+00	4.122036e-04	
357	-4.55000e+00	4.124792e-04	
358	-4.60000e+00	4.127526e-04	
359	-4.65000e+00	4.130240e-04	
360	-4.70000e+00	4.132937e-04	
361	-4.75000e+00	4.135617e-04	
362	-4.80000e+00	4.138283e-04	
363	-4.85000e+00	4.140936e-04	
364	-4.90000e+00	4.143578e-04	
365	-4.95000e+00	4.146213e-04	
366	-5.00000e+00	4.148843e-04	
367	-5.05000e+00	4.151471e-04	
368	-5.10000e+00	4.154100e-04	
369	-5.15000e+00	4.156734e-04	
370	-5.20000e+00	4.159378e-04	
371	-5.25000e+00	4.162036e-04	
372	-5.30000e+00	4.164714e-04	
373	-5.35000e+00	4.167416e-04	
374	-5.40000e+00	4.170150e-04	
375	-5.45000e+00	4.172922e-04	
376	-5.50000e+00	4.175740e-04	
377	-5.55000e+00	4.178612e-04	
378	-5.60000e+00	4.181547e-04	
379	-5.65000e+00	4.184556e-04	
380	-5.70000e+00	4.187648e-04	
381	-5.75000e+00	4.190836e-04	
382	-5.80000e+00	4.194132e-04	
383	-5.85000e+00	4.197550e-04	
384	-5.90000e+00	4.201104e-04	
385	-5.95000e+00	4.204809e-04	
386	-6.00000e+00	4.208684e-04	
387	-6.05000e+00	4.212746e-04	
388	-6.10000e+00	4.217014e-04	
389	-6.15000e+00	4.221508e-04	
390	-6.20000e+00	4.226250e-04	
391	-6.25000e+00	4.231264e-04	
392	-6.30000e+00	4.236574e-04	
393	-6.35000e+00	4.242205e-04	
394	-6.40000e+00	4.248185e-04	
395	-6.45000e+00	4.254543e-04	
396	-6.50000e+00	4.261309e-04	
397	-6.55000e+00	4.268515e-04	
398	-6.60000e+00	4.276194e-04	
399	0.000000e+00	0.000000e+00	
400	-5.00000e-02	3.207272e-05	
401	-1.00000e-01	6.335468e-05	
402	-1.50000e-01	9.385048e-05	

Index   v-sweep         i(vds)          
--------------------------------------------------------------------------------
403	-2.00000e-01	1.235647e-04	
404	-2.50000e-01	1.525017e-04	
405	-3.00000e-01	1.806662e-04	
406	-3.50000e-01	2.080624e-04	
407	-4.00000e-01	2.346949e-04	
408	-4.50000e-01	2.605680e-04	
409	-5.00000e-01	2.856861e-04	
410	-5.50000e-01	3.100535e-04	
411	-6.00000e-01	3.336745e-04	
412	-6.50000e-01	3.565533e-04	
413	-7.00000e-01	3.786942e-04	
414	-7.50000e-01	4.001014e-04	
415	-8.00000e-01	4.207790e-04	
416	-8.50000e-01	4.407313e-04	
417	-9.00000e-01	4.599623e-04	
418	-9.50000e-01	4.784761e-04	
419	-1.00000e+00	4.962769e-04	
420	-1.05000e+00	5.133687e-04	
421	-1.10000e+00	5.297555e-04	
422	-1.15000e+00	5.454415e-04	
423	-1.20000e+00	5.604306e-04	
424	-1.25000e+00	5.747270e-04	
425	-1.30000e+00	5.883346e-04	
426	-1.35000e+00	6.012576e-04	
427	-1.40000e+00	6.135001e-04	
428	-1.45000e+00	6.250664e-04	
429	-1.50000e+00	6.359608e-04	
430	-1.55000e+00	6.461878e-04	
431	-1.60000e+00	6.557523e-04	
432	-1.65000e+00	6.646594e-04	
433	-1.70000e+00	6.729151e-04	
434	-1.75000e+00	6.805260e-04	
435	-1.80000e+00	6.875005e-04	
436	-1.85000e+00	6.938490e-04	
437	-1.90000e+00	6.995855e-04	
438	-1.95000e+00	7.047293e-04	
439	-2.00000e+00	7.093073e-04	
440	-2.05000e+00	7.133565e-04	
441	-2.10000e+00	7.169253e-04	
442	-2.15000e+00	7.200719e-04	
443	-2.20000e+00	7.228594e-04	
444	-2.25000e+00	7.253487e-04	
445	-2.30000e+00	7.275935e-04	
446	-2.35000e+00	7.296381e-04	
447	-2.40000e+00	7.315172e-04	
448	-2.45000e+00	7.332582e-04	
449	-2.50000e+00	7.348822e-04	
450	-2.55000e+00	7.364061e-04	
451	-2.60000e+00	7.378431e-04	
452	-2.65000e+00	7.392041e-04	
453	-2.70000e+00	7.404981e-04	
454	-2.75000e+00	7.417324e-04	
455	-2.80000e+00	7.429133e-04	
456	-2.85000e+00	7.440461e-04	
457	-2.90000e+00	7.451352e-04	
458	-2.95000e+00	7.461848e-04	
459	-3.00000e+00	7.471980e-04	
460	-3.05000e+00	7.481780e-04	

Index   v-sweep         i(vds)          
--------------------------------------------------------------------------------
461	-3.10000e+00	7.491274e-04	
462	-3.15000e+00	7.500484e-04	
463	-3.20000e+00	7.509432e-04	
464	-3.25000e+00	7.518136e-04	
465	-3.30000e+00	7.526613e-04	
466	-3.35000e+00	7.534878e-04	
467	-3.40000e+00	7.542944e-04	
468	-3.45000e+00	7.550824e-04	
469	-3.50000e+00	7.558528e-04	
470	-3.55000e+00	7.566068e-04	
471	-3.60000e+00	7.573452e-04	
472	-3.65000e+00	7.580689e-04	
473	-3.70000e+00	7.587786e-04	
474	-3.75000e+00	7.594752e-04	
475	-3.80000e+00	7.601593e-04	
476	-3.85000e+00	7.608314e-04	
477	-3.90000e+00	7.614923e-04	
478	-3.95000e+00	7.621423e-04	
479	-4.00000e+00	7.627821e-04	
480	-4.05000e+00	7.634120e-04	
481	-4.10000e+00	7.640326e-04	
482	-4.15000e+00	7.646442e-04	
483	-4.20000e+00	7.652471e-04	
484	-4.25000e+00	7.658419e-04	
485	-4.30000e+00	7.664287e-04	
486	-4.35000e+00	7.670079e-04	
487	-4.40000e+00	7.675799e-04	
488	-4.45000e+00	7.681448e-04	
489	-4.50000e+00	7.687030e-04	
490	-4.55000e+00	7.692547e-04	
491	-4.60000e+00	7.698001e-04	
492	-4.65000e+00	7.703396e-04	
493	-4.70000e+00	7.708732e-04	
494	-4.75000e+00	7.714012e-04	
495	-4.80000e+00	7.719239e-04	
496	-4.85000e+00	7.724413e-04	
497	-4.90000e+00	7.729538e-04	
498	-4.95000e+00	7.734616e-04	
499	-5.00000e+00	7.739647e-04	
500	-5.05000e+00	7.744635e-04	
501	-5.10000e+00	7.749580e-04	
502	-5.15000e+00	7.754487e-04	
503	-5.20000e+00	7.759356e-04	
504	-5.25000e+00	7.764191e-04	
505	-5.30000e+00	7.768994e-04	
506	-5.35000e+00	7.773767e-04	
507	-5.40000e+00	7.778515e-04	
508	-5.45000e+00	7.783241e-04	
509	-5.50000e+00	7.787948e-04	
510	-5.55000e+00	7.792640e-04	
511	-5.60000e+00	7.797324e-04	
512	-5.65000e+00	7.802004e-04	
513	-5.70000e+00	7.806685e-04	
514	-5.75000e+00	7.811375e-04	
515	-5.80000e+00	7.816082e-04	
516	-5.85000e+00	7.820812e-04	
517	-5.90000e+00	7.825576e-04	
518	-5.95000e+00	7.830384e-04	

Index   v-sweep         i(vds)          
--------------------------------------------------------------------------------
519	-6.00000e+00	7.835246e-04	
520	-6.05000e+00	7.840175e-04	
521	-6.10000e+00	7.845185e-04	
522	-6.15000e+00	7.850289e-04	
523	-6.20000e+00	7.855505e-04	
524	-6.25000e+00	7.860850e-04	
525	-6.30000e+00	7.866344e-04	
526	-6.35000e+00	7.872006e-04	
527	-6.40000e+00	7.877860e-04	
528	-6.45000e+00	7.883929e-04	
529	-6.50000e+00	7.890242e-04	
530	-6.55000e+00	7.896824e-04	
531	-6.60000e+00	7.903708e-04	
532	0.000000e+00	0.000000e+00	
533	-5.00000e-02	3.859490e-05	
534	-1.00000e-01	7.644671e-05	
535	-1.50000e-01	1.135594e-04	
536	-2.00000e-01	1.499370e-04	
537	-2.50000e-01	1.855833e-04	
538	-3.00000e-01	2.205023e-04	
539	-3.50000e-01	2.546979e-04	
540	-4.00000e-01	2.881739e-04	
541	-4.50000e-01	3.209340e-04	
542	-5.00000e-01	3.529822e-04	
543	-5.50000e-01	3.843222e-04	
544	-6.00000e-01	4.149577e-04	
545	-6.50000e-01	4.448924e-04	
546	-7.00000e-01	4.741300e-04	
547	-7.50000e-01	5.026742e-04	
548	-8.00000e-01	5.305287e-04	
549	-8.50000e-01	5.576970e-04	
550	-9.00000e-01	5.841827e-04	
551	-9.50000e-01	6.099894e-04	
552	-1.00000e+00	6.351207e-04	
553	-1.05000e+00	6.595801e-04	
554	-1.10000e+00	6.833711e-04	
555	-1.15000e+00	7.064971e-04	
556	-1.20000e+00	7.289616e-04	
557	-1.25000e+00	7.507681e-04	
558	-1.30000e+00	7.719200e-04	
559	-1.35000e+00	7.924207e-04	
560	-1.40000e+00	8.122735e-04	
561	-1.45000e+00	8.314819e-04	
562	-1.50000e+00	8.500492e-04	
563	-1.55000e+00	8.679788e-04	
564	-1.60000e+00	8.852740e-04	
565	-1.65000e+00	9.019380e-04	
566	-1.70000e+00	9.179743e-04	
567	-1.75000e+00	9.333862e-04	
568	-1.80000e+00	9.481771e-04	
569	-1.85000e+00	9.623501e-04	
570	-1.90000e+00	9.759089e-04	
571	-1.95000e+00	9.888567e-04	
572	-2.00000e+00	1.001197e-03	
573	-2.05000e+00	1.012934e-03	
574	-2.10000e+00	1.024070e-03	
575	-2.15000e+00	1.034610e-03	
576	-2.20000e+00	1.044559e-03	

Index   v-sweep         i(vds)          
--------------------------------------------------------------------------------
577	-2.25000e+00	1.053919e-03	
578	-2.30000e+00	1.062697e-03	
579	-2.35000e+00	1.070899e-03	
580	-2.40000e+00	1.078531e-03	
581	-2.45000e+00	1.085602e-03	
582	-2.50000e+00	1.092124e-03	
583	-2.55000e+00	1.098110e-03	
584	-2.60000e+00	1.103582e-03	
585	-2.65000e+00	1.108563e-03	
586	-2.70000e+00	1.113088e-03	
587	-2.75000e+00	1.117196e-03	
588	-2.80000e+00	1.120931e-03	
589	-2.85000e+00	1.124338e-03	
590	-2.90000e+00	1.127461e-03	
591	-2.95000e+00	1.130341e-03	
592	-3.00000e+00	1.133011e-03	
593	-3.05000e+00	1.135500e-03	
594	-3.10000e+00	1.137833e-03	
595	-3.15000e+00	1.140029e-03	
596	-3.20000e+00	1.142106e-03	
597	-3.25000e+00	1.144077e-03	
598	-3.30000e+00	1.145953e-03	
599	-3.35000e+00	1.147746e-03	
600	-3.40000e+00	1.149462e-03	
601	-3.45000e+00	1.151111e-03	
602	-3.50000e+00	1.152697e-03	
603	-3.55000e+00	1.154226e-03	
604	-3.60000e+00	1.155704e-03	
605	-3.65000e+00	1.157134e-03	
606	-3.70000e+00	1.158520e-03	
607	-3.75000e+00	1.159865e-03	
608	-3.80000e+00	1.161172e-03	
609	-3.85000e+00	1.162445e-03	
610	-3.90000e+00	1.163685e-03	
611	-3.95000e+00	1.164894e-03	
612	-4.00000e+00	1.166075e-03	
613	-4.05000e+00	1.167228e-03	
614	-4.10000e+00	1.168357e-03	
615	-4.15000e+00	1.169462e-03	
616	-4.20000e+00	1.170544e-03	
617	-4.25000e+00	1.171605e-03	
618	-4.30000e+00	1.172646e-03	
619	-4.35000e+00	1.173668e-03	
620	-4.40000e+00	1.174672e-03	
621	-4.45000e+00	1.175659e-03	
622	-4.50000e+00	1.176630e-03	
623	-4.55000e+00	1.177585e-03	
624	-4.60000e+00	1.178525e-03	
625	-4.65000e+00	1.179451e-03	
626	-4.70000e+00	1.180363e-03	
627	-4.75000e+00	1.181263e-03	
628	-4.80000e+00	1.182150e-03	
629	-4.85000e+00	1.183025e-03	
630	-4.90000e+00	1.183889e-03	
631	-4.95000e+00	1.184742e-03	
632	-5.00000e+00	1.185584e-03	
633	-5.05000e+00	1.186416e-03	
634	-5.10000e+00	1.187239e-03	

Index   v-sweep         i(vds)          
--------------------------------------------------------------------------------
635	-5.15000e+00	1.188052e-03	
636	-5.20000e+00	1.188856e-03	
637	-5.25000e+00	1.189652e-03	
638	-5.30000e+00	1.190439e-03	
639	-5.35000e+00	1.191218e-03	
640	-5.40000e+00	1.191989e-03	
641	-5.45000e+00	1.192753e-03	
642	-5.50000e+00	1.193509e-03	
643	-5.55000e+00	1.194259e-03	
644	-5.60000e+00	1.195002e-03	
645	-5.65000e+00	1.195739e-03	
646	-5.70000e+00	1.196470e-03	
647	-5.75000e+00	1.197195e-03	
648	-5.80000e+00	1.197915e-03	
649	-5.85000e+00	1.198630e-03	
650	-5.90000e+00	1.199340e-03	
651	-5.95000e+00	1.200046e-03	
652	-6.00000e+00	1.200749e-03	
653	-6.05000e+00	1.201448e-03	
654	-6.10000e+00	1.202145e-03	
655	-6.15000e+00	1.202839e-03	
656	-6.20000e+00	1.203533e-03	
657	-6.25000e+00	1.204226e-03	
658	-6.30000e+00	1.204920e-03	
659	-6.35000e+00	1.205615e-03	
660	-6.40000e+00	1.206312e-03	
661	-6.45000e+00	1.207014e-03	
662	-6.50000e+00	1.207720e-03	
663	-6.55000e+00	1.208434e-03	
664	-6.60000e+00	1.209155e-03	
665	0.000000e+00	0.000000e+00	
666	-5.00000e-02	4.400937e-05	
667	-1.00000e-01	8.731944e-05	
668	-1.50000e-01	1.299337e-04	
669	-2.00000e-01	1.718556e-04	
670	-2.50000e-01	2.130886e-04	
671	-3.00000e-01	2.536361e-04	
672	-3.50000e-01	2.935016e-04	
673	-4.00000e-01	3.326883e-04	
674	-4.50000e-01	3.711998e-04	
675	-5.00000e-01	4.090392e-04	
676	-5.50000e-01	4.462100e-04	
677	-6.00000e-01	4.827154e-04	
678	-6.50000e-01	5.185586e-04	
679	-7.00000e-01	5.537430e-04	
680	-7.50000e-01	5.882718e-04	
681	-8.00000e-01	6.221481e-04	
682	-8.50000e-01	6.553752e-04	
683	-9.00000e-01	6.879563e-04	
684	-9.50000e-01	7.198944e-04	
685	-1.00000e+00	7.511928e-04	
686	-1.05000e+00	7.818544e-04	
687	-1.10000e+00	8.118825e-04	
688	-1.15000e+00	8.412801e-04	
689	-1.20000e+00	8.700502e-04	
690	-1.25000e+00	8.981959e-04	
691	-1.30000e+00	9.257201e-04	
692	-1.35000e+00	9.526260e-04	

Index   v-sweep         i(vds)          
--------------------------------------------------------------------------------
693	-1.40000e+00	9.789164e-04	
694	-1.45000e+00	1.004594e-03	
695	-1.50000e+00	1.029663e-03	
696	-1.55000e+00	1.054125e-03	
697	-1.60000e+00	1.077983e-03	
698	-1.65000e+00	1.101240e-03	
699	-1.70000e+00	1.123899e-03	
700	-1.75000e+00	1.145964e-03	
701	-1.80000e+00	1.167436e-03	
702	-1.85000e+00	1.188319e-03	
703	-1.90000e+00	1.208615e-03	
704	-1.95000e+00	1.228328e-03	
705	-2.00000e+00	1.247460e-03	
706	-2.05000e+00	1.266013e-03	
707	-2.10000e+00	1.283992e-03	
708	-2.15000e+00	1.301397e-03	
709	-2.20000e+00	1.318234e-03	
710	-2.25000e+00	1.334503e-03	
711	-2.30000e+00	1.350208e-03	
712	-2.35000e+00	1.365351e-03	
713	-2.40000e+00	1.379936e-03	
714	-2.45000e+00	1.393966e-03	
715	-2.50000e+00	1.407442e-03	
716	-2.55000e+00	1.420369e-03	
717	-2.60000e+00	1.432749e-03	
718	-2.65000e+00	1.444585e-03	
719	-2.70000e+00	1.455880e-03	
720	-2.75000e+00	1.466638e-03	
721	-2.80000e+00	1.476863e-03	
722	-2.85000e+00	1.486558e-03	
723	-2.90000e+00	1.495728e-03	
724	-2.95000e+00	1.504378e-03	
725	-3.00000e+00	1.512514e-03	
726	-3.05000e+00	1.520143e-03	
727	-3.10000e+00	1.527274e-03	
728	-3.15000e+00	1.533919e-03	
729	-3.20000e+00	1.540093e-03	
730	-3.25000e+00	1.545814e-03	
731	-3.30000e+00	1.551106e-03	
732	-3.35000e+00	1.555997e-03	
733	-3.40000e+00	1.560519e-03	
734	-3.45000e+00	1.564707e-03	
735	-3.50000e+00	1.568594e-03	
736	-3.55000e+00	1.572216e-03	
737	-3.60000e+00	1.575601e-03	
738	-3.65000e+00	1.578778e-03	
739	-3.70000e+00	1.581772e-03	
740	-3.75000e+00	1.584602e-03	
741	-3.80000e+00	1.587287e-03	
742	-3.85000e+00	1.589843e-03	
743	-3.90000e+00	1.592283e-03	
744	-3.95000e+00	1.594618e-03	
745	-4.00000e+00	1.596858e-03	
746	-4.05000e+00	1.599012e-03	
747	-4.10000e+00	1.601088e-03	
748	-4.15000e+00	1.603092e-03	
749	-4.20000e+00	1.605031e-03	
750	-4.25000e+00	1.606909e-03	

Index   v-sweep         i(vds)          
--------------------------------------------------------------------------------
751	-4.30000e+00	1.608731e-03	
752	-4.35000e+00	1.610500e-03	
753	-4.40000e+00	1.612222e-03	
754	-4.45000e+00	1.613899e-03	
755	-4.50000e+00	1.615534e-03	
756	-4.55000e+00	1.617129e-03	
757	-4.60000e+00	1.618688e-03	
758	-4.65000e+00	1.620213e-03	
759	-4.70000e+00	1.621705e-03	
760	-4.75000e+00	1.623166e-03	
761	-4.80000e+00	1.624598e-03	
762	-4.85000e+00	1.626003e-03	
763	-4.90000e+00	1.627382e-03	
764	-4.95000e+00	1.628737e-03	
765	-5.00000e+00	1.630068e-03	
766	-5.05000e+00	1.631377e-03	
767	-5.10000e+00	1.632665e-03	
768	-5.15000e+00	1.633933e-03	
769	-5.20000e+00	1.635181e-03	
770	-5.25000e+00	1.636412e-03	
771	-5.30000e+00	1.637624e-03	
772	-5.35000e+00	1.638820e-03	
773	-5.40000e+00	1.640000e-03	
774	-5.45000e+00	1.641165e-03	
775	-5.50000e+00	1.642314e-03	
776	-5.55000e+00	1.643450e-03	
777	-5.60000e+00	1.644571e-03	
778	-5.65000e+00	1.645680e-03	
779	-5.70000e+00	1.646776e-03	
780	-5.75000e+00	1.647860e-03	
781	-5.80000e+00	1.648932e-03	
782	-5.85000e+00	1.649993e-03	
783	-5.90000e+00	1.651043e-03	
784	-5.95000e+00	1.652083e-03	
785	-6.00000e+00	1.653113e-03	
786	-6.05000e+00	1.654132e-03	
787	-6.10000e+00	1.655143e-03	
788	-6.15000e+00	1.656145e-03	
789	-6.20000e+00	1.657138e-03	
790	-6.25000e+00	1.658123e-03	
791	-6.30000e+00	1.659100e-03	
792	-6.35000e+00	1.660070e-03	
793	-6.40000e+00	1.661032e-03	
794	-6.45000e+00	1.661989e-03	
795	-6.50000e+00	1.662940e-03	
796	-6.55000e+00	1.663885e-03	
797	-6.60000e+00	1.664826e-03	
Note: No ".plot", ".print", or ".fourier" lines; no simulations run
