
Note: Compatibility modes selected: hs

Warning: m=xx on .subckt line will override multiplier m hierarchy!


Circuit: ***************************

Doing analysis at TEMP = 125.000000 and TNOM = 125.000000


No. of Data Rows : 798
                          ***************************
                          DC transfer characteristic  Mon Jan  9 13:57:53  2023
--------------------------------------------------------------------------------
Index   v-sweep         i(vds)          
--------------------------------------------------------------------------------
0	0.000000e+00	0.000000e+00	
1	-5.00000e-02	2.389544e-07	
2	-1.00000e-01	3.825139e-07	
3	-1.50000e-01	4.672791e-07	
4	-2.00000e-01	5.080926e-07	
5	-2.50000e-01	5.226883e-07	
6	-3.00000e-01	5.274731e-07	
7	-3.50000e-01	5.294162e-07	
8	-4.00000e-01	5.304568e-07	
9	-4.50000e-01	5.311469e-07	
10	-5.00000e-01	5.316739e-07	
11	-5.50000e-01	5.321132e-07	
12	-6.00000e-01	5.324994e-07	
13	-6.50000e-01	5.328507e-07	
14	-7.00000e-01	5.331772e-07	
15	-7.50000e-01	5.334850e-07	
16	-8.00000e-01	5.337781e-07	
17	-8.50000e-01	5.340594e-07	
18	-9.00000e-01	5.343307e-07	
19	-9.50000e-01	5.345936e-07	
20	-1.00000e+00	5.348491e-07	
21	-1.05000e+00	5.350980e-07	
22	-1.10000e+00	5.353412e-07	
23	-1.15000e+00	5.355791e-07	
24	-1.20000e+00	5.358123e-07	
25	-1.25000e+00	5.360412e-07	
26	-1.30000e+00	5.362661e-07	
27	-1.35000e+00	5.364873e-07	
28	-1.40000e+00	5.367052e-07	
29	-1.45000e+00	5.369198e-07	
30	-1.50000e+00	5.371315e-07	
31	-1.55000e+00	5.373405e-07	
32	-1.60000e+00	5.375468e-07	
33	-1.65000e+00	5.377507e-07	
34	-1.70000e+00	5.379523e-07	
35	-1.75000e+00	5.381517e-07	
36	-1.80000e+00	5.383490e-07	
37	-1.85000e+00	5.385444e-07	
38	-1.90000e+00	5.387379e-07	
39	-1.95000e+00	5.389297e-07	
40	-2.00000e+00	5.391197e-07	
41	-2.05000e+00	5.393082e-07	
42	-2.10000e+00	5.394951e-07	
43	-2.15000e+00	5.396806e-07	
44	-2.20000e+00	5.398646e-07	
45	-2.25000e+00	5.400473e-07	
46	-2.30000e+00	5.402287e-07	
47	-2.35000e+00	5.404089e-07	
48	-2.40000e+00	5.405879e-07	
49	-2.45000e+00	5.407657e-07	
50	-2.50000e+00	5.409424e-07	
51	-2.55000e+00	5.411181e-07	
52	-2.60000e+00	5.412928e-07	
53	-2.65000e+00	5.414665e-07	
54	-2.70000e+00	5.416392e-07	

Index   v-sweep         i(vds)          
--------------------------------------------------------------------------------
55	-2.75000e+00	5.418111e-07	
56	-2.80000e+00	5.419820e-07	
57	-2.85000e+00	5.421522e-07	
58	-2.90000e+00	5.423215e-07	
59	-2.95000e+00	5.424901e-07	
60	-3.00000e+00	5.426580e-07	
61	-3.05000e+00	5.428252e-07	
62	-3.10000e+00	5.429918e-07	
63	-3.15000e+00	5.431578e-07	
64	-3.20000e+00	5.433233e-07	
65	-3.25000e+00	5.434884e-07	
66	-3.30000e+00	5.436532e-07	
67	-3.35000e+00	5.438177e-07	
68	-3.40000e+00	5.439821e-07	
69	-3.45000e+00	5.441464e-07	
70	-3.50000e+00	5.443109e-07	
71	-3.55000e+00	5.444757e-07	
72	-3.60000e+00	5.446409e-07	
73	-3.65000e+00	5.448069e-07	
74	-3.70000e+00	5.449738e-07	
75	-3.75000e+00	5.451419e-07	
76	-3.80000e+00	5.453116e-07	
77	-3.85000e+00	5.454832e-07	
78	-3.90000e+00	5.456571e-07	
79	-3.95000e+00	5.458338e-07	
80	-4.00000e+00	5.460138e-07	
81	-4.05000e+00	5.461977e-07	
82	-4.10000e+00	5.463861e-07	
83	-4.15000e+00	5.465798e-07	
84	-4.20000e+00	5.467794e-07	
85	-4.25000e+00	5.469858e-07	
86	-4.30000e+00	5.472001e-07	
87	-4.35000e+00	5.474231e-07	
88	-4.40000e+00	5.476561e-07	
89	-4.45000e+00	5.479003e-07	
90	-4.50000e+00	5.481569e-07	
91	-4.55000e+00	5.484275e-07	
92	-4.60000e+00	5.487135e-07	
93	-4.65000e+00	5.490165e-07	
94	-4.70000e+00	5.493385e-07	
95	-4.75000e+00	5.496813e-07	
96	-4.80000e+00	5.500468e-07	
97	-4.85000e+00	5.504374e-07	
98	-4.90000e+00	5.508553e-07	
99	-4.95000e+00	5.513030e-07	
100	-5.00000e+00	5.517830e-07	
101	-5.05000e+00	5.522982e-07	
102	-5.10000e+00	5.528515e-07	
103	-5.15000e+00	5.534459e-07	
104	-5.20000e+00	5.540846e-07	
105	-5.25000e+00	5.547711e-07	
106	-5.30000e+00	5.555090e-07	
107	-5.35000e+00	5.563019e-07	
108	-5.40000e+00	5.571538e-07	
109	-5.45000e+00	5.580688e-07	
110	-5.50000e+00	5.590512e-07	
111	-5.55000e+00	5.601054e-07	
112	-5.60000e+00	5.612360e-07	

Index   v-sweep         i(vds)          
--------------------------------------------------------------------------------
113	-5.65000e+00	5.624478e-07	
114	-5.70000e+00	5.637458e-07	
115	-5.75000e+00	5.651353e-07	
116	-5.80000e+00	5.666215e-07	
117	-5.85000e+00	5.682101e-07	
118	-5.90000e+00	5.699067e-07	
119	-5.95000e+00	5.717173e-07	
120	-6.00000e+00	5.736479e-07	
121	-6.05000e+00	5.757049e-07	
122	-6.10000e+00	5.778947e-07	
123	-6.15000e+00	5.802240e-07	
124	-6.20000e+00	5.826996e-07	
125	-6.25000e+00	5.853286e-07	
126	-6.30000e+00	5.881180e-07	
127	-6.35000e+00	5.910754e-07	
128	-6.40000e+00	5.942082e-07	
129	-6.45000e+00	5.975242e-07	
130	-6.50000e+00	6.010312e-07	
131	-6.55000e+00	6.047374e-07	
132	-6.60000e+00	6.086509e-07	
133	0.000000e+00	0.000000e+00	
134	-5.00000e-02	1.054826e-06	
135	-1.00000e-01	2.008057e-06	
136	-1.50000e-01	2.894423e-06	
137	-2.00000e-01	3.722048e-06	
138	-2.50000e-01	4.492861e-06	
139	-3.00000e-01	5.207355e-06	
140	-3.50000e-01	5.865694e-06	
141	-4.00000e-01	6.467974e-06	
142	-4.50000e-01	7.014291e-06	
143	-5.00000e-01	7.504764e-06	
144	-5.50000e-01	7.939559e-06	
145	-6.00000e-01	8.318926e-06	
146	-6.50000e-01	8.643271e-06	
147	-7.00000e-01	8.913288e-06	
148	-7.50000e-01	9.130243e-06	
149	-8.00000e-01	9.296499e-06	
150	-8.50000e-01	9.416393e-06	
151	-9.00000e-01	9.497142e-06	
152	-9.50000e-01	9.548601e-06	
153	-1.00000e+00	9.580989e-06	
154	-1.05000e+00	9.602258e-06	
155	-1.10000e+00	9.617356e-06	
156	-1.15000e+00	9.628995e-06	
157	-1.20000e+00	9.638607e-06	
158	-1.25000e+00	9.646956e-06	
159	-1.30000e+00	9.654470e-06	
160	-1.35000e+00	9.661396e-06	
161	-1.40000e+00	9.667888e-06	
162	-1.45000e+00	9.674046e-06	
163	-1.50000e+00	9.679936e-06	
164	-1.55000e+00	9.685604e-06	
165	-1.60000e+00	9.691087e-06	
166	-1.65000e+00	9.696409e-06	
167	-1.70000e+00	9.701590e-06	
168	-1.75000e+00	9.706647e-06	
169	-1.80000e+00	9.711593e-06	
170	-1.85000e+00	9.716439e-06	

Index   v-sweep         i(vds)          
--------------------------------------------------------------------------------
171	-1.90000e+00	9.721192e-06	
172	-1.95000e+00	9.725862e-06	
173	-2.00000e+00	9.730455e-06	
174	-2.05000e+00	9.734976e-06	
175	-2.10000e+00	9.739431e-06	
176	-2.15000e+00	9.743824e-06	
177	-2.20000e+00	9.748159e-06	
178	-2.25000e+00	9.752440e-06	
179	-2.30000e+00	9.756670e-06	
180	-2.35000e+00	9.760852e-06	
181	-2.40000e+00	9.764988e-06	
182	-2.45000e+00	9.769081e-06	
183	-2.50000e+00	9.773134e-06	
184	-2.55000e+00	9.777147e-06	
185	-2.60000e+00	9.781124e-06	
186	-2.65000e+00	9.785066e-06	
187	-2.70000e+00	9.788975e-06	
188	-2.75000e+00	9.792851e-06	
189	-2.80000e+00	9.796698e-06	
190	-2.85000e+00	9.800515e-06	
191	-2.90000e+00	9.804303e-06	
192	-2.95000e+00	9.808066e-06	
193	-3.00000e+00	9.811802e-06	
194	-3.05000e+00	9.815514e-06	
195	-3.10000e+00	9.819202e-06	
196	-3.15000e+00	9.822867e-06	
197	-3.20000e+00	9.826510e-06	
198	-3.25000e+00	9.830132e-06	
199	-3.30000e+00	9.833734e-06	
200	-3.35000e+00	9.837316e-06	
201	-3.40000e+00	9.840879e-06	
202	-3.45000e+00	9.844424e-06	
203	-3.50000e+00	9.847952e-06	
204	-3.55000e+00	9.851463e-06	
205	-3.60000e+00	9.854958e-06	
206	-3.65000e+00	9.858438e-06	
207	-3.70000e+00	9.861904e-06	
208	-3.75000e+00	9.865356e-06	
209	-3.80000e+00	9.868796e-06	
210	-3.85000e+00	9.872225e-06	
211	-3.90000e+00	9.875644e-06	
212	-3.95000e+00	9.879054e-06	
213	-4.00000e+00	9.882458e-06	
214	-4.05000e+00	9.885857e-06	
215	-4.10000e+00	9.889253e-06	
216	-4.15000e+00	9.892649e-06	
217	-4.20000e+00	9.896047e-06	
218	-4.25000e+00	9.899453e-06	
219	-4.30000e+00	9.902868e-06	
220	-4.35000e+00	9.906298e-06	
221	-4.40000e+00	9.909748e-06	
222	-4.45000e+00	9.913223e-06	
223	-4.50000e+00	9.916731e-06	
224	-4.55000e+00	9.920279e-06	
225	-4.60000e+00	9.923875e-06	
226	-4.65000e+00	9.927529e-06	
227	-4.70000e+00	9.931252e-06	
228	-4.75000e+00	9.935055e-06	

Index   v-sweep         i(vds)          
--------------------------------------------------------------------------------
229	-4.80000e+00	9.938952e-06	
230	-4.85000e+00	9.942957e-06	
231	-4.90000e+00	9.947086e-06	
232	-4.95000e+00	9.951358e-06	
233	-5.00000e+00	9.955792e-06	
234	-5.05000e+00	9.960409e-06	
235	-5.10000e+00	9.965232e-06	
236	-5.15000e+00	9.970288e-06	
237	-5.20000e+00	9.975602e-06	
238	-5.25000e+00	9.981206e-06	
239	-5.30000e+00	9.987131e-06	
240	-5.35000e+00	9.993411e-06	
241	-5.40000e+00	1.000008e-05	
242	-5.45000e+00	1.000719e-05	
243	-5.50000e+00	1.001477e-05	
244	-5.55000e+00	1.002287e-05	
245	-5.60000e+00	1.003154e-05	
246	-5.65000e+00	1.004083e-05	
247	-5.70000e+00	1.005079e-05	
248	-5.75000e+00	1.006149e-05	
249	-5.80000e+00	1.007298e-05	
250	-5.85000e+00	1.008532e-05	
251	-5.90000e+00	1.009859e-05	
252	-5.95000e+00	1.011285e-05	
253	-6.00000e+00	1.012819e-05	
254	-6.05000e+00	1.014467e-05	
255	-6.10000e+00	1.016238e-05	
256	-6.15000e+00	1.018141e-05	
257	-6.20000e+00	1.020184e-05	
258	-6.25000e+00	1.022377e-05	
259	-6.30000e+00	1.024730e-05	
260	-6.35000e+00	1.027251e-05	
261	-6.40000e+00	1.029953e-05	
262	-6.45000e+00	1.032846e-05	
263	-6.50000e+00	1.035940e-05	
264	-6.55000e+00	1.039248e-05	
265	-6.60000e+00	1.042781e-05	
266	0.000000e+00	0.000000e+00	
267	-5.00000e-02	1.742884e-06	
268	-1.00000e-01	3.387853e-06	
269	-1.50000e-01	4.969623e-06	
270	-2.00000e-01	6.496308e-06	
271	-2.50000e-01	7.969820e-06	
272	-3.00000e-01	9.390634e-06	
273	-3.50000e-01	1.075888e-05	
274	-4.00000e-01	1.207463e-05	
275	-4.50000e-01	1.333792e-05	
276	-5.00000e-01	1.454878e-05	
277	-5.50000e-01	1.570725e-05	
278	-6.00000e-01	1.681337e-05	
279	-6.50000e-01	1.786719e-05	
280	-7.00000e-01	1.886873e-05	
281	-7.50000e-01	1.981805e-05	
282	-8.00000e-01	2.071519e-05	
283	-8.50000e-01	2.156021e-05	
284	-9.00000e-01	2.235315e-05	
285	-9.50000e-01	2.309407e-05	
286	-1.00000e+00	2.378307e-05	

Index   v-sweep         i(vds)          
--------------------------------------------------------------------------------
287	-1.05000e+00	2.442022e-05	
288	-1.10000e+00	2.500563e-05	
289	-1.15000e+00	2.553946e-05	
290	-1.20000e+00	2.602191e-05	
291	-1.25000e+00	2.645325e-05	
292	-1.30000e+00	2.683391e-05	
293	-1.35000e+00	2.716452e-05	
294	-1.40000e+00	2.744608e-05	
295	-1.45000e+00	2.768015e-05	
296	-1.50000e+00	2.786925e-05	
297	-1.55000e+00	2.801719e-05	
298	-1.60000e+00	2.812942e-05	
299	-1.65000e+00	2.821276e-05	
300	-1.70000e+00	2.827452e-05	
301	-1.75000e+00	2.832126e-05	
302	-1.80000e+00	2.835804e-05	
303	-1.85000e+00	2.838833e-05	
304	-1.90000e+00	2.841435e-05	
305	-1.95000e+00	2.843749e-05	
306	-2.00000e+00	2.845859e-05	
307	-2.05000e+00	2.847821e-05	
308	-2.10000e+00	2.849671e-05	
309	-2.15000e+00	2.851433e-05	
310	-2.20000e+00	2.853123e-05	
311	-2.25000e+00	2.854754e-05	
312	-2.30000e+00	2.856334e-05	
313	-2.35000e+00	2.857870e-05	
314	-2.40000e+00	2.859368e-05	
315	-2.45000e+00	2.860831e-05	
316	-2.50000e+00	2.862264e-05	
317	-2.55000e+00	2.863670e-05	
318	-2.60000e+00	2.865049e-05	
319	-2.65000e+00	2.866406e-05	
320	-2.70000e+00	2.867741e-05	
321	-2.75000e+00	2.869057e-05	
322	-2.80000e+00	2.870353e-05	
323	-2.85000e+00	2.871633e-05	
324	-2.90000e+00	2.872896e-05	
325	-2.95000e+00	2.874144e-05	
326	-3.00000e+00	2.875378e-05	
327	-3.05000e+00	2.876598e-05	
328	-3.10000e+00	2.877806e-05	
329	-3.15000e+00	2.879001e-05	
330	-3.20000e+00	2.880185e-05	
331	-3.25000e+00	2.881359e-05	
332	-3.30000e+00	2.882521e-05	
333	-3.35000e+00	2.883674e-05	
334	-3.40000e+00	2.884817e-05	
335	-3.45000e+00	2.885952e-05	
336	-3.50000e+00	2.887078e-05	
337	-3.55000e+00	2.888195e-05	
338	-3.60000e+00	2.889305e-05	
339	-3.65000e+00	2.890407e-05	
340	-3.70000e+00	2.891501e-05	
341	-3.75000e+00	2.892589e-05	
342	-3.80000e+00	2.893670e-05	
343	-3.85000e+00	2.894744e-05	
344	-3.90000e+00	2.895812e-05	

Index   v-sweep         i(vds)          
--------------------------------------------------------------------------------
345	-3.95000e+00	2.896874e-05	
346	-4.00000e+00	2.897931e-05	
347	-4.05000e+00	2.898982e-05	
348	-4.10000e+00	2.900027e-05	
349	-4.15000e+00	2.901067e-05	
350	-4.20000e+00	2.902103e-05	
351	-4.25000e+00	2.903133e-05	
352	-4.30000e+00	2.904159e-05	
353	-4.35000e+00	2.905181e-05	
354	-4.40000e+00	2.906198e-05	
355	-4.45000e+00	2.907212e-05	
356	-4.50000e+00	2.908222e-05	
357	-4.55000e+00	2.909229e-05	
358	-4.60000e+00	2.910233e-05	
359	-4.65000e+00	2.911235e-05	
360	-4.70000e+00	2.912234e-05	
361	-4.75000e+00	2.913233e-05	
362	-4.80000e+00	2.914230e-05	
363	-4.85000e+00	2.915227e-05	
364	-4.90000e+00	2.916225e-05	
365	-4.95000e+00	2.917225e-05	
366	-5.00000e+00	2.918228e-05	
367	-5.05000e+00	2.919234e-05	
368	-5.10000e+00	2.920247e-05	
369	-5.15000e+00	2.921266e-05	
370	-5.20000e+00	2.922295e-05	
371	-5.25000e+00	2.923335e-05	
372	-5.30000e+00	2.924389e-05	
373	-5.35000e+00	2.925459e-05	
374	-5.40000e+00	2.926549e-05	
375	-5.45000e+00	2.927661e-05	
376	-5.50000e+00	2.928801e-05	
377	-5.55000e+00	2.929971e-05	
378	-5.60000e+00	2.931177e-05	
379	-5.65000e+00	2.932424e-05	
380	-5.70000e+00	2.933718e-05	
381	-5.75000e+00	2.935063e-05	
382	-5.80000e+00	2.936469e-05	
383	-5.85000e+00	2.937941e-05	
384	-5.90000e+00	2.939487e-05	
385	-5.95000e+00	2.941117e-05	
386	-6.00000e+00	2.942839e-05	
387	-6.05000e+00	2.944664e-05	
388	-6.10000e+00	2.946602e-05	
389	-6.15000e+00	2.948665e-05	
390	-6.20000e+00	2.950865e-05	
391	-6.25000e+00	2.953216e-05	
392	-6.30000e+00	2.955731e-05	
393	-6.35000e+00	2.958426e-05	
394	-6.40000e+00	2.961316e-05	
395	-6.45000e+00	2.964417e-05	
396	-6.50000e+00	2.967749e-05	
397	-6.55000e+00	2.971329e-05	
398	-6.60000e+00	2.975178e-05	
399	0.000000e+00	0.000000e+00	
400	-5.00000e-02	2.339619e-06	
401	-1.00000e-01	4.584931e-06	
402	-1.50000e-01	6.770650e-06	

Index   v-sweep         i(vds)          
--------------------------------------------------------------------------------
403	-2.00000e-01	8.904882e-06	
404	-2.50000e-01	1.098954e-05	
405	-3.00000e-01	1.302508e-05	
406	-3.50000e-01	1.501165e-05	
407	-4.00000e-01	1.694930e-05	
408	-4.50000e-01	1.883806e-05	
409	-5.00000e-01	2.067796e-05	
410	-5.50000e-01	2.246903e-05	
411	-6.00000e-01	2.421131e-05	
412	-6.50000e-01	2.590483e-05	
413	-7.00000e-01	2.754960e-05	
414	-7.50000e-01	2.914568e-05	
415	-8.00000e-01	3.069308e-05	
416	-8.50000e-01	3.219183e-05	
417	-9.00000e-01	3.364198e-05	
418	-9.50000e-01	3.504354e-05	
419	-1.00000e+00	3.639656e-05	
420	-1.05000e+00	3.770106e-05	
421	-1.10000e+00	3.895709e-05	
422	-1.15000e+00	4.016466e-05	
423	-1.20000e+00	4.132383e-05	
424	-1.25000e+00	4.243462e-05	
425	-1.30000e+00	4.349707e-05	
426	-1.35000e+00	4.451123e-05	
427	-1.40000e+00	4.547714e-05	
428	-1.45000e+00	4.639484e-05	
429	-1.50000e+00	4.726440e-05	
430	-1.55000e+00	4.808585e-05	
431	-1.60000e+00	4.885928e-05	
432	-1.65000e+00	4.958475e-05	
433	-1.70000e+00	5.026237e-05	
434	-1.75000e+00	5.089223e-05	
435	-1.80000e+00	5.147450e-05	
436	-1.85000e+00	5.200934e-05	
437	-1.90000e+00	5.249702e-05	
438	-1.95000e+00	5.293787e-05	
439	-2.00000e+00	5.333238e-05	
440	-2.05000e+00	5.368123e-05	
441	-2.10000e+00	5.398542e-05	
442	-2.15000e+00	5.424644e-05	
443	-2.20000e+00	5.446639e-05	
444	-2.25000e+00	5.464831e-05	
445	-2.30000e+00	5.479622e-05	
446	-2.35000e+00	5.491511e-05	
447	-2.40000e+00	5.501055e-05	
448	-2.45000e+00	5.508798e-05	
449	-2.50000e+00	5.515221e-05	
450	-2.55000e+00	5.520698e-05	
451	-2.60000e+00	5.525506e-05	
452	-2.65000e+00	5.529834e-05	
453	-2.70000e+00	5.533812e-05	
454	-2.75000e+00	5.537528e-05	
455	-2.80000e+00	5.541041e-05	
456	-2.85000e+00	5.544394e-05	
457	-2.90000e+00	5.547615e-05	
458	-2.95000e+00	5.550727e-05	
459	-3.00000e+00	5.553746e-05	
460	-3.05000e+00	5.556684e-05	

Index   v-sweep         i(vds)          
--------------------------------------------------------------------------------
461	-3.10000e+00	5.559550e-05	
462	-3.15000e+00	5.562354e-05	
463	-3.20000e+00	5.565100e-05	
464	-3.25000e+00	5.567796e-05	
465	-3.30000e+00	5.570444e-05	
466	-3.35000e+00	5.573048e-05	
467	-3.40000e+00	5.575613e-05	
468	-3.45000e+00	5.578141e-05	
469	-3.50000e+00	5.580634e-05	
470	-3.55000e+00	5.583096e-05	
471	-3.60000e+00	5.585526e-05	
472	-3.65000e+00	5.587929e-05	
473	-3.70000e+00	5.590305e-05	
474	-3.75000e+00	5.592655e-05	
475	-3.80000e+00	5.594982e-05	
476	-3.85000e+00	5.597285e-05	
477	-3.90000e+00	5.599568e-05	
478	-3.95000e+00	5.601829e-05	
479	-4.00000e+00	5.604072e-05	
480	-4.05000e+00	5.606296e-05	
481	-4.10000e+00	5.608502e-05	
482	-4.15000e+00	5.610691e-05	
483	-4.20000e+00	5.612863e-05	
484	-4.25000e+00	5.615021e-05	
485	-4.30000e+00	5.617163e-05	
486	-4.35000e+00	5.619291e-05	
487	-4.40000e+00	5.621405e-05	
488	-4.45000e+00	5.623506e-05	
489	-4.50000e+00	5.625594e-05	
490	-4.55000e+00	5.627670e-05	
491	-4.60000e+00	5.629735e-05	
492	-4.65000e+00	5.631787e-05	
493	-4.70000e+00	5.633829e-05	
494	-4.75000e+00	5.635861e-05	
495	-4.80000e+00	5.637882e-05	
496	-4.85000e+00	5.639893e-05	
497	-4.90000e+00	5.641895e-05	
498	-4.95000e+00	5.643888e-05	
499	-5.00000e+00	5.645872e-05	
500	-5.05000e+00	5.647848e-05	
501	-5.10000e+00	5.649816e-05	
502	-5.15000e+00	5.651777e-05	
503	-5.20000e+00	5.653731e-05	
504	-5.25000e+00	5.655678e-05	
505	-5.30000e+00	5.657620e-05	
506	-5.35000e+00	5.659558e-05	
507	-5.40000e+00	5.661491e-05	
508	-5.45000e+00	5.663421e-05	
509	-5.50000e+00	5.665349e-05	
510	-5.55000e+00	5.667276e-05	
511	-5.60000e+00	5.669204e-05	
512	-5.65000e+00	5.671135e-05	
513	-5.70000e+00	5.673071e-05	
514	-5.75000e+00	5.675013e-05	
515	-5.80000e+00	5.676965e-05	
516	-5.85000e+00	5.678930e-05	
517	-5.90000e+00	5.680911e-05	
518	-5.95000e+00	5.682911e-05	

Index   v-sweep         i(vds)          
--------------------------------------------------------------------------------
519	-6.00000e+00	5.684937e-05	
520	-6.05000e+00	5.686992e-05	
521	-6.10000e+00	5.689082e-05	
522	-6.15000e+00	5.691213e-05	
523	-6.20000e+00	5.693393e-05	
524	-6.25000e+00	5.695629e-05	
525	-6.30000e+00	5.697929e-05	
526	-6.35000e+00	5.700304e-05	
527	-6.40000e+00	5.702764e-05	
528	-6.45000e+00	5.705320e-05	
529	-6.50000e+00	5.707985e-05	
530	-6.55000e+00	5.710773e-05	
531	-6.60000e+00	5.713697e-05	
532	0.000000e+00	0.000000e+00	
533	-5.00000e-02	2.871258e-06	
534	-1.00000e-01	5.651340e-06	
535	-1.50000e-01	8.374956e-06	
536	-2.00000e-01	1.105021e-05	
537	-2.50000e-01	1.367901e-05	
538	-3.00000e-01	1.626182e-05	
539	-3.50000e-01	1.879877e-05	
540	-4.00000e-01	2.128991e-05	
541	-4.50000e-01	2.373527e-05	
542	-5.00000e-01	2.613488e-05	
543	-5.50000e-01	2.848876e-05	
544	-6.00000e-01	3.079695e-05	
545	-6.50000e-01	3.305947e-05	
546	-7.00000e-01	3.527635e-05	
547	-7.50000e-01	3.744761e-05	
548	-8.00000e-01	3.957328e-05	
549	-8.50000e-01	4.165339e-05	
550	-9.00000e-01	4.368797e-05	
551	-9.50000e-01	4.567703e-05	
552	-1.00000e+00	4.762062e-05	
553	-1.05000e+00	4.951875e-05	
554	-1.10000e+00	5.137145e-05	
555	-1.15000e+00	5.317876e-05	
556	-1.20000e+00	5.494069e-05	
557	-1.25000e+00	5.665728e-05	
558	-1.30000e+00	5.832855e-05	
559	-1.35000e+00	5.995453e-05	
560	-1.40000e+00	6.153525e-05	
561	-1.45000e+00	6.307074e-05	
562	-1.50000e+00	6.456103e-05	
563	-1.55000e+00	6.600615e-05	
564	-1.60000e+00	6.740612e-05	
565	-1.65000e+00	6.876098e-05	
566	-1.70000e+00	7.007075e-05	
567	-1.75000e+00	7.133548e-05	
568	-1.80000e+00	7.255519e-05	
569	-1.85000e+00	7.372991e-05	
570	-1.90000e+00	7.485969e-05	
571	-1.95000e+00	7.594455e-05	
572	-2.00000e+00	7.698454e-05	
573	-2.05000e+00	7.797971e-05	
574	-2.10000e+00	7.893009e-05	
575	-2.15000e+00	7.983574e-05	
576	-2.20000e+00	8.069671e-05	

Index   v-sweep         i(vds)          
--------------------------------------------------------------------------------
577	-2.25000e+00	8.151306e-05	
578	-2.30000e+00	8.228488e-05	
579	-2.35000e+00	8.301224e-05	
580	-2.40000e+00	8.369524e-05	
581	-2.45000e+00	8.433402e-05	
582	-2.50000e+00	8.492873e-05	
583	-2.55000e+00	8.547956e-05	
584	-2.60000e+00	8.598679e-05	
585	-2.65000e+00	8.645074e-05	
586	-2.70000e+00	8.687188e-05	
587	-2.75000e+00	8.725086e-05	
588	-2.80000e+00	8.758854e-05	
589	-2.85000e+00	8.788613e-05	
590	-2.90000e+00	8.814531e-05	
591	-2.95000e+00	8.836835e-05	
592	-3.00000e+00	8.855820e-05	
593	-3.05000e+00	8.871854e-05	
594	-3.10000e+00	8.885362e-05	
595	-3.15000e+00	8.896795e-05	
596	-3.20000e+00	8.906586e-05	
597	-3.25000e+00	8.915118e-05	
598	-3.30000e+00	8.922702e-05	
599	-3.35000e+00	8.929576e-05	
600	-3.40000e+00	8.935915e-05	
601	-3.45000e+00	8.941846e-05	
602	-3.50000e+00	8.947457e-05	
603	-3.55000e+00	8.952813e-05	
604	-3.60000e+00	8.957961e-05	
605	-3.65000e+00	8.962934e-05	
606	-3.70000e+00	8.967761e-05	
607	-3.75000e+00	8.972459e-05	
608	-3.80000e+00	8.977044e-05	
609	-3.85000e+00	8.981530e-05	
610	-3.90000e+00	8.985926e-05	
611	-3.95000e+00	8.990241e-05	
612	-4.00000e+00	8.994481e-05	
613	-4.05000e+00	8.998654e-05	
614	-4.10000e+00	9.002763e-05	
615	-4.15000e+00	9.006814e-05	
616	-4.20000e+00	9.010811e-05	
617	-4.25000e+00	9.014757e-05	
618	-4.30000e+00	9.018655e-05	
619	-4.35000e+00	9.022509e-05	
620	-4.40000e+00	9.026320e-05	
621	-4.45000e+00	9.030092e-05	
622	-4.50000e+00	9.033825e-05	
623	-4.55000e+00	9.037523e-05	
624	-4.60000e+00	9.041187e-05	
625	-4.65000e+00	9.044818e-05	
626	-4.70000e+00	9.048419e-05	
627	-4.75000e+00	9.051990e-05	
628	-4.80000e+00	9.055533e-05	
629	-4.85000e+00	9.059049e-05	
630	-4.90000e+00	9.062540e-05	
631	-4.95000e+00	9.066006e-05	
632	-5.00000e+00	9.069448e-05	
633	-5.05000e+00	9.072868e-05	
634	-5.10000e+00	9.076265e-05	

Index   v-sweep         i(vds)          
--------------------------------------------------------------------------------
635	-5.15000e+00	9.079642e-05	
636	-5.20000e+00	9.082999e-05	
637	-5.25000e+00	9.086336e-05	
638	-5.30000e+00	9.089655e-05	
639	-5.35000e+00	9.092955e-05	
640	-5.40000e+00	9.096238e-05	
641	-5.45000e+00	9.099504e-05	
642	-5.50000e+00	9.102754e-05	
643	-5.55000e+00	9.105989e-05	
644	-5.60000e+00	9.109208e-05	
645	-5.65000e+00	9.112413e-05	
646	-5.70000e+00	9.115604e-05	
647	-5.75000e+00	9.118782e-05	
648	-5.80000e+00	9.121948e-05	
649	-5.85000e+00	9.125101e-05	
650	-5.90000e+00	9.128243e-05	
651	-5.95000e+00	9.131375e-05	
652	-6.00000e+00	9.134497e-05	
653	-6.05000e+00	9.137611e-05	
654	-6.10000e+00	9.140718e-05	
655	-6.15000e+00	9.143819e-05	
656	-6.20000e+00	9.146916e-05	
657	-6.25000e+00	9.150011e-05	
658	-6.30000e+00	9.153105e-05	
659	-6.35000e+00	9.156202e-05	
660	-6.40000e+00	9.159304e-05	
661	-6.45000e+00	9.162415e-05	
662	-6.50000e+00	9.165539e-05	
663	-6.55000e+00	9.168679e-05	
664	-6.60000e+00	9.171841e-05	
665	0.000000e+00	0.000000e+00	
666	-5.00000e-02	3.355949e-06	
667	-1.00000e-01	6.623391e-06	
668	-1.50000e-01	9.837037e-06	
669	-2.00000e-01	1.300499e-05	
670	-2.50000e-01	1.612915e-05	
671	-3.00000e-01	1.920998e-05	
672	-3.50000e-01	2.224761e-05	
673	-4.00000e-01	2.524208e-05	
674	-4.50000e-01	2.819343e-05	
675	-5.00000e-01	3.110168e-05	
676	-5.50000e-01	3.396686e-05	
677	-6.00000e-01	3.678899e-05	
678	-6.50000e-01	3.956810e-05	
679	-7.00000e-01	4.230421e-05	
680	-7.50000e-01	4.499734e-05	
681	-8.00000e-01	4.764752e-05	
682	-8.50000e-01	5.025477e-05	
683	-9.00000e-01	5.281912e-05	
684	-9.50000e-01	5.534059e-05	
685	-1.00000e+00	5.781921e-05	
686	-1.05000e+00	6.025500e-05	
687	-1.10000e+00	6.264798e-05	
688	-1.15000e+00	6.499818e-05	
689	-1.20000e+00	6.730563e-05	
690	-1.25000e+00	6.957035e-05	
691	-1.30000e+00	7.179236e-05	
692	-1.35000e+00	7.397169e-05	

Index   v-sweep         i(vds)          
--------------------------------------------------------------------------------
693	-1.40000e+00	7.610836e-05	
694	-1.45000e+00	7.820240e-05	
695	-1.50000e+00	8.025383e-05	
696	-1.55000e+00	8.226267e-05	
697	-1.60000e+00	8.422896e-05	
698	-1.65000e+00	8.615272e-05	
699	-1.70000e+00	8.803396e-05	
700	-1.75000e+00	8.987273e-05	
701	-1.80000e+00	9.166903e-05	
702	-1.85000e+00	9.342291e-05	
703	-1.90000e+00	9.513438e-05	
704	-1.95000e+00	9.680346e-05	
705	-2.00000e+00	9.843020e-05	
706	-2.05000e+00	1.000146e-04	
707	-2.10000e+00	1.015567e-04	
708	-2.15000e+00	1.030565e-04	
709	-2.20000e+00	1.045141e-04	
710	-2.25000e+00	1.059295e-04	
711	-2.30000e+00	1.073027e-04	
712	-2.35000e+00	1.086337e-04	
713	-2.40000e+00	1.099226e-04	
714	-2.45000e+00	1.111693e-04	
715	-2.50000e+00	1.123741e-04	
716	-2.55000e+00	1.135367e-04	
717	-2.60000e+00	1.146574e-04	
718	-2.65000e+00	1.157362e-04	
719	-2.70000e+00	1.167730e-04	
720	-2.75000e+00	1.177679e-04	
721	-2.80000e+00	1.187210e-04	
722	-2.85000e+00	1.196323e-04	
723	-2.90000e+00	1.205019e-04	
724	-2.95000e+00	1.213299e-04	
725	-3.00000e+00	1.221162e-04	
726	-3.05000e+00	1.228611e-04	
727	-3.10000e+00	1.235646e-04	
728	-3.15000e+00	1.242268e-04	
729	-3.20000e+00	1.248479e-04	
730	-3.25000e+00	1.254281e-04	
731	-3.30000e+00	1.259677e-04	
732	-3.35000e+00	1.264668e-04	
733	-3.40000e+00	1.269260e-04	
734	-3.45000e+00	1.273458e-04	
735	-3.50000e+00	1.277269e-04	
736	-3.55000e+00	1.280701e-04	
737	-3.60000e+00	1.283769e-04	
738	-3.65000e+00	1.286487e-04	
739	-3.70000e+00	1.288878e-04	
740	-3.75000e+00	1.290968e-04	
741	-3.80000e+00	1.292788e-04	
742	-3.85000e+00	1.294375e-04	
743	-3.90000e+00	1.295766e-04	
744	-3.95000e+00	1.296996e-04	
745	-4.00000e+00	1.298100e-04	
746	-4.05000e+00	1.299103e-04	
747	-4.10000e+00	1.300030e-04	
748	-4.15000e+00	1.300896e-04	
749	-4.20000e+00	1.301714e-04	
750	-4.25000e+00	1.302494e-04	

Index   v-sweep         i(vds)          
--------------------------------------------------------------------------------
751	-4.30000e+00	1.303243e-04	
752	-4.35000e+00	1.303965e-04	
753	-4.40000e+00	1.304666e-04	
754	-4.45000e+00	1.305348e-04	
755	-4.50000e+00	1.306014e-04	
756	-4.55000e+00	1.306664e-04	
757	-4.60000e+00	1.307302e-04	
758	-4.65000e+00	1.307928e-04	
759	-4.70000e+00	1.308543e-04	
760	-4.75000e+00	1.309148e-04	
761	-4.80000e+00	1.309744e-04	
762	-4.85000e+00	1.310332e-04	
763	-4.90000e+00	1.310911e-04	
764	-4.95000e+00	1.311484e-04	
765	-5.00000e+00	1.312049e-04	
766	-5.05000e+00	1.312608e-04	
767	-5.10000e+00	1.313161e-04	
768	-5.15000e+00	1.313708e-04	
769	-5.20000e+00	1.314250e-04	
770	-5.25000e+00	1.314786e-04	
771	-5.30000e+00	1.315318e-04	
772	-5.35000e+00	1.315845e-04	
773	-5.40000e+00	1.316367e-04	
774	-5.45000e+00	1.316885e-04	
775	-5.50000e+00	1.317400e-04	
776	-5.55000e+00	1.317910e-04	
777	-5.60000e+00	1.318416e-04	
778	-5.65000e+00	1.318919e-04	
779	-5.70000e+00	1.319419e-04	
780	-5.75000e+00	1.319915e-04	
781	-5.80000e+00	1.320408e-04	
782	-5.85000e+00	1.320899e-04	
783	-5.90000e+00	1.321386e-04	
784	-5.95000e+00	1.321870e-04	
785	-6.00000e+00	1.322352e-04	
786	-6.05000e+00	1.322831e-04	
787	-6.10000e+00	1.323307e-04	
788	-6.15000e+00	1.323782e-04	
789	-6.20000e+00	1.324253e-04	
790	-6.25000e+00	1.324723e-04	
791	-6.30000e+00	1.325190e-04	
792	-6.35000e+00	1.325655e-04	
793	-6.40000e+00	1.326119e-04	
794	-6.45000e+00	1.326580e-04	
795	-6.50000e+00	1.327039e-04	
796	-6.55000e+00	1.327497e-04	
797	-6.60000e+00	1.327953e-04	
Note: No ".plot", ".print", or ".fourier" lines; no simulations run
