
Note: Compatibility modes selected: hs

Warning: m=xx on .subckt line will override multiplier m hierarchy!


Circuit: ***************************

Doing analysis at TEMP = 125.000000 and TNOM = 125.000000


No. of Data Rows : 798
                          ***************************
                          DC transfer characteristic  Mon Jan  9 13:57:53  2023
--------------------------------------------------------------------------------
Index   v-sweep         i(vds)          
--------------------------------------------------------------------------------
0	0.000000e+00	0.000000e+00	
1	-5.00000e-02	1.691223e-07	
2	-1.00000e-01	3.055082e-07	
3	-1.50000e-01	4.116640e-07	
4	-2.00000e-01	4.888479e-07	
5	-2.50000e-01	5.390282e-07	
6	-3.00000e-01	5.669372e-07	
7	-3.50000e-01	5.810003e-07	
8	-4.00000e-01	5.890445e-07	
9	-4.50000e-01	5.949034e-07	
10	-5.00000e-01	5.999105e-07	
11	-5.50000e-01	6.045181e-07	
12	-6.00000e-01	6.088980e-07	
13	-6.50000e-01	6.131256e-07	
14	-7.00000e-01	6.172385e-07	
15	-7.50000e-01	6.212579e-07	
16	-8.00000e-01	6.251970e-07	
17	-8.50000e-01	6.290649e-07	
18	-9.00000e-01	6.328683e-07	
19	-9.50000e-01	6.366125e-07	
20	-1.00000e+00	6.403017e-07	
21	-1.05000e+00	6.439396e-07	
22	-1.10000e+00	6.475293e-07	
23	-1.15000e+00	6.510735e-07	
24	-1.20000e+00	6.545747e-07	
25	-1.25000e+00	6.580353e-07	
26	-1.30000e+00	6.614573e-07	
27	-1.35000e+00	6.648426e-07	
28	-1.40000e+00	6.681929e-07	
29	-1.45000e+00	6.715099e-07	
30	-1.50000e+00	6.747950e-07	
31	-1.55000e+00	6.780498e-07	
32	-1.60000e+00	6.812755e-07	
33	-1.65000e+00	6.844734e-07	
34	-1.70000e+00	6.876447e-07	
35	-1.75000e+00	6.907904e-07	
36	-1.80000e+00	6.939115e-07	
37	-1.85000e+00	6.970092e-07	
38	-1.90000e+00	7.000843e-07	
39	-1.95000e+00	7.031377e-07	
40	-2.00000e+00	7.061702e-07	
41	-2.05000e+00	7.091826e-07	
42	-2.10000e+00	7.121757e-07	
43	-2.15000e+00	7.151502e-07	
44	-2.20000e+00	7.181068e-07	
45	-2.25000e+00	7.210461e-07	
46	-2.30000e+00	7.239687e-07	
47	-2.35000e+00	7.268752e-07	
48	-2.40000e+00	7.297663e-07	
49	-2.45000e+00	7.326423e-07	
50	-2.50000e+00	7.355039e-07	
51	-2.55000e+00	7.383516e-07	
52	-2.60000e+00	7.411857e-07	
53	-2.65000e+00	7.440069e-07	
54	-2.70000e+00	7.468154e-07	

Index   v-sweep         i(vds)          
--------------------------------------------------------------------------------
55	-2.75000e+00	7.496117e-07	
56	-2.80000e+00	7.523963e-07	
57	-2.85000e+00	7.551694e-07	
58	-2.90000e+00	7.579315e-07	
59	-2.95000e+00	7.606830e-07	
60	-3.00000e+00	7.634241e-07	
61	-3.05000e+00	7.661553e-07	
62	-3.10000e+00	7.688769e-07	
63	-3.15000e+00	7.715891e-07	
64	-3.20000e+00	7.742923e-07	
65	-3.25000e+00	7.769868e-07	
66	-3.30000e+00	7.796730e-07	
67	-3.35000e+00	7.823511e-07	
68	-3.40000e+00	7.850215e-07	
69	-3.45000e+00	7.876845e-07	
70	-3.50000e+00	7.903404e-07	
71	-3.55000e+00	7.929896e-07	
72	-3.60000e+00	7.956325e-07	
73	-3.65000e+00	7.982694e-07	
74	-3.70000e+00	8.009008e-07	
75	-3.75000e+00	8.035271e-07	
76	-3.80000e+00	8.061488e-07	
77	-3.85000e+00	8.087663e-07	
78	-3.90000e+00	8.113803e-07	
79	-3.95000e+00	8.139914e-07	
80	-4.00000e+00	8.166002e-07	
81	-4.05000e+00	8.192076e-07	
82	-4.10000e+00	8.218142e-07	
83	-4.15000e+00	8.244210e-07	
84	-4.20000e+00	8.270290e-07	
85	-4.25000e+00	8.296392e-07	
86	-4.30000e+00	8.322528e-07	
87	-4.35000e+00	8.348712e-07	
88	-4.40000e+00	8.374957e-07	
89	-4.45000e+00	8.401279e-07	
90	-4.50000e+00	8.427694e-07	
91	-4.55000e+00	8.454222e-07	
92	-4.60000e+00	8.480881e-07	
93	-4.65000e+00	8.507694e-07	
94	-4.70000e+00	8.534685e-07	
95	-4.75000e+00	8.561878e-07	
96	-4.80000e+00	8.589300e-07	
97	-4.85000e+00	8.616983e-07	
98	-4.90000e+00	8.644957e-07	
99	-4.95000e+00	8.673256e-07	
100	-5.00000e+00	8.701916e-07	
101	-5.05000e+00	8.730978e-07	
102	-5.10000e+00	8.760482e-07	
103	-5.15000e+00	8.790473e-07	
104	-5.20000e+00	8.820997e-07	
105	-5.25000e+00	8.852106e-07	
106	-5.30000e+00	8.883852e-07	
107	-5.35000e+00	8.916292e-07	
108	-5.40000e+00	8.949484e-07	
109	-5.45000e+00	8.983492e-07	
110	-5.50000e+00	9.018382e-07	
111	-5.55000e+00	9.054223e-07	
112	-5.60000e+00	9.091089e-07	

Index   v-sweep         i(vds)          
--------------------------------------------------------------------------------
113	-5.65000e+00	9.129056e-07	
114	-5.70000e+00	9.168205e-07	
115	-5.75000e+00	9.208619e-07	
116	-5.80000e+00	9.250389e-07	
117	-5.85000e+00	9.293604e-07	
118	-5.90000e+00	9.338361e-07	
119	-5.95000e+00	9.384761e-07	
120	-6.00000e+00	9.432907e-07	
121	-6.05000e+00	9.482908e-07	
122	-6.10000e+00	9.534876e-07	
123	-6.15000e+00	9.588927e-07	
124	-6.20000e+00	9.645184e-07	
125	-6.25000e+00	9.703770e-07	
126	-6.30000e+00	9.764817e-07	
127	-6.35000e+00	9.828457e-07	
128	-6.40000e+00	9.894829e-07	
129	-6.45000e+00	9.964077e-07	
130	-6.50000e+00	1.003635e-06	
131	-6.55000e+00	1.011179e-06	
132	-6.60000e+00	1.019057e-06	
133	0.000000e+00	0.000000e+00	
134	-5.00000e-02	6.942967e-07	
135	-1.00000e-01	1.351591e-06	
136	-1.50000e-01	1.974169e-06	
137	-2.00000e-01	2.562720e-06	
138	-2.50000e-01	3.117561e-06	
139	-3.00000e-01	3.638922e-06	
140	-3.50000e-01	4.127013e-06	
141	-4.00000e-01	4.582042e-06	
142	-4.50000e-01	5.004219e-06	
143	-5.00000e-01	5.393757e-06	
144	-5.50000e-01	5.750881e-06	
145	-6.00000e-01	6.075830e-06	
146	-6.50000e-01	6.368868e-06	
147	-7.00000e-01	6.630305e-06	
148	-7.50000e-01	6.860532e-06	
149	-8.00000e-01	7.060085e-06	
150	-8.50000e-01	7.229777e-06	
151	-9.00000e-01	7.370922e-06	
152	-9.50000e-01	7.485715e-06	
153	-1.00000e+00	7.577641e-06	
154	-1.05000e+00	7.651508e-06	
155	-1.10000e+00	7.712613e-06	
156	-1.15000e+00	7.765471e-06	
157	-1.20000e+00	7.813164e-06	
158	-1.25000e+00	7.857516e-06	
159	-1.30000e+00	7.899547e-06	
160	-1.35000e+00	7.939832e-06	
161	-1.40000e+00	7.978710e-06	
162	-1.45000e+00	8.016398e-06	
163	-1.50000e+00	8.053039e-06	
164	-1.55000e+00	8.088739e-06	
165	-1.60000e+00	8.123578e-06	
166	-1.65000e+00	8.157622e-06	
167	-1.70000e+00	8.190924e-06	
168	-1.75000e+00	8.223530e-06	
169	-1.80000e+00	8.255482e-06	
170	-1.85000e+00	8.286815e-06	

Index   v-sweep         i(vds)          
--------------------------------------------------------------------------------
171	-1.90000e+00	8.317562e-06	
172	-1.95000e+00	8.347753e-06	
173	-2.00000e+00	8.377414e-06	
174	-2.05000e+00	8.406572e-06	
175	-2.10000e+00	8.435249e-06	
176	-2.15000e+00	8.463466e-06	
177	-2.20000e+00	8.491243e-06	
178	-2.25000e+00	8.518600e-06	
179	-2.30000e+00	8.545553e-06	
180	-2.35000e+00	8.572118e-06	
181	-2.40000e+00	8.598313e-06	
182	-2.45000e+00	8.624150e-06	
183	-2.50000e+00	8.649643e-06	
184	-2.55000e+00	8.674805e-06	
185	-2.60000e+00	8.699649e-06	
186	-2.65000e+00	8.724186e-06	
187	-2.70000e+00	8.748427e-06	
188	-2.75000e+00	8.772382e-06	
189	-2.80000e+00	8.796061e-06	
190	-2.85000e+00	8.819474e-06	
191	-2.90000e+00	8.842628e-06	
192	-2.95000e+00	8.865534e-06	
193	-3.00000e+00	8.888198e-06	
194	-3.05000e+00	8.910628e-06	
195	-3.10000e+00	8.932832e-06	
196	-3.15000e+00	8.954816e-06	
197	-3.20000e+00	8.976588e-06	
198	-3.25000e+00	8.998154e-06	
199	-3.30000e+00	9.019519e-06	
200	-3.35000e+00	9.040691e-06	
201	-3.40000e+00	9.061673e-06	
202	-3.45000e+00	9.082472e-06	
203	-3.50000e+00	9.103093e-06	
204	-3.55000e+00	9.123541e-06	
205	-3.60000e+00	9.143820e-06	
206	-3.65000e+00	9.163936e-06	
207	-3.70000e+00	9.183892e-06	
208	-3.75000e+00	9.203694e-06	
209	-3.80000e+00	9.223345e-06	
210	-3.85000e+00	9.242849e-06	
211	-3.90000e+00	9.262211e-06	
212	-3.95000e+00	9.281434e-06	
213	-4.00000e+00	9.300523e-06	
214	-4.05000e+00	9.319481e-06	
215	-4.10000e+00	9.338312e-06	
216	-4.15000e+00	9.357021e-06	
217	-4.20000e+00	9.375612e-06	
218	-4.25000e+00	9.394088e-06	
219	-4.30000e+00	9.412455e-06	
220	-4.35000e+00	9.430716e-06	
221	-4.40000e+00	9.448878e-06	
222	-4.45000e+00	9.466944e-06	
223	-4.50000e+00	9.484920e-06	
224	-4.55000e+00	9.502813e-06	
225	-4.60000e+00	9.520629e-06	
226	-4.65000e+00	9.538375e-06	
227	-4.70000e+00	9.556058e-06	
228	-4.75000e+00	9.573687e-06	

Index   v-sweep         i(vds)          
--------------------------------------------------------------------------------
229	-4.80000e+00	9.591271e-06	
230	-4.85000e+00	9.608820e-06	
231	-4.90000e+00	9.626344e-06	
232	-4.95000e+00	9.643857e-06	
233	-5.00000e+00	9.661370e-06	
234	-5.05000e+00	9.678898e-06	
235	-5.10000e+00	9.696456e-06	
236	-5.15000e+00	9.714062e-06	
237	-5.20000e+00	9.731734e-06	
238	-5.25000e+00	9.749492e-06	
239	-5.30000e+00	9.767358e-06	
240	-5.35000e+00	9.785355e-06	
241	-5.40000e+00	9.803508e-06	
242	-5.45000e+00	9.821846e-06	
243	-5.50000e+00	9.840398e-06	
244	-5.55000e+00	9.859196e-06	
245	-5.60000e+00	9.878273e-06	
246	-5.65000e+00	9.897667e-06	
247	-5.70000e+00	9.917417e-06	
248	-5.75000e+00	9.937564e-06	
249	-5.80000e+00	9.958153e-06	
250	-5.85000e+00	9.979232e-06	
251	-5.90000e+00	1.000085e-05	
252	-5.95000e+00	1.002306e-05	
253	-6.00000e+00	1.004592e-05	
254	-6.05000e+00	1.006949e-05	
255	-6.10000e+00	1.009384e-05	
256	-6.15000e+00	1.011902e-05	
257	-6.20000e+00	1.014511e-05	
258	-6.25000e+00	1.017218e-05	
259	-6.30000e+00	1.020031e-05	
260	-6.35000e+00	1.022958e-05	
261	-6.40000e+00	1.026007e-05	
262	-6.45000e+00	1.029188e-05	
263	-6.50000e+00	1.032509e-05	
264	-6.55000e+00	1.035980e-05	
265	-6.60000e+00	1.039610e-05	
266	0.000000e+00	0.000000e+00	
267	-5.00000e-02	1.146216e-06	
268	-1.00000e-01	2.255656e-06	
269	-1.50000e-01	3.330576e-06	
270	-2.00000e-01	4.371638e-06	
271	-2.50000e-01	5.379129e-06	
272	-3.00000e-01	6.353250e-06	
273	-3.50000e-01	7.294178e-06	
274	-4.00000e-01	8.202089e-06	
275	-4.50000e-01	9.077152e-06	
276	-5.00000e-01	9.919538e-06	
277	-5.50000e-01	1.072942e-05	
278	-6.00000e-01	1.150696e-05	
279	-6.50000e-01	1.225233e-05	
280	-7.00000e-01	1.296569e-05	
281	-7.50000e-01	1.364722e-05	
282	-8.00000e-01	1.429709e-05	
283	-8.50000e-01	1.491546e-05	
284	-9.00000e-01	1.550250e-05	
285	-9.50000e-01	1.605838e-05	
286	-1.00000e+00	1.658329e-05	

Index   v-sweep         i(vds)          
--------------------------------------------------------------------------------
287	-1.05000e+00	1.707740e-05	
288	-1.10000e+00	1.754090e-05	
289	-1.15000e+00	1.797399e-05	
290	-1.20000e+00	1.837689e-05	
291	-1.25000e+00	1.874985e-05	
292	-1.30000e+00	1.909316e-05	
293	-1.35000e+00	1.940716e-05	
294	-1.40000e+00	1.969233e-05	
295	-1.45000e+00	1.994931e-05	
296	-1.50000e+00	2.017902e-05	
297	-1.55000e+00	2.038281e-05	
298	-1.60000e+00	2.056268e-05	
299	-1.65000e+00	2.072135e-05	
300	-1.70000e+00	2.086226e-05	
301	-1.75000e+00	2.098913e-05	
302	-1.80000e+00	2.110539e-05	
303	-1.85000e+00	2.121376e-05	
304	-1.90000e+00	2.131621e-05	
305	-1.95000e+00	2.141403e-05	
306	-2.00000e+00	2.150807e-05	
307	-2.05000e+00	2.159891e-05	
308	-2.10000e+00	2.168696e-05	
309	-2.15000e+00	2.177249e-05	
310	-2.20000e+00	2.185573e-05	
311	-2.25000e+00	2.193688e-05	
312	-2.30000e+00	2.201606e-05	
313	-2.35000e+00	2.209342e-05	
314	-2.40000e+00	2.216905e-05	
315	-2.45000e+00	2.224307e-05	
316	-2.50000e+00	2.231556e-05	
317	-2.55000e+00	2.238659e-05	
318	-2.60000e+00	2.245625e-05	
319	-2.65000e+00	2.252459e-05	
320	-2.70000e+00	2.259169e-05	
321	-2.75000e+00	2.265759e-05	
322	-2.80000e+00	2.272236e-05	
323	-2.85000e+00	2.278603e-05	
324	-2.90000e+00	2.284867e-05	
325	-2.95000e+00	2.291030e-05	
326	-3.00000e+00	2.297098e-05	
327	-3.05000e+00	2.303073e-05	
328	-3.10000e+00	2.308960e-05	
329	-3.15000e+00	2.314762e-05	
330	-3.20000e+00	2.320483e-05	
331	-3.25000e+00	2.326124e-05	
332	-3.30000e+00	2.331690e-05	
333	-3.35000e+00	2.337182e-05	
334	-3.40000e+00	2.342604e-05	
335	-3.45000e+00	2.347957e-05	
336	-3.50000e+00	2.353245e-05	
337	-3.55000e+00	2.358468e-05	
338	-3.60000e+00	2.363631e-05	
339	-3.65000e+00	2.368733e-05	
340	-3.70000e+00	2.373778e-05	
341	-3.75000e+00	2.378767e-05	
342	-3.80000e+00	2.383701e-05	
343	-3.85000e+00	2.388583e-05	
344	-3.90000e+00	2.393414e-05	

Index   v-sweep         i(vds)          
--------------------------------------------------------------------------------
345	-3.95000e+00	2.398196e-05	
346	-4.00000e+00	2.402929e-05	
347	-4.05000e+00	2.407616e-05	
348	-4.10000e+00	2.412258e-05	
349	-4.15000e+00	2.416855e-05	
350	-4.20000e+00	2.421410e-05	
351	-4.25000e+00	2.425923e-05	
352	-4.30000e+00	2.430396e-05	
353	-4.35000e+00	2.434829e-05	
354	-4.40000e+00	2.439224e-05	
355	-4.45000e+00	2.443581e-05	
356	-4.50000e+00	2.447903e-05	
357	-4.55000e+00	2.452189e-05	
358	-4.60000e+00	2.456441e-05	
359	-4.65000e+00	2.460659e-05	
360	-4.70000e+00	2.464846e-05	
361	-4.75000e+00	2.469000e-05	
362	-4.80000e+00	2.473125e-05	
363	-4.85000e+00	2.477220e-05	
364	-4.90000e+00	2.481287e-05	
365	-4.95000e+00	2.485327e-05	
366	-5.00000e+00	2.489341e-05	
367	-5.05000e+00	2.493330e-05	
368	-5.10000e+00	2.497296e-05	
369	-5.15000e+00	2.501239e-05	
370	-5.20000e+00	2.505162e-05	
371	-5.25000e+00	2.509067e-05	
372	-5.30000e+00	2.512953e-05	
373	-5.35000e+00	2.516825e-05	
374	-5.40000e+00	2.520684e-05	
375	-5.45000e+00	2.524532e-05	
376	-5.50000e+00	2.528371e-05	
377	-5.55000e+00	2.532205e-05	
378	-5.60000e+00	2.536037e-05	
379	-5.65000e+00	2.539869e-05	
380	-5.70000e+00	2.543707e-05	
381	-5.75000e+00	2.547552e-05	
382	-5.80000e+00	2.551411e-05	
383	-5.85000e+00	2.555287e-05	
384	-5.90000e+00	2.559185e-05	
385	-5.95000e+00	2.563113e-05	
386	-6.00000e+00	2.567074e-05	
387	-6.05000e+00	2.571076e-05	
388	-6.10000e+00	2.575127e-05	
389	-6.15000e+00	2.579233e-05	
390	-6.20000e+00	2.583402e-05	
391	-6.25000e+00	2.587645e-05	
392	-6.30000e+00	2.591969e-05	
393	-6.35000e+00	2.596385e-05	
394	-6.40000e+00	2.600904e-05	
395	-6.45000e+00	2.605537e-05	
396	-6.50000e+00	2.610296e-05	
397	-6.55000e+00	2.615194e-05	
398	-6.60000e+00	2.620246e-05	
399	0.000000e+00	0.000000e+00	
400	-5.00000e-02	1.539636e-06	
401	-1.00000e-01	3.043398e-06	
402	-1.50000e-01	4.513518e-06	

Index   v-sweep         i(vds)          
--------------------------------------------------------------------------------
403	-2.00000e-01	5.950634e-06	
404	-2.50000e-01	7.355011e-06	
405	-3.00000e-01	8.726826e-06	
406	-3.50000e-01	1.006623e-05	
407	-4.00000e-01	1.137338e-05	
408	-4.50000e-01	1.264843e-05	
409	-5.00000e-01	1.389151e-05	
410	-5.50000e-01	1.510277e-05	
411	-6.00000e-01	1.628237e-05	
412	-6.50000e-01	1.743045e-05	
413	-7.00000e-01	1.854714e-05	
414	-7.50000e-01	1.963259e-05	
415	-8.00000e-01	2.068696e-05	
416	-8.50000e-01	2.171037e-05	
417	-9.00000e-01	2.270296e-05	
418	-9.50000e-01	2.366489e-05	
419	-1.00000e+00	2.459629e-05	
420	-1.05000e+00	2.549730e-05	
421	-1.10000e+00	2.636806e-05	
422	-1.15000e+00	2.720870e-05	
423	-1.20000e+00	2.801938e-05	
424	-1.25000e+00	2.880022e-05	
425	-1.30000e+00	2.955138e-05	
426	-1.35000e+00	3.027298e-05	
427	-1.40000e+00	3.096517e-05	
428	-1.45000e+00	3.162810e-05	
429	-1.50000e+00	3.226191e-05	
430	-1.55000e+00	3.286675e-05	
431	-1.60000e+00	3.344278e-05	
432	-1.65000e+00	3.399015e-05	
433	-1.70000e+00	3.450905e-05	
434	-1.75000e+00	3.499966e-05	
435	-1.80000e+00	3.546219e-05	
436	-1.85000e+00	3.589687e-05	
437	-1.90000e+00	3.630399e-05	
438	-1.95000e+00	3.668391e-05	
439	-2.00000e+00	3.703706e-05	
440	-2.05000e+00	3.736406e-05	
441	-2.10000e+00	3.766572e-05	
442	-2.15000e+00	3.794317e-05	
443	-2.20000e+00	3.819795e-05	
444	-2.25000e+00	3.843207e-05	
445	-2.30000e+00	3.864801e-05	
446	-2.35000e+00	3.884849e-05	
447	-2.40000e+00	3.903622e-05	
448	-2.45000e+00	3.921360e-05	
449	-2.50000e+00	3.938254e-05	
450	-2.55000e+00	3.954447e-05	
451	-2.60000e+00	3.970045e-05	
452	-2.65000e+00	3.985124e-05	
453	-2.70000e+00	3.999740e-05	
454	-2.75000e+00	4.013939e-05	
455	-2.80000e+00	4.027753e-05	
456	-2.85000e+00	4.041212e-05	
457	-2.90000e+00	4.054340e-05	
458	-2.95000e+00	4.067158e-05	
459	-3.00000e+00	4.079684e-05	
460	-3.05000e+00	4.091934e-05	

Index   v-sweep         i(vds)          
--------------------------------------------------------------------------------
461	-3.10000e+00	4.103924e-05	
462	-3.15000e+00	4.115668e-05	
463	-3.20000e+00	4.127176e-05	
464	-3.25000e+00	4.138461e-05	
465	-3.30000e+00	4.149534e-05	
466	-3.35000e+00	4.160404e-05	
467	-3.40000e+00	4.171080e-05	
468	-3.45000e+00	4.181571e-05	
469	-3.50000e+00	4.191885e-05	
470	-3.55000e+00	4.202029e-05	
471	-3.60000e+00	4.212009e-05	
472	-3.65000e+00	4.221834e-05	
473	-3.70000e+00	4.231508e-05	
474	-3.75000e+00	4.241037e-05	
475	-3.80000e+00	4.250428e-05	
476	-3.85000e+00	4.259685e-05	
477	-3.90000e+00	4.268813e-05	
478	-3.95000e+00	4.277816e-05	
479	-4.00000e+00	4.286700e-05	
480	-4.05000e+00	4.295467e-05	
481	-4.10000e+00	4.304123e-05	
482	-4.15000e+00	4.312671e-05	
483	-4.20000e+00	4.321115e-05	
484	-4.25000e+00	4.329457e-05	
485	-4.30000e+00	4.337701e-05	
486	-4.35000e+00	4.345851e-05	
487	-4.40000e+00	4.353908e-05	
488	-4.45000e+00	4.361877e-05	
489	-4.50000e+00	4.369759e-05	
490	-4.55000e+00	4.377557e-05	
491	-4.60000e+00	4.385274e-05	
492	-4.65000e+00	4.392912e-05	
493	-4.70000e+00	4.400473e-05	
494	-4.75000e+00	4.407959e-05	
495	-4.80000e+00	4.415373e-05	
496	-4.85000e+00	4.422717e-05	
497	-4.90000e+00	4.429992e-05	
498	-4.95000e+00	4.437200e-05	
499	-5.00000e+00	4.444344e-05	
500	-5.05000e+00	4.451424e-05	
501	-5.10000e+00	4.458443e-05	
502	-5.15000e+00	4.465402e-05	
503	-5.20000e+00	4.472303e-05	
504	-5.25000e+00	4.479148e-05	
505	-5.30000e+00	4.485938e-05	
506	-5.35000e+00	4.492675e-05	
507	-5.40000e+00	4.499360e-05	
508	-5.45000e+00	4.505996e-05	
509	-5.50000e+00	4.512584e-05	
510	-5.55000e+00	4.519126e-05	
511	-5.60000e+00	4.525624e-05	
512	-5.65000e+00	4.532080e-05	
513	-5.70000e+00	4.538497e-05	
514	-5.75000e+00	4.544876e-05	
515	-5.80000e+00	4.551220e-05	
516	-5.85000e+00	4.557532e-05	
517	-5.90000e+00	4.563815e-05	
518	-5.95000e+00	4.570072e-05	

Index   v-sweep         i(vds)          
--------------------------------------------------------------------------------
519	-6.00000e+00	4.576307e-05	
520	-6.05000e+00	4.582524e-05	
521	-6.10000e+00	4.588727e-05	
522	-6.15000e+00	4.594921e-05	
523	-6.20000e+00	4.601111e-05	
524	-6.25000e+00	4.607303e-05	
525	-6.30000e+00	4.613504e-05	
526	-6.35000e+00	4.619719e-05	
527	-6.40000e+00	4.625958e-05	
528	-6.45000e+00	4.632227e-05	
529	-6.50000e+00	4.638536e-05	
530	-6.55000e+00	4.644894e-05	
531	-6.60000e+00	4.651312e-05	
532	0.000000e+00	0.000000e+00	
533	-5.00000e-02	1.883423e-06	
534	-1.00000e-01	3.732129e-06	
535	-1.50000e-01	5.548330e-06	
536	-2.00000e-01	7.332644e-06	
537	-2.50000e-01	9.085316e-06	
538	-3.00000e-01	1.080650e-05	
539	-3.50000e-01	1.249634e-05	
540	-4.00000e-01	1.415495e-05	
541	-4.50000e-01	1.578248e-05	
542	-5.00000e-01	1.737904e-05	
543	-5.50000e-01	1.894477e-05	
544	-6.00000e-01	2.047978e-05	
545	-6.50000e-01	2.198422e-05	
546	-7.00000e-01	2.345820e-05	
547	-7.50000e-01	2.490184e-05	
548	-8.00000e-01	2.631528e-05	
549	-8.50000e-01	2.769863e-05	
550	-9.00000e-01	2.905202e-05	
551	-9.50000e-01	3.037556e-05	
552	-1.00000e+00	3.166939e-05	
553	-1.05000e+00	3.293362e-05	
554	-1.10000e+00	3.416837e-05	
555	-1.15000e+00	3.537376e-05	
556	-1.20000e+00	3.654992e-05	
557	-1.25000e+00	3.769695e-05	
558	-1.30000e+00	3.881499e-05	
559	-1.35000e+00	3.990414e-05	
560	-1.40000e+00	4.096453e-05	
561	-1.45000e+00	4.199627e-05	
562	-1.50000e+00	4.299948e-05	
563	-1.55000e+00	4.397427e-05	
564	-1.60000e+00	4.492077e-05	
565	-1.65000e+00	4.583910e-05	
566	-1.70000e+00	4.672936e-05	
567	-1.75000e+00	4.759167e-05	
568	-1.80000e+00	4.842616e-05	
569	-1.85000e+00	4.923294e-05	
570	-1.90000e+00	5.001214e-05	
571	-1.95000e+00	5.076386e-05	
572	-2.00000e+00	5.148825e-05	
573	-2.05000e+00	5.218542e-05	
574	-2.10000e+00	5.285550e-05	
575	-2.15000e+00	5.349864e-05	
576	-2.20000e+00	5.411497e-05	

Index   v-sweep         i(vds)          
--------------------------------------------------------------------------------
577	-2.25000e+00	5.470464e-05	
578	-2.30000e+00	5.526783e-05	
579	-2.35000e+00	5.580471e-05	
580	-2.40000e+00	5.631549e-05	
581	-2.45000e+00	5.680042e-05	
582	-2.50000e+00	5.725979e-05	
583	-2.55000e+00	5.769397e-05	
584	-2.60000e+00	5.810342e-05	
585	-2.65000e+00	5.848874e-05	
586	-2.70000e+00	5.885072e-05	
587	-2.75000e+00	5.919041e-05	
588	-2.80000e+00	5.950916e-05	
589	-2.85000e+00	5.980863e-05	
590	-2.90000e+00	6.009078e-05	
591	-2.95000e+00	6.035770e-05	
592	-3.00000e+00	6.061146e-05	
593	-3.05000e+00	6.085395e-05	
594	-3.10000e+00	6.108673e-05	
595	-3.15000e+00	6.131105e-05	
596	-3.20000e+00	6.152791e-05	
597	-3.25000e+00	6.173807e-05	
598	-3.30000e+00	6.194214e-05	
599	-3.35000e+00	6.214060e-05	
600	-3.40000e+00	6.233386e-05	
601	-3.45000e+00	6.252228e-05	
602	-3.50000e+00	6.270616e-05	
603	-3.55000e+00	6.288576e-05	
604	-3.60000e+00	6.306132e-05	
605	-3.65000e+00	6.323307e-05	
606	-3.70000e+00	6.340120e-05	
607	-3.75000e+00	6.356589e-05	
608	-3.80000e+00	6.372731e-05	
609	-3.85000e+00	6.388562e-05	
610	-3.90000e+00	6.404095e-05	
611	-3.95000e+00	6.419346e-05	
612	-4.00000e+00	6.434325e-05	
613	-4.05000e+00	6.449045e-05	
614	-4.10000e+00	6.463516e-05	
615	-4.15000e+00	6.477749e-05	
616	-4.20000e+00	6.491754e-05	
617	-4.25000e+00	6.505539e-05	
618	-4.30000e+00	6.519113e-05	
619	-4.35000e+00	6.532485e-05	
620	-4.40000e+00	6.545661e-05	
621	-4.45000e+00	6.558649e-05	
622	-4.50000e+00	6.571456e-05	
623	-4.55000e+00	6.584089e-05	
624	-4.60000e+00	6.596552e-05	
625	-4.65000e+00	6.608853e-05	
626	-4.70000e+00	6.620996e-05	
627	-4.75000e+00	6.632987e-05	
628	-4.80000e+00	6.644831e-05	
629	-4.85000e+00	6.656533e-05	
630	-4.90000e+00	6.668096e-05	
631	-4.95000e+00	6.679526e-05	
632	-5.00000e+00	6.690827e-05	
633	-5.05000e+00	6.702002e-05	
634	-5.10000e+00	6.713055e-05	

Index   v-sweep         i(vds)          
--------------------------------------------------------------------------------
635	-5.15000e+00	6.723990e-05	
636	-5.20000e+00	6.734811e-05	
637	-5.25000e+00	6.745520e-05	
638	-5.30000e+00	6.756121e-05	
639	-5.35000e+00	6.766616e-05	
640	-5.40000e+00	6.777009e-05	
641	-5.45000e+00	6.787303e-05	
642	-5.50000e+00	6.797500e-05	
643	-5.55000e+00	6.807603e-05	
644	-5.60000e+00	6.817614e-05	
645	-5.65000e+00	6.827536e-05	
646	-5.70000e+00	6.837372e-05	
647	-5.75000e+00	6.847123e-05	
648	-5.80000e+00	6.856792e-05	
649	-5.85000e+00	6.866382e-05	
650	-5.90000e+00	6.875895e-05	
651	-5.95000e+00	6.885332e-05	
652	-6.00000e+00	6.894698e-05	
653	-6.05000e+00	6.903993e-05	
654	-6.10000e+00	6.913222e-05	
655	-6.15000e+00	6.922385e-05	
656	-6.20000e+00	6.931487e-05	
657	-6.25000e+00	6.940531e-05	
658	-6.30000e+00	6.949518e-05	
659	-6.35000e+00	6.958454e-05	
660	-6.40000e+00	6.967342e-05	
661	-6.45000e+00	6.976185e-05	
662	-6.50000e+00	6.984990e-05	
663	-6.55000e+00	6.993759e-05	
664	-6.60000e+00	7.002500e-05	
665	0.000000e+00	0.000000e+00	
666	-5.00000e-02	2.185180e-06	
667	-1.00000e-01	4.336903e-06	
668	-1.50000e-01	6.457365e-06	
669	-2.00000e-01	8.547165e-06	
670	-2.50000e-01	1.060653e-05	
671	-3.00000e-01	1.263560e-05	
672	-3.50000e-01	1.463449e-05	
673	-4.00000e-01	1.660333e-05	
674	-4.50000e-01	1.854221e-05	
675	-5.00000e-01	2.045125e-05	
676	-5.50000e-01	2.233057e-05	
677	-6.00000e-01	2.418027e-05	
678	-6.50000e-01	2.600046e-05	
679	-7.00000e-01	2.779125e-05	
680	-7.50000e-01	2.955275e-05	
681	-8.00000e-01	3.128508e-05	
682	-8.50000e-01	3.298832e-05	
683	-9.00000e-01	3.466260e-05	
684	-9.50000e-01	3.630803e-05	
685	-1.00000e+00	3.792469e-05	
686	-1.05000e+00	3.951271e-05	
687	-1.10000e+00	4.107219e-05	
688	-1.15000e+00	4.260323e-05	
689	-1.20000e+00	4.410593e-05	
690	-1.25000e+00	4.558040e-05	
691	-1.30000e+00	4.702675e-05	
692	-1.35000e+00	4.844507e-05	

Index   v-sweep         i(vds)          
--------------------------------------------------------------------------------
693	-1.40000e+00	4.983548e-05	
694	-1.45000e+00	5.119806e-05	
695	-1.50000e+00	5.253292e-05	
696	-1.55000e+00	5.384017e-05	
697	-1.60000e+00	5.511991e-05	
698	-1.65000e+00	5.637222e-05	
699	-1.70000e+00	5.759723e-05	
700	-1.75000e+00	5.879502e-05	
701	-1.80000e+00	5.996569e-05	
702	-1.85000e+00	6.110935e-05	
703	-1.90000e+00	6.222610e-05	
704	-1.95000e+00	6.331602e-05	
705	-2.00000e+00	6.437923e-05	
706	-2.05000e+00	6.541582e-05	
707	-2.10000e+00	6.642589e-05	
708	-2.15000e+00	6.740955e-05	
709	-2.20000e+00	6.836688e-05	
710	-2.25000e+00	6.929799e-05	
711	-2.30000e+00	7.020298e-05	
712	-2.35000e+00	7.108195e-05	
713	-2.40000e+00	7.193501e-05	
714	-2.45000e+00	7.276225e-05	
715	-2.50000e+00	7.356379e-05	
716	-2.55000e+00	7.433973e-05	
717	-2.60000e+00	7.509019e-05	
718	-2.65000e+00	7.581527e-05	
719	-2.70000e+00	7.651510e-05	
720	-2.75000e+00	7.718982e-05	
721	-2.80000e+00	7.783955e-05	
722	-2.85000e+00	7.846444e-05	
723	-2.90000e+00	7.906467e-05	
724	-2.95000e+00	7.964041e-05	
725	-3.00000e+00	8.019190e-05	
726	-3.05000e+00	8.071937e-05	
727	-3.10000e+00	8.122316e-05	
728	-3.15000e+00	8.170365e-05	
729	-3.20000e+00	8.216132e-05	
730	-3.25000e+00	8.259679e-05	
731	-3.30000e+00	8.301086e-05	
732	-3.35000e+00	8.340453e-05	
733	-3.40000e+00	8.377900e-05	
734	-3.45000e+00	8.413572e-05	
735	-3.50000e+00	8.447626e-05	
736	-3.55000e+00	8.480227e-05	
737	-3.60000e+00	8.511534e-05	
738	-3.65000e+00	8.541690e-05	
739	-3.70000e+00	8.570817e-05	
740	-3.75000e+00	8.599018e-05	
741	-3.80000e+00	8.626377e-05	
742	-3.85000e+00	8.652961e-05	
743	-3.90000e+00	8.678828e-05	
744	-3.95000e+00	8.704028e-05	
745	-4.00000e+00	8.728601e-05	
746	-4.05000e+00	8.752587e-05	
747	-4.10000e+00	8.776017e-05	
748	-4.15000e+00	8.798923e-05	
749	-4.20000e+00	8.821331e-05	
750	-4.25000e+00	8.843268e-05	

Index   v-sweep         i(vds)          
--------------------------------------------------------------------------------
751	-4.30000e+00	8.864756e-05	
752	-4.35000e+00	8.885817e-05	
753	-4.40000e+00	8.906470e-05	
754	-4.45000e+00	8.926735e-05	
755	-4.50000e+00	8.946629e-05	
756	-4.55000e+00	8.966169e-05	
757	-4.60000e+00	8.985368e-05	
758	-4.65000e+00	9.004242e-05	
759	-4.70000e+00	9.022804e-05	
760	-4.75000e+00	9.041067e-05	
761	-4.80000e+00	9.059042e-05	
762	-4.85000e+00	9.076740e-05	
763	-4.90000e+00	9.094173e-05	
764	-4.95000e+00	9.111349e-05	
765	-5.00000e+00	9.128279e-05	
766	-5.05000e+00	9.144972e-05	
767	-5.10000e+00	9.161435e-05	
768	-5.15000e+00	9.177677e-05	
769	-5.20000e+00	9.193706e-05	
770	-5.25000e+00	9.209528e-05	
771	-5.30000e+00	9.225151e-05	
772	-5.35000e+00	9.240581e-05	
773	-5.40000e+00	9.255824e-05	
774	-5.45000e+00	9.270886e-05	
775	-5.50000e+00	9.285773e-05	
776	-5.55000e+00	9.300490e-05	
777	-5.60000e+00	9.315043e-05	
778	-5.65000e+00	9.329436e-05	
779	-5.70000e+00	9.343675e-05	
780	-5.75000e+00	9.357762e-05	
781	-5.80000e+00	9.371704e-05	
782	-5.85000e+00	9.385504e-05	
783	-5.90000e+00	9.399165e-05	
784	-5.95000e+00	9.412693e-05	
785	-6.00000e+00	9.426090e-05	
786	-6.05000e+00	9.439360e-05	
787	-6.10000e+00	9.452507e-05	
788	-6.15000e+00	9.465534e-05	
789	-6.20000e+00	9.478443e-05	
790	-6.25000e+00	9.491240e-05	
791	-6.30000e+00	9.503925e-05	
792	-6.35000e+00	9.516503e-05	
793	-6.40000e+00	9.528977e-05	
794	-6.45000e+00	9.541349e-05	
795	-6.50000e+00	9.553623e-05	
796	-6.55000e+00	9.565801e-05	
797	-6.60000e+00	9.577887e-05	
Note: No ".plot", ".print", or ".fourier" lines; no simulations run
