
Note: Compatibility modes selected: hs

Warning: m=xx on .subckt line will override multiplier m hierarchy!


Circuit: ***************************

Doing analysis at TEMP = 125.000000 and TNOM = 125.000000


No. of Data Rows : 798
                          ***************************
                          DC transfer characteristic  Mon Jan  9 13:57:53  2023
--------------------------------------------------------------------------------
Index   v-sweep         i(vds)          
--------------------------------------------------------------------------------
0	0.000000e+00	0.000000e+00	
1	-5.00000e-02	2.889785e-08	
2	-1.00000e-01	4.401618e-08	
3	-1.50000e-01	5.246577e-08	
4	-2.00000e-01	5.648080e-08	
5	-2.50000e-01	5.791227e-08	
6	-3.00000e-01	5.837161e-08	
7	-3.50000e-01	5.854932e-08	
8	-4.00000e-01	5.863864e-08	
9	-4.50000e-01	5.869435e-08	
10	-5.00000e-01	5.873483e-08	
11	-5.50000e-01	5.876740e-08	
12	-6.00000e-01	5.879540e-08	
13	-6.50000e-01	5.882049e-08	
14	-7.00000e-01	5.884363e-08	
15	-7.50000e-01	5.886537e-08	
16	-8.00000e-01	5.888607e-08	
17	-8.50000e-01	5.890594e-08	
18	-9.00000e-01	5.892516e-08	
19	-9.50000e-01	5.894383e-08	
20	-1.00000e+00	5.896205e-08	
21	-1.05000e+00	5.897988e-08	
22	-1.10000e+00	5.899738e-08	
23	-1.15000e+00	5.901457e-08	
24	-1.20000e+00	5.903149e-08	
25	-1.25000e+00	5.904817e-08	
26	-1.30000e+00	5.906464e-08	
27	-1.35000e+00	5.908090e-08	
28	-1.40000e+00	5.909699e-08	
29	-1.45000e+00	5.911291e-08	
30	-1.50000e+00	5.912867e-08	
31	-1.55000e+00	5.914429e-08	
32	-1.60000e+00	5.915977e-08	
33	-1.65000e+00	5.917513e-08	
34	-1.70000e+00	5.919036e-08	
35	-1.75000e+00	5.920549e-08	
36	-1.80000e+00	5.922052e-08	
37	-1.85000e+00	5.923544e-08	
38	-1.90000e+00	5.925027e-08	
39	-1.95000e+00	5.926501e-08	
40	-2.00000e+00	5.927967e-08	
41	-2.05000e+00	5.929425e-08	
42	-2.10000e+00	5.930875e-08	
43	-2.15000e+00	5.932317e-08	
44	-2.20000e+00	5.933753e-08	
45	-2.25000e+00	5.935182e-08	
46	-2.30000e+00	5.936605e-08	
47	-2.35000e+00	5.938022e-08	
48	-2.40000e+00	5.939432e-08	
49	-2.45000e+00	5.940838e-08	
50	-2.50000e+00	5.942237e-08	
51	-2.55000e+00	5.943632e-08	
52	-2.60000e+00	5.945022e-08	
53	-2.65000e+00	5.946406e-08	
54	-2.70000e+00	5.947787e-08	

Index   v-sweep         i(vds)          
--------------------------------------------------------------------------------
55	-2.75000e+00	5.949163e-08	
56	-2.80000e+00	5.950534e-08	
57	-2.85000e+00	5.951902e-08	
58	-2.90000e+00	5.953266e-08	
59	-2.95000e+00	5.954627e-08	
60	-3.00000e+00	5.955984e-08	
61	-3.05000e+00	5.957339e-08	
62	-3.10000e+00	5.958691e-08	
63	-3.15000e+00	5.960041e-08	
64	-3.20000e+00	5.961389e-08	
65	-3.25000e+00	5.962736e-08	
66	-3.30000e+00	5.964082e-08	
67	-3.35000e+00	5.965429e-08	
68	-3.40000e+00	5.966777e-08	
69	-3.45000e+00	5.968128e-08	
70	-3.50000e+00	5.969482e-08	
71	-3.55000e+00	5.970840e-08	
72	-3.60000e+00	5.972206e-08	
73	-3.65000e+00	5.973580e-08	
74	-3.70000e+00	5.974964e-08	
75	-3.75000e+00	5.976362e-08	
76	-3.80000e+00	5.977775e-08	
77	-3.85000e+00	5.979208e-08	
78	-3.90000e+00	5.980663e-08	
79	-3.95000e+00	5.982146e-08	
80	-4.00000e+00	5.983660e-08	
81	-4.05000e+00	5.985211e-08	
82	-4.10000e+00	5.986804e-08	
83	-4.15000e+00	5.988446e-08	
84	-4.20000e+00	5.990144e-08	
85	-4.25000e+00	5.991905e-08	
86	-4.30000e+00	5.993739e-08	
87	-4.35000e+00	5.995653e-08	
88	-4.40000e+00	5.997659e-08	
89	-4.45000e+00	5.999768e-08	
90	-4.50000e+00	6.001991e-08	
91	-4.55000e+00	6.004342e-08	
92	-4.60000e+00	6.006834e-08	
93	-4.65000e+00	6.009483e-08	
94	-4.70000e+00	6.012305e-08	
95	-4.75000e+00	6.015316e-08	
96	-4.80000e+00	6.018537e-08	
97	-4.85000e+00	6.021986e-08	
98	-4.90000e+00	6.025685e-08	
99	-4.95000e+00	6.029656e-08	
100	-5.00000e+00	6.033923e-08	
101	-5.05000e+00	6.038512e-08	
102	-5.10000e+00	6.043449e-08	
103	-5.15000e+00	6.048761e-08	
104	-5.20000e+00	6.054480e-08	
105	-5.25000e+00	6.060636e-08	
106	-5.30000e+00	6.067261e-08	
107	-5.35000e+00	6.074391e-08	
108	-5.40000e+00	6.082060e-08	
109	-5.45000e+00	6.090307e-08	
110	-5.50000e+00	6.099171e-08	
111	-5.55000e+00	6.108693e-08	
112	-5.60000e+00	6.118915e-08	

Index   v-sweep         i(vds)          
--------------------------------------------------------------------------------
113	-5.65000e+00	6.129881e-08	
114	-5.70000e+00	6.141638e-08	
115	-5.75000e+00	6.154234e-08	
116	-5.80000e+00	6.167716e-08	
117	-5.85000e+00	6.182137e-08	
118	-5.90000e+00	6.197550e-08	
119	-5.95000e+00	6.214009e-08	
120	-6.00000e+00	6.231570e-08	
121	-6.05000e+00	6.250291e-08	
122	-6.10000e+00	6.270233e-08	
123	-6.15000e+00	6.291456e-08	
124	-6.20000e+00	6.314023e-08	
125	-6.25000e+00	6.338000e-08	
126	-6.30000e+00	6.363452e-08	
127	-6.35000e+00	6.390449e-08	
128	-6.40000e+00	6.419059e-08	
129	-6.45000e+00	6.449355e-08	
130	-6.50000e+00	6.481408e-08	
131	-6.55000e+00	6.515295e-08	
132	-6.60000e+00	6.551090e-08	
133	0.000000e+00	0.000000e+00	
134	-5.00000e-02	1.058838e-07	
135	-1.00000e-01	1.973763e-07	
136	-1.50000e-01	2.814165e-07	
137	-2.00000e-01	3.596223e-07	
138	-2.50000e-01	4.323725e-07	
139	-3.00000e-01	4.997580e-07	
140	-3.50000e-01	5.618030e-07	
141	-4.00000e-01	6.185172e-07	
142	-4.50000e-01	6.699086e-07	
143	-5.00000e-01	7.159867e-07	
144	-5.50000e-01	7.567660e-07	
145	-6.00000e-01	7.922690e-07	
146	-6.50000e-01	8.225337e-07	
147	-7.00000e-01	8.476273e-07	
148	-7.50000e-01	8.676741e-07	
149	-8.00000e-01	8.829086e-07	
150	-8.50000e-01	8.937618e-07	
151	-9.00000e-01	9.009456e-07	
152	-9.50000e-01	9.054165e-07	
153	-1.00000e+00	9.081453e-07	
154	-1.05000e+00	9.098721e-07	
155	-1.10000e+00	9.110501e-07	
156	-1.15000e+00	9.119255e-07	
157	-1.20000e+00	9.126273e-07	
158	-1.25000e+00	9.132239e-07	
159	-1.30000e+00	9.137533e-07	
160	-1.35000e+00	9.142371e-07	
161	-1.40000e+00	9.146887e-07	
162	-1.45000e+00	9.151165e-07	
163	-1.50000e+00	9.155259e-07	
164	-1.55000e+00	9.159209e-07	
165	-1.60000e+00	9.163040e-07	
166	-1.65000e+00	9.166773e-07	
167	-1.70000e+00	9.170422e-07	
168	-1.75000e+00	9.173998e-07	
169	-1.80000e+00	9.177512e-07	
170	-1.85000e+00	9.180969e-07	

Index   v-sweep         i(vds)          
--------------------------------------------------------------------------------
171	-1.90000e+00	9.184376e-07	
172	-1.95000e+00	9.187738e-07	
173	-2.00000e+00	9.191058e-07	
174	-2.05000e+00	9.194341e-07	
175	-2.10000e+00	9.197590e-07	
176	-2.15000e+00	9.200806e-07	
177	-2.20000e+00	9.203993e-07	
178	-2.25000e+00	9.207152e-07	
179	-2.30000e+00	9.210285e-07	
180	-2.35000e+00	9.213394e-07	
181	-2.40000e+00	9.216480e-07	
182	-2.45000e+00	9.219544e-07	
183	-2.50000e+00	9.222589e-07	
184	-2.55000e+00	9.225614e-07	
185	-2.60000e+00	9.228621e-07	
186	-2.65000e+00	9.231611e-07	
187	-2.70000e+00	9.234584e-07	
188	-2.75000e+00	9.237542e-07	
189	-2.80000e+00	9.240484e-07	
190	-2.85000e+00	9.243413e-07	
191	-2.90000e+00	9.246328e-07	
192	-2.95000e+00	9.249229e-07	
193	-3.00000e+00	9.252119e-07	
194	-3.05000e+00	9.254996e-07	
195	-3.10000e+00	9.257862e-07	
196	-3.15000e+00	9.260717e-07	
197	-3.20000e+00	9.263561e-07	
198	-3.25000e+00	9.266395e-07	
199	-3.30000e+00	9.269219e-07	
200	-3.35000e+00	9.272034e-07	
201	-3.40000e+00	9.274839e-07	
202	-3.45000e+00	9.277636e-07	
203	-3.50000e+00	9.280425e-07	
204	-3.55000e+00	9.283207e-07	
205	-3.60000e+00	9.285980e-07	
206	-3.65000e+00	9.288747e-07	
207	-3.70000e+00	9.291508e-07	
208	-3.75000e+00	9.294263e-07	
209	-3.80000e+00	9.297013e-07	
210	-3.85000e+00	9.299759e-07	
211	-3.90000e+00	9.302502e-07	
212	-3.95000e+00	9.305242e-07	
213	-4.00000e+00	9.307982e-07	
214	-4.05000e+00	9.310723e-07	
215	-4.10000e+00	9.313467e-07	
216	-4.15000e+00	9.316216e-07	
217	-4.20000e+00	9.318972e-07	
218	-4.25000e+00	9.321738e-07	
219	-4.30000e+00	9.324518e-07	
220	-4.35000e+00	9.327316e-07	
221	-4.40000e+00	9.330136e-07	
222	-4.45000e+00	9.332984e-07	
223	-4.50000e+00	9.335864e-07	
224	-4.55000e+00	9.338785e-07	
225	-4.60000e+00	9.341753e-07	
226	-4.65000e+00	9.344776e-07	
227	-4.70000e+00	9.347866e-07	
228	-4.75000e+00	9.351031e-07	

Index   v-sweep         i(vds)          
--------------------------------------------------------------------------------
229	-4.80000e+00	9.354284e-07	
230	-4.85000e+00	9.357638e-07	
231	-4.90000e+00	9.361108e-07	
232	-4.95000e+00	9.364709e-07	
233	-5.00000e+00	9.368459e-07	
234	-5.05000e+00	9.372377e-07	
235	-5.10000e+00	9.376484e-07	
236	-5.15000e+00	9.380803e-07	
237	-5.20000e+00	9.385359e-07	
238	-5.25000e+00	9.390179e-07	
239	-5.30000e+00	9.395291e-07	
240	-5.35000e+00	9.400727e-07	
241	-5.40000e+00	9.406520e-07	
242	-5.45000e+00	9.412706e-07	
243	-5.50000e+00	9.419323e-07	
244	-5.55000e+00	9.426413e-07	
245	-5.60000e+00	9.434019e-07	
246	-5.65000e+00	9.442188e-07	
247	-5.70000e+00	9.450968e-07	
248	-5.75000e+00	9.460413e-07	
249	-5.80000e+00	9.470576e-07	
250	-5.85000e+00	9.481517e-07	
251	-5.90000e+00	9.493296e-07	
252	-5.95000e+00	9.505978e-07	
253	-6.00000e+00	9.519631e-07	
254	-6.05000e+00	9.534325e-07	
255	-6.10000e+00	9.550135e-07	
256	-6.15000e+00	9.567139e-07	
257	-6.20000e+00	9.585416e-07	
258	-6.25000e+00	9.605053e-07	
259	-6.30000e+00	9.626136e-07	
260	-6.35000e+00	9.648757e-07	
261	-6.40000e+00	9.673012e-07	
262	-6.45000e+00	9.698998e-07	
263	-6.50000e+00	9.726817e-07	
264	-6.55000e+00	9.756575e-07	
265	-6.60000e+00	9.788382e-07	
266	0.000000e+00	0.000000e+00	
267	-5.00000e-02	1.727755e-07	
268	-1.00000e-01	3.314615e-07	
269	-1.50000e-01	4.829965e-07	
270	-2.00000e-01	6.289973e-07	
271	-2.50000e-01	7.698415e-07	
272	-3.00000e-01	9.056182e-07	
273	-3.50000e-01	1.036349e-06	
274	-4.00000e-01	1.162041e-06	
275	-4.50000e-01	1.282697e-06	
276	-5.00000e-01	1.398318e-06	
277	-5.50000e-01	1.508907e-06	
278	-6.00000e-01	1.614465e-06	
279	-6.50000e-01	1.714994e-06	
280	-7.00000e-01	1.810497e-06	
281	-7.50000e-01	1.900976e-06	
282	-8.00000e-01	1.986434e-06	
283	-8.50000e-01	2.066873e-06	
284	-9.00000e-01	2.142298e-06	
285	-9.50000e-01	2.212713e-06	
286	-1.00000e+00	2.278123e-06	

Index   v-sweep         i(vds)          
--------------------------------------------------------------------------------
287	-1.05000e+00	2.338536e-06	
288	-1.10000e+00	2.393960e-06	
289	-1.15000e+00	2.444409e-06	
290	-1.20000e+00	2.489901e-06	
291	-1.25000e+00	2.530463e-06	
292	-1.30000e+00	2.566134e-06	
293	-1.35000e+00	2.596977e-06	
294	-1.40000e+00	2.623089e-06	
295	-1.45000e+00	2.644629e-06	
296	-1.50000e+00	2.661848e-06	
297	-1.55000e+00	2.675128e-06	
298	-1.60000e+00	2.685011e-06	
299	-1.65000e+00	2.692171e-06	
300	-1.70000e+00	2.697320e-06	
301	-1.75000e+00	2.701087e-06	
302	-1.80000e+00	2.703953e-06	
303	-1.85000e+00	2.706242e-06	
304	-1.90000e+00	2.708161e-06	
305	-1.95000e+00	2.709837e-06	
306	-2.00000e+00	2.711348e-06	
307	-2.05000e+00	2.712744e-06	
308	-2.10000e+00	2.714055e-06	
309	-2.15000e+00	2.715302e-06	
310	-2.20000e+00	2.716500e-06	
311	-2.25000e+00	2.717658e-06	
312	-2.30000e+00	2.718784e-06	
313	-2.35000e+00	2.719883e-06	
314	-2.40000e+00	2.720959e-06	
315	-2.45000e+00	2.722014e-06	
316	-2.50000e+00	2.723052e-06	
317	-2.55000e+00	2.724074e-06	
318	-2.60000e+00	2.725082e-06	
319	-2.65000e+00	2.726078e-06	
320	-2.70000e+00	2.727062e-06	
321	-2.75000e+00	2.728035e-06	
322	-2.80000e+00	2.728999e-06	
323	-2.85000e+00	2.729954e-06	
324	-2.90000e+00	2.730900e-06	
325	-2.95000e+00	2.731838e-06	
326	-3.00000e+00	2.732769e-06	
327	-3.05000e+00	2.733693e-06	
328	-3.10000e+00	2.734611e-06	
329	-3.15000e+00	2.735523e-06	
330	-3.20000e+00	2.736428e-06	
331	-3.25000e+00	2.737329e-06	
332	-3.30000e+00	2.738224e-06	
333	-3.35000e+00	2.739114e-06	
334	-3.40000e+00	2.740000e-06	
335	-3.45000e+00	2.740881e-06	
336	-3.50000e+00	2.741757e-06	
337	-3.55000e+00	2.742630e-06	
338	-3.60000e+00	2.743499e-06	
339	-3.65000e+00	2.744364e-06	
340	-3.70000e+00	2.745225e-06	
341	-3.75000e+00	2.746083e-06	
342	-3.80000e+00	2.746938e-06	
343	-3.85000e+00	2.747789e-06	
344	-3.90000e+00	2.748638e-06	

Index   v-sweep         i(vds)          
--------------------------------------------------------------------------------
345	-3.95000e+00	2.749483e-06	
346	-4.00000e+00	2.750326e-06	
347	-4.05000e+00	2.751166e-06	
348	-4.10000e+00	2.752003e-06	
349	-4.15000e+00	2.752838e-06	
350	-4.20000e+00	2.753670e-06	
351	-4.25000e+00	2.754501e-06	
352	-4.30000e+00	2.755329e-06	
353	-4.35000e+00	2.756155e-06	
354	-4.40000e+00	2.756979e-06	
355	-4.45000e+00	2.757801e-06	
356	-4.50000e+00	2.758622e-06	
357	-4.55000e+00	2.759442e-06	
358	-4.60000e+00	2.760261e-06	
359	-4.65000e+00	2.761080e-06	
360	-4.70000e+00	2.761898e-06	
361	-4.75000e+00	2.762716e-06	
362	-4.80000e+00	2.763535e-06	
363	-4.85000e+00	2.764355e-06	
364	-4.90000e+00	2.765178e-06	
365	-4.95000e+00	2.766003e-06	
366	-5.00000e+00	2.766832e-06	
367	-5.05000e+00	2.767667e-06	
368	-5.10000e+00	2.768507e-06	
369	-5.15000e+00	2.769356e-06	
370	-5.20000e+00	2.770214e-06	
371	-5.25000e+00	2.771083e-06	
372	-5.30000e+00	2.771967e-06	
373	-5.35000e+00	2.772866e-06	
374	-5.40000e+00	2.773784e-06	
375	-5.45000e+00	2.774724e-06	
376	-5.50000e+00	2.775690e-06	
377	-5.55000e+00	2.776684e-06	
378	-5.60000e+00	2.777713e-06	
379	-5.65000e+00	2.778779e-06	
380	-5.70000e+00	2.779889e-06	
381	-5.75000e+00	2.781047e-06	
382	-5.80000e+00	2.782261e-06	
383	-5.85000e+00	2.783537e-06	
384	-5.90000e+00	2.784881e-06	
385	-5.95000e+00	2.786302e-06	
386	-6.00000e+00	2.787809e-06	
387	-6.05000e+00	2.789410e-06	
388	-6.10000e+00	2.791116e-06	
389	-6.15000e+00	2.792936e-06	
390	-6.20000e+00	2.794883e-06	
391	-6.25000e+00	2.796968e-06	
392	-6.30000e+00	2.799205e-06	
393	-6.35000e+00	2.801606e-06	
394	-6.40000e+00	2.804187e-06	
395	-6.45000e+00	2.806963e-06	
396	-6.50000e+00	2.809950e-06	
397	-6.55000e+00	2.813165e-06	
398	-6.60000e+00	2.816627e-06	
399	0.000000e+00	0.000000e+00	
400	-5.00000e-02	2.324594e-07	
401	-1.00000e-01	4.511333e-07	
402	-1.50000e-01	6.629601e-07	

Index   v-sweep         i(vds)          
--------------------------------------------------------------------------------
403	-2.00000e-01	8.695563e-07	
404	-2.50000e-01	1.071299e-06	
405	-3.00000e-01	1.268278e-06	
406	-3.50000e-01	1.460514e-06	
407	-4.00000e-01	1.648013e-06	
408	-4.50000e-01	1.830778e-06	
409	-5.00000e-01	2.008811e-06	
410	-5.50000e-01	2.182112e-06	
411	-6.00000e-01	2.350683e-06	
412	-6.50000e-01	2.514526e-06	
413	-7.00000e-01	2.673641e-06	
414	-7.50000e-01	2.828031e-06	
415	-8.00000e-01	2.977696e-06	
416	-8.50000e-01	3.122638e-06	
417	-9.00000e-01	3.262858e-06	
418	-9.50000e-01	3.398358e-06	
419	-1.00000e+00	3.529140e-06	
420	-1.05000e+00	3.655205e-06	
421	-1.10000e+00	3.776555e-06	
422	-1.15000e+00	3.893191e-06	
423	-1.20000e+00	4.005116e-06	
424	-1.25000e+00	4.112331e-06	
425	-1.30000e+00	4.214838e-06	
426	-1.35000e+00	4.312641e-06	
427	-1.40000e+00	4.405741e-06	
428	-1.45000e+00	4.494142e-06	
429	-1.50000e+00	4.577848e-06	
430	-1.55000e+00	4.656861e-06	
431	-1.60000e+00	4.731187e-06	
432	-1.65000e+00	4.800833e-06	
433	-1.70000e+00	4.865805e-06	
434	-1.75000e+00	4.926114e-06	
435	-1.80000e+00	4.981771e-06	
436	-1.85000e+00	5.032795e-06	
437	-1.90000e+00	5.079206e-06	
438	-1.95000e+00	5.121039e-06	
439	-2.00000e+00	5.158340e-06	
440	-2.05000e+00	5.191174e-06	
441	-2.10000e+00	5.219640e-06	
442	-2.15000e+00	5.243883e-06	
443	-2.20000e+00	5.264112e-06	
444	-2.25000e+00	5.280626e-06	
445	-2.30000e+00	5.293825e-06	
446	-2.35000e+00	5.304204e-06	
447	-2.40000e+00	5.312314e-06	
448	-2.45000e+00	5.318698e-06	
449	-2.50000e+00	5.323831e-06	
450	-2.55000e+00	5.328085e-06	
451	-2.60000e+00	5.331729e-06	
452	-2.65000e+00	5.334950e-06	
453	-2.70000e+00	5.337872e-06	
454	-2.75000e+00	5.340580e-06	
455	-2.80000e+00	5.343130e-06	
456	-2.85000e+00	5.345558e-06	
457	-2.90000e+00	5.347892e-06	
458	-2.95000e+00	5.350151e-06	
459	-3.00000e+00	5.352348e-06	
460	-3.05000e+00	5.354494e-06	

Index   v-sweep         i(vds)          
--------------------------------------------------------------------------------
461	-3.10000e+00	5.356595e-06	
462	-3.15000e+00	5.358658e-06	
463	-3.20000e+00	5.360687e-06	
464	-3.25000e+00	5.362687e-06	
465	-3.30000e+00	5.364661e-06	
466	-3.35000e+00	5.366610e-06	
467	-3.40000e+00	5.368537e-06	
468	-3.45000e+00	5.370444e-06	
469	-3.50000e+00	5.372333e-06	
470	-3.55000e+00	5.374205e-06	
471	-3.60000e+00	5.376060e-06	
472	-3.65000e+00	5.377901e-06	
473	-3.70000e+00	5.379728e-06	
474	-3.75000e+00	5.381542e-06	
475	-3.80000e+00	5.383343e-06	
476	-3.85000e+00	5.385133e-06	
477	-3.90000e+00	5.386912e-06	
478	-3.95000e+00	5.388680e-06	
479	-4.00000e+00	5.390439e-06	
480	-4.05000e+00	5.392188e-06	
481	-4.10000e+00	5.393928e-06	
482	-4.15000e+00	5.395659e-06	
483	-4.20000e+00	5.397382e-06	
484	-4.25000e+00	5.399098e-06	
485	-4.30000e+00	5.400806e-06	
486	-4.35000e+00	5.402506e-06	
487	-4.40000e+00	5.404200e-06	
488	-4.45000e+00	5.405888e-06	
489	-4.50000e+00	5.407568e-06	
490	-4.55000e+00	5.409243e-06	
491	-4.60000e+00	5.410912e-06	
492	-4.65000e+00	5.412575e-06	
493	-4.70000e+00	5.414233e-06	
494	-4.75000e+00	5.415886e-06	
495	-4.80000e+00	5.417533e-06	
496	-4.85000e+00	5.419176e-06	
497	-4.90000e+00	5.420814e-06	
498	-4.95000e+00	5.422447e-06	
499	-5.00000e+00	5.424077e-06	
500	-5.05000e+00	5.425702e-06	
501	-5.10000e+00	5.427324e-06	
502	-5.15000e+00	5.428943e-06	
503	-5.20000e+00	5.430559e-06	
504	-5.25000e+00	5.432172e-06	
505	-5.30000e+00	5.433783e-06	
506	-5.35000e+00	5.435393e-06	
507	-5.40000e+00	5.437001e-06	
508	-5.45000e+00	5.438610e-06	
509	-5.50000e+00	5.440220e-06	
510	-5.55000e+00	5.441832e-06	
511	-5.60000e+00	5.443447e-06	
512	-5.65000e+00	5.445067e-06	
513	-5.70000e+00	5.446694e-06	
514	-5.75000e+00	5.448330e-06	
515	-5.80000e+00	5.449976e-06	
516	-5.85000e+00	5.451637e-06	
517	-5.90000e+00	5.453314e-06	
518	-5.95000e+00	5.455012e-06	

Index   v-sweep         i(vds)          
--------------------------------------------------------------------------------
519	-6.00000e+00	5.456734e-06	
520	-6.05000e+00	5.458485e-06	
521	-6.10000e+00	5.460270e-06	
522	-6.15000e+00	5.462095e-06	
523	-6.20000e+00	5.463966e-06	
524	-6.25000e+00	5.465891e-06	
525	-6.30000e+00	5.467876e-06	
526	-6.35000e+00	5.469932e-06	
527	-6.40000e+00	5.472066e-06	
528	-6.45000e+00	5.474291e-06	
529	-6.50000e+00	5.476617e-06	
530	-6.55000e+00	5.479058e-06	
531	-6.60000e+00	5.481625e-06	
532	0.000000e+00	0.000000e+00	
533	-5.00000e-02	2.870950e-07	
534	-1.00000e-01	5.606703e-07	
535	-1.50000e-01	8.276641e-07	
536	-2.00000e-01	1.089693e-06	
537	-2.50000e-01	1.347134e-06	
538	-3.00000e-01	1.600075e-06	
539	-3.50000e-01	1.848540e-06	
540	-4.00000e-01	2.092532e-06	
541	-4.50000e-01	2.332055e-06	
542	-5.00000e-01	2.567111e-06	
543	-5.50000e-01	2.797699e-06	
544	-6.00000e-01	3.023822e-06	
545	-6.50000e-01	3.245480e-06	
546	-7.00000e-01	3.462675e-06	
547	-7.50000e-01	3.675408e-06	
548	-8.00000e-01	3.883680e-06	
549	-8.50000e-01	4.087492e-06	
550	-9.00000e-01	4.286846e-06	
551	-9.50000e-01	4.481742e-06	
552	-1.00000e+00	4.672183e-06	
553	-1.05000e+00	4.858168e-06	
554	-1.10000e+00	5.039699e-06	
555	-1.15000e+00	5.216778e-06	
556	-1.20000e+00	5.389406e-06	
557	-1.25000e+00	5.557583e-06	
558	-1.30000e+00	5.721312e-06	
559	-1.35000e+00	5.880594e-06	
560	-1.40000e+00	6.035429e-06	
561	-1.45000e+00	6.185820e-06	
562	-1.50000e+00	6.331767e-06	
563	-1.55000e+00	6.473273e-06	
564	-1.60000e+00	6.610338e-06	
565	-1.65000e+00	6.742964e-06	
566	-1.70000e+00	6.871153e-06	
567	-1.75000e+00	6.994906e-06	
568	-1.80000e+00	7.114226e-06	
569	-1.85000e+00	7.229114e-06	
570	-1.90000e+00	7.339572e-06	
571	-1.95000e+00	7.445602e-06	
572	-2.00000e+00	7.547207e-06	
573	-2.05000e+00	7.644390e-06	
574	-2.10000e+00	7.737153e-06	
575	-2.15000e+00	7.825500e-06	
576	-2.20000e+00	7.909436e-06	

Index   v-sweep         i(vds)          
--------------------------------------------------------------------------------
577	-2.25000e+00	7.988964e-06	
578	-2.30000e+00	8.064091e-06	
579	-2.35000e+00	8.134824e-06	
580	-2.40000e+00	8.201171e-06	
581	-2.45000e+00	8.263143e-06	
582	-2.50000e+00	8.320753e-06	
583	-2.55000e+00	8.374020e-06	
584	-2.60000e+00	8.422967e-06	
585	-2.65000e+00	8.467626e-06	
586	-2.70000e+00	8.508040e-06	
587	-2.75000e+00	8.544270e-06	
588	-2.80000e+00	8.576396e-06	
589	-2.85000e+00	8.604536e-06	
590	-2.90000e+00	8.628848e-06	
591	-2.95000e+00	8.649551e-06	
592	-3.00000e+00	8.666932e-06	
593	-3.05000e+00	8.681350e-06	
594	-3.10000e+00	8.693229e-06	
595	-3.15000e+00	8.703021e-06	
596	-3.20000e+00	8.711170e-06	
597	-3.25000e+00	8.718073e-06	
598	-3.30000e+00	8.724053e-06	
599	-3.35000e+00	8.729360e-06	
600	-3.40000e+00	8.734176e-06	
601	-3.45000e+00	8.738631e-06	
602	-3.50000e+00	8.742816e-06	
603	-3.55000e+00	8.746796e-06	
604	-3.60000e+00	8.750615e-06	
605	-3.65000e+00	8.754308e-06	
606	-3.70000e+00	8.757896e-06	
607	-3.75000e+00	8.761398e-06	
608	-3.80000e+00	8.764827e-06	
609	-3.85000e+00	8.768194e-06	
610	-3.90000e+00	8.771505e-06	
611	-3.95000e+00	8.774768e-06	
612	-4.00000e+00	8.777988e-06	
613	-4.05000e+00	8.781168e-06	
614	-4.10000e+00	8.784314e-06	
615	-4.15000e+00	8.787426e-06	
616	-4.20000e+00	8.790509e-06	
617	-4.25000e+00	8.793565e-06	
618	-4.30000e+00	8.796594e-06	
619	-4.35000e+00	8.799600e-06	
620	-4.40000e+00	8.802583e-06	
621	-4.45000e+00	8.805545e-06	
622	-4.50000e+00	8.808488e-06	
623	-4.55000e+00	8.811411e-06	
624	-4.60000e+00	8.814317e-06	
625	-4.65000e+00	8.817206e-06	
626	-4.70000e+00	8.820080e-06	
627	-4.75000e+00	8.822938e-06	
628	-4.80000e+00	8.825781e-06	
629	-4.85000e+00	8.828611e-06	
630	-4.90000e+00	8.831427e-06	
631	-4.95000e+00	8.834231e-06	
632	-5.00000e+00	8.837023e-06	
633	-5.05000e+00	8.839803e-06	
634	-5.10000e+00	8.842572e-06	

Index   v-sweep         i(vds)          
--------------------------------------------------------------------------------
635	-5.15000e+00	8.845331e-06	
636	-5.20000e+00	8.848079e-06	
637	-5.25000e+00	8.850817e-06	
638	-5.30000e+00	8.853546e-06	
639	-5.35000e+00	8.856265e-06	
640	-5.40000e+00	8.858976e-06	
641	-5.45000e+00	8.861678e-06	
642	-5.50000e+00	8.864372e-06	
643	-5.55000e+00	8.867058e-06	
644	-5.60000e+00	8.869737e-06	
645	-5.65000e+00	8.872409e-06	
646	-5.70000e+00	8.875073e-06	
647	-5.75000e+00	8.877731e-06	
648	-5.80000e+00	8.880383e-06	
649	-5.85000e+00	8.883030e-06	
650	-5.90000e+00	8.885671e-06	
651	-5.95000e+00	8.888308e-06	
652	-6.00000e+00	8.890940e-06	
653	-6.05000e+00	8.893570e-06	
654	-6.10000e+00	8.896198e-06	
655	-6.15000e+00	8.898825e-06	
656	-6.20000e+00	8.901452e-06	
657	-6.25000e+00	8.904081e-06	
658	-6.30000e+00	8.906713e-06	
659	-6.35000e+00	8.909352e-06	
660	-6.40000e+00	8.911999e-06	
661	-6.45000e+00	8.914657e-06	
662	-6.50000e+00	8.917330e-06	
663	-6.55000e+00	8.920022e-06	
664	-6.60000e+00	8.922736e-06	
665	0.000000e+00	0.000000e+00	
666	-5.00000e-02	3.382040e-07	
667	-1.00000e-01	6.631156e-07	
668	-1.50000e-01	9.816730e-07	
669	-2.00000e-01	1.295493e-06	
670	-2.50000e-01	1.604951e-06	
671	-3.00000e-01	1.910138e-06	
672	-3.50000e-01	2.211074e-06	
673	-4.00000e-01	2.507766e-06	
674	-4.50000e-01	2.800214e-06	
675	-5.00000e-01	3.088422e-06	
676	-5.50000e-01	3.372389e-06	
677	-6.00000e-01	3.652117e-06	
678	-6.50000e-01	3.927606e-06	
679	-7.00000e-01	4.198859e-06	
680	-7.50000e-01	4.465876e-06	
681	-8.00000e-01	4.728658e-06	
682	-8.50000e-01	4.987206e-06	
683	-9.00000e-01	5.241521e-06	
684	-9.50000e-01	5.491604e-06	
685	-1.00000e+00	5.737457e-06	
686	-1.05000e+00	5.979080e-06	
687	-1.10000e+00	6.216475e-06	
688	-1.15000e+00	6.449642e-06	
689	-1.20000e+00	6.678583e-06	
690	-1.25000e+00	6.903299e-06	
691	-1.30000e+00	7.123790e-06	
692	-1.35000e+00	7.340058e-06	

Index   v-sweep         i(vds)          
--------------------------------------------------------------------------------
693	-1.40000e+00	7.552105e-06	
694	-1.45000e+00	7.759930e-06	
695	-1.50000e+00	7.963536e-06	
696	-1.55000e+00	8.162923e-06	
697	-1.60000e+00	8.358092e-06	
698	-1.65000e+00	8.549046e-06	
699	-1.70000e+00	8.735783e-06	
700	-1.75000e+00	8.918307e-06	
701	-1.80000e+00	9.096618e-06	
702	-1.85000e+00	9.270718e-06	
703	-1.90000e+00	9.440607e-06	
704	-1.95000e+00	9.606286e-06	
705	-2.00000e+00	9.767758e-06	
706	-2.05000e+00	9.925023e-06	
707	-2.10000e+00	1.007808e-05	
708	-2.15000e+00	1.022694e-05	
709	-2.20000e+00	1.037159e-05	
710	-2.25000e+00	1.051204e-05	
711	-2.30000e+00	1.064830e-05	
712	-2.35000e+00	1.078035e-05	
713	-2.40000e+00	1.090821e-05	
714	-2.45000e+00	1.103187e-05	
715	-2.50000e+00	1.115134e-05	
716	-2.55000e+00	1.126662e-05	
717	-2.60000e+00	1.137771e-05	
718	-2.65000e+00	1.148462e-05	
719	-2.70000e+00	1.158734e-05	
720	-2.75000e+00	1.168588e-05	
721	-2.80000e+00	1.178025e-05	
722	-2.85000e+00	1.187044e-05	
723	-2.90000e+00	1.195646e-05	
724	-2.95000e+00	1.203831e-05	
725	-3.00000e+00	1.211601e-05	
726	-3.05000e+00	1.218956e-05	
727	-3.10000e+00	1.225896e-05	
728	-3.15000e+00	1.232424e-05	
729	-3.20000e+00	1.238539e-05	
730	-3.25000e+00	1.244244e-05	
731	-3.30000e+00	1.249541e-05	
732	-3.35000e+00	1.254433e-05	
733	-3.40000e+00	1.258923e-05	
734	-3.45000e+00	1.263016e-05	
735	-3.50000e+00	1.266719e-05	
736	-3.55000e+00	1.270040e-05	
737	-3.60000e+00	1.272990e-05	
738	-3.65000e+00	1.275584e-05	
739	-3.70000e+00	1.277843e-05	
740	-3.75000e+00	1.279791e-05	
741	-3.80000e+00	1.281460e-05	
742	-3.85000e+00	1.282883e-05	
743	-3.90000e+00	1.284100e-05	
744	-3.95000e+00	1.285149e-05	
745	-4.00000e+00	1.286064e-05	
746	-4.05000e+00	1.286877e-05	
747	-4.10000e+00	1.287611e-05	
748	-4.15000e+00	1.288287e-05	
749	-4.20000e+00	1.288918e-05	
750	-4.25000e+00	1.289515e-05	

Index   v-sweep         i(vds)          
--------------------------------------------------------------------------------
751	-4.30000e+00	1.290086e-05	
752	-4.35000e+00	1.290635e-05	
753	-4.40000e+00	1.291168e-05	
754	-4.45000e+00	1.291687e-05	
755	-4.50000e+00	1.292195e-05	
756	-4.55000e+00	1.292693e-05	
757	-4.60000e+00	1.293182e-05	
758	-4.65000e+00	1.293664e-05	
759	-4.70000e+00	1.294139e-05	
760	-4.75000e+00	1.294609e-05	
761	-4.80000e+00	1.295073e-05	
762	-4.85000e+00	1.295532e-05	
763	-4.90000e+00	1.295987e-05	
764	-4.95000e+00	1.296437e-05	
765	-5.00000e+00	1.296884e-05	
766	-5.05000e+00	1.297327e-05	
767	-5.10000e+00	1.297767e-05	
768	-5.15000e+00	1.298204e-05	
769	-5.20000e+00	1.298638e-05	
770	-5.25000e+00	1.299069e-05	
771	-5.30000e+00	1.299498e-05	
772	-5.35000e+00	1.299924e-05	
773	-5.40000e+00	1.300348e-05	
774	-5.45000e+00	1.300769e-05	
775	-5.50000e+00	1.301188e-05	
776	-5.55000e+00	1.301606e-05	
777	-5.60000e+00	1.302021e-05	
778	-5.65000e+00	1.302435e-05	
779	-5.70000e+00	1.302846e-05	
780	-5.75000e+00	1.303256e-05	
781	-5.80000e+00	1.303665e-05	
782	-5.85000e+00	1.304072e-05	
783	-5.90000e+00	1.304477e-05	
784	-5.95000e+00	1.304881e-05	
785	-6.00000e+00	1.305283e-05	
786	-6.05000e+00	1.305684e-05	
787	-6.10000e+00	1.306084e-05	
788	-6.15000e+00	1.306482e-05	
789	-6.20000e+00	1.306880e-05	
790	-6.25000e+00	1.307276e-05	
791	-6.30000e+00	1.307671e-05	
792	-6.35000e+00	1.308065e-05	
793	-6.40000e+00	1.308458e-05	
794	-6.45000e+00	1.308850e-05	
795	-6.50000e+00	1.309241e-05	
796	-6.55000e+00	1.309631e-05	
797	-6.60000e+00	1.310020e-05	
Note: No ".plot", ".print", or ".fourier" lines; no simulations run
