
Note: Compatibility modes selected: hs

Warning: m=xx on .subckt line will override multiplier m hierarchy!


Circuit: ***************************

Doing analysis at TEMP = 25.000000 and TNOM = 25.000000


No. of Data Rows : 798
                          ***************************
                          DC transfer characteristic  Mon Jan  9 13:57:53  2023
--------------------------------------------------------------------------------
Index   v-sweep         i(vds)          
--------------------------------------------------------------------------------
0	0.000000e+00	0.000000e+00	
1	-5.00000e-02	1.807355e-06	
2	-1.00000e-01	2.948340e-06	
3	-1.50000e-01	3.511898e-06	
4	-2.00000e-01	3.723553e-06	
5	-2.50000e-01	3.815030e-06	
6	-3.00000e-01	3.874887e-06	
7	-3.50000e-01	3.924122e-06	
8	-4.00000e-01	3.968317e-06	
9	-4.50000e-01	4.009441e-06	
10	-5.00000e-01	4.048390e-06	
11	-5.50000e-01	4.085660e-06	
12	-6.00000e-01	4.121566e-06	
13	-6.50000e-01	4.156329e-06	
14	-7.00000e-01	4.190114e-06	
15	-7.50000e-01	4.223049e-06	
16	-8.00000e-01	4.255236e-06	
17	-8.50000e-01	4.286763e-06	
18	-9.00000e-01	4.317699e-06	
19	-9.50000e-01	4.348106e-06	
20	-1.00000e+00	4.378035e-06	
21	-1.05000e+00	4.407531e-06	
22	-1.10000e+00	4.436635e-06	
23	-1.15000e+00	4.465381e-06	
24	-1.20000e+00	4.493799e-06	
25	-1.25000e+00	4.521916e-06	
26	-1.30000e+00	4.549758e-06	
27	-1.35000e+00	4.577347e-06	
28	-1.40000e+00	4.604701e-06	
29	-1.45000e+00	4.631838e-06	
30	-1.50000e+00	4.658776e-06	
31	-1.55000e+00	4.685528e-06	
32	-1.60000e+00	4.712109e-06	
33	-1.65000e+00	4.738530e-06	
34	-1.70000e+00	4.764803e-06	
35	-1.75000e+00	4.790938e-06	
36	-1.80000e+00	4.816945e-06	
37	-1.85000e+00	4.842833e-06	
38	-1.90000e+00	4.868610e-06	
39	-1.95000e+00	4.894283e-06	
40	-2.00000e+00	4.919860e-06	
41	-2.05000e+00	4.945348e-06	
42	-2.10000e+00	4.970752e-06	
43	-2.15000e+00	4.996077e-06	
44	-2.20000e+00	5.021331e-06	
45	-2.25000e+00	5.046517e-06	
46	-2.30000e+00	5.071640e-06	
47	-2.35000e+00	5.096705e-06	
48	-2.40000e+00	5.121716e-06	
49	-2.45000e+00	5.146676e-06	
50	-2.50000e+00	5.171590e-06	
51	-2.55000e+00	5.196461e-06	
52	-2.60000e+00	5.221293e-06	
53	-2.65000e+00	5.246088e-06	
54	-2.70000e+00	5.270849e-06	

Index   v-sweep         i(vds)          
--------------------------------------------------------------------------------
55	-2.75000e+00	5.295580e-06	
56	-2.80000e+00	5.320282e-06	
57	-2.85000e+00	5.344960e-06	
58	-2.90000e+00	5.369614e-06	
59	-2.95000e+00	5.394249e-06	
60	-3.00000e+00	5.418865e-06	
61	-3.05000e+00	5.443466e-06	
62	-3.10000e+00	5.468054e-06	
63	-3.15000e+00	5.492631e-06	
64	-3.20000e+00	5.517200e-06	
65	-3.25000e+00	5.541762e-06	
66	-3.30000e+00	5.566322e-06	
67	-3.35000e+00	5.590880e-06	
68	-3.40000e+00	5.615441e-06	
69	-3.45000e+00	5.640007e-06	
70	-3.50000e+00	5.664582e-06	
71	-3.55000e+00	5.689168e-06	
72	-3.60000e+00	5.713770e-06	
73	-3.65000e+00	5.738392e-06	
74	-3.70000e+00	5.763039e-06	
75	-3.75000e+00	5.787716e-06	
76	-3.80000e+00	5.812428e-06	
77	-3.85000e+00	5.837182e-06	
78	-3.90000e+00	5.861985e-06	
79	-3.95000e+00	5.886844e-06	
80	-4.00000e+00	5.911767e-06	
81	-4.05000e+00	5.936766e-06	
82	-4.10000e+00	5.961848e-06	
83	-4.15000e+00	5.987027e-06	
84	-4.20000e+00	6.012314e-06	
85	-4.25000e+00	6.037724e-06	
86	-4.30000e+00	6.063270e-06	
87	-4.35000e+00	6.088970e-06	
88	-4.40000e+00	6.114842e-06	
89	-4.45000e+00	6.140904e-06	
90	-4.50000e+00	6.167178e-06	
91	-4.55000e+00	6.193687e-06	
92	-4.60000e+00	6.220456e-06	
93	-4.65000e+00	6.247510e-06	
94	-4.70000e+00	6.274879e-06	
95	-4.75000e+00	6.302593e-06	
96	-4.80000e+00	6.330686e-06	
97	-4.85000e+00	6.359192e-06	
98	-4.90000e+00	6.388150e-06	
99	-4.95000e+00	6.417599e-06	
100	-5.00000e+00	6.447583e-06	
101	-5.05000e+00	6.478147e-06	
102	-5.10000e+00	6.509338e-06	
103	-5.15000e+00	6.541209e-06	
104	-5.20000e+00	6.573813e-06	
105	-5.25000e+00	6.607207e-06	
106	-5.30000e+00	6.641452e-06	
107	-5.35000e+00	6.676611e-06	
108	-5.40000e+00	6.712750e-06	
109	-5.45000e+00	6.749940e-06	
110	-5.50000e+00	6.788254e-06	
111	-5.55000e+00	6.827769e-06	
112	-5.60000e+00	6.868565e-06	

Index   v-sweep         i(vds)          
--------------------------------------------------------------------------------
113	-5.65000e+00	6.910727e-06	
114	-5.70000e+00	6.954341e-06	
115	-5.75000e+00	6.999500e-06	
116	-5.80000e+00	7.046300e-06	
117	-5.85000e+00	7.094838e-06	
118	-5.90000e+00	7.145218e-06	
119	-5.95000e+00	7.197547e-06	
120	-6.00000e+00	7.251936e-06	
121	-6.05000e+00	7.308500e-06	
122	-6.10000e+00	7.367358e-06	
123	-6.15000e+00	7.428634e-06	
124	-6.20000e+00	7.492453e-06	
125	-6.25000e+00	7.558949e-06	
126	-6.30000e+00	7.628256e-06	
127	-6.35000e+00	7.700514e-06	
128	-6.40000e+00	7.775868e-06	
129	-6.45000e+00	7.854466e-06	
130	-6.50000e+00	7.936460e-06	
131	-6.55000e+00	8.022008e-06	
132	-6.60000e+00	8.111270e-06	
133	0.000000e+00	0.000000e+00	
134	-5.00000e-02	1.385497e-05	
135	-1.00000e-01	2.685728e-05	
136	-1.50000e-01	3.901885e-05	
137	-2.00000e-01	5.035140e-05	
138	-2.50000e-01	6.086651e-05	
139	-3.00000e-01	7.057563e-05	
140	-3.50000e-01	7.949013e-05	
141	-4.00000e-01	8.762137e-05	
142	-4.50000e-01	9.498080e-05	
143	-5.00000e-01	1.015802e-04	
144	-5.50000e-01	1.074322e-04	
145	-6.00000e-01	1.125507e-04	
146	-6.50000e-01	1.169527e-04	
147	-7.00000e-01	1.206612e-04	
148	-7.50000e-01	1.237113e-04	
149	-8.00000e-01	1.261596e-04	
150	-8.50000e-01	1.280943e-04	
151	-9.00000e-01	1.296311e-04	
152	-9.50000e-01	1.308874e-04	
153	-1.00000e+00	1.319543e-04	
154	-1.05000e+00	1.328910e-04	
155	-1.10000e+00	1.337336e-04	
156	-1.15000e+00	1.345045e-04	
157	-1.20000e+00	1.352181e-04	
158	-1.25000e+00	1.358848e-04	
159	-1.30000e+00	1.365117e-04	
160	-1.35000e+00	1.371047e-04	
161	-1.40000e+00	1.376682e-04	
162	-1.45000e+00	1.382057e-04	
163	-1.50000e+00	1.387202e-04	
164	-1.55000e+00	1.392142e-04	
165	-1.60000e+00	1.396896e-04	
166	-1.65000e+00	1.401483e-04	
167	-1.70000e+00	1.405919e-04	
168	-1.75000e+00	1.410215e-04	
169	-1.80000e+00	1.414385e-04	
170	-1.85000e+00	1.418437e-04	

Index   v-sweep         i(vds)          
--------------------------------------------------------------------------------
171	-1.90000e+00	1.422381e-04	
172	-1.95000e+00	1.426225e-04	
173	-2.00000e+00	1.429977e-04	
174	-2.05000e+00	1.433641e-04	
175	-2.10000e+00	1.437225e-04	
176	-2.15000e+00	1.440734e-04	
177	-2.20000e+00	1.444172e-04	
178	-2.25000e+00	1.447543e-04	
179	-2.30000e+00	1.450852e-04	
180	-2.35000e+00	1.454102e-04	
181	-2.40000e+00	1.457296e-04	
182	-2.45000e+00	1.460437e-04	
183	-2.50000e+00	1.463529e-04	
184	-2.55000e+00	1.466573e-04	
185	-2.60000e+00	1.469573e-04	
186	-2.65000e+00	1.472530e-04	
187	-2.70000e+00	1.475446e-04	
188	-2.75000e+00	1.478323e-04	
189	-2.80000e+00	1.481164e-04	
190	-2.85000e+00	1.483970e-04	
191	-2.90000e+00	1.486741e-04	
192	-2.95000e+00	1.489481e-04	
193	-3.00000e+00	1.492190e-04	
194	-3.05000e+00	1.494869e-04	
195	-3.10000e+00	1.497520e-04	
196	-3.15000e+00	1.500144e-04	
197	-3.20000e+00	1.502741e-04	
198	-3.25000e+00	1.505314e-04	
199	-3.30000e+00	1.507862e-04	
200	-3.35000e+00	1.510387e-04	
201	-3.40000e+00	1.512890e-04	
202	-3.45000e+00	1.515372e-04	
203	-3.50000e+00	1.517832e-04	
204	-3.55000e+00	1.520273e-04	
205	-3.60000e+00	1.522694e-04	
206	-3.65000e+00	1.525097e-04	
207	-3.70000e+00	1.527482e-04	
208	-3.75000e+00	1.529850e-04	
209	-3.80000e+00	1.532201e-04	
210	-3.85000e+00	1.534537e-04	
211	-3.90000e+00	1.536858e-04	
212	-3.95000e+00	1.539164e-04	
213	-4.00000e+00	1.541457e-04	
214	-4.05000e+00	1.543737e-04	
215	-4.10000e+00	1.546004e-04	
216	-4.15000e+00	1.548261e-04	
217	-4.20000e+00	1.550507e-04	
218	-4.25000e+00	1.552744e-04	
219	-4.30000e+00	1.554972e-04	
220	-4.35000e+00	1.557194e-04	
221	-4.40000e+00	1.559409e-04	
222	-4.45000e+00	1.561620e-04	
223	-4.50000e+00	1.563828e-04	
224	-4.55000e+00	1.566034e-04	
225	-4.60000e+00	1.568241e-04	
226	-4.65000e+00	1.570451e-04	
227	-4.70000e+00	1.572665e-04	
228	-4.75000e+00	1.574886e-04	

Index   v-sweep         i(vds)          
--------------------------------------------------------------------------------
229	-4.80000e+00	1.577116e-04	
230	-4.85000e+00	1.579360e-04	
231	-4.90000e+00	1.581619e-04	
232	-4.95000e+00	1.583897e-04	
233	-5.00000e+00	1.586198e-04	
234	-5.05000e+00	1.588527e-04	
235	-5.10000e+00	1.590886e-04	
236	-5.15000e+00	1.593282e-04	
237	-5.20000e+00	1.595720e-04	
238	-5.25000e+00	1.598204e-04	
239	-5.30000e+00	1.600741e-04	
240	-5.35000e+00	1.603337e-04	
241	-5.40000e+00	1.606000e-04	
242	-5.45000e+00	1.608736e-04	
243	-5.50000e+00	1.611553e-04	
244	-5.55000e+00	1.614460e-04	
245	-5.60000e+00	1.617465e-04	
246	-5.65000e+00	1.620579e-04	
247	-5.70000e+00	1.623810e-04	
248	-5.75000e+00	1.627169e-04	
249	-5.80000e+00	1.630668e-04	
250	-5.85000e+00	1.634318e-04	
251	-5.90000e+00	1.638132e-04	
252	-5.95000e+00	1.642122e-04	
253	-6.00000e+00	1.646302e-04	
254	-6.05000e+00	1.650686e-04	
255	-6.10000e+00	1.655289e-04	
256	-6.15000e+00	1.660127e-04	
257	-6.20000e+00	1.665216e-04	
258	-6.25000e+00	1.670573e-04	
259	-6.30000e+00	1.676215e-04	
260	-6.35000e+00	1.682161e-04	
261	-6.40000e+00	1.688429e-04	
262	-6.45000e+00	1.695040e-04	
263	-6.50000e+00	1.702014e-04	
264	-6.55000e+00	1.709372e-04	
265	-6.60000e+00	1.717136e-04	
266	0.000000e+00	0.000000e+00	
267	-5.00000e-02	2.275466e-05	
268	-1.00000e-01	4.468321e-05	
269	-1.50000e-01	6.579569e-05	
270	-2.00000e-01	8.610197e-05	
271	-2.50000e-01	1.056118e-04	
272	-3.00000e-01	1.243347e-04	
273	-3.50000e-01	1.422802e-04	
274	-4.00000e-01	1.594574e-04	
275	-4.50000e-01	1.758757e-04	
276	-5.00000e-01	1.915439e-04	
277	-5.50000e-01	2.064709e-04	
278	-6.00000e-01	2.206657e-04	
279	-6.50000e-01	2.341367e-04	
280	-7.00000e-01	2.468926e-04	
281	-7.50000e-01	2.589418e-04	
282	-8.00000e-01	2.702927e-04	
283	-8.50000e-01	2.809538e-04	
284	-9.00000e-01	2.909333e-04	
285	-9.50000e-01	3.002398e-04	
286	-1.00000e+00	3.088817e-04	

Index   v-sweep         i(vds)          
--------------------------------------------------------------------------------
287	-1.05000e+00	3.168678e-04	
288	-1.10000e+00	3.242077e-04	
289	-1.15000e+00	3.309115e-04	
290	-1.20000e+00	3.369911e-04	
291	-1.25000e+00	3.424610e-04	
292	-1.30000e+00	3.473403e-04	
293	-1.35000e+00	3.516557e-04	
294	-1.40000e+00	3.554448e-04	
295	-1.45000e+00	3.587590e-04	
296	-1.50000e+00	3.616616e-04	
297	-1.55000e+00	3.642211e-04	
298	-1.60000e+00	3.665015e-04	
299	-1.65000e+00	3.685565e-04	
300	-1.70000e+00	3.704283e-04	
301	-1.75000e+00	3.721495e-04	
302	-1.80000e+00	3.737448e-04	
303	-1.85000e+00	3.752337e-04	
304	-1.90000e+00	3.766313e-04	
305	-1.95000e+00	3.779498e-04	
306	-2.00000e+00	3.791991e-04	
307	-2.05000e+00	3.803874e-04	
308	-2.10000e+00	3.815215e-04	
309	-2.15000e+00	3.826070e-04	
310	-2.20000e+00	3.836489e-04	
311	-2.25000e+00	3.846514e-04	
312	-2.30000e+00	3.856179e-04	
313	-2.35000e+00	3.865517e-04	
314	-2.40000e+00	3.874555e-04	
315	-2.45000e+00	3.883317e-04	
316	-2.50000e+00	3.891824e-04	
317	-2.55000e+00	3.900095e-04	
318	-2.60000e+00	3.908148e-04	
319	-2.65000e+00	3.915997e-04	
320	-2.70000e+00	3.923656e-04	
321	-2.75000e+00	3.931138e-04	
322	-2.80000e+00	3.938454e-04	
323	-2.85000e+00	3.945613e-04	
324	-2.90000e+00	3.952625e-04	
325	-2.95000e+00	3.959499e-04	
326	-3.00000e+00	3.966242e-04	
327	-3.05000e+00	3.972862e-04	
328	-3.10000e+00	3.979364e-04	
329	-3.15000e+00	3.985756e-04	
330	-3.20000e+00	3.992043e-04	
331	-3.25000e+00	3.998229e-04	
332	-3.30000e+00	4.004320e-04	
333	-3.35000e+00	4.010321e-04	
334	-3.40000e+00	4.016235e-04	
335	-3.45000e+00	4.022066e-04	
336	-3.50000e+00	4.027819e-04	
337	-3.55000e+00	4.033495e-04	
338	-3.60000e+00	4.039100e-04	
339	-3.65000e+00	4.044635e-04	
340	-3.70000e+00	4.050103e-04	
341	-3.75000e+00	4.055508e-04	
342	-3.80000e+00	4.060851e-04	
343	-3.85000e+00	4.066136e-04	
344	-3.90000e+00	4.071364e-04	

Index   v-sweep         i(vds)          
--------------------------------------------------------------------------------
345	-3.95000e+00	4.076537e-04	
346	-4.00000e+00	4.081657e-04	
347	-4.05000e+00	4.086727e-04	
348	-4.10000e+00	4.091749e-04	
349	-4.15000e+00	4.096723e-04	
350	-4.20000e+00	4.101652e-04	
351	-4.25000e+00	4.106538e-04	
352	-4.30000e+00	4.111381e-04	
353	-4.35000e+00	4.116185e-04	
354	-4.40000e+00	4.120950e-04	
355	-4.45000e+00	4.125677e-04	
356	-4.50000e+00	4.130370e-04	
357	-4.55000e+00	4.135029e-04	
358	-4.60000e+00	4.139656e-04	
359	-4.65000e+00	4.144253e-04	
360	-4.70000e+00	4.148822e-04	
361	-4.75000e+00	4.153365e-04	
362	-4.80000e+00	4.157885e-04	
363	-4.85000e+00	4.162384e-04	
364	-4.90000e+00	4.166864e-04	
365	-4.95000e+00	4.171328e-04	
366	-5.00000e+00	4.175780e-04	
367	-5.05000e+00	4.180224e-04	
368	-5.10000e+00	4.184662e-04	
369	-5.15000e+00	4.189101e-04	
370	-5.20000e+00	4.193543e-04	
371	-5.25000e+00	4.197995e-04	
372	-5.30000e+00	4.202462e-04	
373	-5.35000e+00	4.206950e-04	
374	-5.40000e+00	4.211467e-04	
375	-5.45000e+00	4.216020e-04	
376	-5.50000e+00	4.220617e-04	
377	-5.55000e+00	4.225268e-04	
378	-5.60000e+00	4.229982e-04	
379	-5.65000e+00	4.234770e-04	
380	-5.70000e+00	4.239643e-04	
381	-5.75000e+00	4.244615e-04	
382	-5.80000e+00	4.249698e-04	
383	-5.85000e+00	4.254907e-04	
384	-5.90000e+00	4.260259e-04	
385	-5.95000e+00	4.265770e-04	
386	-6.00000e+00	4.271457e-04	
387	-6.05000e+00	4.277341e-04	
388	-6.10000e+00	4.283441e-04	
389	-6.15000e+00	4.289780e-04	
390	-6.20000e+00	4.296381e-04	
391	-6.25000e+00	4.303268e-04	
392	-6.30000e+00	4.310469e-04	
393	-6.35000e+00	4.318009e-04	
394	-6.40000e+00	4.325919e-04	
395	-6.45000e+00	4.334228e-04	
396	-6.50000e+00	4.342970e-04	
397	-6.55000e+00	4.352178e-04	
398	-6.60000e+00	4.361888e-04	
399	0.000000e+00	0.000000e+00	
400	-5.00000e-02	2.963645e-05	
401	-1.00000e-01	5.848559e-05	
402	-1.50000e-01	8.655598e-05	

Index   v-sweep         i(vds)          
--------------------------------------------------------------------------------
403	-2.00000e-01	1.138561e-04	
404	-2.50000e-01	1.403942e-04	
405	-3.00000e-01	1.661785e-04	
406	-3.50000e-01	1.912172e-04	
407	-4.00000e-01	2.155181e-04	
408	-4.50000e-01	2.390892e-04	
409	-5.00000e-01	2.619383e-04	
410	-5.50000e-01	2.840729e-04	
411	-6.00000e-01	3.055006e-04	
412	-6.50000e-01	3.262288e-04	
413	-7.00000e-01	3.462649e-04	
414	-7.50000e-01	3.656162e-04	
415	-8.00000e-01	3.842897e-04	
416	-8.50000e-01	4.022925e-04	
417	-9.00000e-01	4.196316e-04	
418	-9.50000e-01	4.363139e-04	
419	-1.00000e+00	4.523462e-04	
420	-1.05000e+00	4.677351e-04	
421	-1.10000e+00	4.824873e-04	
422	-1.15000e+00	4.966094e-04	
423	-1.20000e+00	5.101079e-04	
424	-1.25000e+00	5.229893e-04	
425	-1.30000e+00	5.352598e-04	
426	-1.35000e+00	5.469261e-04	
427	-1.40000e+00	5.579943e-04	
428	-1.45000e+00	5.684709e-04	
429	-1.50000e+00	5.783623e-04	
430	-1.55000e+00	5.876752e-04	
431	-1.60000e+00	5.964162e-04	
432	-1.65000e+00	6.045925e-04	
433	-1.70000e+00	6.122118e-04	
434	-1.75000e+00	6.192826e-04	
435	-1.80000e+00	6.258148e-04	
436	-1.85000e+00	6.318209e-04	
437	-1.90000e+00	6.373168e-04	
438	-1.95000e+00	6.423236e-04	
439	-2.00000e+00	6.468697e-04	
440	-2.05000e+00	6.509910e-04	
441	-2.10000e+00	6.547300e-04	
442	-2.15000e+00	6.581321e-04	
443	-2.20000e+00	6.612420e-04	
444	-2.25000e+00	6.641007e-04	
445	-2.30000e+00	6.667438e-04	
446	-2.35000e+00	6.692015e-04	
447	-2.40000e+00	6.714991e-04	
448	-2.45000e+00	6.736574e-04	
449	-2.50000e+00	6.756938e-04	
450	-2.55000e+00	6.776230e-04	
451	-2.60000e+00	6.794571e-04	
452	-2.65000e+00	6.812063e-04	
453	-2.70000e+00	6.828796e-04	
454	-2.75000e+00	6.844844e-04	
455	-2.80000e+00	6.860271e-04	
456	-2.85000e+00	6.875134e-04	
457	-2.90000e+00	6.889482e-04	
458	-2.95000e+00	6.903358e-04	
459	-3.00000e+00	6.916799e-04	
460	-3.05000e+00	6.929840e-04	

Index   v-sweep         i(vds)          
--------------------------------------------------------------------------------
461	-3.10000e+00	6.942510e-04	
462	-3.15000e+00	6.954836e-04	
463	-3.20000e+00	6.966842e-04	
464	-3.25000e+00	6.978549e-04	
465	-3.30000e+00	6.989977e-04	
466	-3.35000e+00	7.001143e-04	
467	-3.40000e+00	7.012064e-04	
468	-3.45000e+00	7.022754e-04	
469	-3.50000e+00	7.033226e-04	
470	-3.55000e+00	7.043493e-04	
471	-3.60000e+00	7.053566e-04	
472	-3.65000e+00	7.063455e-04	
473	-3.70000e+00	7.073170e-04	
474	-3.75000e+00	7.082720e-04	
475	-3.80000e+00	7.092113e-04	
476	-3.85000e+00	7.101356e-04	
477	-3.90000e+00	7.110457e-04	
478	-3.95000e+00	7.119423e-04	
479	-4.00000e+00	7.128258e-04	
480	-4.05000e+00	7.136969e-04	
481	-4.10000e+00	7.145562e-04	
482	-4.15000e+00	7.154042e-04	
483	-4.20000e+00	7.162412e-04	
484	-4.25000e+00	7.170679e-04	
485	-4.30000e+00	7.178845e-04	
486	-4.35000e+00	7.186915e-04	
487	-4.40000e+00	7.194892e-04	
488	-4.45000e+00	7.202781e-04	
489	-4.50000e+00	7.210584e-04	
490	-4.55000e+00	7.218304e-04	
491	-4.60000e+00	7.225945e-04	
492	-4.65000e+00	7.233510e-04	
493	-4.70000e+00	7.241001e-04	
494	-4.75000e+00	7.248422e-04	
495	-4.80000e+00	7.255774e-04	
496	-4.85000e+00	7.263060e-04	
497	-4.90000e+00	7.270284e-04	
498	-4.95000e+00	7.277447e-04	
499	-5.00000e+00	7.284553e-04	
500	-5.05000e+00	7.291604e-04	
501	-5.10000e+00	7.298602e-04	
502	-5.15000e+00	7.305551e-04	
503	-5.20000e+00	7.312454e-04	
504	-5.25000e+00	7.319313e-04	
505	-5.30000e+00	7.326134e-04	
506	-5.35000e+00	7.332919e-04	
507	-5.40000e+00	7.339672e-04	
508	-5.45000e+00	7.346398e-04	
509	-5.50000e+00	7.353103e-04	
510	-5.55000e+00	7.359791e-04	
511	-5.60000e+00	7.366468e-04	
512	-5.65000e+00	7.373142e-04	
513	-5.70000e+00	7.379820e-04	
514	-5.75000e+00	7.386510e-04	
515	-5.80000e+00	7.393221e-04	
516	-5.85000e+00	7.399963e-04	
517	-5.90000e+00	7.406748e-04	
518	-5.95000e+00	7.413586e-04	

Index   v-sweep         i(vds)          
--------------------------------------------------------------------------------
519	-6.00000e+00	7.420491e-04	
520	-6.05000e+00	7.427479e-04	
521	-6.10000e+00	7.434563e-04	
522	-6.15000e+00	7.441763e-04	
523	-6.20000e+00	7.449095e-04	
524	-6.25000e+00	7.456582e-04	
525	-6.30000e+00	7.464244e-04	
526	-6.35000e+00	7.472105e-04	
527	-6.40000e+00	7.480190e-04	
528	-6.45000e+00	7.488528e-04	
529	-6.50000e+00	7.497148e-04	
530	-6.55000e+00	7.506080e-04	
531	-6.60000e+00	7.515359e-04	
532	0.000000e+00	0.000000e+00	
533	-5.00000e-02	3.514572e-05	
534	-1.00000e-01	6.954364e-05	
535	-1.50000e-01	1.032012e-04	
536	-2.00000e-01	1.361256e-04	
537	-2.50000e-01	1.683242e-04	
538	-3.00000e-01	1.998040e-04	
539	-3.50000e-01	2.305721e-04	
540	-4.00000e-01	2.606354e-04	
541	-4.50000e-01	2.900008e-04	
542	-5.00000e-01	3.186749e-04	
543	-5.50000e-01	3.466646e-04	
544	-6.00000e-01	3.739763e-04	
545	-6.50000e-01	4.006166e-04	
546	-7.00000e-01	4.265919e-04	
547	-7.50000e-01	4.519085e-04	
548	-8.00000e-01	4.765727e-04	
549	-8.50000e-01	5.005907e-04	
550	-9.00000e-01	5.239686e-04	
551	-9.50000e-01	5.467123e-04	
552	-1.00000e+00	5.688280e-04	
553	-1.05000e+00	5.903214e-04	
554	-1.10000e+00	6.111984e-04	
555	-1.15000e+00	6.314648e-04	
556	-1.20000e+00	6.511261e-04	
557	-1.25000e+00	6.701880e-04	
558	-1.30000e+00	6.886561e-04	
559	-1.35000e+00	7.065359e-04	
560	-1.40000e+00	7.238327e-04	
561	-1.45000e+00	7.405519e-04	
562	-1.50000e+00	7.566989e-04	
563	-1.55000e+00	7.722789e-04	
564	-1.60000e+00	7.872971e-04	
565	-1.65000e+00	8.017586e-04	
566	-1.70000e+00	8.156686e-04	
567	-1.75000e+00	8.290321e-04	
568	-1.80000e+00	8.418541e-04	
569	-1.85000e+00	8.541397e-04	
570	-1.90000e+00	8.658937e-04	
571	-1.95000e+00	8.771212e-04	
572	-2.00000e+00	8.878270e-04	
573	-2.05000e+00	8.980161e-04	
574	-2.10000e+00	9.076933e-04	
575	-2.15000e+00	9.168637e-04	
576	-2.20000e+00	9.255322e-04	

Index   v-sweep         i(vds)          
--------------------------------------------------------------------------------
577	-2.25000e+00	9.337039e-04	
578	-2.30000e+00	9.413840e-04	
579	-2.35000e+00	9.485784e-04	
580	-2.40000e+00	9.552936e-04	
581	-2.45000e+00	9.615382e-04	
582	-2.50000e+00	9.673241e-04	
583	-2.55000e+00	9.726684e-04	
584	-2.60000e+00	9.775948e-04	
585	-2.65000e+00	9.821337e-04	
586	-2.70000e+00	9.863203e-04	
587	-2.75000e+00	9.901918e-04	
588	-2.80000e+00	9.937842e-04	
589	-2.85000e+00	9.971313e-04	
590	-2.90000e+00	1.000263e-03	
591	-2.95000e+00	1.003205e-03	
592	-3.00000e+00	1.005980e-03	
593	-3.05000e+00	1.008607e-03	
594	-3.10000e+00	1.011103e-03	
595	-3.15000e+00	1.013481e-03	
596	-3.20000e+00	1.015753e-03	
597	-3.25000e+00	1.017931e-03	
598	-3.30000e+00	1.020023e-03	
599	-3.35000e+00	1.022036e-03	
600	-3.40000e+00	1.023978e-03	
601	-3.45000e+00	1.025854e-03	
602	-3.50000e+00	1.027670e-03	
603	-3.55000e+00	1.029431e-03	
604	-3.60000e+00	1.031140e-03	
605	-3.65000e+00	1.032802e-03	
606	-3.70000e+00	1.034419e-03	
607	-3.75000e+00	1.035996e-03	
608	-3.80000e+00	1.037534e-03	
609	-3.85000e+00	1.039035e-03	
610	-3.90000e+00	1.040503e-03	
611	-3.95000e+00	1.041939e-03	
612	-4.00000e+00	1.043346e-03	
613	-4.05000e+00	1.044724e-03	
614	-4.10000e+00	1.046075e-03	
615	-4.15000e+00	1.047401e-03	
616	-4.20000e+00	1.048704e-03	
617	-4.25000e+00	1.049983e-03	
618	-4.30000e+00	1.051242e-03	
619	-4.35000e+00	1.052479e-03	
620	-4.40000e+00	1.053697e-03	
621	-4.45000e+00	1.054897e-03	
622	-4.50000e+00	1.056079e-03	
623	-4.55000e+00	1.057244e-03	
624	-4.60000e+00	1.058392e-03	
625	-4.65000e+00	1.059526e-03	
626	-4.70000e+00	1.060644e-03	
627	-4.75000e+00	1.061748e-03	
628	-4.80000e+00	1.062838e-03	
629	-4.85000e+00	1.063916e-03	
630	-4.90000e+00	1.064980e-03	
631	-4.95000e+00	1.066033e-03	
632	-5.00000e+00	1.067074e-03	
633	-5.05000e+00	1.068103e-03	
634	-5.10000e+00	1.069122e-03	

Index   v-sweep         i(vds)          
--------------------------------------------------------------------------------
635	-5.15000e+00	1.070131e-03	
636	-5.20000e+00	1.071129e-03	
637	-5.25000e+00	1.072118e-03	
638	-5.30000e+00	1.073097e-03	
639	-5.35000e+00	1.074068e-03	
640	-5.40000e+00	1.075030e-03	
641	-5.45000e+00	1.075983e-03	
642	-5.50000e+00	1.076929e-03	
643	-5.55000e+00	1.077868e-03	
644	-5.60000e+00	1.078799e-03	
645	-5.65000e+00	1.079723e-03	
646	-5.70000e+00	1.080642e-03	
647	-5.75000e+00	1.081554e-03	
648	-5.80000e+00	1.082461e-03	
649	-5.85000e+00	1.083363e-03	
650	-5.90000e+00	1.084261e-03	
651	-5.95000e+00	1.085156e-03	
652	-6.00000e+00	1.086047e-03	
653	-6.05000e+00	1.086936e-03	
654	-6.10000e+00	1.087824e-03	
655	-6.15000e+00	1.088712e-03	
656	-6.20000e+00	1.089600e-03	
657	-6.25000e+00	1.090490e-03	
658	-6.30000e+00	1.091382e-03	
659	-6.35000e+00	1.092280e-03	
660	-6.40000e+00	1.093183e-03	
661	-6.45000e+00	1.094094e-03	
662	-6.50000e+00	1.095015e-03	
663	-6.55000e+00	1.095947e-03	
664	-6.60000e+00	1.096893e-03	
665	0.000000e+00	0.000000e+00	
666	-5.00000e-02	3.967357e-05	
667	-1.00000e-01	7.863680e-05	
668	-1.50000e-01	1.168962e-04	
669	-2.00000e-01	1.544580e-04	
670	-2.50000e-01	1.913288e-04	
671	-3.00000e-01	2.275146e-04	
672	-3.50000e-01	2.630217e-04	
673	-4.00000e-01	2.978561e-04	
674	-4.50000e-01	3.320239e-04	
675	-5.00000e-01	3.655309e-04	
676	-5.50000e-01	3.983832e-04	
677	-6.00000e-01	4.305865e-04	
678	-6.50000e-01	4.621465e-04	
679	-7.00000e-01	4.930689e-04	
680	-7.50000e-01	5.233594e-04	
681	-8.00000e-01	5.530234e-04	
682	-8.50000e-01	5.820664e-04	
683	-9.00000e-01	6.104939e-04	
684	-9.50000e-01	6.383112e-04	
685	-1.00000e+00	6.655236e-04	
686	-1.05000e+00	6.921363e-04	
687	-1.10000e+00	7.181545e-04	
688	-1.15000e+00	7.435833e-04	
689	-1.20000e+00	7.684278e-04	
690	-1.25000e+00	7.926929e-04	
691	-1.30000e+00	8.163836e-04	
692	-1.35000e+00	8.395048e-04	

Index   v-sweep         i(vds)          
--------------------------------------------------------------------------------
693	-1.40000e+00	8.620614e-04	
694	-1.45000e+00	8.840580e-04	
695	-1.50000e+00	9.054995e-04	
696	-1.55000e+00	9.263904e-04	
697	-1.60000e+00	9.467355e-04	
698	-1.65000e+00	9.665394e-04	
699	-1.70000e+00	9.858064e-04	
700	-1.75000e+00	1.004541e-03	
701	-1.80000e+00	1.022748e-03	
702	-1.85000e+00	1.040432e-03	
703	-1.90000e+00	1.057596e-03	
704	-1.95000e+00	1.074246e-03	
705	-2.00000e+00	1.090385e-03	
706	-2.05000e+00	1.106018e-03	
707	-2.10000e+00	1.121148e-03	
708	-2.15000e+00	1.135781e-03	
709	-2.20000e+00	1.149920e-03	
710	-2.25000e+00	1.163569e-03	
711	-2.30000e+00	1.176732e-03	
712	-2.35000e+00	1.189413e-03	
713	-2.40000e+00	1.201616e-03	
714	-2.45000e+00	1.213345e-03	
715	-2.50000e+00	1.224603e-03	
716	-2.55000e+00	1.235395e-03	
717	-2.60000e+00	1.245723e-03	
718	-2.65000e+00	1.255590e-03	
719	-2.70000e+00	1.265000e-03	
720	-2.75000e+00	1.273954e-03	
721	-2.80000e+00	1.282455e-03	
722	-2.85000e+00	1.290504e-03	
723	-2.90000e+00	1.298101e-03	
724	-2.95000e+00	1.305248e-03	
725	-3.00000e+00	1.311948e-03	
726	-3.05000e+00	1.318207e-03	
727	-3.10000e+00	1.324040e-03	
728	-3.15000e+00	1.329466e-03	
729	-3.20000e+00	1.334512e-03	
730	-3.25000e+00	1.339210e-03	
731	-3.30000e+00	1.343592e-03	
732	-3.35000e+00	1.347691e-03	
733	-3.40000e+00	1.351538e-03	
734	-3.45000e+00	1.355161e-03	
735	-3.50000e+00	1.358585e-03	
736	-3.55000e+00	1.361830e-03	
737	-3.60000e+00	1.364916e-03	
738	-3.65000e+00	1.367859e-03	
739	-3.70000e+00	1.370674e-03	
740	-3.75000e+00	1.373372e-03	
741	-3.80000e+00	1.375964e-03	
742	-3.85000e+00	1.378460e-03	
743	-3.90000e+00	1.380867e-03	
744	-3.95000e+00	1.383195e-03	
745	-4.00000e+00	1.385447e-03	
746	-4.05000e+00	1.387632e-03	
747	-4.10000e+00	1.389753e-03	
748	-4.15000e+00	1.391815e-03	
749	-4.20000e+00	1.393822e-03	
750	-4.25000e+00	1.395778e-03	

Index   v-sweep         i(vds)          
--------------------------------------------------------------------------------
751	-4.30000e+00	1.397687e-03	
752	-4.35000e+00	1.399551e-03	
753	-4.40000e+00	1.401372e-03	
754	-4.45000e+00	1.403155e-03	
755	-4.50000e+00	1.404901e-03	
756	-4.55000e+00	1.406611e-03	
757	-4.60000e+00	1.408288e-03	
758	-4.65000e+00	1.409935e-03	
759	-4.70000e+00	1.411551e-03	
760	-4.75000e+00	1.413140e-03	
761	-4.80000e+00	1.414701e-03	
762	-4.85000e+00	1.416237e-03	
763	-4.90000e+00	1.417750e-03	
764	-4.95000e+00	1.419239e-03	
765	-5.00000e+00	1.420706e-03	
766	-5.05000e+00	1.422152e-03	
767	-5.10000e+00	1.423577e-03	
768	-5.15000e+00	1.424984e-03	
769	-5.20000e+00	1.426372e-03	
770	-5.25000e+00	1.427743e-03	
771	-5.30000e+00	1.429096e-03	
772	-5.35000e+00	1.430433e-03	
773	-5.40000e+00	1.431755e-03	
774	-5.45000e+00	1.433061e-03	
775	-5.50000e+00	1.434353e-03	
776	-5.55000e+00	1.435632e-03	
777	-5.60000e+00	1.436896e-03	
778	-5.65000e+00	1.438148e-03	
779	-5.70000e+00	1.439387e-03	
780	-5.75000e+00	1.440615e-03	
781	-5.80000e+00	1.441830e-03	
782	-5.85000e+00	1.443035e-03	
783	-5.90000e+00	1.444229e-03	
784	-5.95000e+00	1.445413e-03	
785	-6.00000e+00	1.446587e-03	
786	-6.05000e+00	1.447752e-03	
787	-6.10000e+00	1.448908e-03	
788	-6.15000e+00	1.450056e-03	
789	-6.20000e+00	1.451196e-03	
790	-6.25000e+00	1.452329e-03	
791	-6.30000e+00	1.453456e-03	
792	-6.35000e+00	1.454576e-03	
793	-6.40000e+00	1.455692e-03	
794	-6.45000e+00	1.456803e-03	
795	-6.50000e+00	1.457911e-03	
796	-6.55000e+00	1.459017e-03	
797	-6.60000e+00	1.460121e-03	
Note: No ".plot", ".print", or ".fourier" lines; no simulations run
