
Note: Compatibility modes selected: hs

Warning: m=xx on .subckt line will override multiplier m hierarchy!


Circuit: ***************************

Doing analysis at TEMP = 25.000000 and TNOM = 25.000000


No. of Data Rows : 798
                          ***************************
                          DC transfer characteristic  Mon Jan  9 13:57:53  2023
--------------------------------------------------------------------------------
Index   v-sweep         i(vds)          
--------------------------------------------------------------------------------
0	0.000000e+00	0.000000e+00	
1	-5.00000e-02	1.066610e-08	
2	-1.00000e-01	1.567150e-08	
3	-1.50000e-01	1.707603e-08	
4	-2.00000e-01	1.738739e-08	
5	-2.50000e-01	1.748380e-08	
6	-3.00000e-01	1.752767e-08	
7	-3.50000e-01	1.755382e-08	
8	-4.00000e-01	1.757239e-08	
9	-4.50000e-01	1.758714e-08	
10	-5.00000e-01	1.759970e-08	
11	-5.50000e-01	1.761087e-08	
12	-6.00000e-01	1.762111e-08	
13	-6.50000e-01	1.763068e-08	
14	-7.00000e-01	1.763974e-08	
15	-7.50000e-01	1.764840e-08	
16	-8.00000e-01	1.765674e-08	
17	-8.50000e-01	1.766482e-08	
18	-9.00000e-01	1.767267e-08	
19	-9.50000e-01	1.768034e-08	
20	-1.00000e+00	1.768783e-08	
21	-1.05000e+00	1.769518e-08	
22	-1.10000e+00	1.770240e-08	
23	-1.15000e+00	1.770950e-08	
24	-1.20000e+00	1.771650e-08	
25	-1.25000e+00	1.772340e-08	
26	-1.30000e+00	1.773021e-08	
27	-1.35000e+00	1.773694e-08	
28	-1.40000e+00	1.774359e-08	
29	-1.45000e+00	1.775018e-08	
30	-1.50000e+00	1.775670e-08	
31	-1.55000e+00	1.776316e-08	
32	-1.60000e+00	1.776956e-08	
33	-1.65000e+00	1.777591e-08	
34	-1.70000e+00	1.778222e-08	
35	-1.75000e+00	1.778847e-08	
36	-1.80000e+00	1.779468e-08	
37	-1.85000e+00	1.780085e-08	
38	-1.90000e+00	1.780699e-08	
39	-1.95000e+00	1.781308e-08	
40	-2.00000e+00	1.781914e-08	
41	-2.05000e+00	1.782516e-08	
42	-2.10000e+00	1.783115e-08	
43	-2.15000e+00	1.783711e-08	
44	-2.20000e+00	1.784304e-08	
45	-2.25000e+00	1.784895e-08	
46	-2.30000e+00	1.785482e-08	
47	-2.35000e+00	1.786067e-08	
48	-2.40000e+00	1.786650e-08	
49	-2.45000e+00	1.787230e-08	
50	-2.50000e+00	1.787808e-08	
51	-2.55000e+00	1.788384e-08	
52	-2.60000e+00	1.788958e-08	
53	-2.65000e+00	1.789530e-08	
54	-2.70000e+00	1.790099e-08	

Index   v-sweep         i(vds)          
--------------------------------------------------------------------------------
55	-2.75000e+00	1.790667e-08	
56	-2.80000e+00	1.791234e-08	
57	-2.85000e+00	1.791799e-08	
58	-2.90000e+00	1.792362e-08	
59	-2.95000e+00	1.792924e-08	
60	-3.00000e+00	1.793485e-08	
61	-3.05000e+00	1.794044e-08	
62	-3.10000e+00	1.794603e-08	
63	-3.15000e+00	1.795162e-08	
64	-3.20000e+00	1.795720e-08	
65	-3.25000e+00	1.796278e-08	
66	-3.30000e+00	1.796836e-08	
67	-3.35000e+00	1.797395e-08	
68	-3.40000e+00	1.797955e-08	
69	-3.45000e+00	1.798518e-08	
70	-3.50000e+00	1.799082e-08	
71	-3.55000e+00	1.799650e-08	
72	-3.60000e+00	1.800222e-08	
73	-3.65000e+00	1.800799e-08	
74	-3.70000e+00	1.801383e-08	
75	-3.75000e+00	1.801974e-08	
76	-3.80000e+00	1.802573e-08	
77	-3.85000e+00	1.803184e-08	
78	-3.90000e+00	1.803807e-08	
79	-3.95000e+00	1.804445e-08	
80	-4.00000e+00	1.805099e-08	
81	-4.05000e+00	1.805773e-08	
82	-4.10000e+00	1.806469e-08	
83	-4.15000e+00	1.807191e-08	
84	-4.20000e+00	1.807941e-08	
85	-4.25000e+00	1.808724e-08	
86	-4.30000e+00	1.809543e-08	
87	-4.35000e+00	1.810403e-08	
88	-4.40000e+00	1.811309e-08	
89	-4.45000e+00	1.812266e-08	
90	-4.50000e+00	1.813280e-08	
91	-4.55000e+00	1.814356e-08	
92	-4.60000e+00	1.815502e-08	
93	-4.65000e+00	1.816724e-08	
94	-4.70000e+00	1.818030e-08	
95	-4.75000e+00	1.819427e-08	
96	-4.80000e+00	1.820925e-08	
97	-4.85000e+00	1.822532e-08	
98	-4.90000e+00	1.824257e-08	
99	-4.95000e+00	1.826112e-08	
100	-5.00000e+00	1.828107e-08	
101	-5.05000e+00	1.830253e-08	
102	-5.10000e+00	1.832562e-08	
103	-5.15000e+00	1.835047e-08	
104	-5.20000e+00	1.837721e-08	
105	-5.25000e+00	1.840597e-08	
106	-5.30000e+00	1.843691e-08	
107	-5.35000e+00	1.847018e-08	
108	-5.40000e+00	1.850592e-08	
109	-5.45000e+00	1.854432e-08	
110	-5.50000e+00	1.858553e-08	
111	-5.55000e+00	1.862975e-08	
112	-5.60000e+00	1.867714e-08	

Index   v-sweep         i(vds)          
--------------------------------------------------------------------------------
113	-5.65000e+00	1.872792e-08	
114	-5.70000e+00	1.878227e-08	
115	-5.75000e+00	1.884040e-08	
116	-5.80000e+00	1.890253e-08	
117	-5.85000e+00	1.896888e-08	
118	-5.90000e+00	1.903967e-08	
119	-5.95000e+00	1.911514e-08	
120	-6.00000e+00	1.919553e-08	
121	-6.05000e+00	1.928110e-08	
122	-6.10000e+00	1.937208e-08	
123	-6.15000e+00	1.946875e-08	
124	-6.20000e+00	1.957138e-08	
125	-6.25000e+00	1.968023e-08	
126	-6.30000e+00	1.979561e-08	
127	-6.35000e+00	1.991778e-08	
128	-6.40000e+00	2.004705e-08	
129	-6.45000e+00	2.018372e-08	
130	-6.50000e+00	2.032810e-08	
131	-6.55000e+00	2.048050e-08	
132	-6.60000e+00	2.064125e-08	
133	0.000000e+00	0.000000e+00	
134	-5.00000e-02	1.217922e-07	
135	-1.00000e-01	2.356811e-07	
136	-1.50000e-01	3.416727e-07	
137	-2.00000e-01	4.397735e-07	
138	-2.50000e-01	5.299909e-07	
139	-3.00000e-01	6.123337e-07	
140	-3.50000e-01	6.868130e-07	
141	-4.00000e-01	7.534434e-07	
142	-4.50000e-01	8.122460e-07	
143	-5.00000e-01	8.632530e-07	
144	-5.50000e-01	9.065186e-07	
145	-6.00000e-01	9.421394e-07	
146	-6.50000e-01	9.702985e-07	
147	-7.00000e-01	9.913543e-07	
148	-7.50000e-01	1.005989e-06	
149	-8.00000e-01	1.015353e-06	
150	-8.50000e-01	1.020969e-06	
151	-9.00000e-01	1.024300e-06	
152	-9.50000e-01	1.026383e-06	
153	-1.00000e+00	1.027805e-06	
154	-1.05000e+00	1.028869e-06	
155	-1.10000e+00	1.029727e-06	
156	-1.15000e+00	1.030460e-06	
157	-1.20000e+00	1.031110e-06	
158	-1.25000e+00	1.031705e-06	
159	-1.30000e+00	1.032259e-06	
160	-1.35000e+00	1.032783e-06	
161	-1.40000e+00	1.033282e-06	
162	-1.45000e+00	1.033762e-06	
163	-1.50000e+00	1.034227e-06	
164	-1.55000e+00	1.034678e-06	
165	-1.60000e+00	1.035118e-06	
166	-1.65000e+00	1.035547e-06	
167	-1.70000e+00	1.035968e-06	
168	-1.75000e+00	1.036382e-06	
169	-1.80000e+00	1.036788e-06	
170	-1.85000e+00	1.037189e-06	

Index   v-sweep         i(vds)          
--------------------------------------------------------------------------------
171	-1.90000e+00	1.037583e-06	
172	-1.95000e+00	1.037973e-06	
173	-2.00000e+00	1.038357e-06	
174	-2.05000e+00	1.038738e-06	
175	-2.10000e+00	1.039114e-06	
176	-2.15000e+00	1.039486e-06	
177	-2.20000e+00	1.039855e-06	
178	-2.25000e+00	1.040221e-06	
179	-2.30000e+00	1.040584e-06	
180	-2.35000e+00	1.040943e-06	
181	-2.40000e+00	1.041300e-06	
182	-2.45000e+00	1.041655e-06	
183	-2.50000e+00	1.042007e-06	
184	-2.55000e+00	1.042357e-06	
185	-2.60000e+00	1.042704e-06	
186	-2.65000e+00	1.043050e-06	
187	-2.70000e+00	1.043393e-06	
188	-2.75000e+00	1.043735e-06	
189	-2.80000e+00	1.044075e-06	
190	-2.85000e+00	1.044413e-06	
191	-2.90000e+00	1.044749e-06	
192	-2.95000e+00	1.045084e-06	
193	-3.00000e+00	1.045418e-06	
194	-3.05000e+00	1.045750e-06	
195	-3.10000e+00	1.046080e-06	
196	-3.15000e+00	1.046410e-06	
197	-3.20000e+00	1.046738e-06	
198	-3.25000e+00	1.047065e-06	
199	-3.30000e+00	1.047390e-06	
200	-3.35000e+00	1.047715e-06	
201	-3.40000e+00	1.048038e-06	
202	-3.45000e+00	1.048361e-06	
203	-3.50000e+00	1.048682e-06	
204	-3.55000e+00	1.049003e-06	
205	-3.60000e+00	1.049323e-06	
206	-3.65000e+00	1.049642e-06	
207	-3.70000e+00	1.049961e-06	
208	-3.75000e+00	1.050279e-06	
209	-3.80000e+00	1.050596e-06	
210	-3.85000e+00	1.050914e-06	
211	-3.90000e+00	1.051231e-06	
212	-3.95000e+00	1.051548e-06	
213	-4.00000e+00	1.051865e-06	
214	-4.05000e+00	1.052183e-06	
215	-4.10000e+00	1.052502e-06	
216	-4.15000e+00	1.052822e-06	
217	-4.20000e+00	1.053144e-06	
218	-4.25000e+00	1.053468e-06	
219	-4.30000e+00	1.053794e-06	
220	-4.35000e+00	1.054124e-06	
221	-4.40000e+00	1.054457e-06	
222	-4.45000e+00	1.054795e-06	
223	-4.50000e+00	1.055139e-06	
224	-4.55000e+00	1.055489e-06	
225	-4.60000e+00	1.055847e-06	
226	-4.65000e+00	1.056213e-06	
227	-4.70000e+00	1.056590e-06	
228	-4.75000e+00	1.056979e-06	

Index   v-sweep         i(vds)          
--------------------------------------------------------------------------------
229	-4.80000e+00	1.057382e-06	
230	-4.85000e+00	1.057799e-06	
231	-4.90000e+00	1.058234e-06	
232	-4.95000e+00	1.058689e-06	
233	-5.00000e+00	1.059166e-06	
234	-5.05000e+00	1.059668e-06	
235	-5.10000e+00	1.060197e-06	
236	-5.15000e+00	1.060757e-06	
237	-5.20000e+00	1.061352e-06	
238	-5.25000e+00	1.061984e-06	
239	-5.30000e+00	1.062657e-06	
240	-5.35000e+00	1.063377e-06	
241	-5.40000e+00	1.064147e-06	
242	-5.45000e+00	1.064972e-06	
243	-5.50000e+00	1.065857e-06	
244	-5.55000e+00	1.066807e-06	
245	-5.60000e+00	1.067829e-06	
246	-5.65000e+00	1.068928e-06	
247	-5.70000e+00	1.070110e-06	
248	-5.75000e+00	1.071383e-06	
249	-5.80000e+00	1.072754e-06	
250	-5.85000e+00	1.074229e-06	
251	-5.90000e+00	1.075817e-06	
252	-5.95000e+00	1.077526e-06	
253	-6.00000e+00	1.079365e-06	
254	-6.05000e+00	1.081342e-06	
255	-6.10000e+00	1.083468e-06	
256	-6.15000e+00	1.085750e-06	
257	-6.20000e+00	1.088201e-06	
258	-6.25000e+00	1.090830e-06	
259	-6.30000e+00	1.093649e-06	
260	-6.35000e+00	1.096668e-06	
261	-6.40000e+00	1.099900e-06	
262	-6.45000e+00	1.103357e-06	
263	-6.50000e+00	1.107050e-06	
264	-6.55000e+00	1.110995e-06	
265	-6.60000e+00	1.115203e-06	
266	0.000000e+00	0.000000e+00	
267	-5.00000e-02	2.182681e-07	
268	-1.00000e-01	4.291503e-07	
269	-1.50000e-01	6.326509e-07	
270	-2.00000e-01	8.287738e-07	
271	-2.50000e-01	1.017523e-06	
272	-3.00000e-01	1.198904e-06	
273	-3.50000e-01	1.372919e-06	
274	-4.00000e-01	1.539574e-06	
275	-4.50000e-01	1.698873e-06	
276	-5.00000e-01	1.850820e-06	
277	-5.50000e-01	1.995420e-06	
278	-6.00000e-01	2.132679e-06	
279	-6.50000e-01	2.262601e-06	
280	-7.00000e-01	2.385192e-06	
281	-7.50000e-01	2.500458e-06	
282	-8.00000e-01	2.608407e-06	
283	-8.50000e-01	2.709047e-06	
284	-9.00000e-01	2.802387e-06	
285	-9.50000e-01	2.888439e-06	
286	-1.00000e+00	2.967218e-06	

Index   v-sweep         i(vds)          
--------------------------------------------------------------------------------
287	-1.05000e+00	3.038744e-06	
288	-1.10000e+00	3.103046e-06	
289	-1.15000e+00	3.160165e-06	
290	-1.20000e+00	3.210163e-06	
291	-1.25000e+00	3.253135e-06	
292	-1.30000e+00	3.289237e-06	
293	-1.35000e+00	3.318721e-06	
294	-1.40000e+00	3.341991e-06	
295	-1.45000e+00	3.359668e-06	
296	-1.50000e+00	3.372617e-06	
297	-1.55000e+00	3.381880e-06	
298	-1.60000e+00	3.388506e-06	
299	-1.65000e+00	3.393372e-06	
300	-1.70000e+00	3.397110e-06	
301	-1.75000e+00	3.400131e-06	
302	-1.80000e+00	3.402687e-06	
303	-1.85000e+00	3.404935e-06	
304	-1.90000e+00	3.406968e-06	
305	-1.95000e+00	3.408848e-06	
306	-2.00000e+00	3.410612e-06	
307	-2.05000e+00	3.412289e-06	
308	-2.10000e+00	3.413895e-06	
309	-2.15000e+00	3.415444e-06	
310	-2.20000e+00	3.416945e-06	
311	-2.25000e+00	3.418406e-06	
312	-2.30000e+00	3.419832e-06	
313	-2.35000e+00	3.421228e-06	
314	-2.40000e+00	3.422598e-06	
315	-2.45000e+00	3.423943e-06	
316	-2.50000e+00	3.425267e-06	
317	-2.55000e+00	3.426572e-06	
318	-2.60000e+00	3.427859e-06	
319	-2.65000e+00	3.429130e-06	
320	-2.70000e+00	3.430386e-06	
321	-2.75000e+00	3.431629e-06	
322	-2.80000e+00	3.432859e-06	
323	-2.85000e+00	3.434077e-06	
324	-2.90000e+00	3.435284e-06	
325	-2.95000e+00	3.436480e-06	
326	-3.00000e+00	3.437667e-06	
327	-3.05000e+00	3.438845e-06	
328	-3.10000e+00	3.440014e-06	
329	-3.15000e+00	3.441176e-06	
330	-3.20000e+00	3.442329e-06	
331	-3.25000e+00	3.443475e-06	
332	-3.30000e+00	3.444614e-06	
333	-3.35000e+00	3.445747e-06	
334	-3.40000e+00	3.446874e-06	
335	-3.45000e+00	3.447994e-06	
336	-3.50000e+00	3.449109e-06	
337	-3.55000e+00	3.450218e-06	
338	-3.60000e+00	3.451322e-06	
339	-3.65000e+00	3.452422e-06	
340	-3.70000e+00	3.453516e-06	
341	-3.75000e+00	3.454606e-06	
342	-3.80000e+00	3.455691e-06	
343	-3.85000e+00	3.456772e-06	
344	-3.90000e+00	3.457850e-06	

Index   v-sweep         i(vds)          
--------------------------------------------------------------------------------
345	-3.95000e+00	3.458923e-06	
346	-4.00000e+00	3.459993e-06	
347	-4.05000e+00	3.461059e-06	
348	-4.10000e+00	3.462121e-06	
349	-4.15000e+00	3.463181e-06	
350	-4.20000e+00	3.464237e-06	
351	-4.25000e+00	3.465291e-06	
352	-4.30000e+00	3.466342e-06	
353	-4.35000e+00	3.467391e-06	
354	-4.40000e+00	3.468437e-06	
355	-4.45000e+00	3.469482e-06	
356	-4.50000e+00	3.470526e-06	
357	-4.55000e+00	3.471569e-06	
358	-4.60000e+00	3.472611e-06	
359	-4.65000e+00	3.473653e-06	
360	-4.70000e+00	3.474697e-06	
361	-4.75000e+00	3.475742e-06	
362	-4.80000e+00	3.476790e-06	
363	-4.85000e+00	3.477842e-06	
364	-4.90000e+00	3.478898e-06	
365	-4.95000e+00	3.479962e-06	
366	-5.00000e+00	3.481034e-06	
367	-5.05000e+00	3.482116e-06	
368	-5.10000e+00	3.483211e-06	
369	-5.15000e+00	3.484320e-06	
370	-5.20000e+00	3.485448e-06	
371	-5.25000e+00	3.486597e-06	
372	-5.30000e+00	3.487771e-06	
373	-5.35000e+00	3.488974e-06	
374	-5.40000e+00	3.490210e-06	
375	-5.45000e+00	3.491484e-06	
376	-5.50000e+00	3.492803e-06	
377	-5.55000e+00	3.494171e-06	
378	-5.60000e+00	3.495596e-06	
379	-5.65000e+00	3.497085e-06	
380	-5.70000e+00	3.498646e-06	
381	-5.75000e+00	3.500287e-06	
382	-5.80000e+00	3.502018e-06	
383	-5.85000e+00	3.503850e-06	
384	-5.90000e+00	3.505793e-06	
385	-5.95000e+00	3.507858e-06	
386	-6.00000e+00	3.510060e-06	
387	-6.05000e+00	3.512411e-06	
388	-6.10000e+00	3.514925e-06	
389	-6.15000e+00	3.517620e-06	
390	-6.20000e+00	3.520510e-06	
391	-6.25000e+00	3.523614e-06	
392	-6.30000e+00	3.526951e-06	
393	-6.35000e+00	3.530540e-06	
394	-6.40000e+00	3.534402e-06	
395	-6.45000e+00	3.538559e-06	
396	-6.50000e+00	3.543035e-06	
397	-6.55000e+00	3.547854e-06	
398	-6.60000e+00	3.553042e-06	
399	0.000000e+00	0.000000e+00	
400	-5.00000e-02	3.007550e-07	
401	-1.00000e-01	5.946693e-07	
402	-1.50000e-01	8.817466e-07	

Index   v-sweep         i(vds)          
--------------------------------------------------------------------------------
403	-2.00000e-01	1.161990e-06	
404	-2.50000e-01	1.435403e-06	
405	-3.00000e-01	1.701990e-06	
406	-3.50000e-01	1.961753e-06	
407	-4.00000e-01	2.214696e-06	
408	-4.50000e-01	2.460823e-06	
409	-5.00000e-01	2.700137e-06	
410	-5.50000e-01	2.932642e-06	
411	-6.00000e-01	3.158341e-06	
412	-6.50000e-01	3.377237e-06	
413	-7.00000e-01	3.589335e-06	
414	-7.50000e-01	3.794638e-06	
415	-8.00000e-01	3.993150e-06	
416	-8.50000e-01	4.184874e-06	
417	-9.00000e-01	4.369814e-06	
418	-9.50000e-01	4.547975e-06	
419	-1.00000e+00	4.719359e-06	
420	-1.05000e+00	4.883972e-06	
421	-1.10000e+00	5.041817e-06	
422	-1.15000e+00	5.192898e-06	
423	-1.20000e+00	5.337221e-06	
424	-1.25000e+00	5.474791e-06	
425	-1.30000e+00	5.605613e-06	
426	-1.35000e+00	5.729692e-06	
427	-1.40000e+00	5.847035e-06	
428	-1.45000e+00	5.957650e-06	
429	-1.50000e+00	6.061545e-06	
430	-1.55000e+00	6.158731e-06	
431	-1.60000e+00	6.249219e-06	
432	-1.65000e+00	6.333027e-06	
433	-1.70000e+00	6.410173e-06	
434	-1.75000e+00	6.480685e-06	
435	-1.80000e+00	6.544600e-06	
436	-1.85000e+00	6.601970e-06	
437	-1.90000e+00	6.652867e-06	
438	-1.95000e+00	6.697399e-06	
439	-2.00000e+00	6.735728e-06	
440	-2.05000e+00	6.768088e-06	
441	-2.10000e+00	6.794826e-06	
442	-2.15000e+00	6.816428e-06	
443	-2.20000e+00	6.833532e-06	
444	-2.25000e+00	6.846903e-06	
445	-2.30000e+00	6.857350e-06	
446	-2.35000e+00	6.865628e-06	
447	-2.40000e+00	6.872359e-06	
448	-2.45000e+00	6.878011e-06	
449	-2.50000e+00	6.882912e-06	
450	-2.55000e+00	6.887283e-06	
451	-2.60000e+00	6.891274e-06	
452	-2.65000e+00	6.894984e-06	
453	-2.70000e+00	6.898481e-06	
454	-2.75000e+00	6.901810e-06	
455	-2.80000e+00	6.905006e-06	
456	-2.85000e+00	6.908093e-06	
457	-2.90000e+00	6.911089e-06	
458	-2.95000e+00	6.914007e-06	
459	-3.00000e+00	6.916858e-06	
460	-3.05000e+00	6.919650e-06	

Index   v-sweep         i(vds)          
--------------------------------------------------------------------------------
461	-3.10000e+00	6.922391e-06	
462	-3.15000e+00	6.925086e-06	
463	-3.20000e+00	6.927739e-06	
464	-3.25000e+00	6.930355e-06	
465	-3.30000e+00	6.932937e-06	
466	-3.35000e+00	6.935487e-06	
467	-3.40000e+00	6.938008e-06	
468	-3.45000e+00	6.940503e-06	
469	-3.50000e+00	6.942973e-06	
470	-3.55000e+00	6.945420e-06	
471	-3.60000e+00	6.947845e-06	
472	-3.65000e+00	6.950250e-06	
473	-3.70000e+00	6.952636e-06	
474	-3.75000e+00	6.955004e-06	
475	-3.80000e+00	6.957356e-06	
476	-3.85000e+00	6.959691e-06	
477	-3.90000e+00	6.962012e-06	
478	-3.95000e+00	6.964318e-06	
479	-4.00000e+00	6.966610e-06	
480	-4.05000e+00	6.968890e-06	
481	-4.10000e+00	6.971157e-06	
482	-4.15000e+00	6.973413e-06	
483	-4.20000e+00	6.975657e-06	
484	-4.25000e+00	6.977891e-06	
485	-4.30000e+00	6.980115e-06	
486	-4.35000e+00	6.982328e-06	
487	-4.40000e+00	6.984532e-06	
488	-4.45000e+00	6.986728e-06	
489	-4.50000e+00	6.988914e-06	
490	-4.55000e+00	6.991092e-06	
491	-4.60000e+00	6.993263e-06	
492	-4.65000e+00	6.995425e-06	
493	-4.70000e+00	6.997581e-06	
494	-4.75000e+00	6.999729e-06	
495	-4.80000e+00	7.001871e-06	
496	-4.85000e+00	7.004006e-06	
497	-4.90000e+00	7.006135e-06	
498	-4.95000e+00	7.008258e-06	
499	-5.00000e+00	7.010377e-06	
500	-5.05000e+00	7.012490e-06	
501	-5.10000e+00	7.014600e-06	
502	-5.15000e+00	7.016706e-06	
503	-5.20000e+00	7.018808e-06	
504	-5.25000e+00	7.020909e-06	
505	-5.30000e+00	7.023009e-06	
506	-5.35000e+00	7.025109e-06	
507	-5.40000e+00	7.027210e-06	
508	-5.45000e+00	7.029314e-06	
509	-5.50000e+00	7.031423e-06	
510	-5.55000e+00	7.033539e-06	
511	-5.60000e+00	7.035664e-06	
512	-5.65000e+00	7.037801e-06	
513	-5.70000e+00	7.039954e-06	
514	-5.75000e+00	7.042126e-06	
515	-5.80000e+00	7.044322e-06	
516	-5.85000e+00	7.046546e-06	
517	-5.90000e+00	7.048804e-06	
518	-5.95000e+00	7.051102e-06	

Index   v-sweep         i(vds)          
--------------------------------------------------------------------------------
519	-6.00000e+00	7.053447e-06	
520	-6.05000e+00	7.055847e-06	
521	-6.10000e+00	7.058310e-06	
522	-6.15000e+00	7.060847e-06	
523	-6.20000e+00	7.063467e-06	
524	-6.25000e+00	7.066184e-06	
525	-6.30000e+00	7.069009e-06	
526	-6.35000e+00	7.071956e-06	
527	-6.40000e+00	7.075042e-06	
528	-6.45000e+00	7.078284e-06	
529	-6.50000e+00	7.081698e-06	
530	-6.55000e+00	7.085307e-06	
531	-6.60000e+00	7.089130e-06	
532	0.000000e+00	0.000000e+00	
533	-5.00000e-02	3.719678e-07	
534	-1.00000e-01	7.375963e-07	
535	-1.50000e-01	1.096888e-06	
536	-2.00000e-01	1.449847e-06	
537	-2.50000e-01	1.796475e-06	
538	-3.00000e-01	2.136776e-06	
539	-3.50000e-01	2.470753e-06	
540	-4.00000e-01	2.798408e-06	
541	-4.50000e-01	3.119744e-06	
542	-5.00000e-01	3.434765e-06	
543	-5.50000e-01	3.743474e-06	
544	-6.00000e-01	4.045873e-06	
545	-6.50000e-01	4.341965e-06	
546	-7.00000e-01	4.631754e-06	
547	-7.50000e-01	4.915243e-06	
548	-8.00000e-01	5.192434e-06	
549	-8.50000e-01	5.463331e-06	
550	-9.00000e-01	5.727936e-06	
551	-9.50000e-01	5.986253e-06	
552	-1.00000e+00	6.238285e-06	
553	-1.05000e+00	6.484035e-06	
554	-1.10000e+00	6.723505e-06	
555	-1.15000e+00	6.956700e-06	
556	-1.20000e+00	7.183622e-06	
557	-1.25000e+00	7.404274e-06	
558	-1.30000e+00	7.618660e-06	
559	-1.35000e+00	7.826782e-06	
560	-1.40000e+00	8.028645e-06	
561	-1.45000e+00	8.224251e-06	
562	-1.50000e+00	8.413604e-06	
563	-1.55000e+00	8.596708e-06	
564	-1.60000e+00	8.773565e-06	
565	-1.65000e+00	8.944180e-06	
566	-1.70000e+00	9.108556e-06	
567	-1.75000e+00	9.266698e-06	
568	-1.80000e+00	9.418610e-06	
569	-1.85000e+00	9.564296e-06	
570	-1.90000e+00	9.703761e-06	
571	-1.95000e+00	9.837010e-06	
572	-2.00000e+00	9.964049e-06	
573	-2.05000e+00	1.008488e-05	
574	-2.10000e+00	1.019952e-05	
575	-2.15000e+00	1.030797e-05	
576	-2.20000e+00	1.041024e-05	

Index   v-sweep         i(vds)          
--------------------------------------------------------------------------------
577	-2.25000e+00	1.050635e-05	
578	-2.30000e+00	1.059630e-05	
579	-2.35000e+00	1.068011e-05	
580	-2.40000e+00	1.075782e-05	
581	-2.45000e+00	1.082943e-05	
582	-2.50000e+00	1.089500e-05	
583	-2.55000e+00	1.095458e-05	
584	-2.60000e+00	1.100823e-05	
585	-2.65000e+00	1.105606e-05	
586	-2.70000e+00	1.109819e-05	
587	-2.75000e+00	1.113483e-05	
588	-2.80000e+00	1.116624e-05	
589	-2.85000e+00	1.119277e-05	
590	-2.90000e+00	1.121489e-05	
591	-2.95000e+00	1.123316e-05	
592	-3.00000e+00	1.124821e-05	
593	-3.05000e+00	1.126068e-05	
594	-3.10000e+00	1.127117e-05	
595	-3.15000e+00	1.128017e-05	
596	-3.20000e+00	1.128807e-05	
597	-3.25000e+00	1.129516e-05	
598	-3.30000e+00	1.130166e-05	
599	-3.35000e+00	1.130770e-05	
600	-3.40000e+00	1.131340e-05	
601	-3.45000e+00	1.131883e-05	
602	-3.50000e+00	1.132404e-05	
603	-3.55000e+00	1.132907e-05	
604	-3.60000e+00	1.133395e-05	
605	-3.65000e+00	1.133871e-05	
606	-3.70000e+00	1.134336e-05	
607	-3.75000e+00	1.134792e-05	
608	-3.80000e+00	1.135239e-05	
609	-3.85000e+00	1.135678e-05	
610	-3.90000e+00	1.136111e-05	
611	-3.95000e+00	1.136538e-05	
612	-4.00000e+00	1.136960e-05	
613	-4.05000e+00	1.137376e-05	
614	-4.10000e+00	1.137788e-05	
615	-4.15000e+00	1.138195e-05	
616	-4.20000e+00	1.138599e-05	
617	-4.25000e+00	1.138999e-05	
618	-4.30000e+00	1.139395e-05	
619	-4.35000e+00	1.139788e-05	
620	-4.40000e+00	1.140178e-05	
621	-4.45000e+00	1.140565e-05	
622	-4.50000e+00	1.140949e-05	
623	-4.55000e+00	1.141331e-05	
624	-4.60000e+00	1.141710e-05	
625	-4.65000e+00	1.142087e-05	
626	-4.70000e+00	1.142462e-05	
627	-4.75000e+00	1.142835e-05	
628	-4.80000e+00	1.143206e-05	
629	-4.85000e+00	1.143575e-05	
630	-4.90000e+00	1.143942e-05	
631	-4.95000e+00	1.144307e-05	
632	-5.00000e+00	1.144671e-05	
633	-5.05000e+00	1.145033e-05	
634	-5.10000e+00	1.145394e-05	

Index   v-sweep         i(vds)          
--------------------------------------------------------------------------------
635	-5.15000e+00	1.145753e-05	
636	-5.20000e+00	1.146111e-05	
637	-5.25000e+00	1.146467e-05	
638	-5.30000e+00	1.146822e-05	
639	-5.35000e+00	1.147176e-05	
640	-5.40000e+00	1.147529e-05	
641	-5.45000e+00	1.147880e-05	
642	-5.50000e+00	1.148231e-05	
643	-5.55000e+00	1.148580e-05	
644	-5.60000e+00	1.148928e-05	
645	-5.65000e+00	1.149276e-05	
646	-5.70000e+00	1.149622e-05	
647	-5.75000e+00	1.149968e-05	
648	-5.80000e+00	1.150313e-05	
649	-5.85000e+00	1.150658e-05	
650	-5.90000e+00	1.151002e-05	
651	-5.95000e+00	1.151345e-05	
652	-6.00000e+00	1.151688e-05	
653	-6.05000e+00	1.152032e-05	
654	-6.10000e+00	1.152375e-05	
655	-6.15000e+00	1.152718e-05	
656	-6.20000e+00	1.153062e-05	
657	-6.25000e+00	1.153407e-05	
658	-6.30000e+00	1.153754e-05	
659	-6.35000e+00	1.154102e-05	
660	-6.40000e+00	1.154452e-05	
661	-6.45000e+00	1.154804e-05	
662	-6.50000e+00	1.155161e-05	
663	-6.55000e+00	1.155521e-05	
664	-6.60000e+00	1.155886e-05	
665	0.000000e+00	0.000000e+00	
666	-5.00000e-02	4.339917e-07	
667	-1.00000e-01	8.620952e-07	
668	-1.50000e-01	1.284313e-06	
669	-2.00000e-01	1.700649e-06	
670	-2.50000e-01	2.111104e-06	
671	-3.00000e-01	2.515682e-06	
672	-3.50000e-01	2.914384e-06	
673	-4.00000e-01	3.307214e-06	
674	-4.50000e-01	3.694175e-06	
675	-5.00000e-01	4.075268e-06	
676	-5.50000e-01	4.450497e-06	
677	-6.00000e-01	4.819864e-06	
678	-6.50000e-01	5.183371e-06	
679	-7.00000e-01	5.541022e-06	
680	-7.50000e-01	5.892819e-06	
681	-8.00000e-01	6.238764e-06	
682	-8.50000e-01	6.578860e-06	
683	-9.00000e-01	6.913110e-06	
684	-9.50000e-01	7.241517e-06	
685	-1.00000e+00	7.564082e-06	
686	-1.05000e+00	7.880810e-06	
687	-1.10000e+00	8.191701e-06	
688	-1.15000e+00	8.496759e-06	
689	-1.20000e+00	8.795987e-06	
690	-1.25000e+00	9.089387e-06	
691	-1.30000e+00	9.376962e-06	
692	-1.35000e+00	9.658715e-06	

Index   v-sweep         i(vds)          
--------------------------------------------------------------------------------
693	-1.40000e+00	9.934647e-06	
694	-1.45000e+00	1.020476e-05	
695	-1.50000e+00	1.046906e-05	
696	-1.55000e+00	1.072755e-05	
697	-1.60000e+00	1.098023e-05	
698	-1.65000e+00	1.122711e-05	
699	-1.70000e+00	1.146818e-05	
700	-1.75000e+00	1.170345e-05	
701	-1.80000e+00	1.193292e-05	
702	-1.85000e+00	1.215660e-05	
703	-1.90000e+00	1.237448e-05	
704	-1.95000e+00	1.258658e-05	
705	-2.00000e+00	1.279288e-05	
706	-2.05000e+00	1.299341e-05	
707	-2.10000e+00	1.318816e-05	
708	-2.15000e+00	1.337712e-05	
709	-2.20000e+00	1.356032e-05	
710	-2.25000e+00	1.373774e-05	
711	-2.30000e+00	1.390940e-05	
712	-2.35000e+00	1.407529e-05	
713	-2.40000e+00	1.423542e-05	
714	-2.45000e+00	1.438980e-05	
715	-2.50000e+00	1.453842e-05	
716	-2.55000e+00	1.468130e-05	
717	-2.60000e+00	1.481843e-05	
718	-2.65000e+00	1.494983e-05	
719	-2.70000e+00	1.507549e-05	
720	-2.75000e+00	1.519543e-05	
721	-2.80000e+00	1.530965e-05	
722	-2.85000e+00	1.541816e-05	
723	-2.90000e+00	1.552098e-05	
724	-2.95000e+00	1.561810e-05	
725	-3.00000e+00	1.570955e-05	
726	-3.05000e+00	1.579535e-05	
727	-3.10000e+00	1.587551e-05	
728	-3.15000e+00	1.595006e-05	
729	-3.20000e+00	1.601904e-05	
730	-3.25000e+00	1.608249e-05	
731	-3.30000e+00	1.614047e-05	
732	-3.35000e+00	1.619306e-05	
733	-3.40000e+00	1.624036e-05	
734	-3.45000e+00	1.628253e-05	
735	-3.50000e+00	1.631974e-05	
736	-3.55000e+00	1.635225e-05	
737	-3.60000e+00	1.638039e-05	
738	-3.65000e+00	1.640454e-05	
739	-3.70000e+00	1.642519e-05	
740	-3.75000e+00	1.644286e-05	
741	-3.80000e+00	1.645806e-05	
742	-3.85000e+00	1.647129e-05	
743	-3.90000e+00	1.648299e-05	
744	-3.95000e+00	1.649351e-05	
745	-4.00000e+00	1.650314e-05	
746	-4.05000e+00	1.651207e-05	
747	-4.10000e+00	1.652047e-05	
748	-4.15000e+00	1.652846e-05	
749	-4.20000e+00	1.653611e-05	
750	-4.25000e+00	1.654348e-05	

Index   v-sweep         i(vds)          
--------------------------------------------------------------------------------
751	-4.30000e+00	1.655063e-05	
752	-4.35000e+00	1.655759e-05	
753	-4.40000e+00	1.656438e-05	
754	-4.45000e+00	1.657103e-05	
755	-4.50000e+00	1.657756e-05	
756	-4.55000e+00	1.658398e-05	
757	-4.60000e+00	1.659030e-05	
758	-4.65000e+00	1.659653e-05	
759	-4.70000e+00	1.660268e-05	
760	-4.75000e+00	1.660876e-05	
761	-4.80000e+00	1.661476e-05	
762	-4.85000e+00	1.662071e-05	
763	-4.90000e+00	1.662659e-05	
764	-4.95000e+00	1.663243e-05	
765	-5.00000e+00	1.663821e-05	
766	-5.05000e+00	1.664394e-05	
767	-5.10000e+00	1.664963e-05	
768	-5.15000e+00	1.665528e-05	
769	-5.20000e+00	1.666088e-05	
770	-5.25000e+00	1.666645e-05	
771	-5.30000e+00	1.667199e-05	
772	-5.35000e+00	1.667749e-05	
773	-5.40000e+00	1.668296e-05	
774	-5.45000e+00	1.668840e-05	
775	-5.50000e+00	1.669381e-05	
776	-5.55000e+00	1.669919e-05	
777	-5.60000e+00	1.670455e-05	
778	-5.65000e+00	1.670988e-05	
779	-5.70000e+00	1.671518e-05	
780	-5.75000e+00	1.672047e-05	
781	-5.80000e+00	1.672573e-05	
782	-5.85000e+00	1.673097e-05	
783	-5.90000e+00	1.673619e-05	
784	-5.95000e+00	1.674139e-05	
785	-6.00000e+00	1.674657e-05	
786	-6.05000e+00	1.675173e-05	
787	-6.10000e+00	1.675688e-05	
788	-6.15000e+00	1.676201e-05	
789	-6.20000e+00	1.676712e-05	
790	-6.25000e+00	1.677222e-05	
791	-6.30000e+00	1.677730e-05	
792	-6.35000e+00	1.678237e-05	
793	-6.40000e+00	1.678743e-05	
794	-6.45000e+00	1.679247e-05	
795	-6.50000e+00	1.679750e-05	
796	-6.55000e+00	1.680253e-05	
797	-6.60000e+00	1.680754e-05	
Note: No ".plot", ".print", or ".fourier" lines; no simulations run
