
Note: Compatibility modes selected: hs

Warning: m=xx on .subckt line will override multiplier m hierarchy!


Circuit: ***************************

Doing analysis at TEMP = -40.000000 and TNOM = -40.000000


No. of Data Rows : 798
                          ***************************
                          DC transfer characteristic  Mon Jan  9 13:57:53  2023
--------------------------------------------------------------------------------
Index   v-sweep         i(vds)          
--------------------------------------------------------------------------------
0	0.000000e+00	0.000000e+00	
1	-5.00000e-02	8.572075e-08	
2	-1.00000e-01	1.112033e-07	
3	-1.50000e-01	1.161261e-07	
4	-2.00000e-01	1.177747e-07	
5	-2.50000e-01	1.187562e-07	
6	-3.00000e-01	1.195060e-07	
7	-3.50000e-01	1.201395e-07	
8	-4.00000e-01	1.207000e-07	
9	-4.50000e-01	1.212084e-07	
10	-5.00000e-01	1.216766e-07	
11	-5.50000e-01	1.221122e-07	
12	-6.00000e-01	1.225206e-07	
13	-6.50000e-01	1.229058e-07	
14	-7.00000e-01	1.232708e-07	
15	-7.50000e-01	1.236182e-07	
16	-8.00000e-01	1.239499e-07	
17	-8.50000e-01	1.242676e-07	
18	-9.00000e-01	1.245726e-07	
19	-9.50000e-01	1.248662e-07	
20	-1.00000e+00	1.251494e-07	
21	-1.05000e+00	1.254230e-07	
22	-1.10000e+00	1.256879e-07	
23	-1.15000e+00	1.259447e-07	
24	-1.20000e+00	1.261940e-07	
25	-1.25000e+00	1.264364e-07	
26	-1.30000e+00	1.266724e-07	
27	-1.35000e+00	1.269024e-07	
28	-1.40000e+00	1.271267e-07	
29	-1.45000e+00	1.273457e-07	
30	-1.50000e+00	1.275599e-07	
31	-1.55000e+00	1.277693e-07	
32	-1.60000e+00	1.279744e-07	
33	-1.65000e+00	1.281753e-07	
34	-1.70000e+00	1.283723e-07	
35	-1.75000e+00	1.285657e-07	
36	-1.80000e+00	1.287554e-07	
37	-1.85000e+00	1.289419e-07	
38	-1.90000e+00	1.291252e-07	
39	-1.95000e+00	1.293054e-07	
40	-2.00000e+00	1.294828e-07	
41	-2.05000e+00	1.296574e-07	
42	-2.10000e+00	1.298294e-07	
43	-2.15000e+00	1.299988e-07	
44	-2.20000e+00	1.301659e-07	
45	-2.25000e+00	1.303307e-07	
46	-2.30000e+00	1.304932e-07	
47	-2.35000e+00	1.306537e-07	
48	-2.40000e+00	1.308120e-07	
49	-2.45000e+00	1.309685e-07	
50	-2.50000e+00	1.311230e-07	
51	-2.55000e+00	1.312758e-07	
52	-2.60000e+00	1.314268e-07	
53	-2.65000e+00	1.315761e-07	
54	-2.70000e+00	1.317238e-07	

Index   v-sweep         i(vds)          
--------------------------------------------------------------------------------
55	-2.75000e+00	1.318700e-07	
56	-2.80000e+00	1.320146e-07	
57	-2.85000e+00	1.321578e-07	
58	-2.90000e+00	1.322996e-07	
59	-2.95000e+00	1.324401e-07	
60	-3.00000e+00	1.325793e-07	
61	-3.05000e+00	1.327172e-07	
62	-3.10000e+00	1.328540e-07	
63	-3.15000e+00	1.329896e-07	
64	-3.20000e+00	1.331242e-07	
65	-3.25000e+00	1.332577e-07	
66	-3.30000e+00	1.333903e-07	
67	-3.35000e+00	1.335219e-07	
68	-3.40000e+00	1.336528e-07	
69	-3.45000e+00	1.337829e-07	
70	-3.50000e+00	1.339123e-07	
71	-3.55000e+00	1.340412e-07	
72	-3.60000e+00	1.341695e-07	
73	-3.65000e+00	1.342975e-07	
74	-3.70000e+00	1.344251e-07	
75	-3.75000e+00	1.345527e-07	
76	-3.80000e+00	1.346802e-07	
77	-3.85000e+00	1.348079e-07	
78	-3.90000e+00	1.349358e-07	
79	-3.95000e+00	1.350643e-07	
80	-4.00000e+00	1.351935e-07	
81	-4.05000e+00	1.353235e-07	
82	-4.10000e+00	1.354548e-07	
83	-4.15000e+00	1.355875e-07	
84	-4.20000e+00	1.357218e-07	
85	-4.25000e+00	1.358582e-07	
86	-4.30000e+00	1.359970e-07	
87	-4.35000e+00	1.361385e-07	
88	-4.40000e+00	1.362832e-07	
89	-4.45000e+00	1.364314e-07	
90	-4.50000e+00	1.365836e-07	
91	-4.55000e+00	1.367404e-07	
92	-4.60000e+00	1.369022e-07	
93	-4.65000e+00	1.370696e-07	
94	-4.70000e+00	1.372433e-07	
95	-4.75000e+00	1.374239e-07	
96	-4.80000e+00	1.376120e-07	
97	-4.85000e+00	1.378084e-07	
98	-4.90000e+00	1.380139e-07	
99	-4.95000e+00	1.382294e-07	
100	-5.00000e+00	1.384555e-07	
101	-5.05000e+00	1.386934e-07	
102	-5.10000e+00	1.389439e-07	
103	-5.15000e+00	1.392080e-07	
104	-5.20000e+00	1.394869e-07	
105	-5.25000e+00	1.397816e-07	
106	-5.30000e+00	1.400933e-07	
107	-5.35000e+00	1.404231e-07	
108	-5.40000e+00	1.407725e-07	
109	-5.45000e+00	1.411426e-07	
110	-5.50000e+00	1.415350e-07	
111	-5.55000e+00	1.419509e-07	
112	-5.60000e+00	1.423920e-07	

Index   v-sweep         i(vds)          
--------------------------------------------------------------------------------
113	-5.65000e+00	1.428596e-07	
114	-5.70000e+00	1.433555e-07	
115	-5.75000e+00	1.438814e-07	
116	-5.80000e+00	1.444388e-07	
117	-5.85000e+00	1.450296e-07	
118	-5.90000e+00	1.456556e-07	
119	-5.95000e+00	1.463187e-07	
120	-6.00000e+00	1.470208e-07	
121	-6.05000e+00	1.477639e-07	
122	-6.10000e+00	1.485501e-07	
123	-6.15000e+00	1.493814e-07	
124	-6.20000e+00	1.502601e-07	
125	-6.25000e+00	1.511883e-07	
126	-6.30000e+00	1.521684e-07	
127	-6.35000e+00	1.532025e-07	
128	-6.40000e+00	1.542932e-07	
129	-6.45000e+00	1.554429e-07	
130	-6.50000e+00	1.566539e-07	
131	-6.55000e+00	1.579290e-07	
132	-6.60000e+00	1.592705e-07	
133	0.000000e+00	0.000000e+00	
134	-5.00000e-02	1.713083e-06	
135	-1.00000e-01	3.306095e-06	
136	-1.50000e-01	4.780383e-06	
137	-2.00000e-01	6.137285e-06	
138	-2.50000e-01	7.378132e-06	
139	-3.00000e-01	8.504262e-06	
140	-3.50000e-01	9.517031e-06	
141	-4.00000e-01	1.041784e-05	
142	-4.50000e-01	1.120820e-05	
143	-5.00000e-01	1.188980e-05	
144	-5.50000e-01	1.246479e-05	
145	-6.00000e-01	1.293617e-05	
146	-6.50000e-01	1.330883e-05	
147	-7.00000e-01	1.359124e-05	
148	-7.50000e-01	1.379751e-05	
149	-8.00000e-01	1.394679e-05	
150	-8.50000e-01	1.405835e-05	
151	-9.00000e-01	1.414650e-05	
152	-9.50000e-01	1.421989e-05	
153	-1.00000e+00	1.428338e-05	
154	-1.05000e+00	1.433978e-05	
155	-1.10000e+00	1.439080e-05	
156	-1.15000e+00	1.443754e-05	
157	-1.20000e+00	1.448080e-05	
158	-1.25000e+00	1.452113e-05	
159	-1.30000e+00	1.455897e-05	
160	-1.35000e+00	1.459465e-05	
161	-1.40000e+00	1.462845e-05	
162	-1.45000e+00	1.466058e-05	
163	-1.50000e+00	1.469122e-05	
164	-1.55000e+00	1.472054e-05	
165	-1.60000e+00	1.474865e-05	
166	-1.65000e+00	1.477567e-05	
167	-1.70000e+00	1.480170e-05	
168	-1.75000e+00	1.482682e-05	
169	-1.80000e+00	1.485110e-05	
170	-1.85000e+00	1.487461e-05	

Index   v-sweep         i(vds)          
--------------------------------------------------------------------------------
171	-1.90000e+00	1.489741e-05	
172	-1.95000e+00	1.491955e-05	
173	-2.00000e+00	1.494107e-05	
174	-2.05000e+00	1.496201e-05	
175	-2.10000e+00	1.498242e-05	
176	-2.15000e+00	1.500232e-05	
177	-2.20000e+00	1.502175e-05	
178	-2.25000e+00	1.504073e-05	
179	-2.30000e+00	1.505930e-05	
180	-2.35000e+00	1.507747e-05	
181	-2.40000e+00	1.509526e-05	
182	-2.45000e+00	1.511270e-05	
183	-2.50000e+00	1.512980e-05	
184	-2.55000e+00	1.514658e-05	
185	-2.60000e+00	1.516305e-05	
186	-2.65000e+00	1.517924e-05	
187	-2.70000e+00	1.519515e-05	
188	-2.75000e+00	1.521080e-05	
189	-2.80000e+00	1.522619e-05	
190	-2.85000e+00	1.524134e-05	
191	-2.90000e+00	1.525627e-05	
192	-2.95000e+00	1.527097e-05	
193	-3.00000e+00	1.528546e-05	
194	-3.05000e+00	1.529974e-05	
195	-3.10000e+00	1.531384e-05	
196	-3.15000e+00	1.532774e-05	
197	-3.20000e+00	1.534146e-05	
198	-3.25000e+00	1.535501e-05	
199	-3.30000e+00	1.536839e-05	
200	-3.35000e+00	1.538161e-05	
201	-3.40000e+00	1.539468e-05	
202	-3.45000e+00	1.540759e-05	
203	-3.50000e+00	1.542036e-05	
204	-3.55000e+00	1.543300e-05	
205	-3.60000e+00	1.544550e-05	
206	-3.65000e+00	1.545787e-05	
207	-3.70000e+00	1.547012e-05	
208	-3.75000e+00	1.548225e-05	
209	-3.80000e+00	1.549427e-05	
210	-3.85000e+00	1.550618e-05	
211	-3.90000e+00	1.551799e-05	
212	-3.95000e+00	1.552971e-05	
213	-4.00000e+00	1.554134e-05	
214	-4.05000e+00	1.555289e-05	
215	-4.10000e+00	1.556437e-05	
216	-4.15000e+00	1.557578e-05	
217	-4.20000e+00	1.558713e-05	
218	-4.25000e+00	1.559844e-05	
219	-4.30000e+00	1.560972e-05	
220	-4.35000e+00	1.562097e-05	
221	-4.40000e+00	1.563221e-05	
222	-4.45000e+00	1.564346e-05	
223	-4.50000e+00	1.565473e-05	
224	-4.55000e+00	1.566604e-05	
225	-4.60000e+00	1.567741e-05	
226	-4.65000e+00	1.568886e-05	
227	-4.70000e+00	1.570042e-05	
228	-4.75000e+00	1.571211e-05	

Index   v-sweep         i(vds)          
--------------------------------------------------------------------------------
229	-4.80000e+00	1.572396e-05	
230	-4.85000e+00	1.573601e-05	
231	-4.90000e+00	1.574828e-05	
232	-4.95000e+00	1.576082e-05	
233	-5.00000e+00	1.577367e-05	
234	-5.05000e+00	1.578686e-05	
235	-5.10000e+00	1.580045e-05	
236	-5.15000e+00	1.581449e-05	
237	-5.20000e+00	1.582903e-05	
238	-5.25000e+00	1.584413e-05	
239	-5.30000e+00	1.585986e-05	
240	-5.35000e+00	1.587628e-05	
241	-5.40000e+00	1.589347e-05	
242	-5.45000e+00	1.591149e-05	
243	-5.50000e+00	1.593044e-05	
244	-5.55000e+00	1.595040e-05	
245	-5.60000e+00	1.597145e-05	
246	-5.65000e+00	1.599371e-05	
247	-5.70000e+00	1.601726e-05	
248	-5.75000e+00	1.604221e-05	
249	-5.80000e+00	1.606869e-05	
250	-5.85000e+00	1.609680e-05	
251	-5.90000e+00	1.612668e-05	
252	-5.95000e+00	1.615844e-05	
253	-6.00000e+00	1.619224e-05	
254	-6.05000e+00	1.622820e-05	
255	-6.10000e+00	1.626648e-05	
256	-6.15000e+00	1.630723e-05	
257	-6.20000e+00	1.635062e-05	
258	-6.25000e+00	1.639680e-05	
259	-6.30000e+00	1.644596e-05	
260	-6.35000e+00	1.649827e-05	
261	-6.40000e+00	1.655391e-05	
262	-6.45000e+00	1.661308e-05	
263	-6.50000e+00	1.667598e-05	
264	-6.55000e+00	1.674282e-05	
265	-6.60000e+00	1.681379e-05	
266	0.000000e+00	0.000000e+00	
267	-5.00000e-02	3.007118e-06	
268	-1.00000e-01	5.898500e-06	
269	-1.50000e-01	8.675270e-06	
270	-2.00000e-01	1.133854e-05	
271	-2.50000e-01	1.388941e-05	
272	-3.00000e-01	1.632897e-05	
273	-3.50000e-01	1.865828e-05	
274	-4.00000e-01	2.087841e-05	
275	-4.50000e-01	2.299041e-05	
276	-5.00000e-01	2.499531e-05	
277	-5.50000e-01	2.689414e-05	
278	-6.00000e-01	2.868792e-05	
279	-6.50000e-01	3.037767e-05	
280	-7.00000e-01	3.196438e-05	
281	-7.50000e-01	3.344906e-05	
282	-8.00000e-01	3.483273e-05	
283	-8.50000e-01	3.611639e-05	
284	-9.00000e-01	3.730110e-05	
285	-9.50000e-01	3.838792e-05	
286	-1.00000e+00	3.937802e-05	

Index   v-sweep         i(vds)          
--------------------------------------------------------------------------------
287	-1.05000e+00	4.027267e-05	
288	-1.10000e+00	4.107337e-05	
289	-1.15000e+00	4.178198e-05	
290	-1.20000e+00	4.240105e-05	
291	-1.25000e+00	4.293425e-05	
292	-1.30000e+00	4.338707e-05	
293	-1.35000e+00	4.376740e-05	
294	-1.40000e+00	4.408565e-05	
295	-1.45000e+00	4.435352e-05	
296	-1.50000e+00	4.458219e-05	
297	-1.55000e+00	4.478088e-05	
298	-1.60000e+00	4.495653e-05	
299	-1.65000e+00	4.511416e-05	
300	-1.70000e+00	4.525739e-05	
301	-1.75000e+00	4.538886e-05	
302	-1.80000e+00	4.551055e-05	
303	-1.85000e+00	4.562397e-05	
304	-1.90000e+00	4.573030e-05	
305	-1.95000e+00	4.583049e-05	
306	-2.00000e+00	4.592530e-05	
307	-2.05000e+00	4.601535e-05	
308	-2.10000e+00	4.610118e-05	
309	-2.15000e+00	4.618322e-05	
310	-2.20000e+00	4.626186e-05	
311	-2.25000e+00	4.633740e-05	
312	-2.30000e+00	4.641013e-05	
313	-2.35000e+00	4.648029e-05	
314	-2.40000e+00	4.654809e-05	
315	-2.45000e+00	4.661372e-05	
316	-2.50000e+00	4.667734e-05	
317	-2.55000e+00	4.673911e-05	
318	-2.60000e+00	4.679914e-05	
319	-2.65000e+00	4.685757e-05	
320	-2.70000e+00	4.691450e-05	
321	-2.75000e+00	4.697001e-05	
322	-2.80000e+00	4.702421e-05	
323	-2.85000e+00	4.707717e-05	
324	-2.90000e+00	4.712896e-05	
325	-2.95000e+00	4.717965e-05	
326	-3.00000e+00	4.722929e-05	
327	-3.05000e+00	4.727795e-05	
328	-3.10000e+00	4.732568e-05	
329	-3.15000e+00	4.737252e-05	
330	-3.20000e+00	4.741852e-05	
331	-3.25000e+00	4.746372e-05	
332	-3.30000e+00	4.750816e-05	
333	-3.35000e+00	4.755186e-05	
334	-3.40000e+00	4.759488e-05	
335	-3.45000e+00	4.763722e-05	
336	-3.50000e+00	4.767894e-05	
337	-3.55000e+00	4.772004e-05	
338	-3.60000e+00	4.776056e-05	
339	-3.65000e+00	4.780053e-05	
340	-3.70000e+00	4.783995e-05	
341	-3.75000e+00	4.787886e-05	
342	-3.80000e+00	4.791727e-05	
343	-3.85000e+00	4.795521e-05	
344	-3.90000e+00	4.799269e-05	

Index   v-sweep         i(vds)          
--------------------------------------------------------------------------------
345	-3.95000e+00	4.802973e-05	
346	-4.00000e+00	4.806634e-05	
347	-4.05000e+00	4.810254e-05	
348	-4.10000e+00	4.813835e-05	
349	-4.15000e+00	4.817378e-05	
350	-4.20000e+00	4.820885e-05	
351	-4.25000e+00	4.824356e-05	
352	-4.30000e+00	4.827794e-05	
353	-4.35000e+00	4.831200e-05	
354	-4.40000e+00	4.834576e-05	
355	-4.45000e+00	4.837922e-05	
356	-4.50000e+00	4.841242e-05	
357	-4.55000e+00	4.844535e-05	
358	-4.60000e+00	4.847805e-05	
359	-4.65000e+00	4.851054e-05	
360	-4.70000e+00	4.854283e-05	
361	-4.75000e+00	4.857494e-05	
362	-4.80000e+00	4.860692e-05	
363	-4.85000e+00	4.863877e-05	
364	-4.90000e+00	4.867055e-05	
365	-4.95000e+00	4.870227e-05	
366	-5.00000e+00	4.873399e-05	
367	-5.05000e+00	4.876574e-05	
368	-5.10000e+00	4.879758e-05	
369	-5.15000e+00	4.882955e-05	
370	-5.20000e+00	4.886172e-05	
371	-5.25000e+00	4.889414e-05	
372	-5.30000e+00	4.892690e-05	
373	-5.35000e+00	4.896007e-05	
374	-5.40000e+00	4.899374e-05	
375	-5.45000e+00	4.902800e-05	
376	-5.50000e+00	4.906296e-05	
377	-5.55000e+00	4.909872e-05	
378	-5.60000e+00	4.913541e-05	
379	-5.65000e+00	4.917316e-05	
380	-5.70000e+00	4.921212e-05	
381	-5.75000e+00	4.925243e-05	
382	-5.80000e+00	4.929426e-05	
383	-5.85000e+00	4.933780e-05	
384	-5.90000e+00	4.938323e-05	
385	-5.95000e+00	4.943075e-05	
386	-6.00000e+00	4.948059e-05	
387	-6.05000e+00	4.953297e-05	
388	-6.10000e+00	4.958814e-05	
389	-6.15000e+00	4.964637e-05	
390	-6.20000e+00	4.970793e-05	
391	-6.25000e+00	4.977311e-05	
392	-6.30000e+00	4.984223e-05	
393	-6.35000e+00	4.991561e-05	
394	-6.40000e+00	4.999359e-05	
395	-6.45000e+00	5.007654e-05	
396	-6.50000e+00	5.016483e-05	
397	-6.55000e+00	5.025887e-05	
398	-6.60000e+00	5.035905e-05	
399	0.000000e+00	0.000000e+00	
400	-5.00000e-02	4.028663e-06	
401	-1.00000e-01	7.947668e-06	
402	-1.50000e-01	1.175797e-05	

Index   v-sweep         i(vds)          
--------------------------------------------------------------------------------
403	-2.00000e-01	1.546051e-05	
404	-2.50000e-01	1.905622e-05	
405	-3.00000e-01	2.254603e-05	
406	-3.50000e-01	2.593084e-05	
407	-4.00000e-01	2.921155e-05	
408	-4.50000e-01	3.238906e-05	
409	-5.00000e-01	3.546424e-05	
410	-5.50000e-01	3.843797e-05	
411	-6.00000e-01	4.131110e-05	
412	-6.50000e-01	4.408450e-05	
413	-7.00000e-01	4.675900e-05	
414	-7.50000e-01	4.933545e-05	
415	-8.00000e-01	5.181466e-05	
416	-8.50000e-01	5.419745e-05	
417	-9.00000e-01	5.648464e-05	
418	-9.50000e-01	5.867702e-05	
419	-1.00000e+00	6.077540e-05	
420	-1.05000e+00	6.278056e-05	
421	-1.10000e+00	6.469328e-05	
422	-1.15000e+00	6.651436e-05	
423	-1.20000e+00	6.824455e-05	
424	-1.25000e+00	6.988464e-05	
425	-1.30000e+00	7.143541e-05	
426	-1.35000e+00	7.289763e-05	
427	-1.40000e+00	7.427209e-05	
428	-1.45000e+00	7.555960e-05	
429	-1.50000e+00	7.676101e-05	
430	-1.55000e+00	7.787720e-05	
431	-1.60000e+00	7.890913e-05	
432	-1.65000e+00	7.985790e-05	
433	-1.70000e+00	8.072480e-05	
434	-1.75000e+00	8.151146e-05	
435	-1.80000e+00	8.222005e-05	
436	-1.85000e+00	8.285355e-05	
437	-1.90000e+00	8.341608e-05	
438	-1.95000e+00	8.391321e-05	
439	-2.00000e+00	8.435183e-05	
440	-2.05000e+00	8.473971e-05	
441	-2.10000e+00	8.508468e-05	
442	-2.15000e+00	8.539388e-05	
443	-2.20000e+00	8.567343e-05	
444	-2.25000e+00	8.592834e-05	
445	-2.30000e+00	8.616263e-05	
446	-2.35000e+00	8.637949e-05	
447	-2.40000e+00	8.658148e-05	
448	-2.45000e+00	8.677067e-05	
449	-2.50000e+00	8.694874e-05	
450	-2.55000e+00	8.711706e-05	
451	-2.60000e+00	8.727676e-05	
452	-2.65000e+00	8.742882e-05	
453	-2.70000e+00	8.757403e-05	
454	-2.75000e+00	8.771309e-05	
455	-2.80000e+00	8.784657e-05	
456	-2.85000e+00	8.797500e-05	
457	-2.90000e+00	8.809882e-05	
458	-2.95000e+00	8.821841e-05	
459	-3.00000e+00	8.833412e-05	
460	-3.05000e+00	8.844624e-05	

Index   v-sweep         i(vds)          
--------------------------------------------------------------------------------
461	-3.10000e+00	8.855505e-05	
462	-3.15000e+00	8.866078e-05	
463	-3.20000e+00	8.876365e-05	
464	-3.25000e+00	8.886385e-05	
465	-3.30000e+00	8.896156e-05	
466	-3.35000e+00	8.905694e-05	
467	-3.40000e+00	8.915012e-05	
468	-3.45000e+00	8.924124e-05	
469	-3.50000e+00	8.933041e-05	
470	-3.55000e+00	8.941775e-05	
471	-3.60000e+00	8.950336e-05	
472	-3.65000e+00	8.958732e-05	
473	-3.70000e+00	8.966973e-05	
474	-3.75000e+00	8.975067e-05	
475	-3.80000e+00	8.983019e-05	
476	-3.85000e+00	8.990839e-05	
477	-3.90000e+00	8.998530e-05	
478	-3.95000e+00	9.006101e-05	
479	-4.00000e+00	9.013555e-05	
480	-4.05000e+00	9.020898e-05	
481	-4.10000e+00	9.028135e-05	
482	-4.15000e+00	9.035271e-05	
483	-4.20000e+00	9.042309e-05	
484	-4.25000e+00	9.049253e-05	
485	-4.30000e+00	9.056108e-05	
486	-4.35000e+00	9.062876e-05	
487	-4.40000e+00	9.069562e-05	
488	-4.45000e+00	9.076168e-05	
489	-4.50000e+00	9.082697e-05	
490	-4.55000e+00	9.089152e-05	
491	-4.60000e+00	9.095537e-05	
492	-4.65000e+00	9.101853e-05	
493	-4.70000e+00	9.108103e-05	
494	-4.75000e+00	9.114290e-05	
495	-4.80000e+00	9.120416e-05	
496	-4.85000e+00	9.126484e-05	
497	-4.90000e+00	9.132497e-05	
498	-4.95000e+00	9.138456e-05	
499	-5.00000e+00	9.144365e-05	
500	-5.05000e+00	9.150227e-05	
501	-5.10000e+00	9.156045e-05	
502	-5.15000e+00	9.161820e-05	
503	-5.20000e+00	9.167559e-05	
504	-5.25000e+00	9.173263e-05	
505	-5.30000e+00	9.178937e-05	
506	-5.35000e+00	9.184585e-05	
507	-5.40000e+00	9.190213e-05	
508	-5.45000e+00	9.195827e-05	
509	-5.50000e+00	9.201431e-05	
510	-5.55000e+00	9.207033e-05	
511	-5.60000e+00	9.212641e-05	
512	-5.65000e+00	9.218264e-05	
513	-5.70000e+00	9.223909e-05	
514	-5.75000e+00	9.229588e-05	
515	-5.80000e+00	9.235313e-05	
516	-5.85000e+00	9.241095e-05	
517	-5.90000e+00	9.246949e-05	
518	-5.95000e+00	9.252890e-05	

Index   v-sweep         i(vds)          
--------------------------------------------------------------------------------
519	-6.00000e+00	9.258934e-05	
520	-6.05000e+00	9.265101e-05	
521	-6.10000e+00	9.271409e-05	
522	-6.15000e+00	9.277881e-05	
523	-6.20000e+00	9.284540e-05	
524	-6.25000e+00	9.291411e-05	
525	-6.30000e+00	9.298523e-05	
526	-6.35000e+00	9.305905e-05	
527	-6.40000e+00	9.313588e-05	
528	-6.45000e+00	9.321608e-05	
529	-6.50000e+00	9.330001e-05	
530	-6.55000e+00	9.338806e-05	
531	-6.60000e+00	9.348065e-05	
532	0.000000e+00	0.000000e+00	
533	-5.00000e-02	4.853030e-06	
534	-1.00000e-01	9.602664e-06	
535	-1.50000e-01	1.424971e-05	
536	-2.00000e-01	1.879499e-05	
537	-2.50000e-01	2.323928e-05	
538	-3.00000e-01	2.758338e-05	
539	-3.50000e-01	3.182806e-05	
540	-4.00000e-01	3.597411e-05	
541	-4.50000e-01	4.002227e-05	
542	-5.00000e-01	4.397332e-05	
543	-5.50000e-01	4.782800e-05	
544	-6.00000e-01	5.158705e-05	
545	-6.50000e-01	5.525120e-05	
546	-7.00000e-01	5.882119e-05	
547	-7.50000e-01	6.229772e-05	
548	-8.00000e-01	6.568152e-05	
549	-8.50000e-01	6.897328e-05	
550	-9.00000e-01	7.217371e-05	
551	-9.50000e-01	7.528350e-05	
552	-1.00000e+00	7.830332e-05	
553	-1.05000e+00	8.123387e-05	
554	-1.10000e+00	8.407581e-05	
555	-1.15000e+00	8.682981e-05	
556	-1.20000e+00	8.949652e-05	
557	-1.25000e+00	9.207661e-05	
558	-1.30000e+00	9.457071e-05	
559	-1.35000e+00	9.697947e-05	
560	-1.40000e+00	9.930353e-05	
561	-1.45000e+00	1.015435e-04	
562	-1.50000e+00	1.037001e-04	
563	-1.55000e+00	1.057738e-04	
564	-1.60000e+00	1.077653e-04	
565	-1.65000e+00	1.096752e-04	
566	-1.70000e+00	1.115042e-04	
567	-1.75000e+00	1.132528e-04	
568	-1.80000e+00	1.149216e-04	
569	-1.85000e+00	1.165113e-04	
570	-1.90000e+00	1.180225e-04	
571	-1.95000e+00	1.194557e-04	
572	-2.00000e+00	1.208117e-04	
573	-2.05000e+00	1.220910e-04	
574	-2.10000e+00	1.232944e-04	
575	-2.15000e+00	1.244226e-04	
576	-2.20000e+00	1.254763e-04	

Index   v-sweep         i(vds)          
--------------------------------------------------------------------------------
577	-2.25000e+00	1.264565e-04	
578	-2.30000e+00	1.273642e-04	
579	-2.35000e+00	1.282007e-04	
580	-2.40000e+00	1.289678e-04	
581	-2.45000e+00	1.296678e-04	
582	-2.50000e+00	1.303040e-04	
583	-2.55000e+00	1.308806e-04	
584	-2.60000e+00	1.314028e-04	
585	-2.65000e+00	1.318762e-04	
586	-2.70000e+00	1.323070e-04	
587	-2.75000e+00	1.327006e-04	
588	-2.80000e+00	1.330624e-04	
589	-2.85000e+00	1.333966e-04	
590	-2.90000e+00	1.337072e-04	
591	-2.95000e+00	1.339973e-04	
592	-3.00000e+00	1.342696e-04	
593	-3.05000e+00	1.345262e-04	
594	-3.10000e+00	1.347691e-04	
595	-3.15000e+00	1.349997e-04	
596	-3.20000e+00	1.352194e-04	
597	-3.25000e+00	1.354293e-04	
598	-3.30000e+00	1.356305e-04	
599	-3.35000e+00	1.358237e-04	
600	-3.40000e+00	1.360096e-04	
601	-3.45000e+00	1.361889e-04	
602	-3.50000e+00	1.363622e-04	
603	-3.55000e+00	1.365298e-04	
604	-3.60000e+00	1.366924e-04	
605	-3.65000e+00	1.368501e-04	
606	-3.70000e+00	1.370035e-04	
607	-3.75000e+00	1.371528e-04	
608	-3.80000e+00	1.372982e-04	
609	-3.85000e+00	1.374400e-04	
610	-3.90000e+00	1.375785e-04	
611	-3.95000e+00	1.377139e-04	
612	-4.00000e+00	1.378463e-04	
613	-4.05000e+00	1.379759e-04	
614	-4.10000e+00	1.381029e-04	
615	-4.15000e+00	1.382273e-04	
616	-4.20000e+00	1.383495e-04	
617	-4.25000e+00	1.384694e-04	
618	-4.30000e+00	1.385872e-04	
619	-4.35000e+00	1.387030e-04	
620	-4.40000e+00	1.388168e-04	
621	-4.45000e+00	1.389289e-04	
622	-4.50000e+00	1.390392e-04	
623	-4.55000e+00	1.391478e-04	
624	-4.60000e+00	1.392549e-04	
625	-4.65000e+00	1.393604e-04	
626	-4.70000e+00	1.394645e-04	
627	-4.75000e+00	1.395672e-04	
628	-4.80000e+00	1.396686e-04	
629	-4.85000e+00	1.397686e-04	
630	-4.90000e+00	1.398675e-04	
631	-4.95000e+00	1.399651e-04	
632	-5.00000e+00	1.400616e-04	
633	-5.05000e+00	1.401571e-04	
634	-5.10000e+00	1.402514e-04	

Index   v-sweep         i(vds)          
--------------------------------------------------------------------------------
635	-5.15000e+00	1.403448e-04	
636	-5.20000e+00	1.404372e-04	
637	-5.25000e+00	1.405286e-04	
638	-5.30000e+00	1.406191e-04	
639	-5.35000e+00	1.407088e-04	
640	-5.40000e+00	1.407976e-04	
641	-5.45000e+00	1.408857e-04	
642	-5.50000e+00	1.409729e-04	
643	-5.55000e+00	1.410595e-04	
644	-5.60000e+00	1.411454e-04	
645	-5.65000e+00	1.412307e-04	
646	-5.70000e+00	1.413154e-04	
647	-5.75000e+00	1.413995e-04	
648	-5.80000e+00	1.414832e-04	
649	-5.85000e+00	1.415664e-04	
650	-5.90000e+00	1.416493e-04	
651	-5.95000e+00	1.417319e-04	
652	-6.00000e+00	1.418143e-04	
653	-6.05000e+00	1.418966e-04	
654	-6.10000e+00	1.419789e-04	
655	-6.15000e+00	1.420613e-04	
656	-6.20000e+00	1.421439e-04	
657	-6.25000e+00	1.422269e-04	
658	-6.30000e+00	1.423104e-04	
659	-6.35000e+00	1.423947e-04	
660	-6.40000e+00	1.424798e-04	
661	-6.45000e+00	1.425659e-04	
662	-6.50000e+00	1.426535e-04	
663	-6.55000e+00	1.427425e-04	
664	-6.60000e+00	1.428335e-04	
665	0.000000e+00	0.000000e+00	
666	-5.00000e-02	5.530015e-06	
667	-1.00000e-01	1.096266e-05	
668	-1.50000e-01	1.629865e-05	
669	-2.00000e-01	2.153865e-05	
670	-2.50000e-01	2.668337e-05	
671	-3.00000e-01	3.173349e-05	
672	-3.50000e-01	3.668966e-05	
673	-4.00000e-01	4.155257e-05	
674	-4.50000e-01	4.632287e-05	
675	-5.00000e-01	5.100121e-05	
676	-5.50000e-01	5.558825e-05	
677	-6.00000e-01	6.008462e-05	
678	-6.50000e-01	6.449097e-05	
679	-7.00000e-01	6.880791e-05	
680	-7.50000e-01	7.303609e-05	
681	-8.00000e-01	7.717611e-05	
682	-8.50000e-01	8.122859e-05	
683	-9.00000e-01	8.519413e-05	
684	-9.50000e-01	8.907335e-05	
685	-1.00000e+00	9.286682e-05	
686	-1.05000e+00	9.657516e-05	
687	-1.10000e+00	1.001989e-04	
688	-1.15000e+00	1.037387e-04	
689	-1.20000e+00	1.071951e-04	
690	-1.25000e+00	1.105687e-04	
691	-1.30000e+00	1.138600e-04	
692	-1.35000e+00	1.170696e-04	

Index   v-sweep         i(vds)          
--------------------------------------------------------------------------------
693	-1.40000e+00	1.201980e-04	
694	-1.45000e+00	1.232458e-04	
695	-1.50000e+00	1.262136e-04	
696	-1.55000e+00	1.291019e-04	
697	-1.60000e+00	1.319112e-04	
698	-1.65000e+00	1.346420e-04	
699	-1.70000e+00	1.372949e-04	
700	-1.75000e+00	1.398705e-04	
701	-1.80000e+00	1.423691e-04	
702	-1.85000e+00	1.447915e-04	
703	-1.90000e+00	1.471379e-04	
704	-1.95000e+00	1.494090e-04	
705	-2.00000e+00	1.516053e-04	
706	-2.05000e+00	1.537273e-04	
707	-2.10000e+00	1.557754e-04	
708	-2.15000e+00	1.577502e-04	
709	-2.20000e+00	1.596522e-04	
710	-2.25000e+00	1.614818e-04	
711	-2.30000e+00	1.632395e-04	
712	-2.35000e+00	1.649259e-04	
713	-2.40000e+00	1.665414e-04	
714	-2.45000e+00	1.680864e-04	
715	-2.50000e+00	1.695616e-04	
716	-2.55000e+00	1.709673e-04	
717	-2.60000e+00	1.723041e-04	
718	-2.65000e+00	1.735724e-04	
719	-2.70000e+00	1.747729e-04	
720	-2.75000e+00	1.759059e-04	
721	-2.80000e+00	1.769721e-04	
722	-2.85000e+00	1.779721e-04	
723	-2.90000e+00	1.789066e-04	
724	-2.95000e+00	1.797766e-04	
725	-3.00000e+00	1.805835e-04	
726	-3.05000e+00	1.813291e-04	
727	-3.10000e+00	1.820161e-04	
728	-3.15000e+00	1.826481e-04	
729	-3.20000e+00	1.832292e-04	
730	-3.25000e+00	1.837642e-04	
731	-3.30000e+00	1.842581e-04	
732	-3.35000e+00	1.847155e-04	
733	-3.40000e+00	1.851409e-04	
734	-3.45000e+00	1.855382e-04	
735	-3.50000e+00	1.859108e-04	
736	-3.55000e+00	1.862616e-04	
737	-3.60000e+00	1.865931e-04	
738	-3.65000e+00	1.869075e-04	
739	-3.70000e+00	1.872067e-04	
740	-3.75000e+00	1.874922e-04	
741	-3.80000e+00	1.877654e-04	
742	-3.85000e+00	1.880274e-04	
743	-3.90000e+00	1.882793e-04	
744	-3.95000e+00	1.885220e-04	
745	-4.00000e+00	1.887563e-04	
746	-4.05000e+00	1.889829e-04	
747	-4.10000e+00	1.892023e-04	
748	-4.15000e+00	1.894152e-04	
749	-4.20000e+00	1.896219e-04	
750	-4.25000e+00	1.898230e-04	

Index   v-sweep         i(vds)          
--------------------------------------------------------------------------------
751	-4.30000e+00	1.900189e-04	
752	-4.35000e+00	1.902098e-04	
753	-4.40000e+00	1.903961e-04	
754	-4.45000e+00	1.905781e-04	
755	-4.50000e+00	1.907561e-04	
756	-4.55000e+00	1.909303e-04	
757	-4.60000e+00	1.911009e-04	
758	-4.65000e+00	1.912681e-04	
759	-4.70000e+00	1.914320e-04	
760	-4.75000e+00	1.915930e-04	
761	-4.80000e+00	1.917511e-04	
762	-4.85000e+00	1.919065e-04	
763	-4.90000e+00	1.920592e-04	
764	-4.95000e+00	1.922095e-04	
765	-5.00000e+00	1.923575e-04	
766	-5.05000e+00	1.925032e-04	
767	-5.10000e+00	1.926467e-04	
768	-5.15000e+00	1.927882e-04	
769	-5.20000e+00	1.929278e-04	
770	-5.25000e+00	1.930655e-04	
771	-5.30000e+00	1.932013e-04	
772	-5.35000e+00	1.933355e-04	
773	-5.40000e+00	1.934680e-04	
774	-5.45000e+00	1.935989e-04	
775	-5.50000e+00	1.937282e-04	
776	-5.55000e+00	1.938561e-04	
777	-5.60000e+00	1.939826e-04	
778	-5.65000e+00	1.941077e-04	
779	-5.70000e+00	1.942315e-04	
780	-5.75000e+00	1.943541e-04	
781	-5.80000e+00	1.944754e-04	
782	-5.85000e+00	1.945956e-04	
783	-5.90000e+00	1.947146e-04	
784	-5.95000e+00	1.948326e-04	
785	-6.00000e+00	1.949496e-04	
786	-6.05000e+00	1.950656e-04	
787	-6.10000e+00	1.951806e-04	
788	-6.15000e+00	1.952948e-04	
789	-6.20000e+00	1.954082e-04	
790	-6.25000e+00	1.955208e-04	
791	-6.30000e+00	1.956328e-04	
792	-6.35000e+00	1.957442e-04	
793	-6.40000e+00	1.958550e-04	
794	-6.45000e+00	1.959654e-04	
795	-6.50000e+00	1.960755e-04	
796	-6.55000e+00	1.961853e-04	
797	-6.60000e+00	1.962950e-04	
Note: No ".plot", ".print", or ".fourier" lines; no simulations run
