
Note: Compatibility modes selected: hs

Warning: m=xx on .subckt line will override multiplier m hierarchy!


Circuit: ***************************

Doing analysis at TEMP = 125.000000 and TNOM = 125.000000


No. of Data Rows : 798
                          ***************************
                          DC transfer characteristic  Mon Jan  9 13:57:53  2023
--------------------------------------------------------------------------------
Index   v-sweep         i(vds)          
--------------------------------------------------------------------------------
0	0.000000e+00	0.000000e+00	
1	-5.00000e-02	4.671608e-08	
2	-1.00000e-01	7.488136e-08	
3	-1.50000e-01	9.176253e-08	
4	-2.00000e-01	1.001367e-07	
5	-2.50000e-01	1.032329e-07	
6	-3.00000e-01	1.042540e-07	
7	-3.50000e-01	1.046623e-07	
8	-4.00000e-01	1.048774e-07	
9	-4.50000e-01	1.050184e-07	
10	-5.00000e-01	1.051253e-07	
11	-5.50000e-01	1.052141e-07	
12	-6.00000e-01	1.052919e-07	
13	-6.50000e-01	1.053626e-07	
14	-7.00000e-01	1.054282e-07	
15	-7.50000e-01	1.054900e-07	
16	-8.00000e-01	1.055488e-07	
17	-8.50000e-01	1.056053e-07	
18	-9.00000e-01	1.056597e-07	
19	-9.50000e-01	1.057124e-07	
20	-1.00000e+00	1.057636e-07	
21	-1.05000e+00	1.058135e-07	
22	-1.10000e+00	1.058622e-07	
23	-1.15000e+00	1.059099e-07	
24	-1.20000e+00	1.059566e-07	
25	-1.25000e+00	1.060024e-07	
26	-1.30000e+00	1.060475e-07	
27	-1.35000e+00	1.060917e-07	
28	-1.40000e+00	1.061353e-07	
29	-1.45000e+00	1.061783e-07	
30	-1.50000e+00	1.062206e-07	
31	-1.55000e+00	1.062624e-07	
32	-1.60000e+00	1.063037e-07	
33	-1.65000e+00	1.063445e-07	
34	-1.70000e+00	1.063848e-07	
35	-1.75000e+00	1.064246e-07	
36	-1.80000e+00	1.064641e-07	
37	-1.85000e+00	1.065031e-07	
38	-1.90000e+00	1.065418e-07	
39	-1.95000e+00	1.065801e-07	
40	-2.00000e+00	1.066180e-07	
41	-2.05000e+00	1.066557e-07	
42	-2.10000e+00	1.066930e-07	
43	-2.15000e+00	1.067300e-07	
44	-2.20000e+00	1.067668e-07	
45	-2.25000e+00	1.068033e-07	
46	-2.30000e+00	1.068395e-07	
47	-2.35000e+00	1.068754e-07	
48	-2.40000e+00	1.069111e-07	
49	-2.45000e+00	1.069466e-07	
50	-2.50000e+00	1.069819e-07	
51	-2.55000e+00	1.070169e-07	
52	-2.60000e+00	1.070518e-07	
53	-2.65000e+00	1.070864e-07	
54	-2.70000e+00	1.071209e-07	

Index   v-sweep         i(vds)          
--------------------------------------------------------------------------------
55	-2.75000e+00	1.071551e-07	
56	-2.80000e+00	1.071892e-07	
57	-2.85000e+00	1.072231e-07	
58	-2.90000e+00	1.072569e-07	
59	-2.95000e+00	1.072905e-07	
60	-3.00000e+00	1.073240e-07	
61	-3.05000e+00	1.073573e-07	
62	-3.10000e+00	1.073905e-07	
63	-3.15000e+00	1.074236e-07	
64	-3.20000e+00	1.074565e-07	
65	-3.25000e+00	1.074894e-07	
66	-3.30000e+00	1.075222e-07	
67	-3.35000e+00	1.075550e-07	
68	-3.40000e+00	1.075877e-07	
69	-3.45000e+00	1.076203e-07	
70	-3.50000e+00	1.076530e-07	
71	-3.55000e+00	1.076858e-07	
72	-3.60000e+00	1.077186e-07	
73	-3.65000e+00	1.077516e-07	
74	-3.70000e+00	1.077847e-07	
75	-3.75000e+00	1.078180e-07	
76	-3.80000e+00	1.078516e-07	
77	-3.85000e+00	1.078855e-07	
78	-3.90000e+00	1.079199e-07	
79	-3.95000e+00	1.079548e-07	
80	-4.00000e+00	1.079902e-07	
81	-4.05000e+00	1.080264e-07	
82	-4.10000e+00	1.080635e-07	
83	-4.15000e+00	1.081015e-07	
84	-4.20000e+00	1.081405e-07	
85	-4.25000e+00	1.081809e-07	
86	-4.30000e+00	1.082227e-07	
87	-4.35000e+00	1.082662e-07	
88	-4.40000e+00	1.083115e-07	
89	-4.45000e+00	1.083589e-07	
90	-4.50000e+00	1.084086e-07	
91	-4.55000e+00	1.084610e-07	
92	-4.60000e+00	1.085162e-07	
93	-4.65000e+00	1.085746e-07	
94	-4.70000e+00	1.086366e-07	
95	-4.75000e+00	1.087025e-07	
96	-4.80000e+00	1.087727e-07	
97	-4.85000e+00	1.088475e-07	
98	-4.90000e+00	1.089276e-07	
99	-4.95000e+00	1.090132e-07	
100	-5.00000e+00	1.091050e-07	
101	-5.05000e+00	1.092034e-07	
102	-5.10000e+00	1.093089e-07	
103	-5.15000e+00	1.094223e-07	
104	-5.20000e+00	1.095441e-07	
105	-5.25000e+00	1.096749e-07	
106	-5.30000e+00	1.098154e-07	
107	-5.35000e+00	1.099663e-07	
108	-5.40000e+00	1.101285e-07	
109	-5.45000e+00	1.103026e-07	
110	-5.50000e+00	1.104896e-07	
111	-5.55000e+00	1.106901e-07	
112	-5.60000e+00	1.109052e-07	

Index   v-sweep         i(vds)          
--------------------------------------------------------------------------------
113	-5.65000e+00	1.111358e-07	
114	-5.70000e+00	1.113827e-07	
115	-5.75000e+00	1.116471e-07	
116	-5.80000e+00	1.119299e-07	
117	-5.85000e+00	1.122322e-07	
118	-5.90000e+00	1.125551e-07	
119	-5.95000e+00	1.128997e-07	
120	-6.00000e+00	1.132673e-07	
121	-6.05000e+00	1.136589e-07	
122	-6.10000e+00	1.140760e-07	
123	-6.15000e+00	1.145197e-07	
124	-6.20000e+00	1.149913e-07	
125	-6.25000e+00	1.154923e-07	
126	-6.30000e+00	1.160240e-07	
127	-6.35000e+00	1.165879e-07	
128	-6.40000e+00	1.171853e-07	
129	-6.45000e+00	1.178178e-07	
130	-6.50000e+00	1.184869e-07	
131	-6.55000e+00	1.191942e-07	
132	-6.60000e+00	1.199412e-07	
133	0.000000e+00	0.000000e+00	
134	-5.00000e-02	2.019901e-07	
135	-1.00000e-01	3.842087e-07	
136	-1.50000e-01	5.536004e-07	
137	-2.00000e-01	7.117886e-07	
138	-2.50000e-01	8.591580e-07	
139	-3.00000e-01	9.958057e-07	
140	-3.50000e-01	1.121763e-06	
141	-4.00000e-01	1.237048e-06	
142	-4.50000e-01	1.341677e-06	
143	-5.00000e-01	1.435672e-06	
144	-5.50000e-01	1.519064e-06	
145	-6.00000e-01	1.591898e-06	
146	-6.50000e-01	1.654249e-06	
147	-7.00000e-01	1.706246e-06	
148	-7.50000e-01	1.748121e-06	
149	-8.00000e-01	1.780311e-06	
150	-8.50000e-01	1.803618e-06	
151	-9.00000e-01	1.819386e-06	
152	-9.50000e-01	1.829471e-06	
153	-1.00000e+00	1.835828e-06	
154	-1.05000e+00	1.839999e-06	
155	-1.10000e+00	1.842955e-06	
156	-1.15000e+00	1.845230e-06	
157	-1.20000e+00	1.847105e-06	
158	-1.25000e+00	1.848733e-06	
159	-1.30000e+00	1.850197e-06	
160	-1.35000e+00	1.851546e-06	
161	-1.40000e+00	1.852810e-06	
162	-1.45000e+00	1.854008e-06	
163	-1.50000e+00	1.855154e-06	
164	-1.55000e+00	1.856257e-06	
165	-1.60000e+00	1.857323e-06	
166	-1.65000e+00	1.858358e-06	
167	-1.70000e+00	1.859365e-06	
168	-1.75000e+00	1.860348e-06	
169	-1.80000e+00	1.861309e-06	
170	-1.85000e+00	1.862250e-06	

Index   v-sweep         i(vds)          
--------------------------------------------------------------------------------
171	-1.90000e+00	1.863173e-06	
172	-1.95000e+00	1.864080e-06	
173	-2.00000e+00	1.864972e-06	
174	-2.05000e+00	1.865849e-06	
175	-2.10000e+00	1.866714e-06	
176	-2.15000e+00	1.867566e-06	
177	-2.20000e+00	1.868407e-06	
178	-2.25000e+00	1.869238e-06	
179	-2.30000e+00	1.870058e-06	
180	-2.35000e+00	1.870869e-06	
181	-2.40000e+00	1.871671e-06	
182	-2.45000e+00	1.872464e-06	
183	-2.50000e+00	1.873250e-06	
184	-2.55000e+00	1.874027e-06	
185	-2.60000e+00	1.874798e-06	
186	-2.65000e+00	1.875562e-06	
187	-2.70000e+00	1.876319e-06	
188	-2.75000e+00	1.877070e-06	
189	-2.80000e+00	1.877814e-06	
190	-2.85000e+00	1.878553e-06	
191	-2.90000e+00	1.879287e-06	
192	-2.95000e+00	1.880015e-06	
193	-3.00000e+00	1.880739e-06	
194	-3.05000e+00	1.881457e-06	
195	-3.10000e+00	1.882171e-06	
196	-3.15000e+00	1.882880e-06	
197	-3.20000e+00	1.883585e-06	
198	-3.25000e+00	1.884285e-06	
199	-3.30000e+00	1.884982e-06	
200	-3.35000e+00	1.885675e-06	
201	-3.40000e+00	1.886364e-06	
202	-3.45000e+00	1.887049e-06	
203	-3.50000e+00	1.887732e-06	
204	-3.55000e+00	1.888410e-06	
205	-3.60000e+00	1.889086e-06	
206	-3.65000e+00	1.889759e-06	
207	-3.70000e+00	1.890428e-06	
208	-3.75000e+00	1.891096e-06	
209	-3.80000e+00	1.891760e-06	
210	-3.85000e+00	1.892423e-06	
211	-3.90000e+00	1.893083e-06	
212	-3.95000e+00	1.893742e-06	
213	-4.00000e+00	1.894399e-06	
214	-4.05000e+00	1.895055e-06	
215	-4.10000e+00	1.895710e-06	
216	-4.15000e+00	1.896365e-06	
217	-4.20000e+00	1.897020e-06	
218	-4.25000e+00	1.897677e-06	
219	-4.30000e+00	1.898335e-06	
220	-4.35000e+00	1.898995e-06	
221	-4.40000e+00	1.899659e-06	
222	-4.45000e+00	1.900327e-06	
223	-4.50000e+00	1.901001e-06	
224	-4.55000e+00	1.901682e-06	
225	-4.60000e+00	1.902371e-06	
226	-4.65000e+00	1.903071e-06	
227	-4.70000e+00	1.903783e-06	
228	-4.75000e+00	1.904510e-06	

Index   v-sweep         i(vds)          
--------------------------------------------------------------------------------
229	-4.80000e+00	1.905253e-06	
230	-4.85000e+00	1.906016e-06	
231	-4.90000e+00	1.906802e-06	
232	-4.95000e+00	1.907613e-06	
233	-5.00000e+00	1.908453e-06	
234	-5.05000e+00	1.909327e-06	
235	-5.10000e+00	1.910238e-06	
236	-5.15000e+00	1.911192e-06	
237	-5.20000e+00	1.912193e-06	
238	-5.25000e+00	1.913246e-06	
239	-5.30000e+00	1.914358e-06	
240	-5.35000e+00	1.915536e-06	
241	-5.40000e+00	1.916785e-06	
242	-5.45000e+00	1.918113e-06	
243	-5.50000e+00	1.919528e-06	
244	-5.55000e+00	1.921039e-06	
245	-5.60000e+00	1.922653e-06	
246	-5.65000e+00	1.924382e-06	
247	-5.70000e+00	1.926235e-06	
248	-5.75000e+00	1.928222e-06	
249	-5.80000e+00	1.930355e-06	
250	-5.85000e+00	1.932645e-06	
251	-5.90000e+00	1.935106e-06	
252	-5.95000e+00	1.937751e-06	
253	-6.00000e+00	1.940592e-06	
254	-6.05000e+00	1.943646e-06	
255	-6.10000e+00	1.946926e-06	
256	-6.15000e+00	1.950450e-06	
257	-6.20000e+00	1.954233e-06	
258	-6.25000e+00	1.958293e-06	
259	-6.30000e+00	1.962647e-06	
260	-6.35000e+00	1.967315e-06	
261	-6.40000e+00	1.972317e-06	
262	-6.45000e+00	1.977671e-06	
263	-6.50000e+00	1.983400e-06	
264	-6.55000e+00	1.989525e-06	
265	-6.60000e+00	1.996067e-06	
266	0.000000e+00	0.000000e+00	
267	-5.00000e-02	3.362353e-07	
268	-1.00000e-01	6.532888e-07	
269	-1.50000e-01	9.581033e-07	
270	-2.00000e-01	1.252300e-06	
271	-2.50000e-01	1.536261e-06	
272	-3.00000e-01	1.810079e-06	
273	-3.50000e-01	2.073781e-06	
274	-4.00000e-01	2.327378e-06	
275	-4.50000e-01	2.570876e-06	
276	-5.00000e-01	2.804283e-06	
277	-5.50000e-01	3.027605e-06	
278	-6.00000e-01	3.240848e-06	
279	-6.50000e-01	3.444019e-06	
280	-7.00000e-01	3.637126e-06	
281	-7.50000e-01	3.820175e-06	
282	-8.00000e-01	3.993175e-06	
283	-8.50000e-01	4.156136e-06	
284	-9.00000e-01	4.309066e-06	
285	-9.50000e-01	4.451978e-06	
286	-1.00000e+00	4.584885e-06	

Index   v-sweep         i(vds)          
--------------------------------------------------------------------------------
287	-1.05000e+00	4.707803e-06	
288	-1.10000e+00	4.820754e-06	
289	-1.15000e+00	4.923765e-06	
290	-1.20000e+00	5.016874e-06	
291	-1.25000e+00	5.100135e-06	
292	-1.30000e+00	5.173628e-06	
293	-1.35000e+00	5.237473e-06	
294	-1.40000e+00	5.291861e-06	
295	-1.45000e+00	5.337096e-06	
296	-1.50000e+00	5.373658e-06	
297	-1.55000e+00	5.402284e-06	
298	-1.60000e+00	5.424018e-06	
299	-1.65000e+00	5.440177e-06	
300	-1.70000e+00	5.452167e-06	
301	-1.75000e+00	5.461256e-06	
302	-1.80000e+00	5.468420e-06	
303	-1.85000e+00	5.474327e-06	
304	-1.90000e+00	5.479407e-06	
305	-1.95000e+00	5.483926e-06	
306	-2.00000e+00	5.488052e-06	
307	-2.05000e+00	5.491889e-06	
308	-2.10000e+00	5.495507e-06	
309	-2.15000e+00	5.498953e-06	
310	-2.20000e+00	5.502258e-06	
311	-2.25000e+00	5.505447e-06	
312	-2.30000e+00	5.508537e-06	
313	-2.35000e+00	5.511541e-06	
314	-2.40000e+00	5.514469e-06	
315	-2.45000e+00	5.517330e-06	
316	-2.50000e+00	5.520131e-06	
317	-2.55000e+00	5.522877e-06	
318	-2.60000e+00	5.525573e-06	
319	-2.65000e+00	5.528223e-06	
320	-2.70000e+00	5.530831e-06	
321	-2.75000e+00	5.533400e-06	
322	-2.80000e+00	5.535932e-06	
323	-2.85000e+00	5.538429e-06	
324	-2.90000e+00	5.540895e-06	
325	-2.95000e+00	5.543331e-06	
326	-3.00000e+00	5.545738e-06	
327	-3.05000e+00	5.548119e-06	
328	-3.10000e+00	5.550475e-06	
329	-3.15000e+00	5.552806e-06	
330	-3.20000e+00	5.555115e-06	
331	-3.25000e+00	5.557403e-06	
332	-3.30000e+00	5.559669e-06	
333	-3.35000e+00	5.561916e-06	
334	-3.40000e+00	5.564145e-06	
335	-3.45000e+00	5.566356e-06	
336	-3.50000e+00	5.568549e-06	
337	-3.55000e+00	5.570726e-06	
338	-3.60000e+00	5.572888e-06	
339	-3.65000e+00	5.575034e-06	
340	-3.70000e+00	5.577166e-06	
341	-3.75000e+00	5.579284e-06	
342	-3.80000e+00	5.581389e-06	
343	-3.85000e+00	5.583481e-06	
344	-3.90000e+00	5.585561e-06	

Index   v-sweep         i(vds)          
--------------------------------------------------------------------------------
345	-3.95000e+00	5.587628e-06	
346	-4.00000e+00	5.589684e-06	
347	-4.05000e+00	5.591729e-06	
348	-4.10000e+00	5.593764e-06	
349	-4.15000e+00	5.595788e-06	
350	-4.20000e+00	5.597802e-06	
351	-4.25000e+00	5.599807e-06	
352	-4.30000e+00	5.601803e-06	
353	-4.35000e+00	5.603790e-06	
354	-4.40000e+00	5.605769e-06	
355	-4.45000e+00	5.607740e-06	
356	-4.50000e+00	5.609704e-06	
357	-4.55000e+00	5.611662e-06	
358	-4.60000e+00	5.613613e-06	
359	-4.65000e+00	5.615560e-06	
360	-4.70000e+00	5.617502e-06	
361	-4.75000e+00	5.619441e-06	
362	-4.80000e+00	5.621378e-06	
363	-4.85000e+00	5.623315e-06	
364	-4.90000e+00	5.625252e-06	
365	-4.95000e+00	5.627191e-06	
366	-5.00000e+00	5.629136e-06	
367	-5.05000e+00	5.631087e-06	
368	-5.10000e+00	5.633048e-06	
369	-5.15000e+00	5.635022e-06	
370	-5.20000e+00	5.637012e-06	
371	-5.25000e+00	5.639022e-06	
372	-5.30000e+00	5.641057e-06	
373	-5.35000e+00	5.643122e-06	
374	-5.40000e+00	5.645223e-06	
375	-5.45000e+00	5.647365e-06	
376	-5.50000e+00	5.649556e-06	
377	-5.55000e+00	5.651803e-06	
378	-5.60000e+00	5.654116e-06	
379	-5.65000e+00	5.656504e-06	
380	-5.70000e+00	5.658977e-06	
381	-5.75000e+00	5.661546e-06	
382	-5.80000e+00	5.664225e-06	
383	-5.85000e+00	5.667026e-06	
384	-5.90000e+00	5.669965e-06	
385	-5.95000e+00	5.673058e-06	
386	-6.00000e+00	5.676321e-06	
387	-6.05000e+00	5.679774e-06	
388	-6.10000e+00	5.683436e-06	
389	-6.15000e+00	5.687330e-06	
390	-6.20000e+00	5.691478e-06	
391	-6.25000e+00	5.695905e-06	
392	-6.30000e+00	5.700636e-06	
393	-6.35000e+00	5.705701e-06	
394	-6.40000e+00	5.711127e-06	
395	-6.45000e+00	5.716948e-06	
396	-6.50000e+00	5.723196e-06	
397	-6.55000e+00	5.729906e-06	
398	-6.60000e+00	5.737115e-06	
399	0.000000e+00	0.000000e+00	
400	-5.00000e-02	4.555770e-07	
401	-1.00000e-01	8.925666e-07	
402	-1.50000e-01	1.317911e-06	

Index   v-sweep         i(vds)          
--------------------------------------------------------------------------------
403	-2.00000e-01	1.733230e-06	
404	-2.50000e-01	2.138905e-06	
405	-3.00000e-01	2.535030e-06	
406	-3.50000e-01	2.921628e-06	
407	-4.00000e-01	3.298711e-06	
408	-4.50000e-01	3.666285e-06	
409	-5.00000e-01	4.024354e-06	
410	-5.50000e-01	4.372924e-06	
411	-6.00000e-01	4.712000e-06	
412	-6.50000e-01	5.041588e-06	
413	-7.00000e-01	5.361692e-06	
414	-7.50000e-01	5.672318e-06	
415	-8.00000e-01	5.973471e-06	
416	-8.50000e-01	6.265157e-06	
417	-9.00000e-01	6.547381e-06	
418	-9.50000e-01	6.820148e-06	
419	-1.00000e+00	7.083465e-06	
420	-1.05000e+00	7.337336e-06	
421	-1.10000e+00	7.581767e-06	
422	-1.15000e+00	7.816766e-06	
423	-1.20000e+00	8.042337e-06	
424	-1.25000e+00	8.258487e-06	
425	-1.30000e+00	8.465224e-06	
426	-1.35000e+00	8.662554e-06	
427	-1.40000e+00	8.850485e-06	
428	-1.45000e+00	9.029026e-06	
429	-1.50000e+00	9.198186e-06	
430	-1.55000e+00	9.357975e-06	
431	-1.60000e+00	9.508407e-06	
432	-1.65000e+00	9.649495e-06	
433	-1.70000e+00	9.781257e-06	
434	-1.75000e+00	9.903714e-06	
435	-1.80000e+00	1.001689e-05	
436	-1.85000e+00	1.012083e-05	
437	-1.90000e+00	1.021558e-05	
438	-1.95000e+00	1.030120e-05	
439	-2.00000e+00	1.037780e-05	
440	-2.05000e+00	1.044549e-05	
441	-2.10000e+00	1.050450e-05	
442	-2.15000e+00	1.055509e-05	
443	-2.20000e+00	1.059771e-05	
444	-2.25000e+00	1.063294e-05	
445	-2.30000e+00	1.066159e-05	
446	-2.35000e+00	1.068463e-05	
447	-2.40000e+00	1.070314e-05	
448	-2.45000e+00	1.071820e-05	
449	-2.50000e+00	1.073072e-05	
450	-2.55000e+00	1.074143e-05	
451	-2.60000e+00	1.075085e-05	
452	-2.65000e+00	1.075935e-05	
453	-2.70000e+00	1.076717e-05	
454	-2.75000e+00	1.077448e-05	
455	-2.80000e+00	1.078140e-05	
456	-2.85000e+00	1.078801e-05	
457	-2.90000e+00	1.079436e-05	
458	-2.95000e+00	1.080049e-05	
459	-3.00000e+00	1.080644e-05	
460	-3.05000e+00	1.081223e-05	

Index   v-sweep         i(vds)          
--------------------------------------------------------------------------------
461	-3.10000e+00	1.081788e-05	
462	-3.15000e+00	1.082341e-05	
463	-3.20000e+00	1.082882e-05	
464	-3.25000e+00	1.083413e-05	
465	-3.30000e+00	1.083935e-05	
466	-3.35000e+00	1.084448e-05	
467	-3.40000e+00	1.084954e-05	
468	-3.45000e+00	1.085451e-05	
469	-3.50000e+00	1.085942e-05	
470	-3.55000e+00	1.086427e-05	
471	-3.60000e+00	1.086906e-05	
472	-3.65000e+00	1.087378e-05	
473	-3.70000e+00	1.087846e-05	
474	-3.75000e+00	1.088308e-05	
475	-3.80000e+00	1.088766e-05	
476	-3.85000e+00	1.089219e-05	
477	-3.90000e+00	1.089668e-05	
478	-3.95000e+00	1.090113e-05	
479	-4.00000e+00	1.090554e-05	
480	-4.05000e+00	1.090991e-05	
481	-4.10000e+00	1.091425e-05	
482	-4.15000e+00	1.091855e-05	
483	-4.20000e+00	1.092282e-05	
484	-4.25000e+00	1.092706e-05	
485	-4.30000e+00	1.093127e-05	
486	-4.35000e+00	1.093545e-05	
487	-4.40000e+00	1.093961e-05	
488	-4.45000e+00	1.094374e-05	
489	-4.50000e+00	1.094784e-05	
490	-4.55000e+00	1.095191e-05	
491	-4.60000e+00	1.095597e-05	
492	-4.65000e+00	1.096000e-05	
493	-4.70000e+00	1.096401e-05	
494	-4.75000e+00	1.096800e-05	
495	-4.80000e+00	1.097196e-05	
496	-4.85000e+00	1.097591e-05	
497	-4.90000e+00	1.097984e-05	
498	-4.95000e+00	1.098375e-05	
499	-5.00000e+00	1.098765e-05	
500	-5.05000e+00	1.099152e-05	
501	-5.10000e+00	1.099538e-05	
502	-5.15000e+00	1.099923e-05	
503	-5.20000e+00	1.100306e-05	
504	-5.25000e+00	1.100688e-05	
505	-5.30000e+00	1.101069e-05	
506	-5.35000e+00	1.101449e-05	
507	-5.40000e+00	1.101828e-05	
508	-5.45000e+00	1.102206e-05	
509	-5.50000e+00	1.102584e-05	
510	-5.55000e+00	1.102962e-05	
511	-5.60000e+00	1.103339e-05	
512	-5.65000e+00	1.103717e-05	
513	-5.70000e+00	1.104096e-05	
514	-5.75000e+00	1.104476e-05	
515	-5.80000e+00	1.104858e-05	
516	-5.85000e+00	1.105242e-05	
517	-5.90000e+00	1.105629e-05	
518	-5.95000e+00	1.106020e-05	

Index   v-sweep         i(vds)          
--------------------------------------------------------------------------------
519	-6.00000e+00	1.106415e-05	
520	-6.05000e+00	1.106815e-05	
521	-6.10000e+00	1.107222e-05	
522	-6.15000e+00	1.107637e-05	
523	-6.20000e+00	1.108061e-05	
524	-6.25000e+00	1.108495e-05	
525	-6.30000e+00	1.108941e-05	
526	-6.35000e+00	1.109401e-05	
527	-6.40000e+00	1.109877e-05	
528	-6.45000e+00	1.110371e-05	
529	-6.50000e+00	1.110885e-05	
530	-6.55000e+00	1.111422e-05	
531	-6.60000e+00	1.111984e-05	
532	0.000000e+00	0.000000e+00	
533	-5.00000e-02	5.644577e-07	
534	-1.00000e-01	1.110846e-06	
535	-1.50000e-01	1.646107e-06	
536	-2.00000e-01	2.171861e-06	
537	-2.50000e-01	2.688487e-06	
538	-3.00000e-01	3.196079e-06	
539	-3.50000e-01	3.694661e-06	
540	-4.00000e-01	4.184243e-06	
541	-4.50000e-01	4.664830e-06	
542	-5.00000e-01	5.136427e-06	
543	-5.50000e-01	5.599039e-06	
544	-6.00000e-01	6.052670e-06	
545	-6.50000e-01	6.497326e-06	
546	-7.00000e-01	6.933010e-06	
547	-7.50000e-01	7.359727e-06	
548	-8.00000e-01	7.777483e-06	
549	-8.50000e-01	8.186281e-06	
550	-9.00000e-01	8.586126e-06	
551	-9.50000e-01	8.977023e-06	
552	-1.00000e+00	9.358977e-06	
553	-1.05000e+00	9.731992e-06	
554	-1.10000e+00	1.009607e-05	
555	-1.15000e+00	1.045123e-05	
556	-1.20000e+00	1.079745e-05	
557	-1.25000e+00	1.113476e-05	
558	-1.30000e+00	1.146315e-05	
559	-1.35000e+00	1.178264e-05	
560	-1.40000e+00	1.209321e-05	
561	-1.45000e+00	1.239489e-05	
562	-1.50000e+00	1.268767e-05	
563	-1.55000e+00	1.297157e-05	
564	-1.60000e+00	1.324657e-05	
565	-1.65000e+00	1.351270e-05	
566	-1.70000e+00	1.376996e-05	
567	-1.75000e+00	1.401834e-05	
568	-1.80000e+00	1.425787e-05	
569	-1.85000e+00	1.448854e-05	
570	-1.90000e+00	1.471035e-05	
571	-1.95000e+00	1.492333e-05	
572	-2.00000e+00	1.512747e-05	
573	-2.05000e+00	1.532278e-05	
574	-2.10000e+00	1.550927e-05	
575	-2.15000e+00	1.568695e-05	
576	-2.20000e+00	1.585583e-05	

Index   v-sweep         i(vds)          
--------------------------------------------------------------------------------
577	-2.25000e+00	1.601592e-05	
578	-2.30000e+00	1.616724e-05	
579	-2.35000e+00	1.630980e-05	
580	-2.40000e+00	1.644363e-05	
581	-2.45000e+00	1.656874e-05	
582	-2.50000e+00	1.668517e-05	
583	-2.55000e+00	1.679295e-05	
584	-2.60000e+00	1.689215e-05	
585	-2.65000e+00	1.698283e-05	
586	-2.70000e+00	1.706508e-05	
587	-2.75000e+00	1.713903e-05	
588	-2.80000e+00	1.720486e-05	
589	-2.85000e+00	1.726282e-05	
590	-2.90000e+00	1.731325e-05	
591	-2.95000e+00	1.735661e-05	
592	-3.00000e+00	1.739350e-05	
593	-3.05000e+00	1.742467e-05	
594	-3.10000e+00	1.745095e-05	
595	-3.15000e+00	1.747324e-05	
596	-3.20000e+00	1.749238e-05	
597	-3.25000e+00	1.750911e-05	
598	-3.30000e+00	1.752403e-05	
599	-3.35000e+00	1.753759e-05	
600	-3.40000e+00	1.755013e-05	
601	-3.45000e+00	1.756187e-05	
602	-3.50000e+00	1.757300e-05	
603	-3.55000e+00	1.758363e-05	
604	-3.60000e+00	1.759386e-05	
605	-3.65000e+00	1.760374e-05	
606	-3.70000e+00	1.761333e-05	
607	-3.75000e+00	1.762267e-05	
608	-3.80000e+00	1.763179e-05	
609	-3.85000e+00	1.764070e-05	
610	-3.90000e+00	1.764944e-05	
611	-3.95000e+00	1.765802e-05	
612	-4.00000e+00	1.766645e-05	
613	-4.05000e+00	1.767474e-05	
614	-4.10000e+00	1.768291e-05	
615	-4.15000e+00	1.769095e-05	
616	-4.20000e+00	1.769889e-05	
617	-4.25000e+00	1.770673e-05	
618	-4.30000e+00	1.771448e-05	
619	-4.35000e+00	1.772213e-05	
620	-4.40000e+00	1.772970e-05	
621	-4.45000e+00	1.773719e-05	
622	-4.50000e+00	1.774460e-05	
623	-4.55000e+00	1.775194e-05	
624	-4.60000e+00	1.775921e-05	
625	-4.65000e+00	1.776642e-05	
626	-4.70000e+00	1.777356e-05	
627	-4.75000e+00	1.778065e-05	
628	-4.80000e+00	1.778767e-05	
629	-4.85000e+00	1.779465e-05	
630	-4.90000e+00	1.780157e-05	
631	-4.95000e+00	1.780845e-05	
632	-5.00000e+00	1.781527e-05	
633	-5.05000e+00	1.782205e-05	
634	-5.10000e+00	1.782879e-05	

Index   v-sweep         i(vds)          
--------------------------------------------------------------------------------
635	-5.15000e+00	1.783548e-05	
636	-5.20000e+00	1.784213e-05	
637	-5.25000e+00	1.784875e-05	
638	-5.30000e+00	1.785532e-05	
639	-5.35000e+00	1.786186e-05	
640	-5.40000e+00	1.786837e-05	
641	-5.45000e+00	1.787484e-05	
642	-5.50000e+00	1.788128e-05	
643	-5.55000e+00	1.788769e-05	
644	-5.60000e+00	1.789406e-05	
645	-5.65000e+00	1.790041e-05	
646	-5.70000e+00	1.790673e-05	
647	-5.75000e+00	1.791302e-05	
648	-5.80000e+00	1.791929e-05	
649	-5.85000e+00	1.792553e-05	
650	-5.90000e+00	1.793175e-05	
651	-5.95000e+00	1.793795e-05	
652	-6.00000e+00	1.794413e-05	
653	-6.05000e+00	1.795029e-05	
654	-6.10000e+00	1.795644e-05	
655	-6.15000e+00	1.796258e-05	
656	-6.20000e+00	1.796870e-05	
657	-6.25000e+00	1.797482e-05	
658	-6.30000e+00	1.798094e-05	
659	-6.35000e+00	1.798707e-05	
660	-6.40000e+00	1.799320e-05	
661	-6.45000e+00	1.799934e-05	
662	-6.50000e+00	1.800551e-05	
663	-6.55000e+00	1.801171e-05	
664	-6.60000e+00	1.801796e-05	
665	0.000000e+00	0.000000e+00	
666	-5.00000e-02	6.659847e-07	
667	-1.00000e-01	1.314342e-06	
668	-1.50000e-01	1.952014e-06	
669	-2.00000e-01	2.580620e-06	
670	-2.50000e-01	3.200539e-06	
671	-3.00000e-01	3.811865e-06	
672	-3.50000e-01	4.414621e-06	
673	-4.00000e-01	5.008817e-06	
674	-4.50000e-01	5.594457e-06	
675	-5.00000e-01	6.171547e-06	
676	-5.50000e-01	6.740091e-06	
677	-6.00000e-01	7.300092e-06	
678	-6.50000e-01	7.851556e-06	
679	-7.00000e-01	8.394486e-06	
680	-7.50000e-01	8.928886e-06	
681	-8.00000e-01	9.454762e-06	
682	-8.50000e-01	9.972116e-06	
683	-9.00000e-01	1.048095e-05	
684	-9.50000e-01	1.098128e-05	
685	-1.00000e+00	1.147310e-05	
686	-1.05000e+00	1.195641e-05	
687	-1.10000e+00	1.243122e-05	
688	-1.15000e+00	1.289754e-05	
689	-1.20000e+00	1.335537e-05	
690	-1.25000e+00	1.380471e-05	
691	-1.30000e+00	1.424556e-05	
692	-1.35000e+00	1.467794e-05	

Index   v-sweep         i(vds)          
--------------------------------------------------------------------------------
693	-1.40000e+00	1.510185e-05	
694	-1.45000e+00	1.551728e-05	
695	-1.50000e+00	1.592425e-05	
696	-1.55000e+00	1.632276e-05	
697	-1.60000e+00	1.671281e-05	
698	-1.65000e+00	1.709441e-05	
699	-1.70000e+00	1.746756e-05	
700	-1.75000e+00	1.783227e-05	
701	-1.80000e+00	1.818854e-05	
702	-1.85000e+00	1.853637e-05	
703	-1.90000e+00	1.887578e-05	
704	-1.95000e+00	1.920676e-05	
705	-2.00000e+00	1.952931e-05	
706	-2.05000e+00	1.984345e-05	
707	-2.10000e+00	2.014918e-05	
708	-2.15000e+00	2.044651e-05	
709	-2.20000e+00	2.073543e-05	
710	-2.25000e+00	2.101595e-05	
711	-2.30000e+00	2.128808e-05	
712	-2.35000e+00	2.155183e-05	
713	-2.40000e+00	2.180719e-05	
714	-2.45000e+00	2.205418e-05	
715	-2.50000e+00	2.229280e-05	
716	-2.55000e+00	2.252306e-05	
717	-2.60000e+00	2.274496e-05	
718	-2.65000e+00	2.295851e-05	
719	-2.70000e+00	2.316371e-05	
720	-2.75000e+00	2.336059e-05	
721	-2.80000e+00	2.354913e-05	
722	-2.85000e+00	2.372937e-05	
723	-2.90000e+00	2.390129e-05	
724	-2.95000e+00	2.406493e-05	
725	-3.00000e+00	2.422029e-05	
726	-3.05000e+00	2.436739e-05	
727	-3.10000e+00	2.450625e-05	
728	-3.15000e+00	2.463690e-05	
729	-3.20000e+00	2.475937e-05	
730	-3.25000e+00	2.487370e-05	
731	-3.30000e+00	2.497993e-05	
732	-3.35000e+00	2.507813e-05	
733	-3.40000e+00	2.516839e-05	
734	-3.45000e+00	2.525081e-05	
735	-3.50000e+00	2.532555e-05	
736	-3.55000e+00	2.539280e-05	
737	-3.60000e+00	2.545282e-05	
738	-3.65000e+00	2.550596e-05	
739	-3.70000e+00	2.555266e-05	
740	-3.75000e+00	2.559346e-05	
741	-3.80000e+00	2.562903e-05	
742	-3.85000e+00	2.566008e-05	
743	-3.90000e+00	2.568735e-05	
744	-3.95000e+00	2.571156e-05	
745	-4.00000e+00	2.573334e-05	
746	-4.05000e+00	2.575322e-05	
747	-4.10000e+00	2.577162e-05	
748	-4.15000e+00	2.578887e-05	
749	-4.20000e+00	2.580519e-05	
750	-4.25000e+00	2.582078e-05	

Index   v-sweep         i(vds)          
--------------------------------------------------------------------------------
751	-4.30000e+00	2.583576e-05	
752	-4.35000e+00	2.585023e-05	
753	-4.40000e+00	2.586427e-05	
754	-4.45000e+00	2.587793e-05	
755	-4.50000e+00	2.589127e-05	
756	-4.55000e+00	2.590431e-05	
757	-4.60000e+00	2.591709e-05	
758	-4.65000e+00	2.592964e-05	
759	-4.70000e+00	2.594197e-05	
760	-4.75000e+00	2.595410e-05	
761	-4.80000e+00	2.596605e-05	
762	-4.85000e+00	2.597783e-05	
763	-4.90000e+00	2.598944e-05	
764	-4.95000e+00	2.600091e-05	
765	-5.00000e+00	2.601224e-05	
766	-5.05000e+00	2.602344e-05	
767	-5.10000e+00	2.603452e-05	
768	-5.15000e+00	2.604548e-05	
769	-5.20000e+00	2.605633e-05	
770	-5.25000e+00	2.606707e-05	
771	-5.30000e+00	2.607772e-05	
772	-5.35000e+00	2.608827e-05	
773	-5.40000e+00	2.609873e-05	
774	-5.45000e+00	2.610910e-05	
775	-5.50000e+00	2.611939e-05	
776	-5.55000e+00	2.612960e-05	
777	-5.60000e+00	2.613974e-05	
778	-5.65000e+00	2.614981e-05	
779	-5.70000e+00	2.615980e-05	
780	-5.75000e+00	2.616973e-05	
781	-5.80000e+00	2.617960e-05	
782	-5.85000e+00	2.618940e-05	
783	-5.90000e+00	2.619914e-05	
784	-5.95000e+00	2.620883e-05	
785	-6.00000e+00	2.621846e-05	
786	-6.05000e+00	2.622804e-05	
787	-6.10000e+00	2.623757e-05	
788	-6.15000e+00	2.624705e-05	
789	-6.20000e+00	2.625648e-05	
790	-6.25000e+00	2.626586e-05	
791	-6.30000e+00	2.627520e-05	
792	-6.35000e+00	2.628450e-05	
793	-6.40000e+00	2.629376e-05	
794	-6.45000e+00	2.630297e-05	
795	-6.50000e+00	2.631215e-05	
796	-6.55000e+00	2.632130e-05	
797	-6.60000e+00	2.633041e-05	
Note: No ".plot", ".print", or ".fourier" lines; no simulations run
