
Note: Compatibility modes selected: hs

Warning: m=xx on .subckt line will override multiplier m hierarchy!


Circuit: ***************************

Doing analysis at TEMP = 25.000000 and TNOM = 25.000000


No. of Data Rows : 798
                          ***************************
                          DC transfer characteristic  Mon Jan  9 13:57:52  2023
--------------------------------------------------------------------------------
Index   v-sweep         i(vds)          
--------------------------------------------------------------------------------
0	0.000000e+00	0.000000e+00	
1	-5.00000e-02	4.104045e-06	
2	-1.00000e-01	6.717093e-06	
3	-1.50000e-01	8.034760e-06	
4	-2.00000e-01	8.551999e-06	
5	-2.50000e-01	8.790256e-06	
6	-3.00000e-01	8.954372e-06	
7	-3.50000e-01	9.093481e-06	
8	-4.00000e-01	9.220662e-06	
9	-4.50000e-01	9.340551e-06	
10	-5.00000e-01	9.455275e-06	
11	-5.50000e-01	9.566025e-06	
12	-6.00000e-01	9.673565e-06	
13	-6.50000e-01	9.778433e-06	
14	-7.00000e-01	9.881033e-06	
15	-7.50000e-01	9.981680e-06	
16	-8.00000e-01	1.008063e-05	
17	-8.50000e-01	1.017809e-05	
18	-9.00000e-01	1.027424e-05	
19	-9.50000e-01	1.036923e-05	
20	-1.00000e+00	1.046318e-05	
21	-1.05000e+00	1.055620e-05	
22	-1.10000e+00	1.064840e-05	
23	-1.15000e+00	1.073986e-05	
24	-1.20000e+00	1.083065e-05	
25	-1.25000e+00	1.092084e-05	
26	-1.30000e+00	1.101049e-05	
27	-1.35000e+00	1.109965e-05	
28	-1.40000e+00	1.118837e-05	
29	-1.45000e+00	1.127670e-05	
30	-1.50000e+00	1.136466e-05	
31	-1.55000e+00	1.145231e-05	
32	-1.60000e+00	1.153967e-05	
33	-1.65000e+00	1.162677e-05	
34	-1.70000e+00	1.171364e-05	
35	-1.75000e+00	1.180030e-05	
36	-1.80000e+00	1.188678e-05	
37	-1.85000e+00	1.197310e-05	
38	-1.90000e+00	1.205928e-05	
39	-1.95000e+00	1.214533e-05	
40	-2.00000e+00	1.223128e-05	
41	-2.05000e+00	1.231713e-05	
42	-2.10000e+00	1.240291e-05	
43	-2.15000e+00	1.248863e-05	
44	-2.20000e+00	1.257430e-05	
45	-2.25000e+00	1.265992e-05	
46	-2.30000e+00	1.274553e-05	
47	-2.35000e+00	1.283111e-05	
48	-2.40000e+00	1.291669e-05	
49	-2.45000e+00	1.300228e-05	
50	-2.50000e+00	1.308787e-05	
51	-2.55000e+00	1.317349e-05	
52	-2.60000e+00	1.325914e-05	
53	-2.65000e+00	1.334482e-05	
54	-2.70000e+00	1.343054e-05	

Index   v-sweep         i(vds)          
--------------------------------------------------------------------------------
55	-2.75000e+00	1.351631e-05	
56	-2.80000e+00	1.360214e-05	
57	-2.85000e+00	1.368803e-05	
58	-2.90000e+00	1.377399e-05	
59	-2.95000e+00	1.386003e-05	
60	-3.00000e+00	1.394614e-05	
61	-3.05000e+00	1.403234e-05	
62	-3.10000e+00	1.411863e-05	
63	-3.15000e+00	1.420502e-05	
64	-3.20000e+00	1.429151e-05	
65	-3.25000e+00	1.437811e-05	
66	-3.30000e+00	1.446482e-05	
67	-3.35000e+00	1.455166e-05	
68	-3.40000e+00	1.463862e-05	
69	-3.45000e+00	1.472572e-05	
70	-3.50000e+00	1.481296e-05	
71	-3.55000e+00	1.490036e-05	
72	-3.60000e+00	1.498792e-05	
73	-3.65000e+00	1.507566e-05	
74	-3.70000e+00	1.516358e-05	
75	-3.75000e+00	1.525170e-05	
76	-3.80000e+00	1.534003e-05	
77	-3.85000e+00	1.542860e-05	
78	-3.90000e+00	1.551741e-05	
79	-3.95000e+00	1.560650e-05	
80	-4.00000e+00	1.569587e-05	
81	-4.05000e+00	1.578557e-05	
82	-4.10000e+00	1.587561e-05	
83	-4.15000e+00	1.596603e-05	
84	-4.20000e+00	1.605685e-05	
85	-4.25000e+00	1.614813e-05	
86	-4.30000e+00	1.623989e-05	
87	-4.35000e+00	1.633218e-05	
88	-4.40000e+00	1.642506e-05	
89	-4.45000e+00	1.651858e-05	
90	-4.50000e+00	1.661278e-05	
91	-4.55000e+00	1.670775e-05	
92	-4.60000e+00	1.680354e-05	
93	-4.65000e+00	1.690024e-05	
94	-4.70000e+00	1.699791e-05	
95	-4.75000e+00	1.709665e-05	
96	-4.80000e+00	1.719655e-05	
97	-4.85000e+00	1.729771e-05	
98	-4.90000e+00	1.740024e-05	
99	-4.95000e+00	1.750424e-05	
100	-5.00000e+00	1.760984e-05	
101	-5.05000e+00	1.771718e-05	
102	-5.10000e+00	1.782638e-05	
103	-5.15000e+00	1.793760e-05	
104	-5.20000e+00	1.805099e-05	
105	-5.25000e+00	1.816671e-05	
106	-5.30000e+00	1.828494e-05	
107	-5.35000e+00	1.840586e-05	
108	-5.40000e+00	1.852966e-05	
109	-5.45000e+00	1.865654e-05	
110	-5.50000e+00	1.878673e-05	
111	-5.55000e+00	1.892044e-05	
112	-5.60000e+00	1.905790e-05	

Index   v-sweep         i(vds)          
--------------------------------------------------------------------------------
113	-5.65000e+00	1.919938e-05	
114	-5.70000e+00	1.934511e-05	
115	-5.75000e+00	1.949538e-05	
116	-5.80000e+00	1.965046e-05	
117	-5.85000e+00	1.981064e-05	
118	-5.90000e+00	1.997623e-05	
119	-5.95000e+00	2.014755e-05	
120	-6.00000e+00	2.032493e-05	
121	-6.05000e+00	2.050872e-05	
122	-6.10000e+00	2.069925e-05	
123	-6.15000e+00	2.089692e-05	
124	-6.20000e+00	2.110209e-05	
125	-6.25000e+00	2.131516e-05	
126	-6.30000e+00	2.153655e-05	
127	-6.35000e+00	2.176667e-05	
128	-6.40000e+00	2.200596e-05	
129	-6.45000e+00	2.225488e-05	
130	-6.50000e+00	2.251388e-05	
131	-6.55000e+00	2.278345e-05	
132	-6.60000e+00	2.306407e-05	
133	0.000000e+00	0.000000e+00	
134	-5.00000e-02	3.118553e-05	
135	-1.00000e-01	6.044832e-05	
136	-1.50000e-01	8.781842e-05	
137	-2.00000e-01	1.133254e-04	
138	-2.50000e-01	1.369982e-04	
139	-3.00000e-01	1.588656e-04	
140	-3.50000e-01	1.789558e-04	
141	-4.00000e-01	1.972972e-04	
142	-4.50000e-01	2.139180e-04	
143	-5.00000e-01	2.288473e-04	
144	-5.50000e-01	2.421154e-04	
145	-6.00000e-01	2.537560e-04	
146	-6.50000e-01	2.638091e-04	
147	-7.00000e-01	2.723277e-04	
148	-7.50000e-01	2.793905e-04	
149	-8.00000e-01	2.851226e-04	
150	-8.50000e-01	2.897162e-04	
151	-9.00000e-01	2.934218e-04	
152	-9.50000e-01	2.964928e-04	
153	-1.00000e+00	2.991274e-04	
154	-1.05000e+00	3.014564e-04	
155	-1.10000e+00	3.035611e-04	
156	-1.15000e+00	3.054927e-04	
157	-1.20000e+00	3.072857e-04	
158	-1.25000e+00	3.089643e-04	
159	-1.30000e+00	3.105465e-04	
160	-1.35000e+00	3.120459e-04	
161	-1.40000e+00	3.134735e-04	
162	-1.45000e+00	3.148380e-04	
163	-1.50000e+00	3.161467e-04	
164	-1.55000e+00	3.174055e-04	
165	-1.60000e+00	3.186197e-04	
166	-1.65000e+00	3.197935e-04	
167	-1.70000e+00	3.209306e-04	
168	-1.75000e+00	3.220343e-04	
169	-1.80000e+00	3.231074e-04	
170	-1.85000e+00	3.241525e-04	

Index   v-sweep         i(vds)          
--------------------------------------------------------------------------------
171	-1.90000e+00	3.251716e-04	
172	-1.95000e+00	3.261667e-04	
173	-2.00000e+00	3.271397e-04	
174	-2.05000e+00	3.280919e-04	
175	-2.10000e+00	3.290249e-04	
176	-2.15000e+00	3.299400e-04	
177	-2.20000e+00	3.308381e-04	
178	-2.25000e+00	3.317205e-04	
179	-2.30000e+00	3.325880e-04	
180	-2.35000e+00	3.334416e-04	
181	-2.40000e+00	3.342819e-04	
182	-2.45000e+00	3.351098e-04	
183	-2.50000e+00	3.359260e-04	
184	-2.55000e+00	3.367309e-04	
185	-2.60000e+00	3.375253e-04	
186	-2.65000e+00	3.383096e-04	
187	-2.70000e+00	3.390844e-04	
188	-2.75000e+00	3.398501e-04	
189	-2.80000e+00	3.406071e-04	
190	-2.85000e+00	3.413558e-04	
191	-2.90000e+00	3.420967e-04	
192	-2.95000e+00	3.428300e-04	
193	-3.00000e+00	3.435561e-04	
194	-3.05000e+00	3.442753e-04	
195	-3.10000e+00	3.449878e-04	
196	-3.15000e+00	3.456941e-04	
197	-3.20000e+00	3.463942e-04	
198	-3.25000e+00	3.470885e-04	
199	-3.30000e+00	3.477772e-04	
200	-3.35000e+00	3.484605e-04	
201	-3.40000e+00	3.491386e-04	
202	-3.45000e+00	3.498118e-04	
203	-3.50000e+00	3.504801e-04	
204	-3.55000e+00	3.511438e-04	
205	-3.60000e+00	3.518031e-04	
206	-3.65000e+00	3.524581e-04	
207	-3.70000e+00	3.531090e-04	
208	-3.75000e+00	3.537559e-04	
209	-3.80000e+00	3.543991e-04	
210	-3.85000e+00	3.550387e-04	
211	-3.90000e+00	3.556748e-04	
212	-3.95000e+00	3.563076e-04	
213	-4.00000e+00	3.569373e-04	
214	-4.05000e+00	3.575640e-04	
215	-4.10000e+00	3.581880e-04	
216	-4.15000e+00	3.588094e-04	
217	-4.20000e+00	3.594286e-04	
218	-4.25000e+00	3.600455e-04	
219	-4.30000e+00	3.606607e-04	
220	-4.35000e+00	3.612742e-04	
221	-4.40000e+00	3.618864e-04	
222	-4.45000e+00	3.624977e-04	
223	-4.50000e+00	3.631083e-04	
224	-4.55000e+00	3.637187e-04	
225	-4.60000e+00	3.643293e-04	
226	-4.65000e+00	3.649406e-04	
227	-4.70000e+00	3.655530e-04	
228	-4.75000e+00	3.661672e-04	

Index   v-sweep         i(vds)          
--------------------------------------------------------------------------------
229	-4.80000e+00	3.667837e-04	
230	-4.85000e+00	3.674033e-04	
231	-4.90000e+00	3.680267e-04	
232	-4.95000e+00	3.686547e-04	
233	-5.00000e+00	3.692882e-04	
234	-5.05000e+00	3.699281e-04	
235	-5.10000e+00	3.705754e-04	
236	-5.15000e+00	3.712314e-04	
237	-5.20000e+00	3.718972e-04	
238	-5.25000e+00	3.725742e-04	
239	-5.30000e+00	3.732637e-04	
240	-5.35000e+00	3.739672e-04	
241	-5.40000e+00	3.746864e-04	
242	-5.45000e+00	3.754230e-04	
243	-5.50000e+00	3.761788e-04	
244	-5.55000e+00	3.769559e-04	
245	-5.60000e+00	3.777562e-04	
246	-5.65000e+00	3.785821e-04	
247	-5.70000e+00	3.794359e-04	
248	-5.75000e+00	3.803201e-04	
249	-5.80000e+00	3.812373e-04	
250	-5.85000e+00	3.821902e-04	
251	-5.90000e+00	3.831819e-04	
252	-5.95000e+00	3.842153e-04	
253	-6.00000e+00	3.852938e-04	
254	-6.05000e+00	3.864206e-04	
255	-6.10000e+00	3.875993e-04	
256	-6.15000e+00	3.888336e-04	
257	-6.20000e+00	3.901274e-04	
258	-6.25000e+00	3.914847e-04	
259	-6.30000e+00	3.929097e-04	
260	-6.35000e+00	3.944067e-04	
261	-6.40000e+00	3.959803e-04	
262	-6.45000e+00	3.976351e-04	
263	-6.50000e+00	3.993762e-04	
264	-6.55000e+00	4.012084e-04	
265	-6.60000e+00	4.031370e-04	
266	0.000000e+00	0.000000e+00	
267	-5.00000e-02	5.080796e-05	
268	-1.00000e-01	9.974904e-05	
269	-1.50000e-01	1.468485e-04	
270	-2.00000e-01	1.921312e-04	
271	-2.50000e-01	2.356214e-04	
272	-3.00000e-01	2.773432e-04	
273	-3.50000e-01	3.173201e-04	
274	-4.00000e-01	3.555752e-04	
275	-4.50000e-01	3.921313e-04	
276	-5.00000e-01	4.270109e-04	
277	-5.50000e-01	4.602358e-04	
278	-6.00000e-01	4.918280e-04	
279	-6.50000e-01	5.218086e-04	
280	-7.00000e-01	5.501989e-04	
281	-7.50000e-01	5.770197e-04	
282	-8.00000e-01	6.022915e-04	
283	-8.50000e-01	6.260350e-04	
284	-9.00000e-01	6.482704e-04	
285	-9.50000e-01	6.690184e-04	
286	-1.00000e+00	6.882996e-04	

Index   v-sweep         i(vds)          
--------------------------------------------------------------------------------
287	-1.05000e+00	7.061353e-04	
288	-1.10000e+00	7.225481e-04	
289	-1.15000e+00	7.375623e-04	
290	-1.20000e+00	7.512057e-04	
291	-1.25000e+00	7.635123e-04	
292	-1.30000e+00	7.745261e-04	
293	-1.35000e+00	7.843075e-04	
294	-1.40000e+00	7.929408e-04	
295	-1.45000e+00	8.005390e-04	
296	-1.50000e+00	8.072385e-04	
297	-1.55000e+00	8.131840e-04	
298	-1.60000e+00	8.185101e-04	
299	-1.65000e+00	8.233305e-04	
300	-1.70000e+00	8.277359e-04	
301	-1.75000e+00	8.317974e-04	
302	-1.80000e+00	8.355702e-04	
303	-1.85000e+00	8.390979e-04	
304	-1.90000e+00	8.424151e-04	
305	-1.95000e+00	8.455497e-04	
306	-2.00000e+00	8.485246e-04	
307	-2.05000e+00	8.513584e-04	
308	-2.10000e+00	8.540671e-04	
309	-2.15000e+00	8.566637e-04	
310	-2.20000e+00	8.591597e-04	
311	-2.25000e+00	8.615645e-04	
312	-2.30000e+00	8.638867e-04	
313	-2.35000e+00	8.661335e-04	
314	-2.40000e+00	8.683112e-04	
315	-2.45000e+00	8.704254e-04	
316	-2.50000e+00	8.724811e-04	
317	-2.55000e+00	8.744826e-04	
318	-2.60000e+00	8.764339e-04	
319	-2.65000e+00	8.783384e-04	
320	-2.70000e+00	8.801994e-04	
321	-2.75000e+00	8.820198e-04	
322	-2.80000e+00	8.838020e-04	
323	-2.85000e+00	8.855484e-04	
324	-2.90000e+00	8.872613e-04	
325	-2.95000e+00	8.889424e-04	
326	-3.00000e+00	8.905937e-04	
327	-3.05000e+00	8.922168e-04	
328	-3.10000e+00	8.938132e-04	
329	-3.15000e+00	8.953842e-04	
330	-3.20000e+00	8.969313e-04	
331	-3.25000e+00	8.984555e-04	
332	-3.30000e+00	8.999580e-04	
333	-3.35000e+00	9.014399e-04	
334	-3.40000e+00	9.029020e-04	
335	-3.45000e+00	9.043454e-04	
336	-3.50000e+00	9.057708e-04	
337	-3.55000e+00	9.071790e-04	
338	-3.60000e+00	9.085707e-04	
339	-3.65000e+00	9.099467e-04	
340	-3.70000e+00	9.113076e-04	
341	-3.75000e+00	9.126540e-04	
342	-3.80000e+00	9.139865e-04	
343	-3.85000e+00	9.153056e-04	
344	-3.90000e+00	9.166119e-04	

Index   v-sweep         i(vds)          
--------------------------------------------------------------------------------
345	-3.95000e+00	9.179059e-04	
346	-4.00000e+00	9.191879e-04	
347	-4.05000e+00	9.204585e-04	
348	-4.10000e+00	9.217180e-04	
349	-4.15000e+00	9.229670e-04	
350	-4.20000e+00	9.242057e-04	
351	-4.25000e+00	9.254346e-04	
352	-4.30000e+00	9.266541e-04	
353	-4.35000e+00	9.278645e-04	
354	-4.40000e+00	9.290663e-04	
355	-4.45000e+00	9.302597e-04	
356	-4.50000e+00	9.314452e-04	
357	-4.55000e+00	9.326231e-04	
358	-4.60000e+00	9.337940e-04	
359	-4.65000e+00	9.349582e-04	
360	-4.70000e+00	9.361161e-04	
361	-4.75000e+00	9.372683e-04	
362	-4.80000e+00	9.384154e-04	
363	-4.85000e+00	9.395578e-04	
364	-4.90000e+00	9.406962e-04	
365	-4.95000e+00	9.418313e-04	
366	-5.00000e+00	9.429638e-04	
367	-5.05000e+00	9.440947e-04	
368	-5.10000e+00	9.452247e-04	
369	-5.15000e+00	9.463549e-04	
370	-5.20000e+00	9.474865e-04	
371	-5.25000e+00	9.486205e-04	
372	-5.30000e+00	9.497585e-04	
373	-5.35000e+00	9.509018e-04	
374	-5.40000e+00	9.520521e-04	
375	-5.45000e+00	9.532111e-04	
376	-5.50000e+00	9.543809e-04	
377	-5.55000e+00	9.555634e-04	
378	-5.60000e+00	9.567610e-04	
379	-5.65000e+00	9.579762e-04	
380	-5.70000e+00	9.592117e-04	
381	-5.75000e+00	9.604705e-04	
382	-5.80000e+00	9.617556e-04	
383	-5.85000e+00	9.630705e-04	
384	-5.90000e+00	9.644188e-04	
385	-5.95000e+00	9.658046e-04	
386	-6.00000e+00	9.672318e-04	
387	-6.05000e+00	9.687051e-04	
388	-6.10000e+00	9.702292e-04	
389	-6.15000e+00	9.718092e-04	
390	-6.20000e+00	9.734505e-04	
391	-6.25000e+00	9.751588e-04	
392	-6.30000e+00	9.769402e-04	
393	-6.35000e+00	9.788011e-04	
394	-6.40000e+00	9.807482e-04	
395	-6.45000e+00	9.827886e-04	
396	-6.50000e+00	9.849299e-04	
397	-6.55000e+00	9.871799e-04	
398	-6.60000e+00	9.895468e-04	
399	0.000000e+00	0.000000e+00	
400	-5.00000e-02	6.581393e-05	
401	-1.00000e-01	1.298474e-04	
402	-1.50000e-01	1.921218e-04	

Index   v-sweep         i(vds)          
--------------------------------------------------------------------------------
403	-2.00000e-01	2.526584e-04	
404	-2.50000e-01	3.114779e-04	
405	-3.00000e-01	3.686010e-04	
406	-3.50000e-01	4.240477e-04	
407	-4.00000e-01	4.778378e-04	
408	-4.50000e-01	5.299911e-04	
409	-5.00000e-01	5.805266e-04	
410	-5.50000e-01	6.294634e-04	
411	-6.00000e-01	6.768200e-04	
412	-6.50000e-01	7.226150e-04	
413	-7.00000e-01	7.668663e-04	
414	-7.50000e-01	8.095919e-04	
415	-8.00000e-01	8.508092e-04	
416	-8.50000e-01	8.905357e-04	
417	-9.00000e-01	9.287883e-04	
418	-9.50000e-01	9.655839e-04	
419	-1.00000e+00	1.000939e-03	
420	-1.05000e+00	1.034870e-03	
421	-1.10000e+00	1.067394e-03	
422	-1.15000e+00	1.098525e-03	
423	-1.20000e+00	1.128281e-03	
424	-1.25000e+00	1.156676e-03	
425	-1.30000e+00	1.183726e-03	
426	-1.35000e+00	1.209446e-03	
427	-1.40000e+00	1.233852e-03	
428	-1.45000e+00	1.256959e-03	
429	-1.50000e+00	1.278782e-03	
430	-1.55000e+00	1.299337e-03	
431	-1.60000e+00	1.318640e-03	
432	-1.65000e+00	1.336707e-03	
433	-1.70000e+00	1.353555e-03	
434	-1.75000e+00	1.369203e-03	
435	-1.80000e+00	1.383673e-03	
436	-1.85000e+00	1.396992e-03	
437	-1.90000e+00	1.409194e-03	
438	-1.95000e+00	1.420324e-03	
439	-2.00000e+00	1.430445e-03	
440	-2.05000e+00	1.439637e-03	
441	-2.10000e+00	1.447994e-03	
442	-2.15000e+00	1.455617e-03	
443	-2.20000e+00	1.462603e-03	
444	-2.25000e+00	1.469041e-03	
445	-2.30000e+00	1.475009e-03	
446	-2.35000e+00	1.480571e-03	
447	-2.40000e+00	1.485782e-03	
448	-2.45000e+00	1.490688e-03	
449	-2.50000e+00	1.495326e-03	
450	-2.55000e+00	1.499729e-03	
451	-2.60000e+00	1.503921e-03	
452	-2.65000e+00	1.507928e-03	
453	-2.70000e+00	1.511766e-03	
454	-2.75000e+00	1.515454e-03	
455	-2.80000e+00	1.519005e-03	
456	-2.85000e+00	1.522431e-03	
457	-2.90000e+00	1.525743e-03	
458	-2.95000e+00	1.528951e-03	
459	-3.00000e+00	1.532064e-03	
460	-3.05000e+00	1.535088e-03	

Index   v-sweep         i(vds)          
--------------------------------------------------------------------------------
461	-3.10000e+00	1.538029e-03	
462	-3.15000e+00	1.540895e-03	
463	-3.20000e+00	1.543690e-03	
464	-3.25000e+00	1.546419e-03	
465	-3.30000e+00	1.549087e-03	
466	-3.35000e+00	1.551696e-03	
467	-3.40000e+00	1.554251e-03	
468	-3.45000e+00	1.556756e-03	
469	-3.50000e+00	1.559212e-03	
470	-3.55000e+00	1.561623e-03	
471	-3.60000e+00	1.563991e-03	
472	-3.65000e+00	1.566318e-03	
473	-3.70000e+00	1.568607e-03	
474	-3.75000e+00	1.570859e-03	
475	-3.80000e+00	1.573077e-03	
476	-3.85000e+00	1.575262e-03	
477	-3.90000e+00	1.577415e-03	
478	-3.95000e+00	1.579538e-03	
479	-4.00000e+00	1.581633e-03	
480	-4.05000e+00	1.583700e-03	
481	-4.10000e+00	1.585741e-03	
482	-4.15000e+00	1.587757e-03	
483	-4.20000e+00	1.589749e-03	
484	-4.25000e+00	1.591718e-03	
485	-4.30000e+00	1.593665e-03	
486	-4.35000e+00	1.595591e-03	
487	-4.40000e+00	1.597496e-03	
488	-4.45000e+00	1.599382e-03	
489	-4.50000e+00	1.601249e-03	
490	-4.55000e+00	1.603097e-03	
491	-4.60000e+00	1.604929e-03	
492	-4.65000e+00	1.606743e-03	
493	-4.70000e+00	1.608541e-03	
494	-4.75000e+00	1.610324e-03	
495	-4.80000e+00	1.612092e-03	
496	-4.85000e+00	1.613845e-03	
497	-4.90000e+00	1.615585e-03	
498	-4.95000e+00	1.617311e-03	
499	-5.00000e+00	1.619025e-03	
500	-5.05000e+00	1.620726e-03	
501	-5.10000e+00	1.622417e-03	
502	-5.15000e+00	1.624097e-03	
503	-5.20000e+00	1.625767e-03	
504	-5.25000e+00	1.627427e-03	
505	-5.30000e+00	1.629080e-03	
506	-5.35000e+00	1.630725e-03	
507	-5.40000e+00	1.632363e-03	
508	-5.45000e+00	1.633997e-03	
509	-5.50000e+00	1.635626e-03	
510	-5.55000e+00	1.637252e-03	
511	-5.60000e+00	1.638877e-03	
512	-5.65000e+00	1.640502e-03	
513	-5.70000e+00	1.642129e-03	
514	-5.75000e+00	1.643759e-03	
515	-5.80000e+00	1.645396e-03	
516	-5.85000e+00	1.647041e-03	
517	-5.90000e+00	1.648698e-03	
518	-5.95000e+00	1.650368e-03	

Index   v-sweep         i(vds)          
--------------------------------------------------------------------------------
519	-6.00000e+00	1.652055e-03	
520	-6.05000e+00	1.653762e-03	
521	-6.10000e+00	1.655494e-03	
522	-6.15000e+00	1.657254e-03	
523	-6.20000e+00	1.659046e-03	
524	-6.25000e+00	1.660875e-03	
525	-6.30000e+00	1.662747e-03	
526	-6.35000e+00	1.664667e-03	
527	-6.40000e+00	1.666641e-03	
528	-6.45000e+00	1.668676e-03	
529	-6.50000e+00	1.670777e-03	
530	-6.55000e+00	1.672954e-03	
531	-6.60000e+00	1.675212e-03	
532	0.000000e+00	0.000000e+00	
533	-5.00000e-02	7.773331e-05	
534	-1.00000e-01	1.537750e-04	
535	-1.50000e-01	2.281436e-04	
536	-2.00000e-01	3.008574e-04	
537	-2.50000e-01	3.719344e-04	
538	-3.00000e-01	4.413923e-04	
539	-3.50000e-01	5.092487e-04	
540	-4.00000e-01	5.755207e-04	
541	-4.50000e-01	6.402254e-04	
542	-5.00000e-01	7.033795e-04	
543	-5.50000e-01	7.649996e-04	
544	-6.00000e-01	8.251019e-04	
545	-6.50000e-01	8.837024e-04	
546	-7.00000e-01	9.408171e-04	
547	-7.50000e-01	9.964615e-04	
548	-8.00000e-01	1.050651e-03	
549	-8.50000e-01	1.103401e-03	
550	-9.00000e-01	1.154726e-03	
551	-9.50000e-01	1.204641e-03	
552	-1.00000e+00	1.253161e-03	
553	-1.05000e+00	1.300300e-03	
554	-1.10000e+00	1.346072e-03	
555	-1.15000e+00	1.390491e-03	
556	-1.20000e+00	1.433572e-03	
557	-1.25000e+00	1.475326e-03	
558	-1.30000e+00	1.515769e-03	
559	-1.35000e+00	1.554914e-03	
560	-1.40000e+00	1.592773e-03	
561	-1.45000e+00	1.629359e-03	
562	-1.50000e+00	1.664686e-03	
563	-1.55000e+00	1.698766e-03	
564	-1.60000e+00	1.731611e-03	
565	-1.65000e+00	1.763234e-03	
566	-1.70000e+00	1.793647e-03	
567	-1.75000e+00	1.822862e-03	
568	-1.80000e+00	1.850891e-03	
569	-1.85000e+00	1.877746e-03	
570	-1.90000e+00	1.903438e-03	
571	-1.95000e+00	1.927979e-03	
572	-2.00000e+00	1.951380e-03	
573	-2.05000e+00	1.973652e-03	
574	-2.10000e+00	1.994806e-03	
575	-2.15000e+00	2.014852e-03	
576	-2.20000e+00	2.033799e-03	

Index   v-sweep         i(vds)          
--------------------------------------------------------------------------------
577	-2.25000e+00	2.051657e-03	
578	-2.30000e+00	2.068433e-03	
579	-2.35000e+00	2.084137e-03	
580	-2.40000e+00	2.098777e-03	
581	-2.45000e+00	2.112370e-03	
582	-2.50000e+00	2.124942e-03	
583	-2.55000e+00	2.136535e-03	
584	-2.60000e+00	2.147212e-03	
585	-2.65000e+00	2.157047e-03	
586	-2.70000e+00	2.166128e-03	
587	-2.75000e+00	2.174538e-03	
588	-2.80000e+00	2.182359e-03	
589	-2.85000e+00	2.189664e-03	
590	-2.90000e+00	2.196516e-03	
591	-2.95000e+00	2.202971e-03	
592	-3.00000e+00	2.209074e-03	
593	-3.05000e+00	2.214867e-03	
594	-3.10000e+00	2.220382e-03	
595	-3.15000e+00	2.225649e-03	
596	-3.20000e+00	2.230694e-03	
597	-3.25000e+00	2.235538e-03	
598	-3.30000e+00	2.240199e-03	
599	-3.35000e+00	2.244694e-03	
600	-3.40000e+00	2.249038e-03	
601	-3.45000e+00	2.253242e-03	
602	-3.50000e+00	2.257319e-03	
603	-3.55000e+00	2.261277e-03	
604	-3.60000e+00	2.265126e-03	
605	-3.65000e+00	2.268874e-03	
606	-3.70000e+00	2.272527e-03	
607	-3.75000e+00	2.276092e-03	
608	-3.80000e+00	2.279574e-03	
609	-3.85000e+00	2.282980e-03	
610	-3.90000e+00	2.286313e-03	
611	-3.95000e+00	2.289578e-03	
612	-4.00000e+00	2.292779e-03	
613	-4.05000e+00	2.295920e-03	
614	-4.10000e+00	2.299003e-03	
615	-4.15000e+00	2.302033e-03	
616	-4.20000e+00	2.305011e-03	
617	-4.25000e+00	2.307940e-03	
618	-4.30000e+00	2.310824e-03	
619	-4.35000e+00	2.313663e-03	
620	-4.40000e+00	2.316460e-03	
621	-4.45000e+00	2.319218e-03	
622	-4.50000e+00	2.321937e-03	
623	-4.55000e+00	2.324620e-03	
624	-4.60000e+00	2.327268e-03	
625	-4.65000e+00	2.329883e-03	
626	-4.70000e+00	2.332466e-03	
627	-4.75000e+00	2.335018e-03	
628	-4.80000e+00	2.337541e-03	
629	-4.85000e+00	2.340035e-03	
630	-4.90000e+00	2.342503e-03	
631	-4.95000e+00	2.344944e-03	
632	-5.00000e+00	2.347360e-03	
633	-5.05000e+00	2.349752e-03	
634	-5.10000e+00	2.352121e-03	

Index   v-sweep         i(vds)          
--------------------------------------------------------------------------------
635	-5.15000e+00	2.354468e-03	
636	-5.20000e+00	2.356793e-03	
637	-5.25000e+00	2.359097e-03	
638	-5.30000e+00	2.361381e-03	
639	-5.35000e+00	2.363647e-03	
640	-5.40000e+00	2.365894e-03	
641	-5.45000e+00	2.368123e-03	
642	-5.50000e+00	2.370336e-03	
643	-5.55000e+00	2.372533e-03	
644	-5.60000e+00	2.374715e-03	
645	-5.65000e+00	2.376883e-03	
646	-5.70000e+00	2.379038e-03	
647	-5.75000e+00	2.381182e-03	
648	-5.80000e+00	2.383314e-03	
649	-5.85000e+00	2.385437e-03	
650	-5.90000e+00	2.387551e-03	
651	-5.95000e+00	2.389660e-03	
652	-6.00000e+00	2.391763e-03	
653	-6.05000e+00	2.393863e-03	
654	-6.10000e+00	2.395962e-03	
655	-6.15000e+00	2.398062e-03	
656	-6.20000e+00	2.400166e-03	
657	-6.25000e+00	2.402277e-03	
658	-6.30000e+00	2.404397e-03	
659	-6.35000e+00	2.406531e-03	
660	-6.40000e+00	2.408681e-03	
661	-6.45000e+00	2.410852e-03	
662	-6.50000e+00	2.413048e-03	
663	-6.55000e+00	2.415275e-03	
664	-6.60000e+00	2.417537e-03	
665	0.000000e+00	0.000000e+00	
666	-5.00000e-02	8.747312e-05	
667	-1.00000e-01	1.733391e-04	
668	-1.50000e-01	2.576140e-04	
669	-2.00000e-01	3.403139e-04	
670	-2.50000e-01	4.214544e-04	
671	-3.00000e-01	5.010513e-04	
672	-3.50000e-01	5.791197e-04	
673	-4.00000e-01	6.556748e-04	
674	-4.50000e-01	7.307315e-04	
675	-5.00000e-01	8.043046e-04	
676	-5.50000e-01	8.764087e-04	
677	-6.00000e-01	9.470580e-04	
678	-6.50000e-01	1.016267e-03	
679	-7.00000e-01	1.084049e-03	
680	-7.50000e-01	1.150419e-03	
681	-8.00000e-01	1.215389e-03	
682	-8.50000e-01	1.278974e-03	
683	-9.00000e-01	1.341186e-03	
684	-9.50000e-01	1.402039e-03	
685	-1.00000e+00	1.461546e-03	
686	-1.05000e+00	1.519719e-03	
687	-1.10000e+00	1.576571e-03	
688	-1.15000e+00	1.632115e-03	
689	-1.20000e+00	1.686363e-03	
690	-1.25000e+00	1.739326e-03	
691	-1.30000e+00	1.791018e-03	
692	-1.35000e+00	1.841450e-03	

Index   v-sweep         i(vds)          
--------------------------------------------------------------------------------
693	-1.40000e+00	1.890633e-03	
694	-1.45000e+00	1.938579e-03	
695	-1.50000e+00	1.985301e-03	
696	-1.55000e+00	2.030808e-03	
697	-1.60000e+00	2.075112e-03	
698	-1.65000e+00	2.118224e-03	
699	-1.70000e+00	2.160155e-03	
700	-1.75000e+00	2.200917e-03	
701	-1.80000e+00	2.240518e-03	
702	-1.85000e+00	2.278971e-03	
703	-1.90000e+00	2.316285e-03	
704	-1.95000e+00	2.352471e-03	
705	-2.00000e+00	2.387539e-03	
706	-2.05000e+00	2.421498e-03	
707	-2.10000e+00	2.454360e-03	
708	-2.15000e+00	2.486132e-03	
709	-2.20000e+00	2.516826e-03	
710	-2.25000e+00	2.546451e-03	
711	-2.30000e+00	2.575015e-03	
712	-2.35000e+00	2.602528e-03	
713	-2.40000e+00	2.628999e-03	
714	-2.45000e+00	2.654435e-03	
715	-2.50000e+00	2.678844e-03	
716	-2.55000e+00	2.702233e-03	
717	-2.60000e+00	2.724609e-03	
718	-2.65000e+00	2.745974e-03	
719	-2.70000e+00	2.766332e-03	
720	-2.75000e+00	2.785682e-03	
721	-2.80000e+00	2.804021e-03	
722	-2.85000e+00	2.821343e-03	
723	-2.90000e+00	2.837642e-03	
724	-2.95000e+00	2.852916e-03	
725	-3.00000e+00	2.867176e-03	
726	-3.05000e+00	2.880446e-03	
727	-3.10000e+00	2.892772e-03	
728	-3.15000e+00	2.904217e-03	
729	-3.20000e+00	2.914857e-03	
730	-3.25000e+00	2.924769e-03	
731	-3.30000e+00	2.934033e-03	
732	-3.35000e+00	2.942720e-03	
733	-3.40000e+00	2.950896e-03	
734	-3.45000e+00	2.958617e-03	
735	-3.50000e+00	2.965935e-03	
736	-3.55000e+00	2.972893e-03	
737	-3.60000e+00	2.979527e-03	
738	-3.65000e+00	2.985872e-03	
739	-3.70000e+00	2.991955e-03	
740	-3.75000e+00	2.997801e-03	
741	-3.80000e+00	3.003431e-03	
742	-3.85000e+00	3.008864e-03	
743	-3.90000e+00	3.014117e-03	
744	-3.95000e+00	3.019204e-03	
745	-4.00000e+00	3.024139e-03	
746	-4.05000e+00	3.028932e-03	
747	-4.10000e+00	3.033594e-03	
748	-4.15000e+00	3.038135e-03	
749	-4.20000e+00	3.042563e-03	
750	-4.25000e+00	3.046885e-03	

Index   v-sweep         i(vds)          
--------------------------------------------------------------------------------
751	-4.30000e+00	3.051107e-03	
752	-4.35000e+00	3.055238e-03	
753	-4.40000e+00	3.059281e-03	
754	-4.45000e+00	3.063242e-03	
755	-4.50000e+00	3.067125e-03	
756	-4.55000e+00	3.070936e-03	
757	-4.60000e+00	3.074678e-03	
758	-4.65000e+00	3.078355e-03	
759	-4.70000e+00	3.081969e-03	
760	-4.75000e+00	3.085525e-03	
761	-4.80000e+00	3.089025e-03	
762	-4.85000e+00	3.092472e-03	
763	-4.90000e+00	3.095868e-03	
764	-4.95000e+00	3.099216e-03	
765	-5.00000e+00	3.102517e-03	
766	-5.05000e+00	3.105775e-03	
767	-5.10000e+00	3.108990e-03	
768	-5.15000e+00	3.112165e-03	
769	-5.20000e+00	3.115301e-03	
770	-5.25000e+00	3.118400e-03	
771	-5.30000e+00	3.121463e-03	
772	-5.35000e+00	3.124492e-03	
773	-5.40000e+00	3.127488e-03	
774	-5.45000e+00	3.130452e-03	
775	-5.50000e+00	3.133386e-03	
776	-5.55000e+00	3.136291e-03	
777	-5.60000e+00	3.139167e-03	
778	-5.65000e+00	3.142016e-03	
779	-5.70000e+00	3.144839e-03	
780	-5.75000e+00	3.147637e-03	
781	-5.80000e+00	3.150411e-03	
782	-5.85000e+00	3.153162e-03	
783	-5.90000e+00	3.155890e-03	
784	-5.95000e+00	3.158598e-03	
785	-6.00000e+00	3.161285e-03	
786	-6.05000e+00	3.163954e-03	
787	-6.10000e+00	3.166604e-03	
788	-6.15000e+00	3.169238e-03	
789	-6.20000e+00	3.171857e-03	
790	-6.25000e+00	3.174462e-03	
791	-6.30000e+00	3.177054e-03	
792	-6.35000e+00	3.179636e-03	
793	-6.40000e+00	3.182209e-03	
794	-6.45000e+00	3.184775e-03	
795	-6.50000e+00	3.187337e-03	
796	-6.55000e+00	3.189896e-03	
797	-6.60000e+00	3.192456e-03	
Note: No ".plot", ".print", or ".fourier" lines; no simulations run
