
Note: Compatibility modes selected: hs

Warning: m=xx on .subckt line will override multiplier m hierarchy!


Circuit: ***************************

Doing analysis at TEMP = -40.000000 and TNOM = -40.000000


No. of Data Rows : 798
                          ***************************
                          DC transfer characteristic  Mon Jan  9 13:57:53  2023
--------------------------------------------------------------------------------
Index   v-sweep         i(vds)          
--------------------------------------------------------------------------------
0	0.000000e+00	0.000000e+00	
1	-5.00000e-02	4.895545e-08	
2	-1.00000e-01	5.812910e-08	
3	-1.50000e-01	5.946417e-08	
4	-2.00000e-01	5.984559e-08	
5	-2.50000e-01	6.002790e-08	
6	-3.00000e-01	6.014452e-08	
7	-3.50000e-01	6.023226e-08	
8	-4.00000e-01	6.030462e-08	
9	-4.50000e-01	6.036760e-08	
10	-5.00000e-01	6.042426e-08	
11	-5.50000e-01	6.047638e-08	
12	-6.00000e-01	6.052501e-08	
13	-6.50000e-01	6.057089e-08	
14	-7.00000e-01	6.061452e-08	
15	-7.50000e-01	6.065625e-08	
16	-8.00000e-01	6.069637e-08	
17	-8.50000e-01	6.073509e-08	
18	-9.00000e-01	6.077258e-08	
19	-9.50000e-01	6.080898e-08	
20	-1.00000e+00	6.084440e-08	
21	-1.05000e+00	6.087895e-08	
22	-1.10000e+00	6.091271e-08	
23	-1.15000e+00	6.094573e-08	
24	-1.20000e+00	6.097810e-08	
25	-1.25000e+00	6.100985e-08	
26	-1.30000e+00	6.104103e-08	
27	-1.35000e+00	6.107169e-08	
28	-1.40000e+00	6.110186e-08	
29	-1.45000e+00	6.113158e-08	
30	-1.50000e+00	6.116087e-08	
31	-1.55000e+00	6.118976e-08	
32	-1.60000e+00	6.121828e-08	
33	-1.65000e+00	6.124645e-08	
34	-1.70000e+00	6.127428e-08	
35	-1.75000e+00	6.130180e-08	
36	-1.80000e+00	6.132903e-08	
37	-1.85000e+00	6.135597e-08	
38	-1.90000e+00	6.138264e-08	
39	-1.95000e+00	6.140906e-08	
40	-2.00000e+00	6.143524e-08	
41	-2.05000e+00	6.146119e-08	
42	-2.10000e+00	6.148692e-08	
43	-2.15000e+00	6.151244e-08	
44	-2.20000e+00	6.153775e-08	
45	-2.25000e+00	6.156288e-08	
46	-2.30000e+00	6.158782e-08	
47	-2.35000e+00	6.161259e-08	
48	-2.40000e+00	6.163718e-08	
49	-2.45000e+00	6.166162e-08	
50	-2.50000e+00	6.168590e-08	
51	-2.55000e+00	6.171003e-08	
52	-2.60000e+00	6.173401e-08	
53	-2.65000e+00	6.175786e-08	
54	-2.70000e+00	6.178158e-08	

Index   v-sweep         i(vds)          
--------------------------------------------------------------------------------
55	-2.75000e+00	6.180517e-08	
56	-2.80000e+00	6.182865e-08	
57	-2.85000e+00	6.185201e-08	
58	-2.90000e+00	6.187526e-08	
59	-2.95000e+00	6.189842e-08	
60	-3.00000e+00	6.192149e-08	
61	-3.05000e+00	6.194448e-08	
62	-3.10000e+00	6.196739e-08	
63	-3.15000e+00	6.199025e-08	
64	-3.20000e+00	6.201306e-08	
65	-3.25000e+00	6.203584e-08	
66	-3.30000e+00	6.205860e-08	
67	-3.35000e+00	6.208136e-08	
68	-3.40000e+00	6.210416e-08	
69	-3.45000e+00	6.212700e-08	
70	-3.50000e+00	6.214993e-08	
71	-3.55000e+00	6.217297e-08	
72	-3.60000e+00	6.219616e-08	
73	-3.65000e+00	6.221954e-08	
74	-3.70000e+00	6.224317e-08	
75	-3.75000e+00	6.226709e-08	
76	-3.80000e+00	6.229138e-08	
77	-3.85000e+00	6.231609e-08	
78	-3.90000e+00	6.234130e-08	
79	-3.95000e+00	6.236709e-08	
80	-4.00000e+00	6.239357e-08	
81	-4.05000e+00	6.242082e-08	
82	-4.10000e+00	6.244898e-08	
83	-4.15000e+00	6.247815e-08	
84	-4.20000e+00	6.250848e-08	
85	-4.25000e+00	6.254011e-08	
86	-4.30000e+00	6.257320e-08	
87	-4.35000e+00	6.260793e-08	
88	-4.40000e+00	6.264449e-08	
89	-4.45000e+00	6.268309e-08	
90	-4.50000e+00	6.272393e-08	
91	-4.55000e+00	6.276726e-08	
92	-4.60000e+00	6.281333e-08	
93	-4.65000e+00	6.286241e-08	
94	-4.70000e+00	6.291478e-08	
95	-4.75000e+00	6.297075e-08	
96	-4.80000e+00	6.303066e-08	
97	-4.85000e+00	6.309483e-08	
98	-4.90000e+00	6.316365e-08	
99	-4.95000e+00	6.323749e-08	
100	-5.00000e+00	6.331676e-08	
101	-5.05000e+00	6.340189e-08	
102	-5.10000e+00	6.349333e-08	
103	-5.15000e+00	6.359156e-08	
104	-5.20000e+00	6.369707e-08	
105	-5.25000e+00	6.381037e-08	
106	-5.30000e+00	6.393201e-08	
107	-5.35000e+00	6.406256e-08	
108	-5.40000e+00	6.420261e-08	
109	-5.45000e+00	6.435277e-08	
110	-5.50000e+00	6.451367e-08	
111	-5.55000e+00	6.468598e-08	
112	-5.60000e+00	6.487039e-08	

Index   v-sweep         i(vds)          
--------------------------------------------------------------------------------
113	-5.65000e+00	6.506760e-08	
114	-5.70000e+00	6.527836e-08	
115	-5.75000e+00	6.550341e-08	
116	-5.80000e+00	6.574356e-08	
117	-5.85000e+00	6.599960e-08	
118	-5.90000e+00	6.627238e-08	
119	-5.95000e+00	6.656274e-08	
120	-6.00000e+00	6.687158e-08	
121	-6.05000e+00	6.719980e-08	
122	-6.10000e+00	6.754833e-08	
123	-6.15000e+00	6.791812e-08	
124	-6.20000e+00	6.831016e-08	
125	-6.25000e+00	6.872545e-08	
126	-6.30000e+00	6.916501e-08	
127	-6.35000e+00	6.962989e-08	
128	-6.40000e+00	7.012116e-08	
129	-6.45000e+00	7.063991e-08	
130	-6.50000e+00	7.118727e-08	
131	-6.55000e+00	7.176435e-08	
132	-6.60000e+00	7.237234e-08	
133	0.000000e+00	0.000000e+00	
134	-5.00000e-02	1.605025e-06	
135	-1.00000e-01	3.095633e-06	
136	-1.50000e-01	4.472080e-06	
137	-2.00000e-01	5.734635e-06	
138	-2.50000e-01	6.883583e-06	
139	-3.00000e-01	7.919243e-06	
140	-3.50000e-01	8.841985e-06	
141	-4.00000e-01	9.652275e-06	
142	-4.50000e-01	1.035075e-05	
143	-5.00000e-01	1.093841e-05	
144	-5.50000e-01	1.141692e-05	
145	-6.00000e-01	1.178944e-05	
146	-6.50000e-01	1.206218e-05	
147	-7.00000e-01	1.224690e-05	
148	-7.50000e-01	1.236257e-05	
149	-8.00000e-01	1.243216e-05	
150	-8.50000e-01	1.247525e-05	
151	-9.00000e-01	1.250422e-05	
152	-9.50000e-01	1.252560e-05	
153	-1.00000e+00	1.254267e-05	
154	-1.05000e+00	1.255710e-05	
155	-1.10000e+00	1.256979e-05	
156	-1.15000e+00	1.258125e-05	
157	-1.20000e+00	1.259179e-05	
158	-1.25000e+00	1.260164e-05	
159	-1.30000e+00	1.261092e-05	
160	-1.35000e+00	1.261974e-05	
161	-1.40000e+00	1.262818e-05	
162	-1.45000e+00	1.263627e-05	
163	-1.50000e+00	1.264409e-05	
164	-1.55000e+00	1.265164e-05	
165	-1.60000e+00	1.265898e-05	
166	-1.65000e+00	1.266611e-05	
167	-1.70000e+00	1.267306e-05	
168	-1.75000e+00	1.267985e-05	
169	-1.80000e+00	1.268649e-05	
170	-1.85000e+00	1.269299e-05	

Index   v-sweep         i(vds)          
--------------------------------------------------------------------------------
171	-1.90000e+00	1.269937e-05	
172	-1.95000e+00	1.270563e-05	
173	-2.00000e+00	1.271178e-05	
174	-2.05000e+00	1.271783e-05	
175	-2.10000e+00	1.272379e-05	
176	-2.15000e+00	1.272967e-05	
177	-2.20000e+00	1.273546e-05	
178	-2.25000e+00	1.274118e-05	
179	-2.30000e+00	1.274682e-05	
180	-2.35000e+00	1.275239e-05	
181	-2.40000e+00	1.275791e-05	
182	-2.45000e+00	1.276336e-05	
183	-2.50000e+00	1.276875e-05	
184	-2.55000e+00	1.277409e-05	
185	-2.60000e+00	1.277938e-05	
186	-2.65000e+00	1.278462e-05	
187	-2.70000e+00	1.278981e-05	
188	-2.75000e+00	1.279495e-05	
189	-2.80000e+00	1.280006e-05	
190	-2.85000e+00	1.280512e-05	
191	-2.90000e+00	1.281014e-05	
192	-2.95000e+00	1.281513e-05	
193	-3.00000e+00	1.282008e-05	
194	-3.05000e+00	1.282500e-05	
195	-3.10000e+00	1.282988e-05	
196	-3.15000e+00	1.283473e-05	
197	-3.20000e+00	1.283955e-05	
198	-3.25000e+00	1.284435e-05	
199	-3.30000e+00	1.284911e-05	
200	-3.35000e+00	1.285385e-05	
201	-3.40000e+00	1.285856e-05	
202	-3.45000e+00	1.286325e-05	
203	-3.50000e+00	1.286791e-05	
204	-3.55000e+00	1.287256e-05	
205	-3.60000e+00	1.287718e-05	
206	-3.65000e+00	1.288179e-05	
207	-3.70000e+00	1.288637e-05	
208	-3.75000e+00	1.289095e-05	
209	-3.80000e+00	1.289551e-05	
210	-3.85000e+00	1.290006e-05	
211	-3.90000e+00	1.290460e-05	
212	-3.95000e+00	1.290914e-05	
213	-4.00000e+00	1.291368e-05	
214	-4.05000e+00	1.291822e-05	
215	-4.10000e+00	1.292277e-05	
216	-4.15000e+00	1.292734e-05	
217	-4.20000e+00	1.293193e-05	
218	-4.25000e+00	1.293654e-05	
219	-4.30000e+00	1.294120e-05	
220	-4.35000e+00	1.294590e-05	
221	-4.40000e+00	1.295065e-05	
222	-4.45000e+00	1.295548e-05	
223	-4.50000e+00	1.296039e-05	
224	-4.55000e+00	1.296539e-05	
225	-4.60000e+00	1.297051e-05	
226	-4.65000e+00	1.297576e-05	
227	-4.70000e+00	1.298117e-05	
228	-4.75000e+00	1.298675e-05	

Index   v-sweep         i(vds)          
--------------------------------------------------------------------------------
229	-4.80000e+00	1.299254e-05	
230	-4.85000e+00	1.299855e-05	
231	-4.90000e+00	1.300481e-05	
232	-4.95000e+00	1.301137e-05	
233	-5.00000e+00	1.301825e-05	
234	-5.05000e+00	1.302550e-05	
235	-5.10000e+00	1.303314e-05	
236	-5.15000e+00	1.304124e-05	
237	-5.20000e+00	1.304983e-05	
238	-5.25000e+00	1.305897e-05	
239	-5.30000e+00	1.306870e-05	
240	-5.35000e+00	1.307909e-05	
241	-5.40000e+00	1.309021e-05	
242	-5.45000e+00	1.310211e-05	
243	-5.50000e+00	1.311486e-05	
244	-5.55000e+00	1.312855e-05	
245	-5.60000e+00	1.314324e-05	
246	-5.65000e+00	1.315903e-05	
247	-5.70000e+00	1.317599e-05	
248	-5.75000e+00	1.319422e-05	
249	-5.80000e+00	1.321381e-05	
250	-5.85000e+00	1.323487e-05	
251	-5.90000e+00	1.325751e-05	
252	-5.95000e+00	1.328182e-05	
253	-6.00000e+00	1.330794e-05	
254	-6.05000e+00	1.333597e-05	
255	-6.10000e+00	1.336604e-05	
256	-6.15000e+00	1.339829e-05	
257	-6.20000e+00	1.343284e-05	
258	-6.25000e+00	1.346985e-05	
259	-6.30000e+00	1.350944e-05	
260	-6.35000e+00	1.355179e-05	
261	-6.40000e+00	1.359703e-05	
262	-6.45000e+00	1.364533e-05	
263	-6.50000e+00	1.369686e-05	
264	-6.55000e+00	1.375179e-05	
265	-6.60000e+00	1.381029e-05	
266	0.000000e+00	0.000000e+00	
267	-5.00000e-02	2.938699e-06	
268	-1.00000e-01	5.771666e-06	
269	-1.50000e-01	8.499098e-06	
270	-2.00000e-01	1.112119e-05	
271	-2.50000e-01	1.363814e-05	
272	-3.00000e-01	1.605015e-05	
273	-3.50000e-01	1.835740e-05	
274	-4.00000e-01	2.056011e-05	
275	-4.50000e-01	2.265847e-05	
276	-5.00000e-01	2.465269e-05	
277	-5.50000e-01	2.654297e-05	
278	-6.00000e-01	2.832951e-05	
279	-6.50000e-01	3.001254e-05	
280	-7.00000e-01	3.159227e-05	
281	-7.50000e-01	3.306894e-05	
282	-8.00000e-01	3.444280e-05	
283	-8.50000e-01	3.571412e-05	
284	-9.00000e-01	3.688319e-05	
285	-9.50000e-01	3.795039e-05	
286	-1.00000e+00	3.891614e-05	

Index   v-sweep         i(vds)          
--------------------------------------------------------------------------------
287	-1.05000e+00	3.978102e-05	
288	-1.10000e+00	4.054579e-05	
289	-1.15000e+00	4.121158e-05	
290	-1.20000e+00	4.178012e-05	
291	-1.25000e+00	4.225413e-05	
292	-1.30000e+00	4.263805e-05	
293	-1.35000e+00	4.293888e-05	
294	-1.40000e+00	4.316699e-05	
295	-1.45000e+00	4.333595e-05	
296	-1.50000e+00	4.346066e-05	
297	-1.55000e+00	4.355463e-05	
298	-1.60000e+00	4.362822e-05	
299	-1.65000e+00	4.368842e-05	
300	-1.70000e+00	4.373968e-05	
301	-1.75000e+00	4.378473e-05	
302	-1.80000e+00	4.382533e-05	
303	-1.85000e+00	4.386259e-05	
304	-1.90000e+00	4.389726e-05	
305	-1.95000e+00	4.392986e-05	
306	-2.00000e+00	4.396076e-05	
307	-2.05000e+00	4.399024e-05	
308	-2.10000e+00	4.401852e-05	
309	-2.15000e+00	4.404575e-05	
310	-2.20000e+00	4.407206e-05	
311	-2.25000e+00	4.409757e-05	
312	-2.30000e+00	4.412236e-05	
313	-2.35000e+00	4.414650e-05	
314	-2.40000e+00	4.417006e-05	
315	-2.45000e+00	4.419309e-05	
316	-2.50000e+00	4.421563e-05	
317	-2.55000e+00	4.423772e-05	
318	-2.60000e+00	4.425941e-05	
319	-2.65000e+00	4.428071e-05	
320	-2.70000e+00	4.430167e-05	
321	-2.75000e+00	4.432230e-05	
322	-2.80000e+00	4.434262e-05	
323	-2.85000e+00	4.436265e-05	
324	-2.90000e+00	4.438242e-05	
325	-2.95000e+00	4.440193e-05	
326	-3.00000e+00	4.442121e-05	
327	-3.05000e+00	4.444026e-05	
328	-3.10000e+00	4.445910e-05	
329	-3.15000e+00	4.447774e-05	
330	-3.20000e+00	4.449620e-05	
331	-3.25000e+00	4.451447e-05	
332	-3.30000e+00	4.453257e-05	
333	-3.35000e+00	4.455050e-05	
334	-3.40000e+00	4.456828e-05	
335	-3.45000e+00	4.458592e-05	
336	-3.50000e+00	4.460341e-05	
337	-3.55000e+00	4.462076e-05	
338	-3.60000e+00	4.463799e-05	
339	-3.65000e+00	4.465509e-05	
340	-3.70000e+00	4.467207e-05	
341	-3.75000e+00	4.468894e-05	
342	-3.80000e+00	4.470570e-05	
343	-3.85000e+00	4.472236e-05	
344	-3.90000e+00	4.473891e-05	

Index   v-sweep         i(vds)          
--------------------------------------------------------------------------------
345	-3.95000e+00	4.475537e-05	
346	-4.00000e+00	4.477173e-05	
347	-4.05000e+00	4.478801e-05	
348	-4.10000e+00	4.480420e-05	
349	-4.15000e+00	4.482031e-05	
350	-4.20000e+00	4.483634e-05	
351	-4.25000e+00	4.485230e-05	
352	-4.30000e+00	4.486820e-05	
353	-4.35000e+00	4.488404e-05	
354	-4.40000e+00	4.489982e-05	
355	-4.45000e+00	4.491555e-05	
356	-4.50000e+00	4.493124e-05	
357	-4.55000e+00	4.494690e-05	
358	-4.60000e+00	4.496253e-05	
359	-4.65000e+00	4.497816e-05	
360	-4.70000e+00	4.499379e-05	
361	-4.75000e+00	4.500944e-05	
362	-4.80000e+00	4.502512e-05	
363	-4.85000e+00	4.504086e-05	
364	-4.90000e+00	4.505668e-05	
365	-4.95000e+00	4.507260e-05	
366	-5.00000e+00	4.508866e-05	
367	-5.05000e+00	4.510488e-05	
368	-5.10000e+00	4.512131e-05	
369	-5.15000e+00	4.513798e-05	
370	-5.20000e+00	4.515495e-05	
371	-5.25000e+00	4.517226e-05	
372	-5.30000e+00	4.518998e-05	
373	-5.35000e+00	4.520817e-05	
374	-5.40000e+00	4.522691e-05	
375	-5.45000e+00	4.524626e-05	
376	-5.50000e+00	4.526632e-05	
377	-5.55000e+00	4.528719e-05	
378	-5.60000e+00	4.530896e-05	
379	-5.65000e+00	4.533176e-05	
380	-5.70000e+00	4.535569e-05	
381	-5.75000e+00	4.538090e-05	
382	-5.80000e+00	4.540754e-05	
383	-5.85000e+00	4.543574e-05	
384	-5.90000e+00	4.546569e-05	
385	-5.95000e+00	4.549755e-05	
386	-6.00000e+00	4.553152e-05	
387	-6.05000e+00	4.556780e-05	
388	-6.10000e+00	4.560661e-05	
389	-6.15000e+00	4.564818e-05	
390	-6.20000e+00	4.569275e-05	
391	-6.25000e+00	4.574058e-05	
392	-6.30000e+00	4.579195e-05	
393	-6.35000e+00	4.584714e-05	
394	-6.40000e+00	4.590646e-05	
395	-6.45000e+00	4.597023e-05	
396	-6.50000e+00	4.603879e-05	
397	-6.55000e+00	4.611248e-05	
398	-6.60000e+00	4.619167e-05	
399	0.000000e+00	0.000000e+00	
400	-5.00000e-02	4.014174e-06	
401	-1.00000e-01	7.931780e-06	
402	-1.50000e-01	1.175298e-05	

Index   v-sweep         i(vds)          
--------------------------------------------------------------------------------
403	-2.00000e-01	1.547794e-05	
404	-2.50000e-01	1.910683e-05	
405	-3.00000e-01	2.263980e-05	
406	-3.50000e-01	2.607702e-05	
407	-4.00000e-01	2.941865e-05	
408	-4.50000e-01	3.266486e-05	
409	-5.00000e-01	3.581580e-05	
410	-5.50000e-01	3.887164e-05	
411	-6.00000e-01	4.183255e-05	
412	-6.50000e-01	4.469868e-05	
413	-7.00000e-01	4.747020e-05	
414	-7.50000e-01	5.014727e-05	
415	-8.00000e-01	5.273006e-05	
416	-8.50000e-01	5.521873e-05	
417	-9.00000e-01	5.761344e-05	
418	-9.50000e-01	5.991436e-05	
419	-1.00000e+00	6.212165e-05	
420	-1.05000e+00	6.423550e-05	
421	-1.10000e+00	6.625606e-05	
422	-1.15000e+00	6.818352e-05	
423	-1.20000e+00	7.001805e-05	
424	-1.25000e+00	7.175984e-05	
425	-1.30000e+00	7.340907e-05	
426	-1.35000e+00	7.496596e-05	
427	-1.40000e+00	7.643072e-05	
428	-1.45000e+00	7.780357e-05	
429	-1.50000e+00	7.908479e-05	
430	-1.55000e+00	8.027466e-05	
431	-1.60000e+00	8.137354e-05	
432	-1.65000e+00	8.238185e-05	
433	-1.70000e+00	8.330014e-05	
434	-1.75000e+00	8.412912e-05	
435	-1.80000e+00	8.486978e-05	
436	-1.85000e+00	8.552349e-05	
437	-1.90000e+00	8.609228e-05	
438	-1.95000e+00	8.657912e-05	
439	-2.00000e+00	8.698836e-05	
440	-2.05000e+00	8.732618e-05	
441	-2.10000e+00	8.760081e-05	
442	-2.15000e+00	8.782224e-05	
443	-2.20000e+00	8.800123e-05	
444	-2.25000e+00	8.814797e-05	
445	-2.30000e+00	8.827097e-05	
446	-2.35000e+00	8.837673e-05	
447	-2.40000e+00	8.846991e-05	
448	-2.45000e+00	8.855375e-05	
449	-2.50000e+00	8.863048e-05	
450	-2.55000e+00	8.870167e-05	
451	-2.60000e+00	8.876843e-05	
452	-2.65000e+00	8.883157e-05	
453	-2.70000e+00	8.889167e-05	
454	-2.75000e+00	8.894921e-05	
455	-2.80000e+00	8.900454e-05	
456	-2.85000e+00	8.905794e-05	
457	-2.90000e+00	8.910965e-05	
458	-2.95000e+00	8.915985e-05	
459	-3.00000e+00	8.920870e-05	
460	-3.05000e+00	8.925633e-05	

Index   v-sweep         i(vds)          
--------------------------------------------------------------------------------
461	-3.10000e+00	8.930286e-05	
462	-3.15000e+00	8.934838e-05	
463	-3.20000e+00	8.939299e-05	
464	-3.25000e+00	8.943674e-05	
465	-3.30000e+00	8.947971e-05	
466	-3.35000e+00	8.952196e-05	
467	-3.40000e+00	8.956354e-05	
468	-3.45000e+00	8.960448e-05	
469	-3.50000e+00	8.964484e-05	
470	-3.55000e+00	8.968465e-05	
471	-3.60000e+00	8.972395e-05	
472	-3.65000e+00	8.976276e-05	
473	-3.70000e+00	8.980111e-05	
474	-3.75000e+00	8.983903e-05	
475	-3.80000e+00	8.987655e-05	
476	-3.85000e+00	8.991367e-05	
477	-3.90000e+00	8.995043e-05	
478	-3.95000e+00	8.998685e-05	
479	-4.00000e+00	9.002293e-05	
480	-4.05000e+00	9.005869e-05	
481	-4.10000e+00	9.009416e-05	
482	-4.15000e+00	9.012933e-05	
483	-4.20000e+00	9.016424e-05	
484	-4.25000e+00	9.019888e-05	
485	-4.30000e+00	9.023327e-05	
486	-4.35000e+00	9.026741e-05	
487	-4.40000e+00	9.030133e-05	
488	-4.45000e+00	9.033503e-05	
489	-4.50000e+00	9.036851e-05	
490	-4.55000e+00	9.040179e-05	
491	-4.60000e+00	9.043487e-05	
492	-4.65000e+00	9.046777e-05	
493	-4.70000e+00	9.050049e-05	
494	-4.75000e+00	9.053303e-05	
495	-4.80000e+00	9.056541e-05	
496	-4.85000e+00	9.059763e-05	
497	-4.90000e+00	9.062971e-05	
498	-4.95000e+00	9.066165e-05	
499	-5.00000e+00	9.069345e-05	
500	-5.05000e+00	9.072514e-05	
501	-5.10000e+00	9.075673e-05	
502	-5.15000e+00	9.078822e-05	
503	-5.20000e+00	9.081963e-05	
504	-5.25000e+00	9.085099e-05	
505	-5.30000e+00	9.088230e-05	
506	-5.35000e+00	9.091360e-05	
507	-5.40000e+00	9.094491e-05	
508	-5.45000e+00	9.097625e-05	
509	-5.50000e+00	9.100767e-05	
510	-5.55000e+00	9.103921e-05	
511	-5.60000e+00	9.107091e-05	
512	-5.65000e+00	9.110282e-05	
513	-5.70000e+00	9.113500e-05	
514	-5.75000e+00	9.116752e-05	
515	-5.80000e+00	9.120046e-05	
516	-5.85000e+00	9.123389e-05	
517	-5.90000e+00	9.126792e-05	
518	-5.95000e+00	9.130265e-05	

Index   v-sweep         i(vds)          
--------------------------------------------------------------------------------
519	-6.00000e+00	9.133820e-05	
520	-6.05000e+00	9.137470e-05	
521	-6.10000e+00	9.141229e-05	
522	-6.15000e+00	9.145114e-05	
523	-6.20000e+00	9.149141e-05	
524	-6.25000e+00	9.153331e-05	
525	-6.30000e+00	9.157703e-05	
526	-6.35000e+00	9.162281e-05	
527	-6.40000e+00	9.167089e-05	
528	-6.45000e+00	9.172154e-05	
529	-6.50000e+00	9.177506e-05	
530	-6.55000e+00	9.183174e-05	
531	-6.60000e+00	9.189193e-05	
532	0.000000e+00	0.000000e+00	
533	-5.00000e-02	4.880316e-06	
534	-1.00000e-01	9.672584e-06	
535	-1.50000e-01	1.437694e-05	
536	-2.00000e-01	1.899353e-05	
537	-2.50000e-01	2.352248e-05	
538	-3.00000e-01	2.796393e-05	
539	-3.50000e-01	3.231802e-05	
540	-4.00000e-01	3.658489e-05	
541	-4.50000e-01	4.076467e-05	
542	-5.00000e-01	4.485750e-05	
543	-5.50000e-01	4.886352e-05	
544	-6.00000e-01	5.278286e-05	
545	-6.50000e-01	5.661565e-05	
546	-7.00000e-01	6.036204e-05	
547	-7.50000e-01	6.402216e-05	
548	-8.00000e-01	6.759615e-05	
549	-8.50000e-01	7.108413e-05	
550	-9.00000e-01	7.448625e-05	
551	-9.50000e-01	7.780264e-05	
552	-1.00000e+00	8.103343e-05	
553	-1.05000e+00	8.417876e-05	
554	-1.10000e+00	8.723877e-05	
555	-1.15000e+00	9.021359e-05	
556	-1.20000e+00	9.310336e-05	
557	-1.25000e+00	9.590821e-05	
558	-1.30000e+00	9.862828e-05	
559	-1.35000e+00	1.012637e-04	
560	-1.40000e+00	1.038146e-04	
561	-1.45000e+00	1.062811e-04	
562	-1.50000e+00	1.086635e-04	
563	-1.55000e+00	1.109617e-04	
564	-1.60000e+00	1.131759e-04	
565	-1.65000e+00	1.153064e-04	
566	-1.70000e+00	1.173532e-04	
567	-1.75000e+00	1.193165e-04	
568	-1.80000e+00	1.211964e-04	
569	-1.85000e+00	1.229931e-04	
570	-1.90000e+00	1.247067e-04	
571	-1.95000e+00	1.263375e-04	
572	-2.00000e+00	1.278856e-04	
573	-2.05000e+00	1.293512e-04	
574	-2.10000e+00	1.307345e-04	
575	-2.15000e+00	1.320358e-04	
576	-2.20000e+00	1.332553e-04	

Index   v-sweep         i(vds)          
--------------------------------------------------------------------------------
577	-2.25000e+00	1.343933e-04	
578	-2.30000e+00	1.354502e-04	
579	-2.35000e+00	1.364265e-04	
580	-2.40000e+00	1.373228e-04	
581	-2.45000e+00	1.381398e-04	
582	-2.50000e+00	1.388785e-04	
583	-2.55000e+00	1.395405e-04	
584	-2.60000e+00	1.401276e-04	
585	-2.65000e+00	1.406425e-04	
586	-2.70000e+00	1.410890e-04	
587	-2.75000e+00	1.414722e-04	
588	-2.80000e+00	1.417983e-04	
589	-2.85000e+00	1.420749e-04	
590	-2.90000e+00	1.423101e-04	
591	-2.95000e+00	1.425119e-04	
592	-3.00000e+00	1.426875e-04	
593	-3.05000e+00	1.428428e-04	
594	-3.10000e+00	1.429825e-04	
595	-3.15000e+00	1.431101e-04	
596	-3.20000e+00	1.432280e-04	
597	-3.25000e+00	1.433382e-04	
598	-3.30000e+00	1.434421e-04	
599	-3.35000e+00	1.435408e-04	
600	-3.40000e+00	1.436350e-04	
601	-3.45000e+00	1.437255e-04	
602	-3.50000e+00	1.438126e-04	
603	-3.55000e+00	1.438969e-04	
604	-3.60000e+00	1.439786e-04	
605	-3.65000e+00	1.440580e-04	
606	-3.70000e+00	1.441354e-04	
607	-3.75000e+00	1.442109e-04	
608	-3.80000e+00	1.442847e-04	
609	-3.85000e+00	1.443570e-04	
610	-3.90000e+00	1.444278e-04	
611	-3.95000e+00	1.444974e-04	
612	-4.00000e+00	1.445658e-04	
613	-4.05000e+00	1.446330e-04	
614	-4.10000e+00	1.446992e-04	
615	-4.15000e+00	1.447644e-04	
616	-4.20000e+00	1.448288e-04	
617	-4.25000e+00	1.448922e-04	
618	-4.30000e+00	1.449549e-04	
619	-4.35000e+00	1.450168e-04	
620	-4.40000e+00	1.450780e-04	
621	-4.45000e+00	1.451386e-04	
622	-4.50000e+00	1.451985e-04	
623	-4.55000e+00	1.452578e-04	
624	-4.60000e+00	1.453165e-04	
625	-4.65000e+00	1.453747e-04	
626	-4.70000e+00	1.454324e-04	
627	-4.75000e+00	1.454895e-04	
628	-4.80000e+00	1.455462e-04	
629	-4.85000e+00	1.456025e-04	
630	-4.90000e+00	1.456583e-04	
631	-4.95000e+00	1.457137e-04	
632	-5.00000e+00	1.457688e-04	
633	-5.05000e+00	1.458234e-04	
634	-5.10000e+00	1.458777e-04	

Index   v-sweep         i(vds)          
--------------------------------------------------------------------------------
635	-5.15000e+00	1.459317e-04	
636	-5.20000e+00	1.459853e-04	
637	-5.25000e+00	1.460386e-04	
638	-5.30000e+00	1.460916e-04	
639	-5.35000e+00	1.461443e-04	
640	-5.40000e+00	1.461967e-04	
641	-5.45000e+00	1.462488e-04	
642	-5.50000e+00	1.463007e-04	
643	-5.55000e+00	1.463523e-04	
644	-5.60000e+00	1.464037e-04	
645	-5.65000e+00	1.464549e-04	
646	-5.70000e+00	1.465059e-04	
647	-5.75000e+00	1.465567e-04	
648	-5.80000e+00	1.466073e-04	
649	-5.85000e+00	1.466578e-04	
650	-5.90000e+00	1.467082e-04	
651	-5.95000e+00	1.467584e-04	
652	-6.00000e+00	1.468086e-04	
653	-6.05000e+00	1.468588e-04	
654	-6.10000e+00	1.469090e-04	
655	-6.15000e+00	1.469592e-04	
656	-6.20000e+00	1.470096e-04	
657	-6.25000e+00	1.470601e-04	
658	-6.30000e+00	1.471109e-04	
659	-6.35000e+00	1.471620e-04	
660	-6.40000e+00	1.472136e-04	
661	-6.45000e+00	1.472656e-04	
662	-6.50000e+00	1.473183e-04	
663	-6.55000e+00	1.473718e-04	
664	-6.60000e+00	1.474263e-04	
665	0.000000e+00	0.000000e+00	
666	-5.00000e-02	5.576943e-06	
667	-1.00000e-01	1.107357e-05	
668	-1.50000e-01	1.648999e-05	
669	-2.00000e-01	2.182634e-05	
670	-2.50000e-01	2.708271e-05	
671	-3.00000e-01	3.225923e-05	
672	-3.50000e-01	3.735602e-05	
673	-4.00000e-01	4.237319e-05	
674	-4.50000e-01	4.731086e-05	
675	-5.00000e-01	5.216914e-05	
676	-5.50000e-01	5.694814e-05	
677	-6.00000e-01	6.164799e-05	
678	-6.50000e-01	6.626879e-05	
679	-7.00000e-01	7.081067e-05	
680	-7.50000e-01	7.527373e-05	
681	-8.00000e-01	7.965810e-05	
682	-8.50000e-01	8.396388e-05	
683	-9.00000e-01	8.819118e-05	
684	-9.50000e-01	9.234013e-05	
685	-1.00000e+00	9.641084e-05	
686	-1.05000e+00	1.004034e-04	
687	-1.10000e+00	1.043180e-04	
688	-1.15000e+00	1.081546e-04	
689	-1.20000e+00	1.119135e-04	
690	-1.25000e+00	1.155947e-04	
691	-1.30000e+00	1.191983e-04	
692	-1.35000e+00	1.227245e-04	

Index   v-sweep         i(vds)          
--------------------------------------------------------------------------------
693	-1.40000e+00	1.261733e-04	
694	-1.45000e+00	1.295449e-04	
695	-1.50000e+00	1.328394e-04	
696	-1.55000e+00	1.360569e-04	
697	-1.60000e+00	1.391976e-04	
698	-1.65000e+00	1.422614e-04	
699	-1.70000e+00	1.452486e-04	
700	-1.75000e+00	1.481592e-04	
701	-1.80000e+00	1.509934e-04	
702	-1.85000e+00	1.537513e-04	
703	-1.90000e+00	1.564329e-04	
704	-1.95000e+00	1.590385e-04	
705	-2.00000e+00	1.615681e-04	
706	-2.05000e+00	1.640219e-04	
707	-2.10000e+00	1.663999e-04	
708	-2.15000e+00	1.687022e-04	
709	-2.20000e+00	1.709291e-04	
710	-2.25000e+00	1.730806e-04	
711	-2.30000e+00	1.751568e-04	
712	-2.35000e+00	1.771579e-04	
713	-2.40000e+00	1.790840e-04	
714	-2.45000e+00	1.809351e-04	
715	-2.50000e+00	1.827116e-04	
716	-2.55000e+00	1.844135e-04	
717	-2.60000e+00	1.860409e-04	
718	-2.65000e+00	1.875940e-04	
719	-2.70000e+00	1.890730e-04	
720	-2.75000e+00	1.904780e-04	
721	-2.80000e+00	1.918094e-04	
722	-2.85000e+00	1.930672e-04	
723	-2.90000e+00	1.942518e-04	
724	-2.95000e+00	1.953635e-04	
725	-3.00000e+00	1.964026e-04	
726	-3.05000e+00	1.973697e-04	
727	-3.10000e+00	1.982653e-04	
728	-3.15000e+00	1.990901e-04	
729	-3.20000e+00	1.998451e-04	
730	-3.25000e+00	2.005316e-04	
731	-3.30000e+00	2.011512e-04	
732	-3.35000e+00	2.017063e-04	
733	-3.40000e+00	2.021998e-04	
734	-3.45000e+00	2.026356e-04	
735	-3.50000e+00	2.030185e-04	
736	-3.55000e+00	2.033541e-04	
737	-3.60000e+00	2.036488e-04	
738	-3.65000e+00	2.039089e-04	
739	-3.70000e+00	2.041406e-04	
740	-3.75000e+00	2.043492e-04	
741	-3.80000e+00	2.045393e-04	
742	-3.85000e+00	2.047144e-04	
743	-3.90000e+00	2.048775e-04	
744	-3.95000e+00	2.050306e-04	
745	-4.00000e+00	2.051755e-04	
746	-4.05000e+00	2.053134e-04	
747	-4.10000e+00	2.054455e-04	
748	-4.15000e+00	2.055724e-04	
749	-4.20000e+00	2.056949e-04	
750	-4.25000e+00	2.058134e-04	

Index   v-sweep         i(vds)          
--------------------------------------------------------------------------------
751	-4.30000e+00	2.059285e-04	
752	-4.35000e+00	2.060405e-04	
753	-4.40000e+00	2.061496e-04	
754	-4.45000e+00	2.062562e-04	
755	-4.50000e+00	2.063605e-04	
756	-4.55000e+00	2.064626e-04	
757	-4.60000e+00	2.065628e-04	
758	-4.65000e+00	2.066612e-04	
759	-4.70000e+00	2.067579e-04	
760	-4.75000e+00	2.068531e-04	
761	-4.80000e+00	2.069468e-04	
762	-4.85000e+00	2.070392e-04	
763	-4.90000e+00	2.071303e-04	
764	-4.95000e+00	2.072202e-04	
765	-5.00000e+00	2.073091e-04	
766	-5.05000e+00	2.073969e-04	
767	-5.10000e+00	2.074836e-04	
768	-5.15000e+00	2.075695e-04	
769	-5.20000e+00	2.076545e-04	
770	-5.25000e+00	2.077386e-04	
771	-5.30000e+00	2.078219e-04	
772	-5.35000e+00	2.079045e-04	
773	-5.40000e+00	2.079864e-04	
774	-5.45000e+00	2.080676e-04	
775	-5.50000e+00	2.081481e-04	
776	-5.55000e+00	2.082280e-04	
777	-5.60000e+00	2.083073e-04	
778	-5.65000e+00	2.083860e-04	
779	-5.70000e+00	2.084641e-04	
780	-5.75000e+00	2.085418e-04	
781	-5.80000e+00	2.086189e-04	
782	-5.85000e+00	2.086956e-04	
783	-5.90000e+00	2.087718e-04	
784	-5.95000e+00	2.088475e-04	
785	-6.00000e+00	2.089228e-04	
786	-6.05000e+00	2.089977e-04	
787	-6.10000e+00	2.090722e-04	
788	-6.15000e+00	2.091464e-04	
789	-6.20000e+00	2.092201e-04	
790	-6.25000e+00	2.092935e-04	
791	-6.30000e+00	2.093666e-04	
792	-6.35000e+00	2.094394e-04	
793	-6.40000e+00	2.095119e-04	
794	-6.45000e+00	2.095841e-04	
795	-6.50000e+00	2.096561e-04	
796	-6.55000e+00	2.097279e-04	
797	-6.60000e+00	2.097995e-04	
Note: No ".plot", ".print", or ".fourier" lines; no simulations run
