
Note: Compatibility modes selected: hs

Warning: m=xx on .subckt line will override multiplier m hierarchy!


Circuit: ***************************

Doing analysis at TEMP = 25.000000 and TNOM = 25.000000


No. of Data Rows : 798
                          ***************************
                          DC transfer characteristic  Mon Jan  9 13:57:52  2023
--------------------------------------------------------------------------------
Index   v-sweep         i(vds)          
--------------------------------------------------------------------------------
0	0.000000e+00	0.000000e+00	
1	-5.00000e-02	7.132702e-07	
2	-1.00000e-01	1.099053e-06	
3	-1.50000e-01	1.239344e-06	
4	-2.00000e-01	1.277971e-06	
5	-2.50000e-01	1.292685e-06	
6	-3.00000e-01	1.301425e-06	
7	-3.50000e-01	1.308024e-06	
8	-4.00000e-01	1.313576e-06	
9	-4.50000e-01	1.318492e-06	
10	-5.00000e-01	1.322964e-06	
11	-5.50000e-01	1.327098e-06	
12	-6.00000e-01	1.330961e-06	
13	-6.50000e-01	1.334599e-06	
14	-7.00000e-01	1.338043e-06	
15	-7.50000e-01	1.341319e-06	
16	-8.00000e-01	1.344447e-06	
17	-8.50000e-01	1.347443e-06	
18	-9.00000e-01	1.350321e-06	
19	-9.50000e-01	1.353092e-06	
20	-1.00000e+00	1.355765e-06	
21	-1.05000e+00	1.358350e-06	
22	-1.10000e+00	1.360852e-06	
23	-1.15000e+00	1.363280e-06	
24	-1.20000e+00	1.365637e-06	
25	-1.25000e+00	1.367930e-06	
26	-1.30000e+00	1.370163e-06	
27	-1.35000e+00	1.372340e-06	
28	-1.40000e+00	1.374464e-06	
29	-1.45000e+00	1.376538e-06	
30	-1.50000e+00	1.378567e-06	
31	-1.55000e+00	1.380552e-06	
32	-1.60000e+00	1.382496e-06	
33	-1.65000e+00	1.384401e-06	
34	-1.70000e+00	1.386269e-06	
35	-1.75000e+00	1.388102e-06	
36	-1.80000e+00	1.389903e-06	
37	-1.85000e+00	1.391672e-06	
38	-1.90000e+00	1.393411e-06	
39	-1.95000e+00	1.395122e-06	
40	-2.00000e+00	1.396806e-06	
41	-2.05000e+00	1.398464e-06	
42	-2.10000e+00	1.400097e-06	
43	-2.15000e+00	1.401707e-06	
44	-2.20000e+00	1.403294e-06	
45	-2.25000e+00	1.404859e-06	
46	-2.30000e+00	1.406403e-06	
47	-2.35000e+00	1.407928e-06	
48	-2.40000e+00	1.409433e-06	
49	-2.45000e+00	1.410919e-06	
50	-2.50000e+00	1.412388e-06	
51	-2.55000e+00	1.413840e-06	
52	-2.60000e+00	1.415276e-06	
53	-2.65000e+00	1.416695e-06	
54	-2.70000e+00	1.418099e-06	

Index   v-sweep         i(vds)          
--------------------------------------------------------------------------------
55	-2.75000e+00	1.419489e-06	
56	-2.80000e+00	1.420864e-06	
57	-2.85000e+00	1.422226e-06	
58	-2.90000e+00	1.423574e-06	
59	-2.95000e+00	1.424910e-06	
60	-3.00000e+00	1.426233e-06	
61	-3.05000e+00	1.427545e-06	
62	-3.10000e+00	1.428846e-06	
63	-3.15000e+00	1.430135e-06	
64	-3.20000e+00	1.431415e-06	
65	-3.25000e+00	1.432685e-06	
66	-3.30000e+00	1.433946e-06	
67	-3.35000e+00	1.435198e-06	
68	-3.40000e+00	1.436443e-06	
69	-3.45000e+00	1.437680e-06	
70	-3.50000e+00	1.438911e-06	
71	-3.55000e+00	1.440137e-06	
72	-3.60000e+00	1.441358e-06	
73	-3.65000e+00	1.442575e-06	
74	-3.70000e+00	1.443790e-06	
75	-3.75000e+00	1.445004e-06	
76	-3.80000e+00	1.446218e-06	
77	-3.85000e+00	1.447434e-06	
78	-3.90000e+00	1.448654e-06	
79	-3.95000e+00	1.449879e-06	
80	-4.00000e+00	1.451111e-06	
81	-4.05000e+00	1.452353e-06	
82	-4.10000e+00	1.453607e-06	
83	-4.15000e+00	1.454875e-06	
84	-4.20000e+00	1.456162e-06	
85	-4.25000e+00	1.457470e-06	
86	-4.30000e+00	1.458802e-06	
87	-4.35000e+00	1.460163e-06	
88	-4.40000e+00	1.461556e-06	
89	-4.45000e+00	1.462987e-06	
90	-4.50000e+00	1.464459e-06	
91	-4.55000e+00	1.465978e-06	
92	-4.60000e+00	1.467550e-06	
93	-4.65000e+00	1.469180e-06	
94	-4.70000e+00	1.470876e-06	
95	-4.75000e+00	1.472643e-06	
96	-4.80000e+00	1.474489e-06	
97	-4.85000e+00	1.476422e-06	
98	-4.90000e+00	1.478450e-06	
99	-4.95000e+00	1.480582e-06	
100	-5.00000e+00	1.482826e-06	
101	-5.05000e+00	1.485193e-06	
102	-5.10000e+00	1.487692e-06	
103	-5.15000e+00	1.490334e-06	
104	-5.20000e+00	1.493131e-06	
105	-5.25000e+00	1.496095e-06	
106	-5.30000e+00	1.499237e-06	
107	-5.35000e+00	1.502571e-06	
108	-5.40000e+00	1.506110e-06	
109	-5.45000e+00	1.509869e-06	
110	-5.50000e+00	1.513861e-06	
111	-5.55000e+00	1.518103e-06	
112	-5.60000e+00	1.522610e-06	

Index   v-sweep         i(vds)          
--------------------------------------------------------------------------------
113	-5.65000e+00	1.527398e-06	
114	-5.70000e+00	1.532485e-06	
115	-5.75000e+00	1.537888e-06	
116	-5.80000e+00	1.543626e-06	
117	-5.85000e+00	1.549718e-06	
118	-5.90000e+00	1.556182e-06	
119	-5.95000e+00	1.563040e-06	
120	-6.00000e+00	1.570312e-06	
121	-6.05000e+00	1.578018e-06	
122	-6.10000e+00	1.586182e-06	
123	-6.15000e+00	1.594826e-06	
124	-6.20000e+00	1.603973e-06	
125	-6.25000e+00	1.613646e-06	
126	-6.30000e+00	1.623870e-06	
127	-6.35000e+00	1.634669e-06	
128	-6.40000e+00	1.646070e-06	
129	-6.45000e+00	1.658099e-06	
130	-6.50000e+00	1.670781e-06	
131	-6.55000e+00	1.684144e-06	
132	-6.60000e+00	1.698217e-06	
133	0.000000e+00	0.000000e+00	
134	-5.00000e-02	6.981985e-06	
135	-1.00000e-01	1.352555e-05	
136	-1.50000e-01	1.963381e-05	
137	-2.00000e-01	2.530990e-05	
138	-2.50000e-01	3.055695e-05	
139	-3.00000e-01	3.537811e-05	
140	-3.50000e-01	3.977659e-05	
141	-4.00000e-01	4.375571e-05	
142	-4.50000e-01	4.731898e-05	
143	-5.00000e-01	5.047026e-05	
144	-5.50000e-01	5.321411e-05	
145	-6.00000e-01	5.555639e-05	
146	-6.50000e-01	5.750558e-05	
147	-7.00000e-01	5.907541e-05	
148	-7.50000e-01	6.028991e-05	
149	-8.00000e-01	6.119064e-05	
150	-8.50000e-01	6.184048e-05	
151	-9.00000e-01	6.231355e-05	
152	-9.50000e-01	6.267450e-05	
153	-1.00000e+00	6.296686e-05	
154	-1.05000e+00	6.321582e-05	
155	-1.10000e+00	6.343540e-05	
156	-1.15000e+00	6.363366e-05	
157	-1.20000e+00	6.381552e-05	
158	-1.25000e+00	6.398422e-05	
159	-1.30000e+00	6.414202e-05	
160	-1.35000e+00	6.429056e-05	
161	-1.40000e+00	6.443112e-05	
162	-1.45000e+00	6.456469e-05	
163	-1.50000e+00	6.469206e-05	
164	-1.55000e+00	6.481392e-05	
165	-1.60000e+00	6.493081e-05	
166	-1.65000e+00	6.504320e-05	
167	-1.70000e+00	6.515150e-05	
168	-1.75000e+00	6.525606e-05	
169	-1.80000e+00	6.535718e-05	
170	-1.85000e+00	6.545514e-05	

Index   v-sweep         i(vds)          
--------------------------------------------------------------------------------
171	-1.90000e+00	6.555017e-05	
172	-1.95000e+00	6.564248e-05	
173	-2.00000e+00	6.573226e-05	
174	-2.05000e+00	6.581969e-05	
175	-2.10000e+00	6.590491e-05	
176	-2.15000e+00	6.598806e-05	
177	-2.20000e+00	6.606927e-05	
178	-2.25000e+00	6.614865e-05	
179	-2.30000e+00	6.622631e-05	
180	-2.35000e+00	6.630235e-05	
181	-2.40000e+00	6.637684e-05	
182	-2.45000e+00	6.644988e-05	
183	-2.50000e+00	6.652153e-05	
184	-2.55000e+00	6.659187e-05	
185	-2.60000e+00	6.666096e-05	
186	-2.65000e+00	6.672886e-05	
187	-2.70000e+00	6.679562e-05	
188	-2.75000e+00	6.686130e-05	
189	-2.80000e+00	6.692595e-05	
190	-2.85000e+00	6.698960e-05	
191	-2.90000e+00	6.705231e-05	
192	-2.95000e+00	6.711411e-05	
193	-3.00000e+00	6.717503e-05	
194	-3.05000e+00	6.723512e-05	
195	-3.10000e+00	6.729441e-05	
196	-3.15000e+00	6.735292e-05	
197	-3.20000e+00	6.741070e-05	
198	-3.25000e+00	6.746775e-05	
199	-3.30000e+00	6.752412e-05	
200	-3.35000e+00	6.757982e-05	
201	-3.40000e+00	6.763488e-05	
202	-3.45000e+00	6.768933e-05	
203	-3.50000e+00	6.774318e-05	
204	-3.55000e+00	6.779646e-05	
205	-3.60000e+00	6.784919e-05	
206	-3.65000e+00	6.790138e-05	
207	-3.70000e+00	6.795307e-05	
208	-3.75000e+00	6.800427e-05	
209	-3.80000e+00	6.805500e-05	
210	-3.85000e+00	6.810529e-05	
211	-3.90000e+00	6.815515e-05	
212	-3.95000e+00	6.820461e-05	
213	-4.00000e+00	6.825370e-05	
214	-4.05000e+00	6.830245e-05	
215	-4.10000e+00	6.835087e-05	
216	-4.15000e+00	6.839901e-05	
217	-4.20000e+00	6.844690e-05	
218	-4.25000e+00	6.849458e-05	
219	-4.30000e+00	6.854209e-05	
220	-4.35000e+00	6.858948e-05	
221	-4.40000e+00	6.863680e-05	
222	-4.45000e+00	6.868411e-05	
223	-4.50000e+00	6.873148e-05	
224	-4.55000e+00	6.877896e-05	
225	-4.60000e+00	6.882665e-05	
226	-4.65000e+00	6.887463e-05	
227	-4.70000e+00	6.892300e-05	
228	-4.75000e+00	6.897186e-05	

Index   v-sweep         i(vds)          
--------------------------------------------------------------------------------
229	-4.80000e+00	6.902133e-05	
230	-4.85000e+00	6.907154e-05	
231	-4.90000e+00	6.912262e-05	
232	-4.95000e+00	6.917472e-05	
233	-5.00000e+00	6.922802e-05	
234	-5.05000e+00	6.928270e-05	
235	-5.10000e+00	6.933894e-05	
236	-5.15000e+00	6.939695e-05	
237	-5.20000e+00	6.945697e-05	
238	-5.25000e+00	6.951924e-05	
239	-5.30000e+00	6.958401e-05	
240	-5.35000e+00	6.965158e-05	
241	-5.40000e+00	6.972223e-05	
242	-5.45000e+00	6.979629e-05	
243	-5.50000e+00	6.987411e-05	
244	-5.55000e+00	6.995603e-05	
245	-5.60000e+00	7.004245e-05	
246	-5.65000e+00	7.013378e-05	
247	-5.70000e+00	7.023044e-05	
248	-5.75000e+00	7.033289e-05	
249	-5.80000e+00	7.044161e-05	
250	-5.85000e+00	7.055709e-05	
251	-5.90000e+00	7.067988e-05	
252	-5.95000e+00	7.081052e-05	
253	-6.00000e+00	7.094959e-05	
254	-6.05000e+00	7.109770e-05	
255	-6.10000e+00	7.125549e-05	
256	-6.15000e+00	7.142362e-05	
257	-6.20000e+00	7.160277e-05	
258	-6.25000e+00	7.179366e-05	
259	-6.30000e+00	7.199704e-05	
260	-6.35000e+00	7.221367e-05	
261	-6.40000e+00	7.244437e-05	
262	-6.45000e+00	7.268995e-05	
263	-6.50000e+00	7.295128e-05	
264	-6.55000e+00	7.322923e-05	
265	-6.60000e+00	7.352474e-05	
266	0.000000e+00	0.000000e+00	
267	-5.00000e-02	1.194785e-05	
268	-1.00000e-01	2.347871e-05	
269	-1.50000e-01	3.459521e-05	
270	-2.00000e-01	4.529995e-05	
271	-2.50000e-01	5.559552e-05	
272	-3.00000e-01	6.548449e-05	
273	-3.50000e-01	7.496942e-05	
274	-4.00000e-01	8.405285e-05	
275	-4.50000e-01	9.273728e-05	
276	-5.00000e-01	1.010252e-04	
277	-5.50000e-01	1.089192e-04	
278	-6.00000e-01	1.164216e-04	
279	-6.50000e-01	1.235350e-04	
280	-7.00000e-01	1.302619e-04	
281	-7.50000e-01	1.366047e-04	
282	-8.00000e-01	1.425659e-04	
283	-8.50000e-01	1.481480e-04	
284	-9.00000e-01	1.533537e-04	
285	-9.50000e-01	1.581855e-04	
286	-1.00000e+00	1.626463e-04	

Index   v-sweep         i(vds)          
--------------------------------------------------------------------------------
287	-1.05000e+00	1.667391e-04	
288	-1.10000e+00	1.704672e-04	
289	-1.15000e+00	1.738346e-04	
290	-1.20000e+00	1.768461e-04	
291	-1.25000e+00	1.795081e-04	
292	-1.30000e+00	1.818298e-04	
293	-1.35000e+00	1.838248e-04	
294	-1.40000e+00	1.855136e-04	
295	-1.45000e+00	1.869260e-04	
296	-1.50000e+00	1.881017e-04	
297	-1.55000e+00	1.890862e-04	
298	-1.60000e+00	1.899237e-04	
299	-1.65000e+00	1.906512e-04	
300	-1.70000e+00	1.912960e-04	
301	-1.75000e+00	1.918774e-04	
302	-1.80000e+00	1.924089e-04	
303	-1.85000e+00	1.929000e-04	
304	-1.90000e+00	1.933575e-04	
305	-1.95000e+00	1.937865e-04	
306	-2.00000e+00	1.941912e-04	
307	-2.05000e+00	1.945745e-04	
308	-2.10000e+00	1.949391e-04	
309	-2.15000e+00	1.952871e-04	
310	-2.20000e+00	1.956201e-04	
311	-2.25000e+00	1.959397e-04	
312	-2.30000e+00	1.962471e-04	
313	-2.35000e+00	1.965435e-04	
314	-2.40000e+00	1.968297e-04	
315	-2.45000e+00	1.971065e-04	
316	-2.50000e+00	1.973748e-04	
317	-2.55000e+00	1.976352e-04	
318	-2.60000e+00	1.978881e-04	
319	-2.65000e+00	1.981342e-04	
320	-2.70000e+00	1.983740e-04	
321	-2.75000e+00	1.986077e-04	
322	-2.80000e+00	1.988358e-04	
323	-2.85000e+00	1.990587e-04	
324	-2.90000e+00	1.992766e-04	
325	-2.95000e+00	1.994898e-04	
326	-3.00000e+00	1.996986e-04	
327	-3.05000e+00	1.999033e-04	
328	-3.10000e+00	2.001040e-04	
329	-3.15000e+00	2.003009e-04	
330	-3.20000e+00	2.004943e-04	
331	-3.25000e+00	2.006844e-04	
332	-3.30000e+00	2.008712e-04	
333	-3.35000e+00	2.010549e-04	
334	-3.40000e+00	2.012357e-04	
335	-3.45000e+00	2.014137e-04	
336	-3.50000e+00	2.015890e-04	
337	-3.55000e+00	2.017617e-04	
338	-3.60000e+00	2.019320e-04	
339	-3.65000e+00	2.021000e-04	
340	-3.70000e+00	2.022657e-04	
341	-3.75000e+00	2.024292e-04	
342	-3.80000e+00	2.025906e-04	
343	-3.85000e+00	2.027500e-04	
344	-3.90000e+00	2.029075e-04	

Index   v-sweep         i(vds)          
--------------------------------------------------------------------------------
345	-3.95000e+00	2.030631e-04	
346	-4.00000e+00	2.032169e-04	
347	-4.05000e+00	2.033690e-04	
348	-4.10000e+00	2.035194e-04	
349	-4.15000e+00	2.036683e-04	
350	-4.20000e+00	2.038156e-04	
351	-4.25000e+00	2.039614e-04	
352	-4.30000e+00	2.041057e-04	
353	-4.35000e+00	2.042487e-04	
354	-4.40000e+00	2.043904e-04	
355	-4.45000e+00	2.045309e-04	
356	-4.50000e+00	2.046701e-04	
357	-4.55000e+00	2.048082e-04	
358	-4.60000e+00	2.049452e-04	
359	-4.65000e+00	2.050813e-04	
360	-4.70000e+00	2.052164e-04	
361	-4.75000e+00	2.053507e-04	
362	-4.80000e+00	2.054842e-04	
363	-4.85000e+00	2.056172e-04	
364	-4.90000e+00	2.057495e-04	
365	-4.95000e+00	2.058815e-04	
366	-5.00000e+00	2.060132e-04	
367	-5.05000e+00	2.061448e-04	
368	-5.10000e+00	2.062764e-04	
369	-5.15000e+00	2.064083e-04	
370	-5.20000e+00	2.065406e-04	
371	-5.25000e+00	2.066736e-04	
372	-5.30000e+00	2.068075e-04	
373	-5.35000e+00	2.069427e-04	
374	-5.40000e+00	2.070793e-04	
375	-5.45000e+00	2.072179e-04	
376	-5.50000e+00	2.073587e-04	
377	-5.55000e+00	2.075021e-04	
378	-5.60000e+00	2.076486e-04	
379	-5.65000e+00	2.077987e-04	
380	-5.70000e+00	2.079530e-04	
381	-5.75000e+00	2.081119e-04	
382	-5.80000e+00	2.082761e-04	
383	-5.85000e+00	2.084464e-04	
384	-5.90000e+00	2.086233e-04	
385	-5.95000e+00	2.088077e-04	
386	-6.00000e+00	2.090005e-04	
387	-6.05000e+00	2.092024e-04	
388	-6.10000e+00	2.094145e-04	
389	-6.15000e+00	2.096377e-04	
390	-6.20000e+00	2.098732e-04	
391	-6.25000e+00	2.101221e-04	
392	-6.30000e+00	2.103855e-04	
393	-6.35000e+00	2.106648e-04	
394	-6.40000e+00	2.109613e-04	
395	-6.45000e+00	2.112765e-04	
396	-6.50000e+00	2.116117e-04	
397	-6.55000e+00	2.119687e-04	
398	-6.60000e+00	2.123490e-04	
399	0.000000e+00	0.000000e+00	
400	-5.00000e-02	1.592797e-05	
401	-1.00000e-01	3.146355e-05	
402	-1.50000e-01	4.660900e-05	

Index   v-sweep         i(vds)          
--------------------------------------------------------------------------------
403	-2.00000e-01	6.136655e-05	
404	-2.50000e-01	7.573845e-05	
405	-3.00000e-01	8.972689e-05	
406	-3.50000e-01	1.033341e-04	
407	-4.00000e-01	1.165622e-04	
408	-4.50000e-01	1.294133e-04	
409	-5.00000e-01	1.418897e-04	
410	-5.50000e-01	1.539935e-04	
411	-6.00000e-01	1.657267e-04	
412	-6.50000e-01	1.770915e-04	
413	-7.00000e-01	1.880900e-04	
414	-7.50000e-01	1.987242e-04	
415	-8.00000e-01	2.089962e-04	
416	-8.50000e-01	2.189081e-04	
417	-9.00000e-01	2.284619e-04	
418	-9.50000e-01	2.376595e-04	
419	-1.00000e+00	2.465031e-04	
420	-1.05000e+00	2.549947e-04	
421	-1.10000e+00	2.631361e-04	
422	-1.15000e+00	2.709296e-04	
423	-1.20000e+00	2.783769e-04	
424	-1.25000e+00	2.854802e-04	
425	-1.30000e+00	2.922415e-04	
426	-1.35000e+00	2.986627e-04	
427	-1.40000e+00	3.047460e-04	
428	-1.45000e+00	3.104934e-04	
429	-1.50000e+00	3.159070e-04	
430	-1.55000e+00	3.209892e-04	
431	-1.60000e+00	3.257423e-04	
432	-1.65000e+00	3.301689e-04	
433	-1.70000e+00	3.342718e-04	
434	-1.75000e+00	3.380545e-04	
435	-1.80000e+00	3.415210e-04	
436	-1.85000e+00	3.446767e-04	
437	-1.90000e+00	3.475284e-04	
438	-1.95000e+00	3.500857e-04	
439	-2.00000e+00	3.523622e-04	
440	-2.05000e+00	3.543763e-04	
441	-2.10000e+00	3.561521e-04	
442	-2.15000e+00	3.577186e-04	
443	-2.20000e+00	3.591072e-04	
444	-2.25000e+00	3.603481e-04	
445	-2.30000e+00	3.614680e-04	
446	-2.35000e+00	3.624887e-04	
447	-2.40000e+00	3.634275e-04	
448	-2.45000e+00	3.642978e-04	
449	-2.50000e+00	3.651101e-04	
450	-2.55000e+00	3.658726e-04	
451	-2.60000e+00	3.665920e-04	
452	-2.65000e+00	3.672737e-04	
453	-2.70000e+00	3.679219e-04	
454	-2.75000e+00	3.685405e-04	
455	-2.80000e+00	3.691324e-04	
456	-2.85000e+00	3.697004e-04	
457	-2.90000e+00	3.702465e-04	
458	-2.95000e+00	3.707729e-04	
459	-3.00000e+00	3.712812e-04	
460	-3.05000e+00	3.717728e-04	

Index   v-sweep         i(vds)          
--------------------------------------------------------------------------------
461	-3.10000e+00	3.722491e-04	
462	-3.15000e+00	3.727113e-04	
463	-3.20000e+00	3.731603e-04	
464	-3.25000e+00	3.735971e-04	
465	-3.30000e+00	3.740226e-04	
466	-3.35000e+00	3.744374e-04	
467	-3.40000e+00	3.748423e-04	
468	-3.45000e+00	3.752378e-04	
469	-3.50000e+00	3.756245e-04	
470	-3.55000e+00	3.760030e-04	
471	-3.60000e+00	3.763736e-04	
472	-3.65000e+00	3.767369e-04	
473	-3.70000e+00	3.770932e-04	
474	-3.75000e+00	3.774429e-04	
475	-3.80000e+00	3.777863e-04	
476	-3.85000e+00	3.781237e-04	
477	-3.90000e+00	3.784554e-04	
478	-3.95000e+00	3.787817e-04	
479	-4.00000e+00	3.791029e-04	
480	-4.05000e+00	3.794191e-04	
481	-4.10000e+00	3.797306e-04	
482	-4.15000e+00	3.800376e-04	
483	-4.20000e+00	3.803402e-04	
484	-4.25000e+00	3.806387e-04	
485	-4.30000e+00	3.809333e-04	
486	-4.35000e+00	3.812240e-04	
487	-4.40000e+00	3.815110e-04	
488	-4.45000e+00	3.817946e-04	
489	-4.50000e+00	3.820747e-04	
490	-4.55000e+00	3.823516e-04	
491	-4.60000e+00	3.826253e-04	
492	-4.65000e+00	3.828960e-04	
493	-4.70000e+00	3.831638e-04	
494	-4.75000e+00	3.834287e-04	
495	-4.80000e+00	3.836910e-04	
496	-4.85000e+00	3.839506e-04	
497	-4.90000e+00	3.842077e-04	
498	-4.95000e+00	3.844625e-04	
499	-5.00000e+00	3.847149e-04	
500	-5.05000e+00	3.849651e-04	
501	-5.10000e+00	3.852132e-04	
502	-5.15000e+00	3.854593e-04	
503	-5.20000e+00	3.857036e-04	
504	-5.25000e+00	3.859461e-04	
505	-5.30000e+00	3.861869e-04	
506	-5.35000e+00	3.864263e-04	
507	-5.40000e+00	3.866644e-04	
508	-5.45000e+00	3.869013e-04	
509	-5.50000e+00	3.871373e-04	
510	-5.55000e+00	3.873726e-04	
511	-5.60000e+00	3.876073e-04	
512	-5.65000e+00	3.878419e-04	
513	-5.70000e+00	3.880764e-04	
514	-5.75000e+00	3.883114e-04	
515	-5.80000e+00	3.885472e-04	
516	-5.85000e+00	3.887841e-04	
517	-5.90000e+00	3.890226e-04	
518	-5.95000e+00	3.892632e-04	

Index   v-sweep         i(vds)          
--------------------------------------------------------------------------------
519	-6.00000e+00	3.895065e-04	
520	-6.05000e+00	3.897530e-04	
521	-6.10000e+00	3.900035e-04	
522	-6.15000e+00	3.902587e-04	
523	-6.20000e+00	3.905193e-04	
524	-6.25000e+00	3.907862e-04	
525	-6.30000e+00	3.910605e-04	
526	-6.35000e+00	3.913430e-04	
527	-6.40000e+00	3.916350e-04	
528	-6.45000e+00	3.919376e-04	
529	-6.50000e+00	3.922522e-04	
530	-6.55000e+00	3.925801e-04	
531	-6.60000e+00	3.929228e-04	
532	0.000000e+00	0.000000e+00	
533	-5.00000e-02	1.918690e-05	
534	-1.00000e-01	3.800478e-05	
535	-1.50000e-01	5.645561e-05	
536	-2.00000e-01	7.454133e-05	
537	-2.50000e-01	9.226389e-05	
538	-3.00000e-01	1.096252e-04	
539	-3.50000e-01	1.266272e-04	
540	-4.00000e-01	1.432717e-04	
541	-4.50000e-01	1.595607e-04	
542	-5.00000e-01	1.754960e-04	
543	-5.50000e-01	1.910795e-04	
544	-6.00000e-01	2.063130e-04	
545	-6.50000e-01	2.211984e-04	
546	-7.00000e-01	2.357374e-04	
547	-7.50000e-01	2.499320e-04	
548	-8.00000e-01	2.637838e-04	
549	-8.50000e-01	2.772947e-04	
550	-9.00000e-01	2.904664e-04	
551	-9.50000e-01	3.033007e-04	
552	-1.00000e+00	3.157994e-04	
553	-1.05000e+00	3.279641e-04	
554	-1.10000e+00	3.397967e-04	
555	-1.15000e+00	3.512989e-04	
556	-1.20000e+00	3.624722e-04	
557	-1.25000e+00	3.733186e-04	
558	-1.30000e+00	3.838395e-04	
559	-1.35000e+00	3.940368e-04	
560	-1.40000e+00	4.039121e-04	
561	-1.45000e+00	4.134670e-04	
562	-1.50000e+00	4.227032e-04	
563	-1.55000e+00	4.316224e-04	
564	-1.60000e+00	4.402263e-04	
565	-1.65000e+00	4.485163e-04	
566	-1.70000e+00	4.564943e-04	
567	-1.75000e+00	4.641619e-04	
568	-1.80000e+00	4.715206e-04	
569	-1.85000e+00	4.785722e-04	
570	-1.90000e+00	4.853184e-04	
571	-1.95000e+00	4.917607e-04	
572	-2.00000e+00	4.979011e-04	
573	-2.05000e+00	5.037412e-04	
574	-2.10000e+00	5.092828e-04	
575	-2.15000e+00	5.145280e-04	
576	-2.20000e+00	5.194787e-04	

Index   v-sweep         i(vds)          
--------------------------------------------------------------------------------
577	-2.25000e+00	5.241373e-04	
578	-2.30000e+00	5.285062e-04	
579	-2.35000e+00	5.325884e-04	
580	-2.40000e+00	5.363874e-04	
581	-2.45000e+00	5.399076e-04	
582	-2.50000e+00	5.431545e-04	
583	-2.55000e+00	5.461356e-04	
584	-2.60000e+00	5.488607e-04	
585	-2.65000e+00	5.513426e-04	
586	-2.70000e+00	5.535977e-04	
587	-2.75000e+00	5.556458e-04	
588	-2.80000e+00	5.575088e-04	
589	-2.85000e+00	5.592095e-04	
590	-2.90000e+00	5.607696e-04	
591	-2.95000e+00	5.622088e-04	
592	-3.00000e+00	5.635440e-04	
593	-3.05000e+00	5.647896e-04	
594	-3.10000e+00	5.659575e-04	
595	-3.15000e+00	5.670576e-04	
596	-3.20000e+00	5.680981e-04	
597	-3.25000e+00	5.690860e-04	
598	-3.30000e+00	5.700270e-04	
599	-3.35000e+00	5.709260e-04	
600	-3.40000e+00	5.717872e-04	
601	-3.45000e+00	5.726143e-04	
602	-3.50000e+00	5.734104e-04	
603	-3.55000e+00	5.741781e-04	
604	-3.60000e+00	5.749199e-04	
605	-3.65000e+00	5.756378e-04	
606	-3.70000e+00	5.763337e-04	
607	-3.75000e+00	5.770093e-04	
608	-3.80000e+00	5.776660e-04	
609	-3.85000e+00	5.783051e-04	
610	-3.90000e+00	5.789279e-04	
611	-3.95000e+00	5.795353e-04	
612	-4.00000e+00	5.801284e-04	
613	-4.05000e+00	5.807080e-04	
614	-4.10000e+00	5.812750e-04	
615	-4.15000e+00	5.818300e-04	
616	-4.20000e+00	5.823738e-04	
617	-4.25000e+00	5.829069e-04	
618	-4.30000e+00	5.834300e-04	
619	-4.35000e+00	5.839435e-04	
620	-4.40000e+00	5.844479e-04	
621	-4.45000e+00	5.849437e-04	
622	-4.50000e+00	5.854313e-04	
623	-4.55000e+00	5.859111e-04	
624	-4.60000e+00	5.863834e-04	
625	-4.65000e+00	5.868486e-04	
626	-4.70000e+00	5.873070e-04	
627	-4.75000e+00	5.877589e-04	
628	-4.80000e+00	5.882045e-04	
629	-4.85000e+00	5.886442e-04	
630	-4.90000e+00	5.890781e-04	
631	-4.95000e+00	5.895065e-04	
632	-5.00000e+00	5.899296e-04	
633	-5.05000e+00	5.903476e-04	
634	-5.10000e+00	5.907608e-04	

Index   v-sweep         i(vds)          
--------------------------------------------------------------------------------
635	-5.15000e+00	5.911692e-04	
636	-5.20000e+00	5.915730e-04	
637	-5.25000e+00	5.919725e-04	
638	-5.30000e+00	5.923678e-04	
639	-5.35000e+00	5.927591e-04	
640	-5.40000e+00	5.931464e-04	
641	-5.45000e+00	5.935299e-04	
642	-5.50000e+00	5.939099e-04	
643	-5.55000e+00	5.942863e-04	
644	-5.60000e+00	5.946595e-04	
645	-5.65000e+00	5.950294e-04	
646	-5.70000e+00	5.953963e-04	
647	-5.75000e+00	5.957604e-04	
648	-5.80000e+00	5.961218e-04	
649	-5.85000e+00	5.964806e-04	
650	-5.90000e+00	5.968371e-04	
651	-5.95000e+00	5.971915e-04	
652	-6.00000e+00	5.975441e-04	
653	-6.05000e+00	5.978950e-04	
654	-6.10000e+00	5.982446e-04	
655	-6.15000e+00	5.985931e-04	
656	-6.20000e+00	5.989410e-04	
657	-6.25000e+00	5.992887e-04	
658	-6.30000e+00	5.996365e-04	
659	-6.35000e+00	5.999850e-04	
660	-6.40000e+00	6.003347e-04	
661	-6.45000e+00	6.006863e-04	
662	-6.50000e+00	6.010403e-04	
663	-6.55000e+00	6.013976e-04	
664	-6.60000e+00	6.017590e-04	
665	0.000000e+00	0.000000e+00	
666	-5.00000e-02	2.190114e-05	
667	-1.00000e-01	4.345473e-05	
668	-1.50000e-01	6.466251e-05	
669	-2.00000e-01	8.552617e-05	
670	-2.50000e-01	1.060474e-04	
671	-3.00000e-01	1.262280e-04	
672	-3.50000e-01	1.460695e-04	
673	-4.00000e-01	1.655736e-04	
674	-4.50000e-01	1.847420e-04	
675	-5.00000e-01	2.035764e-04	
676	-5.50000e-01	2.220783e-04	
677	-6.00000e-01	2.402494e-04	
678	-6.50000e-01	2.580913e-04	
679	-7.00000e-01	2.756057e-04	
680	-7.50000e-01	2.927940e-04	
681	-8.00000e-01	3.096580e-04	
682	-8.50000e-01	3.261991e-04	
683	-9.00000e-01	3.424189e-04	
684	-9.50000e-01	3.583190e-04	
685	-1.00000e+00	3.739009e-04	
686	-1.05000e+00	3.891662e-04	
687	-1.10000e+00	4.041164e-04	
688	-1.15000e+00	4.187530e-04	
689	-1.20000e+00	4.330776e-04	
690	-1.25000e+00	4.470915e-04	
691	-1.30000e+00	4.607963e-04	
692	-1.35000e+00	4.741935e-04	

Index   v-sweep         i(vds)          
--------------------------------------------------------------------------------
693	-1.40000e+00	4.872846e-04	
694	-1.45000e+00	5.000710e-04	
695	-1.50000e+00	5.125541e-04	
696	-1.55000e+00	5.247355e-04	
697	-1.60000e+00	5.366165e-04	
698	-1.65000e+00	5.481987e-04	
699	-1.70000e+00	5.594833e-04	
700	-1.75000e+00	5.704719e-04	
701	-1.80000e+00	5.811657e-04	
702	-1.85000e+00	5.915664e-04	
703	-1.90000e+00	6.016752e-04	
704	-1.95000e+00	6.114935e-04	
705	-2.00000e+00	6.210227e-04	
706	-2.05000e+00	6.302642e-04	
707	-2.10000e+00	6.392194e-04	
708	-2.15000e+00	6.478897e-04	
709	-2.20000e+00	6.562764e-04	
710	-2.25000e+00	6.643809e-04	
711	-2.30000e+00	6.722047e-04	
712	-2.35000e+00	6.797490e-04	
713	-2.40000e+00	6.870152e-04	
714	-2.45000e+00	6.940049e-04	
715	-2.50000e+00	7.007194e-04	
716	-2.55000e+00	7.071601e-04	
717	-2.60000e+00	7.133286e-04	
718	-2.65000e+00	7.192264e-04	
719	-2.70000e+00	7.248550e-04	
720	-2.75000e+00	7.302162e-04	
721	-2.80000e+00	7.353118e-04	
722	-2.85000e+00	7.401438e-04	
723	-2.90000e+00	7.447144e-04	
724	-2.95000e+00	7.490261e-04	
725	-3.00000e+00	7.530819e-04	
726	-3.05000e+00	7.568856e-04	
727	-3.10000e+00	7.604416e-04	
728	-3.15000e+00	7.637557e-04	
729	-3.20000e+00	7.668355e-04	
730	-3.25000e+00	7.696902e-04	
731	-3.30000e+00	7.723318e-04	
732	-3.35000e+00	7.747742e-04	
733	-3.40000e+00	7.770335e-04	
734	-3.45000e+00	7.791267e-04	
735	-3.50000e+00	7.810711e-04	
736	-3.55000e+00	7.828833e-04	
737	-3.60000e+00	7.845784e-04	
738	-3.65000e+00	7.861701e-04	
739	-3.70000e+00	7.876703e-04	
740	-3.75000e+00	7.890893e-04	
741	-3.80000e+00	7.904362e-04	
742	-3.85000e+00	7.917185e-04	
743	-3.90000e+00	7.929430e-04	
744	-3.95000e+00	7.941152e-04	
745	-4.00000e+00	7.952401e-04	
746	-4.05000e+00	7.963222e-04	
747	-4.10000e+00	7.973650e-04	
748	-4.15000e+00	7.983720e-04	
749	-4.20000e+00	7.993461e-04	
750	-4.25000e+00	8.002898e-04	

Index   v-sweep         i(vds)          
--------------------------------------------------------------------------------
751	-4.30000e+00	8.012054e-04	
752	-4.35000e+00	8.020950e-04	
753	-4.40000e+00	8.029605e-04	
754	-4.45000e+00	8.038034e-04	
755	-4.50000e+00	8.046253e-04	
756	-4.55000e+00	8.054276e-04	
757	-4.60000e+00	8.062114e-04	
758	-4.65000e+00	8.069778e-04	
759	-4.70000e+00	8.077280e-04	
760	-4.75000e+00	8.084627e-04	
761	-4.80000e+00	8.091830e-04	
762	-4.85000e+00	8.098894e-04	
763	-4.90000e+00	8.105829e-04	
764	-4.95000e+00	8.112640e-04	
765	-5.00000e+00	8.119334e-04	
766	-5.05000e+00	8.125916e-04	
767	-5.10000e+00	8.132393e-04	
768	-5.15000e+00	8.138767e-04	
769	-5.20000e+00	8.145046e-04	
770	-5.25000e+00	8.151231e-04	
771	-5.30000e+00	8.157329e-04	
772	-5.35000e+00	8.163342e-04	
773	-5.40000e+00	8.169274e-04	
774	-5.45000e+00	8.175129e-04	
775	-5.50000e+00	8.180909e-04	
776	-5.55000e+00	8.186618e-04	
777	-5.60000e+00	8.192257e-04	
778	-5.65000e+00	8.197831e-04	
779	-5.70000e+00	8.203341e-04	
780	-5.75000e+00	8.208790e-04	
781	-5.80000e+00	8.214180e-04	
782	-5.85000e+00	8.219513e-04	
783	-5.90000e+00	8.224791e-04	
784	-5.95000e+00	8.230016e-04	
785	-6.00000e+00	8.235191e-04	
786	-6.05000e+00	8.240317e-04	
787	-6.10000e+00	8.245395e-04	
788	-6.15000e+00	8.250429e-04	
789	-6.20000e+00	8.255420e-04	
790	-6.25000e+00	8.260369e-04	
791	-6.30000e+00	8.265279e-04	
792	-6.35000e+00	8.270152e-04	
793	-6.40000e+00	8.274990e-04	
794	-6.45000e+00	8.279796e-04	
795	-6.50000e+00	8.284572e-04	
796	-6.55000e+00	8.289321e-04	
797	-6.60000e+00	8.294047e-04	
Note: No ".plot", ".print", or ".fourier" lines; no simulations run
