
Note: Compatibility modes selected: hs

Warning: m=xx on .subckt line will override multiplier m hierarchy!


Circuit: ***************************

Doing analysis at TEMP = 25.000000 and TNOM = 25.000000


No. of Data Rows : 798
                          ***************************
                          DC transfer characteristic  Mon Jan  9 13:57:53  2023
--------------------------------------------------------------------------------
Index   v-sweep         i(vds)          
--------------------------------------------------------------------------------
0	0.000000e+00	0.000000e+00	
1	-5.00000e-02	2.261041e-06	
2	-1.00000e-01	3.761344e-06	
3	-1.50000e-01	4.578561e-06	
4	-2.00000e-01	4.923842e-06	
5	-2.50000e-01	5.076134e-06	
6	-3.00000e-01	5.174097e-06	
7	-3.50000e-01	5.254581e-06	
8	-4.00000e-01	5.327201e-06	
9	-4.50000e-01	5.395193e-06	
10	-5.00000e-01	5.459974e-06	
11	-5.50000e-01	5.522306e-06	
12	-6.00000e-01	5.582668e-06	
13	-6.50000e-01	5.641391e-06	
14	-7.00000e-01	5.698722e-06	
15	-7.50000e-01	5.754851e-06	
16	-8.00000e-01	5.809933e-06	
17	-8.50000e-01	5.864093e-06	
18	-9.00000e-01	5.917438e-06	
19	-9.50000e-01	5.970058e-06	
20	-1.00000e+00	6.022028e-06	
21	-1.05000e+00	6.073417e-06	
22	-1.10000e+00	6.124281e-06	
23	-1.15000e+00	6.174673e-06	
24	-1.20000e+00	6.224636e-06	
25	-1.25000e+00	6.274212e-06	
26	-1.30000e+00	6.323436e-06	
27	-1.35000e+00	6.372341e-06	
28	-1.40000e+00	6.420954e-06	
29	-1.45000e+00	6.469302e-06	
30	-1.50000e+00	6.517410e-06	
31	-1.55000e+00	6.565297e-06	
32	-1.60000e+00	6.612985e-06	
33	-1.65000e+00	6.660490e-06	
34	-1.70000e+00	6.707830e-06	
35	-1.75000e+00	6.755019e-06	
36	-1.80000e+00	6.802072e-06	
37	-1.85000e+00	6.849001e-06	
38	-1.90000e+00	6.895818e-06	
39	-1.95000e+00	6.942534e-06	
40	-2.00000e+00	6.989159e-06	
41	-2.05000e+00	7.035704e-06	
42	-2.10000e+00	7.082176e-06	
43	-2.15000e+00	7.128584e-06	
44	-2.20000e+00	7.174936e-06	
45	-2.25000e+00	7.221239e-06	
46	-2.30000e+00	7.267499e-06	
47	-2.35000e+00	7.313724e-06	
48	-2.40000e+00	7.359919e-06	
49	-2.45000e+00	7.406089e-06	
50	-2.50000e+00	7.452241e-06	
51	-2.55000e+00	7.498378e-06	
52	-2.60000e+00	7.544507e-06	
53	-2.65000e+00	7.590630e-06	
54	-2.70000e+00	7.636753e-06	

Index   v-sweep         i(vds)          
--------------------------------------------------------------------------------
55	-2.75000e+00	7.682880e-06	
56	-2.80000e+00	7.729014e-06	
57	-2.85000e+00	7.775159e-06	
58	-2.90000e+00	7.821319e-06	
59	-2.95000e+00	7.867497e-06	
60	-3.00000e+00	7.913697e-06	
61	-3.05000e+00	7.959922e-06	
62	-3.10000e+00	8.006175e-06	
63	-3.15000e+00	8.052460e-06	
64	-3.20000e+00	8.098780e-06	
65	-3.25000e+00	8.145139e-06	
66	-3.30000e+00	8.191540e-06	
67	-3.35000e+00	8.237987e-06	
68	-3.40000e+00	8.284483e-06	
69	-3.45000e+00	8.331034e-06	
70	-3.50000e+00	8.377643e-06	
71	-3.55000e+00	8.424317e-06	
72	-3.60000e+00	8.471059e-06	
73	-3.65000e+00	8.517877e-06	
74	-3.70000e+00	8.564776e-06	
75	-3.75000e+00	8.611765e-06	
76	-3.80000e+00	8.658852e-06	
77	-3.85000e+00	8.706044e-06	
78	-3.90000e+00	8.753354e-06	
79	-3.95000e+00	8.800791e-06	
80	-4.00000e+00	8.848368e-06	
81	-4.05000e+00	8.896098e-06	
82	-4.10000e+00	8.943998e-06	
83	-4.15000e+00	8.992083e-06	
84	-4.20000e+00	9.040373e-06	
85	-4.25000e+00	9.088887e-06	
86	-4.30000e+00	9.137648e-06	
87	-4.35000e+00	9.186680e-06	
88	-4.40000e+00	9.236009e-06	
89	-4.45000e+00	9.285666e-06	
90	-4.50000e+00	9.335681e-06	
91	-4.55000e+00	9.386089e-06	
92	-4.60000e+00	9.436928e-06	
93	-4.65000e+00	9.488237e-06	
94	-4.70000e+00	9.540060e-06	
95	-4.75000e+00	9.592444e-06	
96	-4.80000e+00	9.645439e-06	
97	-4.85000e+00	9.699100e-06	
98	-4.90000e+00	9.753484e-06	
99	-4.95000e+00	9.808653e-06	
100	-5.00000e+00	9.864673e-06	
101	-5.05000e+00	9.921614e-06	
102	-5.10000e+00	9.979552e-06	
103	-5.15000e+00	1.003857e-05	
104	-5.20000e+00	1.009874e-05	
105	-5.25000e+00	1.016016e-05	
106	-5.30000e+00	1.022292e-05	
107	-5.35000e+00	1.028713e-05	
108	-5.40000e+00	1.035289e-05	
109	-5.45000e+00	1.042030e-05	
110	-5.50000e+00	1.048948e-05	
111	-5.55000e+00	1.056057e-05	
112	-5.60000e+00	1.063367e-05	

Index   v-sweep         i(vds)          
--------------------------------------------------------------------------------
113	-5.65000e+00	1.070893e-05	
114	-5.70000e+00	1.078648e-05	
115	-5.75000e+00	1.086648e-05	
116	-5.80000e+00	1.094907e-05	
117	-5.85000e+00	1.103442e-05	
118	-5.90000e+00	1.112268e-05	
119	-5.95000e+00	1.121403e-05	
120	-6.00000e+00	1.130866e-05	
121	-6.05000e+00	1.140674e-05	
122	-6.10000e+00	1.150846e-05	
123	-6.15000e+00	1.161404e-05	
124	-6.20000e+00	1.172367e-05	
125	-6.25000e+00	1.183757e-05	
126	-6.30000e+00	1.195596e-05	
127	-6.35000e+00	1.207907e-05	
128	-6.40000e+00	1.220714e-05	
129	-6.45000e+00	1.234041e-05	
130	-6.50000e+00	1.247912e-05	
131	-6.55000e+00	1.262355e-05	
132	-6.60000e+00	1.277395e-05	
133	0.000000e+00	0.000000e+00	
134	-5.00000e-02	1.562116e-05	
135	-1.00000e-01	3.028902e-05	
136	-1.50000e-01	4.401847e-05	
137	-2.00000e-01	5.682410e-05	
138	-2.50000e-01	6.872028e-05	
139	-3.00000e-01	7.972118e-05	
140	-3.50000e-01	8.984081e-05	
141	-4.00000e-01	9.909309e-05	
142	-4.50000e-01	1.074920e-04	
143	-5.00000e-01	1.150518e-04	
144	-5.50000e-01	1.217873e-04	
145	-6.00000e-01	1.277149e-04	
146	-6.50000e-01	1.328536e-04	
147	-7.00000e-01	1.372283e-04	
148	-7.50000e-01	1.408751e-04	
149	-8.00000e-01	1.438512e-04	
150	-8.50000e-01	1.462452e-04	
151	-9.00000e-01	1.481770e-04	
152	-9.50000e-01	1.497737e-04	
153	-1.00000e+00	1.511390e-04	
154	-1.05000e+00	1.523429e-04	
155	-1.10000e+00	1.534292e-04	
156	-1.15000e+00	1.544252e-04	
157	-1.20000e+00	1.553491e-04	
158	-1.25000e+00	1.562137e-04	
159	-1.30000e+00	1.570282e-04	
160	-1.35000e+00	1.577999e-04	
161	-1.40000e+00	1.585343e-04	
162	-1.45000e+00	1.592360e-04	
163	-1.50000e+00	1.599088e-04	
164	-1.55000e+00	1.605558e-04	
165	-1.60000e+00	1.611795e-04	
166	-1.65000e+00	1.617823e-04	
167	-1.70000e+00	1.623660e-04	
168	-1.75000e+00	1.629324e-04	
169	-1.80000e+00	1.634829e-04	
170	-1.85000e+00	1.640188e-04	

Index   v-sweep         i(vds)          
--------------------------------------------------------------------------------
171	-1.90000e+00	1.645412e-04	
172	-1.95000e+00	1.650511e-04	
173	-2.00000e+00	1.655495e-04	
174	-2.05000e+00	1.660371e-04	
175	-2.10000e+00	1.665147e-04	
176	-2.15000e+00	1.669830e-04	
177	-2.20000e+00	1.674424e-04	
178	-2.25000e+00	1.678936e-04	
179	-2.30000e+00	1.683371e-04	
180	-2.35000e+00	1.687733e-04	
181	-2.40000e+00	1.692026e-04	
182	-2.45000e+00	1.696254e-04	
183	-2.50000e+00	1.700421e-04	
184	-2.55000e+00	1.704530e-04	
185	-2.60000e+00	1.708583e-04	
186	-2.65000e+00	1.712584e-04	
187	-2.70000e+00	1.716535e-04	
188	-2.75000e+00	1.720439e-04	
189	-2.80000e+00	1.724297e-04	
190	-2.85000e+00	1.728112e-04	
191	-2.90000e+00	1.731886e-04	
192	-2.95000e+00	1.735620e-04	
193	-3.00000e+00	1.739317e-04	
194	-3.05000e+00	1.742978e-04	
195	-3.10000e+00	1.746604e-04	
196	-3.15000e+00	1.750197e-04	
197	-3.20000e+00	1.753758e-04	
198	-3.25000e+00	1.757288e-04	
199	-3.30000e+00	1.760789e-04	
200	-3.35000e+00	1.764262e-04	
201	-3.40000e+00	1.767708e-04	
202	-3.45000e+00	1.771128e-04	
203	-3.50000e+00	1.774522e-04	
204	-3.55000e+00	1.777893e-04	
205	-3.60000e+00	1.781240e-04	
206	-3.65000e+00	1.784564e-04	
207	-3.70000e+00	1.787868e-04	
208	-3.75000e+00	1.791150e-04	
209	-3.80000e+00	1.794413e-04	
210	-3.85000e+00	1.797656e-04	
211	-3.90000e+00	1.800881e-04	
212	-3.95000e+00	1.804089e-04	
213	-4.00000e+00	1.807281e-04	
214	-4.05000e+00	1.810457e-04	
215	-4.10000e+00	1.813618e-04	
216	-4.15000e+00	1.816766e-04	
217	-4.20000e+00	1.819901e-04	
218	-4.25000e+00	1.823024e-04	
219	-4.30000e+00	1.826138e-04	
220	-4.35000e+00	1.829242e-04	
221	-4.40000e+00	1.832340e-04	
222	-4.45000e+00	1.835431e-04	
223	-4.50000e+00	1.838518e-04	
224	-4.55000e+00	1.841603e-04	
225	-4.60000e+00	1.844689e-04	
226	-4.65000e+00	1.847776e-04	
227	-4.70000e+00	1.850869e-04	
228	-4.75000e+00	1.853969e-04	

Index   v-sweep         i(vds)          
--------------------------------------------------------------------------------
229	-4.80000e+00	1.857080e-04	
230	-4.85000e+00	1.860205e-04	
231	-4.90000e+00	1.863348e-04	
232	-4.95000e+00	1.866512e-04	
233	-5.00000e+00	1.869703e-04	
234	-5.05000e+00	1.872924e-04	
235	-5.10000e+00	1.876182e-04	
236	-5.15000e+00	1.879481e-04	
237	-5.20000e+00	1.882828e-04	
238	-5.25000e+00	1.886229e-04	
239	-5.30000e+00	1.889691e-04	
240	-5.35000e+00	1.893222e-04	
241	-5.40000e+00	1.896829e-04	
242	-5.45000e+00	1.900522e-04	
243	-5.50000e+00	1.904309e-04	
244	-5.55000e+00	1.908200e-04	
245	-5.60000e+00	1.912205e-04	
246	-5.65000e+00	1.916336e-04	
247	-5.70000e+00	1.920605e-04	
248	-5.75000e+00	1.925023e-04	
249	-5.80000e+00	1.929604e-04	
250	-5.85000e+00	1.934361e-04	
251	-5.90000e+00	1.939310e-04	
252	-5.95000e+00	1.944465e-04	
253	-6.00000e+00	1.949843e-04	
254	-6.05000e+00	1.955459e-04	
255	-6.10000e+00	1.961333e-04	
256	-6.15000e+00	1.967482e-04	
257	-6.20000e+00	1.973926e-04	
258	-6.25000e+00	1.980684e-04	
259	-6.30000e+00	1.987778e-04	
260	-6.35000e+00	1.995230e-04	
261	-6.40000e+00	2.003061e-04	
262	-6.45000e+00	2.011296e-04	
263	-6.50000e+00	2.019959e-04	
264	-6.55000e+00	2.029075e-04	
265	-6.60000e+00	2.038670e-04	
266	0.000000e+00	0.000000e+00	
267	-5.00000e-02	2.533622e-05	
268	-1.00000e-01	4.974628e-05	
269	-1.50000e-01	7.324270e-05	
270	-2.00000e-01	9.583774e-05	
271	-2.50000e-01	1.175435e-04	
272	-3.00000e-01	1.383718e-04	
273	-3.50000e-01	1.583343e-04	
274	-4.00000e-01	1.774426e-04	
275	-4.50000e-01	1.957078e-04	
276	-5.00000e-01	2.131410e-04	
277	-5.50000e-01	2.297532e-04	
278	-6.00000e-01	2.455551e-04	
279	-6.50000e-01	2.605573e-04	
280	-7.00000e-01	2.747703e-04	
281	-7.50000e-01	2.882043e-04	
282	-8.00000e-01	3.008696e-04	
283	-8.50000e-01	3.127763e-04	
284	-9.00000e-01	3.239345e-04	
285	-9.50000e-01	3.343544e-04	
286	-1.00000e+00	3.440462e-04	

Index   v-sweep         i(vds)          
--------------------------------------------------------------------------------
287	-1.05000e+00	3.530204e-04	
288	-1.10000e+00	3.612880e-04	
289	-1.15000e+00	3.688611e-04	
290	-1.20000e+00	3.757531e-04	
291	-1.25000e+00	3.819805e-04	
292	-1.30000e+00	3.875643e-04	
293	-1.35000e+00	3.925334e-04	
294	-1.40000e+00	3.969280e-04	
295	-1.45000e+00	4.008020e-04	
296	-1.50000e+00	4.042220e-04	
297	-1.55000e+00	4.072593e-04	
298	-1.60000e+00	4.099815e-04	
299	-1.65000e+00	4.124460e-04	
300	-1.70000e+00	4.146989e-04	
301	-1.75000e+00	4.167764e-04	
302	-1.80000e+00	4.187064e-04	
303	-1.85000e+00	4.205113e-04	
304	-1.90000e+00	4.222085e-04	
305	-1.95000e+00	4.238123e-04	
306	-2.00000e+00	4.253343e-04	
307	-2.05000e+00	4.267841e-04	
308	-2.10000e+00	4.281697e-04	
309	-2.15000e+00	4.294978e-04	
310	-2.20000e+00	4.307743e-04	
311	-2.25000e+00	4.320039e-04	
312	-2.30000e+00	4.331911e-04	
313	-2.35000e+00	4.343395e-04	
314	-2.40000e+00	4.354524e-04	
315	-2.45000e+00	4.365327e-04	
316	-2.50000e+00	4.375828e-04	
317	-2.55000e+00	4.386050e-04	
318	-2.60000e+00	4.396013e-04	
319	-2.65000e+00	4.405736e-04	
320	-2.70000e+00	4.415235e-04	
321	-2.75000e+00	4.424524e-04	
322	-2.80000e+00	4.433616e-04	
323	-2.85000e+00	4.442524e-04	
324	-2.90000e+00	4.451258e-04	
325	-2.95000e+00	4.459829e-04	
326	-3.00000e+00	4.468246e-04	
327	-3.05000e+00	4.476517e-04	
328	-3.10000e+00	4.484650e-04	
329	-3.15000e+00	4.492653e-04	
330	-3.20000e+00	4.500532e-04	
331	-3.25000e+00	4.508292e-04	
332	-3.30000e+00	4.515941e-04	
333	-3.35000e+00	4.523483e-04	
334	-3.40000e+00	4.530923e-04	
335	-3.45000e+00	4.538265e-04	
336	-3.50000e+00	4.545515e-04	
337	-3.55000e+00	4.552676e-04	
338	-3.60000e+00	4.559752e-04	
339	-3.65000e+00	4.566747e-04	
340	-3.70000e+00	4.573663e-04	
341	-3.75000e+00	4.580505e-04	
342	-3.80000e+00	4.587274e-04	
343	-3.85000e+00	4.593974e-04	
344	-3.90000e+00	4.600608e-04	

Index   v-sweep         i(vds)          
--------------------------------------------------------------------------------
345	-3.95000e+00	4.607178e-04	
346	-4.00000e+00	4.613686e-04	
347	-4.05000e+00	4.620135e-04	
348	-4.10000e+00	4.626527e-04	
349	-4.15000e+00	4.632864e-04	
350	-4.20000e+00	4.639148e-04	
351	-4.25000e+00	4.645381e-04	
352	-4.30000e+00	4.651565e-04	
353	-4.35000e+00	4.657702e-04	
354	-4.40000e+00	4.663793e-04	
355	-4.45000e+00	4.669842e-04	
356	-4.50000e+00	4.675849e-04	
357	-4.55000e+00	4.681817e-04	
358	-4.60000e+00	4.687748e-04	
359	-4.65000e+00	4.693643e-04	
360	-4.70000e+00	4.699506e-04	
361	-4.75000e+00	4.705339e-04	
362	-4.80000e+00	4.711144e-04	
363	-4.85000e+00	4.716924e-04	
364	-4.90000e+00	4.722682e-04	
365	-4.95000e+00	4.728422e-04	
366	-5.00000e+00	4.734148e-04	
367	-5.05000e+00	4.739863e-04	
368	-5.10000e+00	4.745572e-04	
369	-5.15000e+00	4.751280e-04	
370	-5.20000e+00	4.756992e-04	
371	-5.25000e+00	4.762715e-04	
372	-5.30000e+00	4.768454e-04	
373	-5.35000e+00	4.774218e-04	
374	-5.40000e+00	4.780014e-04	
375	-5.45000e+00	4.785851e-04	
376	-5.50000e+00	4.791738e-04	
377	-5.55000e+00	4.797687e-04	
378	-5.60000e+00	4.803707e-04	
379	-5.65000e+00	4.809811e-04	
380	-5.70000e+00	4.816013e-04	
381	-5.75000e+00	4.822327e-04	
382	-5.80000e+00	4.828769e-04	
383	-5.85000e+00	4.835354e-04	
384	-5.90000e+00	4.842103e-04	
385	-5.95000e+00	4.849032e-04	
386	-6.00000e+00	4.856164e-04	
387	-6.05000e+00	4.863520e-04	
388	-6.10000e+00	4.871124e-04	
389	-6.15000e+00	4.879001e-04	
390	-6.20000e+00	4.887178e-04	
391	-6.25000e+00	4.895682e-04	
392	-6.30000e+00	4.904544e-04	
393	-6.35000e+00	4.913796e-04	
394	-6.40000e+00	4.923470e-04	
395	-6.45000e+00	4.933602e-04	
396	-6.50000e+00	4.944229e-04	
397	-6.55000e+00	4.955389e-04	
398	-6.60000e+00	4.967125e-04	
399	0.000000e+00	0.000000e+00	
400	-5.00000e-02	3.279226e-05	
401	-1.00000e-01	6.470054e-05	
402	-1.50000e-01	9.573550e-05	

Index   v-sweep         i(vds)          
--------------------------------------------------------------------------------
403	-2.00000e-01	1.259076e-04	
404	-2.50000e-01	1.552272e-04	
405	-3.00000e-01	1.837044e-04	
406	-3.50000e-01	2.113492e-04	
407	-4.00000e-01	2.381714e-04	
408	-4.50000e-01	2.641808e-04	
409	-5.00000e-01	2.893868e-04	
410	-5.50000e-01	3.137988e-04	
411	-6.00000e-01	3.374261e-04	
412	-6.50000e-01	3.602779e-04	
413	-7.00000e-01	3.823629e-04	
414	-7.50000e-01	4.036902e-04	
415	-8.00000e-01	4.242684e-04	
416	-8.50000e-01	4.441061e-04	
417	-9.00000e-01	4.632117e-04	
418	-9.50000e-01	4.815935e-04	
419	-1.00000e+00	4.992599e-04	
420	-1.05000e+00	5.162189e-04	
421	-1.10000e+00	5.324786e-04	
422	-1.15000e+00	5.480468e-04	
423	-1.20000e+00	5.629313e-04	
424	-1.25000e+00	5.771401e-04	
425	-1.30000e+00	5.906806e-04	
426	-1.35000e+00	6.035606e-04	
427	-1.40000e+00	6.157876e-04	
428	-1.45000e+00	6.273692e-04	
429	-1.50000e+00	6.383131e-04	
430	-1.55000e+00	6.486269e-04	
431	-1.60000e+00	6.583186e-04	
432	-1.65000e+00	6.673962e-04	
433	-1.70000e+00	6.758686e-04	
434	-1.75000e+00	6.837452e-04	
435	-1.80000e+00	6.910368e-04	
436	-1.85000e+00	6.977568e-04	
437	-1.90000e+00	7.039221e-04	
438	-1.95000e+00	7.095551e-04	
439	-2.00000e+00	7.146860e-04	
440	-2.05000e+00	7.193535e-04	
441	-2.10000e+00	7.236033e-04	
442	-2.15000e+00	7.274842e-04	
443	-2.20000e+00	7.310444e-04	
444	-2.25000e+00	7.343279e-04	
445	-2.30000e+00	7.373729e-04	
446	-2.35000e+00	7.402124e-04	
447	-2.40000e+00	7.428735e-04	
448	-2.45000e+00	7.453792e-04	
449	-2.50000e+00	7.477487e-04	
450	-2.55000e+00	7.499978e-04	
451	-2.60000e+00	7.521401e-04	
452	-2.65000e+00	7.541870e-04	
453	-2.70000e+00	7.561482e-04	
454	-2.75000e+00	7.580322e-04	
455	-2.80000e+00	7.598461e-04	
456	-2.85000e+00	7.615963e-04	
457	-2.90000e+00	7.632882e-04	
458	-2.95000e+00	7.649266e-04	
459	-3.00000e+00	7.665158e-04	
460	-3.05000e+00	7.680597e-04	

Index   v-sweep         i(vds)          
--------------------------------------------------------------------------------
461	-3.10000e+00	7.695615e-04	
462	-3.15000e+00	7.710242e-04	
463	-3.20000e+00	7.724506e-04	
464	-3.25000e+00	7.738430e-04	
465	-3.30000e+00	7.752038e-04	
466	-3.35000e+00	7.765348e-04	
467	-3.40000e+00	7.778380e-04	
468	-3.45000e+00	7.791149e-04	
469	-3.50000e+00	7.803670e-04	
470	-3.55000e+00	7.815958e-04	
471	-3.60000e+00	7.828026e-04	
472	-3.65000e+00	7.839884e-04	
473	-3.70000e+00	7.851545e-04	
474	-3.75000e+00	7.863017e-04	
475	-3.80000e+00	7.874311e-04	
476	-3.85000e+00	7.885434e-04	
477	-3.90000e+00	7.896396e-04	
478	-3.95000e+00	7.907202e-04	
479	-4.00000e+00	7.917862e-04	
480	-4.05000e+00	7.928380e-04	
481	-4.10000e+00	7.938763e-04	
482	-4.15000e+00	7.949017e-04	
483	-4.20000e+00	7.959148e-04	
484	-4.25000e+00	7.969159e-04	
485	-4.30000e+00	7.979056e-04	
486	-4.35000e+00	7.988844e-04	
487	-4.40000e+00	7.998527e-04	
488	-4.45000e+00	8.008109e-04	
489	-4.50000e+00	8.017593e-04	
490	-4.55000e+00	8.026983e-04	
491	-4.60000e+00	8.036284e-04	
492	-4.65000e+00	8.045497e-04	
493	-4.70000e+00	8.054627e-04	
494	-4.75000e+00	8.063676e-04	
495	-4.80000e+00	8.072648e-04	
496	-4.85000e+00	8.081545e-04	
497	-4.90000e+00	8.090371e-04	
498	-4.95000e+00	8.099129e-04	
499	-5.00000e+00	8.107821e-04	
500	-5.05000e+00	8.116451e-04	
501	-5.10000e+00	8.125022e-04	
502	-5.15000e+00	8.133537e-04	
503	-5.20000e+00	8.142000e-04	
504	-5.25000e+00	8.150415e-04	
505	-5.30000e+00	8.158786e-04	
506	-5.35000e+00	8.167117e-04	
507	-5.40000e+00	8.175414e-04	
508	-5.45000e+00	8.183681e-04	
509	-5.50000e+00	8.191924e-04	
510	-5.55000e+00	8.200150e-04	
511	-5.60000e+00	8.208366e-04	
512	-5.65000e+00	8.216580e-04	
513	-5.70000e+00	8.224800e-04	
514	-5.75000e+00	8.233036e-04	
515	-5.80000e+00	8.241298e-04	
516	-5.85000e+00	8.249598e-04	
517	-5.90000e+00	8.257949e-04	
518	-5.95000e+00	8.266365e-04	

Index   v-sweep         i(vds)          
--------------------------------------------------------------------------------
519	-6.00000e+00	8.274860e-04	
520	-6.05000e+00	8.283452e-04	
521	-6.10000e+00	8.292159e-04	
522	-6.15000e+00	8.301001e-04	
523	-6.20000e+00	8.309999e-04	
524	-6.25000e+00	8.319177e-04	
525	-6.30000e+00	8.328559e-04	
526	-6.35000e+00	8.338174e-04	
527	-6.40000e+00	8.348049e-04	
528	-6.45000e+00	8.358218e-04	
529	-6.50000e+00	8.368714e-04	
530	-6.55000e+00	8.379572e-04	
531	-6.60000e+00	8.390832e-04	
532	0.000000e+00	0.000000e+00	
533	-5.00000e-02	3.873444e-05	
534	-1.00000e-01	7.662846e-05	
535	-1.50000e-01	1.136912e-04	
536	-2.00000e-01	1.499318e-04	
537	-2.50000e-01	1.853592e-04	
538	-3.00000e-01	2.199820e-04	
539	-3.50000e-01	2.538091e-04	
540	-4.00000e-01	2.868489e-04	
541	-4.50000e-01	3.191098e-04	
542	-5.00000e-01	3.506002e-04	
543	-5.50000e-01	3.813282e-04	
544	-6.00000e-01	4.113019e-04	
545	-6.50000e-01	4.405293e-04	
546	-7.00000e-01	4.690181e-04	
547	-7.50000e-01	4.967762e-04	
548	-8.00000e-01	5.238112e-04	
549	-8.50000e-01	5.501306e-04	
550	-9.00000e-01	5.757418e-04	
551	-9.50000e-01	6.006521e-04	
552	-1.00000e+00	6.248688e-04	
553	-1.05000e+00	6.483989e-04	
554	-1.10000e+00	6.712496e-04	
555	-1.15000e+00	6.934278e-04	
556	-1.20000e+00	7.149402e-04	
557	-1.25000e+00	7.357938e-04	
558	-1.30000e+00	7.559950e-04	
559	-1.35000e+00	7.755506e-04	
560	-1.40000e+00	7.944671e-04	
561	-1.45000e+00	8.127508e-04	
562	-1.50000e+00	8.304082e-04	
563	-1.55000e+00	8.474454e-04	
564	-1.60000e+00	8.638688e-04	
565	-1.65000e+00	8.796844e-04	
566	-1.70000e+00	8.948983e-04	
567	-1.75000e+00	9.095166e-04	
568	-1.80000e+00	9.235450e-04	
569	-1.85000e+00	9.369896e-04	
570	-1.90000e+00	9.498561e-04	
571	-1.95000e+00	9.621503e-04	
572	-2.00000e+00	9.738778e-04	
573	-2.05000e+00	9.850441e-04	
574	-2.10000e+00	9.956548e-04	
575	-2.15000e+00	1.005715e-03	
576	-2.20000e+00	1.015230e-03	

Index   v-sweep         i(vds)          
--------------------------------------------------------------------------------
577	-2.25000e+00	1.024204e-03	
578	-2.30000e+00	1.032643e-03	
579	-2.35000e+00	1.040550e-03	
580	-2.40000e+00	1.047932e-03	
581	-2.45000e+00	1.054797e-03	
582	-2.50000e+00	1.061156e-03	
583	-2.55000e+00	1.067031e-03	
584	-2.60000e+00	1.072450e-03	
585	-2.65000e+00	1.077449e-03	
586	-2.70000e+00	1.082070e-03	
587	-2.75000e+00	1.086355e-03	
588	-2.80000e+00	1.090342e-03	
589	-2.85000e+00	1.094069e-03	
590	-2.90000e+00	1.097566e-03	
591	-2.95000e+00	1.100861e-03	
592	-3.00000e+00	1.103977e-03	
593	-3.05000e+00	1.106936e-03	
594	-3.10000e+00	1.109753e-03	
595	-3.15000e+00	1.112444e-03	
596	-3.20000e+00	1.115021e-03	
597	-3.25000e+00	1.117496e-03	
598	-3.30000e+00	1.119877e-03	
599	-3.35000e+00	1.122174e-03	
600	-3.40000e+00	1.124392e-03	
601	-3.45000e+00	1.126540e-03	
602	-3.50000e+00	1.128622e-03	
603	-3.55000e+00	1.130643e-03	
604	-3.60000e+00	1.132609e-03	
605	-3.65000e+00	1.134522e-03	
606	-3.70000e+00	1.136387e-03	
607	-3.75000e+00	1.138207e-03	
608	-3.80000e+00	1.139984e-03	
609	-3.85000e+00	1.141722e-03	
610	-3.90000e+00	1.143423e-03	
611	-3.95000e+00	1.145088e-03	
612	-4.00000e+00	1.146721e-03	
613	-4.05000e+00	1.148323e-03	
614	-4.10000e+00	1.149895e-03	
615	-4.15000e+00	1.151439e-03	
616	-4.20000e+00	1.152957e-03	
617	-4.25000e+00	1.154450e-03	
618	-4.30000e+00	1.155920e-03	
619	-4.35000e+00	1.157366e-03	
620	-4.40000e+00	1.158791e-03	
621	-4.45000e+00	1.160196e-03	
622	-4.50000e+00	1.161581e-03	
623	-4.55000e+00	1.162947e-03	
624	-4.60000e+00	1.164295e-03	
625	-4.65000e+00	1.165626e-03	
626	-4.70000e+00	1.166940e-03	
627	-4.75000e+00	1.168239e-03	
628	-4.80000e+00	1.169522e-03	
629	-4.85000e+00	1.170791e-03	
630	-4.90000e+00	1.172046e-03	
631	-4.95000e+00	1.173288e-03	
632	-5.00000e+00	1.174516e-03	
633	-5.05000e+00	1.175732e-03	
634	-5.10000e+00	1.176937e-03	

Index   v-sweep         i(vds)          
--------------------------------------------------------------------------------
635	-5.15000e+00	1.178129e-03	
636	-5.20000e+00	1.179311e-03	
637	-5.25000e+00	1.180481e-03	
638	-5.30000e+00	1.181642e-03	
639	-5.35000e+00	1.182792e-03	
640	-5.40000e+00	1.183934e-03	
641	-5.45000e+00	1.185066e-03	
642	-5.50000e+00	1.186189e-03	
643	-5.55000e+00	1.187304e-03	
644	-5.60000e+00	1.188412e-03	
645	-5.65000e+00	1.189512e-03	
646	-5.70000e+00	1.190605e-03	
647	-5.75000e+00	1.191692e-03	
648	-5.80000e+00	1.192773e-03	
649	-5.85000e+00	1.193849e-03	
650	-5.90000e+00	1.194921e-03	
651	-5.95000e+00	1.195989e-03	
652	-6.00000e+00	1.197054e-03	
653	-6.05000e+00	1.198117e-03	
654	-6.10000e+00	1.199180e-03	
655	-6.15000e+00	1.200242e-03	
656	-6.20000e+00	1.201306e-03	
657	-6.25000e+00	1.202373e-03	
658	-6.30000e+00	1.203444e-03	
659	-6.35000e+00	1.204521e-03	
660	-6.40000e+00	1.205605e-03	
661	-6.45000e+00	1.206700e-03	
662	-6.50000e+00	1.207806e-03	
663	-6.55000e+00	1.208927e-03	
664	-6.60000e+00	1.210065e-03	
665	0.000000e+00	0.000000e+00	
666	-5.00000e-02	4.360592e-05	
667	-1.00000e-01	8.641291e-05	
668	-1.50000e-01	1.284290e-04	
669	-2.00000e-01	1.696620e-04	
670	-2.50000e-01	2.101198e-04	
671	-3.00000e-01	2.498101e-04	
672	-3.50000e-01	2.887404e-04	
673	-4.00000e-01	3.269183e-04	
674	-4.50000e-01	3.643512e-04	
675	-5.00000e-01	4.010463e-04	
676	-5.50000e-01	4.370109e-04	
677	-6.00000e-01	4.722521e-04	
678	-6.50000e-01	5.067768e-04	
679	-7.00000e-01	5.405921e-04	
680	-7.50000e-01	5.737048e-04	
681	-8.00000e-01	6.061216e-04	
682	-8.50000e-01	6.378492e-04	
683	-9.00000e-01	6.688942e-04	
684	-9.50000e-01	6.992631e-04	
685	-1.00000e+00	7.289622e-04	
686	-1.05000e+00	7.579980e-04	
687	-1.10000e+00	7.863767e-04	
688	-1.15000e+00	8.141044e-04	
689	-1.20000e+00	8.411873e-04	
690	-1.25000e+00	8.676314e-04	
691	-1.30000e+00	8.934427e-04	
692	-1.35000e+00	9.186270e-04	

Index   v-sweep         i(vds)          
--------------------------------------------------------------------------------
693	-1.40000e+00	9.431902e-04	
694	-1.45000e+00	9.671379e-04	
695	-1.50000e+00	9.904759e-04	
696	-1.55000e+00	1.013210e-03	
697	-1.60000e+00	1.035345e-03	
698	-1.65000e+00	1.056887e-03	
699	-1.70000e+00	1.077842e-03	
700	-1.75000e+00	1.098214e-03	
701	-1.80000e+00	1.118009e-03	
702	-1.85000e+00	1.137232e-03	
703	-1.90000e+00	1.155889e-03	
704	-1.95000e+00	1.173984e-03	
705	-2.00000e+00	1.191522e-03	
706	-2.05000e+00	1.208509e-03	
707	-2.10000e+00	1.224950e-03	
708	-2.15000e+00	1.240848e-03	
709	-2.20000e+00	1.256210e-03	
710	-2.25000e+00	1.271039e-03	
711	-2.30000e+00	1.285341e-03	
712	-2.35000e+00	1.299120e-03	
713	-2.40000e+00	1.312379e-03	
714	-2.45000e+00	1.325125e-03	
715	-2.50000e+00	1.337359e-03	
716	-2.55000e+00	1.349087e-03	
717	-2.60000e+00	1.360311e-03	
718	-2.65000e+00	1.371034e-03	
719	-2.70000e+00	1.381257e-03	
720	-2.75000e+00	1.390980e-03	
721	-2.80000e+00	1.400204e-03	
722	-2.85000e+00	1.408927e-03	
723	-2.90000e+00	1.417145e-03	
724	-2.95000e+00	1.424859e-03	
725	-3.00000e+00	1.432072e-03	
726	-3.05000e+00	1.438797e-03	
727	-3.10000e+00	1.445053e-03	
728	-3.15000e+00	1.450872e-03	
729	-3.20000e+00	1.456287e-03	
730	-3.25000e+00	1.461337e-03	
731	-3.30000e+00	1.466060e-03	
732	-3.35000e+00	1.470493e-03	
733	-3.40000e+00	1.474666e-03	
734	-3.45000e+00	1.478609e-03	
735	-3.50000e+00	1.482346e-03	
736	-3.55000e+00	1.485901e-03	
737	-3.60000e+00	1.489291e-03	
738	-3.65000e+00	1.492534e-03	
739	-3.70000e+00	1.495642e-03	
740	-3.75000e+00	1.498630e-03	
741	-3.80000e+00	1.501507e-03	
742	-3.85000e+00	1.504284e-03	
743	-3.90000e+00	1.506969e-03	
744	-3.95000e+00	1.509568e-03	
745	-4.00000e+00	1.512090e-03	
746	-4.05000e+00	1.514539e-03	
747	-4.10000e+00	1.516921e-03	
748	-4.15000e+00	1.519240e-03	
749	-4.20000e+00	1.521502e-03	
750	-4.25000e+00	1.523709e-03	

Index   v-sweep         i(vds)          
--------------------------------------------------------------------------------
751	-4.30000e+00	1.525865e-03	
752	-4.35000e+00	1.527974e-03	
753	-4.40000e+00	1.530038e-03	
754	-4.45000e+00	1.532060e-03	
755	-4.50000e+00	1.534042e-03	
756	-4.55000e+00	1.535987e-03	
757	-4.60000e+00	1.537896e-03	
758	-4.65000e+00	1.539772e-03	
759	-4.70000e+00	1.541616e-03	
760	-4.75000e+00	1.543429e-03	
761	-4.80000e+00	1.545214e-03	
762	-4.85000e+00	1.546971e-03	
763	-4.90000e+00	1.548703e-03	
764	-4.95000e+00	1.550409e-03	
765	-5.00000e+00	1.552092e-03	
766	-5.05000e+00	1.553751e-03	
767	-5.10000e+00	1.555389e-03	
768	-5.15000e+00	1.557007e-03	
769	-5.20000e+00	1.558604e-03	
770	-5.25000e+00	1.560182e-03	
771	-5.30000e+00	1.561742e-03	
772	-5.35000e+00	1.563284e-03	
773	-5.40000e+00	1.564809e-03	
774	-5.45000e+00	1.566318e-03	
775	-5.50000e+00	1.567811e-03	
776	-5.55000e+00	1.569288e-03	
777	-5.60000e+00	1.570752e-03	
778	-5.65000e+00	1.572201e-03	
779	-5.70000e+00	1.573637e-03	
780	-5.75000e+00	1.575060e-03	
781	-5.80000e+00	1.576470e-03	
782	-5.85000e+00	1.577868e-03	
783	-5.90000e+00	1.579255e-03	
784	-5.95000e+00	1.580631e-03	
785	-6.00000e+00	1.581997e-03	
786	-6.05000e+00	1.583352e-03	
787	-6.10000e+00	1.584699e-03	
788	-6.15000e+00	1.586036e-03	
789	-6.20000e+00	1.587366e-03	
790	-6.25000e+00	1.588688e-03	
791	-6.30000e+00	1.590004e-03	
792	-6.35000e+00	1.591313e-03	
793	-6.40000e+00	1.592618e-03	
794	-6.45000e+00	1.593919e-03	
795	-6.50000e+00	1.595218e-03	
796	-6.55000e+00	1.596514e-03	
797	-6.60000e+00	1.597811e-03	
Note: No ".plot", ".print", or ".fourier" lines; no simulations run
