
Note: Compatibility modes selected: hs

Warning: m=xx on .subckt line will override multiplier m hierarchy!


Circuit: ***************************

Doing analysis at TEMP = 25.000000 and TNOM = 25.000000


No. of Data Rows : 798
                          ***************************
                          DC transfer characteristic  Mon Jan  9 13:57:52  2023
--------------------------------------------------------------------------------
Index   v-sweep         i(vds)          
--------------------------------------------------------------------------------
0	0.000000e+00	0.000000e+00	
1	-5.00000e-02	2.198359e-07	
2	-1.00000e-01	3.213218e-07	
3	-1.50000e-01	3.491840e-07	
4	-2.00000e-01	3.554403e-07	
5	-2.50000e-01	3.574872e-07	
6	-3.00000e-01	3.584891e-07	
7	-3.50000e-01	3.591295e-07	
8	-4.00000e-01	3.596099e-07	
9	-4.50000e-01	3.600058e-07	
10	-5.00000e-01	3.603510e-07	
11	-5.50000e-01	3.606625e-07	
12	-6.00000e-01	3.609500e-07	
13	-6.50000e-01	3.612193e-07	
14	-7.00000e-01	3.614743e-07	
15	-7.50000e-01	3.617175e-07	
16	-8.00000e-01	3.619510e-07	
17	-8.50000e-01	3.621762e-07	
18	-9.00000e-01	3.623941e-07	
19	-9.50000e-01	3.626056e-07	
20	-1.00000e+00	3.628115e-07	
21	-1.05000e+00	3.630123e-07	
22	-1.10000e+00	3.632084e-07	
23	-1.15000e+00	3.634005e-07	
24	-1.20000e+00	3.635887e-07	
25	-1.25000e+00	3.637733e-07	
26	-1.30000e+00	3.639548e-07	
27	-1.35000e+00	3.641332e-07	
28	-1.40000e+00	3.643089e-07	
29	-1.45000e+00	3.644819e-07	
30	-1.50000e+00	3.646525e-07	
31	-1.55000e+00	3.648209e-07	
32	-1.60000e+00	3.649871e-07	
33	-1.65000e+00	3.651512e-07	
34	-1.70000e+00	3.653135e-07	
35	-1.75000e+00	3.654739e-07	
36	-1.80000e+00	3.656327e-07	
37	-1.85000e+00	3.657898e-07	
38	-1.90000e+00	3.659454e-07	
39	-1.95000e+00	3.660996e-07	
40	-2.00000e+00	3.662523e-07	
41	-2.05000e+00	3.664038e-07	
42	-2.10000e+00	3.665539e-07	
43	-2.15000e+00	3.667029e-07	
44	-2.20000e+00	3.668507e-07	
45	-2.25000e+00	3.669974e-07	
46	-2.30000e+00	3.671430e-07	
47	-2.35000e+00	3.672876e-07	
48	-2.40000e+00	3.674313e-07	
49	-2.45000e+00	3.675739e-07	
50	-2.50000e+00	3.677157e-07	
51	-2.55000e+00	3.678567e-07	
52	-2.60000e+00	3.679968e-07	
53	-2.65000e+00	3.681361e-07	
54	-2.70000e+00	3.682746e-07	

Index   v-sweep         i(vds)          
--------------------------------------------------------------------------------
55	-2.75000e+00	3.684124e-07	
56	-2.80000e+00	3.685495e-07	
57	-2.85000e+00	3.686860e-07	
58	-2.90000e+00	3.688218e-07	
59	-2.95000e+00	3.689570e-07	
60	-3.00000e+00	3.690917e-07	
61	-3.05000e+00	3.692259e-07	
62	-3.10000e+00	3.693596e-07	
63	-3.15000e+00	3.694930e-07	
64	-3.20000e+00	3.696260e-07	
65	-3.25000e+00	3.697588e-07	
66	-3.30000e+00	3.698914e-07	
67	-3.35000e+00	3.700239e-07	
68	-3.40000e+00	3.701566e-07	
69	-3.45000e+00	3.702893e-07	
70	-3.50000e+00	3.704225e-07	
71	-3.55000e+00	3.705561e-07	
72	-3.60000e+00	3.706904e-07	
73	-3.65000e+00	3.708257e-07	
74	-3.70000e+00	3.709621e-07	
75	-3.75000e+00	3.711000e-07	
76	-3.80000e+00	3.712397e-07	
77	-3.85000e+00	3.713815e-07	
78	-3.90000e+00	3.715259e-07	
79	-3.95000e+00	3.716734e-07	
80	-4.00000e+00	3.718243e-07	
81	-4.05000e+00	3.719793e-07	
82	-4.10000e+00	3.721390e-07	
83	-4.15000e+00	3.723040e-07	
84	-4.20000e+00	3.724751e-07	
85	-4.25000e+00	3.726532e-07	
86	-4.30000e+00	3.728390e-07	
87	-4.35000e+00	3.730336e-07	
88	-4.40000e+00	3.732380e-07	
89	-4.45000e+00	3.734533e-07	
90	-4.50000e+00	3.736807e-07	
91	-4.55000e+00	3.739216e-07	
92	-4.60000e+00	3.741773e-07	
93	-4.65000e+00	3.744494e-07	
94	-4.70000e+00	3.747395e-07	
95	-4.75000e+00	3.750492e-07	
96	-4.80000e+00	3.753805e-07	
97	-4.85000e+00	3.757352e-07	
98	-4.90000e+00	3.761154e-07	
99	-4.95000e+00	3.765233e-07	
100	-5.00000e+00	3.769613e-07	
101	-5.05000e+00	3.774316e-07	
102	-5.10000e+00	3.779370e-07	
103	-5.15000e+00	3.784800e-07	
104	-5.20000e+00	3.790635e-07	
105	-5.25000e+00	3.796905e-07	
106	-5.30000e+00	3.803640e-07	
107	-5.35000e+00	3.810874e-07	
108	-5.40000e+00	3.818639e-07	
109	-5.45000e+00	3.826971e-07	
110	-5.50000e+00	3.835906e-07	
111	-5.55000e+00	3.845483e-07	
112	-5.60000e+00	3.855742e-07	

Index   v-sweep         i(vds)          
--------------------------------------------------------------------------------
113	-5.65000e+00	3.866722e-07	
114	-5.70000e+00	3.878467e-07	
115	-5.75000e+00	3.891020e-07	
116	-5.80000e+00	3.904427e-07	
117	-5.85000e+00	3.918734e-07	
118	-5.90000e+00	3.933991e-07	
119	-5.95000e+00	3.950246e-07	
120	-6.00000e+00	3.967551e-07	
121	-6.05000e+00	3.985959e-07	
122	-6.10000e+00	4.005524e-07	
123	-6.15000e+00	4.026301e-07	
124	-6.20000e+00	4.048348e-07	
125	-6.25000e+00	4.071722e-07	
126	-6.30000e+00	4.096484e-07	
127	-6.35000e+00	4.122695e-07	
128	-6.40000e+00	4.150417e-07	
129	-6.45000e+00	4.179714e-07	
130	-6.50000e+00	4.210651e-07	
131	-6.55000e+00	4.243295e-07	
132	-6.60000e+00	4.277715e-07	
133	0.000000e+00	0.000000e+00	
134	-5.00000e-02	2.572993e-06	
135	-1.00000e-01	4.979244e-06	
136	-1.50000e-01	7.218996e-06	
137	-2.00000e-01	9.292501e-06	
138	-2.50000e-01	1.120003e-05	
139	-3.00000e-01	1.294188e-05	
140	-3.50000e-01	1.451840e-05	
141	-4.00000e-01	1.593000e-05	
142	-4.50000e-01	1.717724e-05	
143	-5.00000e-01	1.826088e-05	
144	-5.50000e-01	1.918215e-05	
145	-6.00000e-01	1.994313e-05	
146	-6.50000e-01	2.054764e-05	
147	-7.00000e-01	2.100306e-05	
148	-7.50000e-01	2.132335e-05	
149	-8.00000e-01	2.153206e-05	
150	-8.50000e-01	2.166070e-05	
151	-9.00000e-01	2.173999e-05	
152	-9.50000e-01	2.179191e-05	
153	-1.00000e+00	2.182907e-05	
154	-1.05000e+00	2.185803e-05	
155	-1.10000e+00	2.188213e-05	
156	-1.15000e+00	2.190313e-05	
157	-1.20000e+00	2.192204e-05	
158	-1.25000e+00	2.193944e-05	
159	-1.30000e+00	2.195569e-05	
160	-1.35000e+00	2.197104e-05	
161	-1.40000e+00	2.198566e-05	
162	-1.45000e+00	2.199967e-05	
163	-1.50000e+00	2.201317e-05	
164	-1.55000e+00	2.202621e-05	
165	-1.60000e+00	2.203887e-05	
166	-1.65000e+00	2.205117e-05	
167	-1.70000e+00	2.206317e-05	
168	-1.75000e+00	2.207489e-05	
169	-1.80000e+00	2.208635e-05	
170	-1.85000e+00	2.209757e-05	

Index   v-sweep         i(vds)          
--------------------------------------------------------------------------------
171	-1.90000e+00	2.210859e-05	
172	-1.95000e+00	2.211941e-05	
173	-2.00000e+00	2.213004e-05	
174	-2.05000e+00	2.214051e-05	
175	-2.10000e+00	2.215082e-05	
176	-2.15000e+00	2.216098e-05	
177	-2.20000e+00	2.217101e-05	
178	-2.25000e+00	2.218090e-05	
179	-2.30000e+00	2.219068e-05	
180	-2.35000e+00	2.220033e-05	
181	-2.40000e+00	2.220988e-05	
182	-2.45000e+00	2.221933e-05	
183	-2.50000e+00	2.222868e-05	
184	-2.55000e+00	2.223794e-05	
185	-2.60000e+00	2.224711e-05	
186	-2.65000e+00	2.225620e-05	
187	-2.70000e+00	2.226521e-05	
188	-2.75000e+00	2.227414e-05	
189	-2.80000e+00	2.228300e-05	
190	-2.85000e+00	2.229178e-05	
191	-2.90000e+00	2.230051e-05	
192	-2.95000e+00	2.230917e-05	
193	-3.00000e+00	2.231776e-05	
194	-3.05000e+00	2.232630e-05	
195	-3.10000e+00	2.233479e-05	
196	-3.15000e+00	2.234322e-05	
197	-3.20000e+00	2.235159e-05	
198	-3.25000e+00	2.235992e-05	
199	-3.30000e+00	2.236820e-05	
200	-3.35000e+00	2.237644e-05	
201	-3.40000e+00	2.238462e-05	
202	-3.45000e+00	2.239277e-05	
203	-3.50000e+00	2.240088e-05	
204	-3.55000e+00	2.240895e-05	
205	-3.60000e+00	2.241698e-05	
206	-3.65000e+00	2.242498e-05	
207	-3.70000e+00	2.243295e-05	
208	-3.75000e+00	2.244089e-05	
209	-3.80000e+00	2.244881e-05	
210	-3.85000e+00	2.245670e-05	
211	-3.90000e+00	2.246458e-05	
212	-3.95000e+00	2.247244e-05	
213	-4.00000e+00	2.248030e-05	
214	-4.05000e+00	2.248815e-05	
215	-4.10000e+00	2.249601e-05	
216	-4.15000e+00	2.250389e-05	
217	-4.20000e+00	2.251179e-05	
218	-4.25000e+00	2.251972e-05	
219	-4.30000e+00	2.252770e-05	
220	-4.35000e+00	2.253574e-05	
221	-4.40000e+00	2.254386e-05	
222	-4.45000e+00	2.255207e-05	
223	-4.50000e+00	2.256039e-05	
224	-4.55000e+00	2.256885e-05	
225	-4.60000e+00	2.257748e-05	
226	-4.65000e+00	2.258629e-05	
227	-4.70000e+00	2.259532e-05	
228	-4.75000e+00	2.260461e-05	

Index   v-sweep         i(vds)          
--------------------------------------------------------------------------------
229	-4.80000e+00	2.261420e-05	
230	-4.85000e+00	2.262411e-05	
231	-4.90000e+00	2.263441e-05	
232	-4.95000e+00	2.264514e-05	
233	-5.00000e+00	2.265636e-05	
234	-5.05000e+00	2.266812e-05	
235	-5.10000e+00	2.268049e-05	
236	-5.15000e+00	2.269354e-05	
237	-5.20000e+00	2.270734e-05	
238	-5.25000e+00	2.272198e-05	
239	-5.30000e+00	2.273754e-05	
240	-5.35000e+00	2.275411e-05	
241	-5.40000e+00	2.277180e-05	
242	-5.45000e+00	2.279070e-05	
243	-5.50000e+00	2.281094e-05	
244	-5.55000e+00	2.283262e-05	
245	-5.60000e+00	2.285588e-05	
246	-5.65000e+00	2.288086e-05	
247	-5.70000e+00	2.290768e-05	
248	-5.75000e+00	2.293651e-05	
249	-5.80000e+00	2.296749e-05	
250	-5.85000e+00	2.300080e-05	
251	-5.90000e+00	2.303660e-05	
252	-5.95000e+00	2.307508e-05	
253	-6.00000e+00	2.311643e-05	
254	-6.05000e+00	2.316084e-05	
255	-6.10000e+00	2.320853e-05	
256	-6.15000e+00	2.325970e-05	
257	-6.20000e+00	2.331459e-05	
258	-6.25000e+00	2.337341e-05	
259	-6.30000e+00	2.343643e-05	
260	-6.35000e+00	2.350388e-05	
261	-6.40000e+00	2.357603e-05	
262	-6.45000e+00	2.365314e-05	
263	-6.50000e+00	2.373549e-05	
264	-6.55000e+00	2.382337e-05	
265	-6.60000e+00	2.391708e-05	
266	0.000000e+00	0.000000e+00	
267	-5.00000e-02	4.553614e-06	
268	-1.00000e-01	8.952650e-06	
269	-1.50000e-01	1.319729e-05	
270	-2.00000e-01	1.728773e-05	
271	-2.50000e-01	2.122415e-05	
272	-3.00000e-01	2.500673e-05	
273	-3.50000e-01	2.863567e-05	
274	-4.00000e-01	3.211114e-05	
275	-4.50000e-01	3.543336e-05	
276	-5.00000e-01	3.860250e-05	
277	-5.50000e-01	4.161876e-05	
278	-6.00000e-01	4.448236e-05	
279	-6.50000e-01	4.719348e-05	
280	-7.00000e-01	4.975236e-05	
281	-7.50000e-01	5.215921e-05	
282	-8.00000e-01	5.441427e-05	
283	-8.50000e-01	5.651782e-05	
284	-9.00000e-01	5.847014e-05	
285	-9.50000e-01	6.027158e-05	
286	-1.00000e+00	6.192253e-05	

Index   v-sweep         i(vds)          
--------------------------------------------------------------------------------
287	-1.05000e+00	6.342352e-05	
288	-1.10000e+00	6.477521e-05	
289	-1.15000e+00	6.597853e-05	
290	-1.20000e+00	6.703483e-05	
291	-1.25000e+00	6.794618e-05	
292	-1.30000e+00	6.871580e-05	
293	-1.35000e+00	6.934892e-05	
294	-1.40000e+00	6.985382e-05	
295	-1.45000e+00	7.024321e-05	
296	-1.50000e+00	7.053472e-05	
297	-1.55000e+00	7.074957e-05	
298	-1.60000e+00	7.090907e-05	
299	-1.65000e+00	7.103112e-05	
300	-1.70000e+00	7.112864e-05	
301	-1.75000e+00	7.121011e-05	
302	-1.80000e+00	7.128082e-05	
303	-1.85000e+00	7.134406e-05	
304	-1.90000e+00	7.140189e-05	
305	-1.95000e+00	7.145564e-05	
306	-2.00000e+00	7.150621e-05	
307	-2.05000e+00	7.155422e-05	
308	-2.10000e+00	7.160012e-05	
309	-2.15000e+00	7.164423e-05	
310	-2.20000e+00	7.168682e-05	
311	-2.25000e+00	7.172807e-05	
312	-2.30000e+00	7.176815e-05	
313	-2.35000e+00	7.180718e-05	
314	-2.40000e+00	7.184527e-05	
315	-2.45000e+00	7.188251e-05	
316	-2.50000e+00	7.191897e-05	
317	-2.55000e+00	7.195473e-05	
318	-2.60000e+00	7.198983e-05	
319	-2.65000e+00	7.202433e-05	
320	-2.70000e+00	7.205828e-05	
321	-2.75000e+00	7.209170e-05	
322	-2.80000e+00	7.212464e-05	
323	-2.85000e+00	7.215713e-05	
324	-2.90000e+00	7.218919e-05	
325	-2.95000e+00	7.222085e-05	
326	-3.00000e+00	7.225214e-05	
327	-3.05000e+00	7.228307e-05	
328	-3.10000e+00	7.231367e-05	
329	-3.15000e+00	7.234394e-05	
330	-3.20000e+00	7.237392e-05	
331	-3.25000e+00	7.240361e-05	
332	-3.30000e+00	7.243303e-05	
333	-3.35000e+00	7.246218e-05	
334	-3.40000e+00	7.249109e-05	
335	-3.45000e+00	7.251977e-05	
336	-3.50000e+00	7.254821e-05	
337	-3.55000e+00	7.257644e-05	
338	-3.60000e+00	7.260447e-05	
339	-3.65000e+00	7.263229e-05	
340	-3.70000e+00	7.265993e-05	
341	-3.75000e+00	7.268738e-05	
342	-3.80000e+00	7.271466e-05	
343	-3.85000e+00	7.274177e-05	
344	-3.90000e+00	7.276872e-05	

Index   v-sweep         i(vds)          
--------------------------------------------------------------------------------
345	-3.95000e+00	7.279551e-05	
346	-4.00000e+00	7.282215e-05	
347	-4.05000e+00	7.284865e-05	
348	-4.10000e+00	7.287501e-05	
349	-4.15000e+00	7.290124e-05	
350	-4.20000e+00	7.292734e-05	
351	-4.25000e+00	7.295332e-05	
352	-4.30000e+00	7.297919e-05	
353	-4.35000e+00	7.300496e-05	
354	-4.40000e+00	7.303063e-05	
355	-4.45000e+00	7.305621e-05	
356	-4.50000e+00	7.308172e-05	
357	-4.55000e+00	7.310715e-05	
358	-4.60000e+00	7.313254e-05	
359	-4.65000e+00	7.315788e-05	
360	-4.70000e+00	7.318320e-05	
361	-4.75000e+00	7.320852e-05	
362	-4.80000e+00	7.323387e-05	
363	-4.85000e+00	7.325925e-05	
364	-4.90000e+00	7.328472e-05	
365	-4.95000e+00	7.331030e-05	
366	-5.00000e+00	7.333603e-05	
367	-5.05000e+00	7.336195e-05	
368	-5.10000e+00	7.338812e-05	
369	-5.15000e+00	7.341460e-05	
370	-5.20000e+00	7.344144e-05	
371	-5.25000e+00	7.346872e-05	
372	-5.30000e+00	7.349653e-05	
373	-5.35000e+00	7.352495e-05	
374	-5.40000e+00	7.355408e-05	
375	-5.45000e+00	7.358403e-05	
376	-5.50000e+00	7.361493e-05	
377	-5.55000e+00	7.364691e-05	
378	-5.60000e+00	7.368012e-05	
379	-5.65000e+00	7.371472e-05	
380	-5.70000e+00	7.375089e-05	
381	-5.75000e+00	7.378881e-05	
382	-5.80000e+00	7.382870e-05	
383	-5.85000e+00	7.387078e-05	
384	-5.90000e+00	7.391529e-05	
385	-5.95000e+00	7.396249e-05	
386	-6.00000e+00	7.401267e-05	
387	-6.05000e+00	7.406612e-05	
388	-6.10000e+00	7.412316e-05	
389	-6.15000e+00	7.418413e-05	
390	-6.20000e+00	7.424940e-05	
391	-6.25000e+00	7.431936e-05	
392	-6.30000e+00	7.439441e-05	
393	-6.35000e+00	7.447498e-05	
394	-6.40000e+00	7.456154e-05	
395	-6.45000e+00	7.465457e-05	
396	-6.50000e+00	7.475457e-05	
397	-6.55000e+00	7.486208e-05	
398	-6.60000e+00	7.497766e-05	
399	0.000000e+00	0.000000e+00	
400	-5.00000e-02	6.193702e-06	
401	-1.00000e-01	1.224535e-05	
402	-1.50000e-01	1.815511e-05	

Index   v-sweep         i(vds)          
--------------------------------------------------------------------------------
403	-2.00000e-01	2.392314e-05	
404	-2.50000e-01	2.954958e-05	
405	-3.00000e-01	3.503460e-05	
406	-3.50000e-01	4.037836e-05	
407	-4.00000e-01	4.558101e-05	
408	-4.50000e-01	5.064271e-05	
409	-5.00000e-01	5.556362e-05	
410	-5.50000e-01	6.034389e-05	
411	-6.00000e-01	6.498368e-05	
412	-6.50000e-01	6.948314e-05	
413	-7.00000e-01	7.384245e-05	
414	-7.50000e-01	7.806175e-05	
415	-8.00000e-01	8.214121e-05	
416	-8.50000e-01	8.608098e-05	
417	-9.00000e-01	8.988123e-05	
418	-9.50000e-01	9.354212e-05	
419	-1.00000e+00	9.706382e-05	
420	-1.05000e+00	1.004465e-04	
421	-1.10000e+00	1.036903e-04	
422	-1.15000e+00	1.067954e-04	
423	-1.20000e+00	1.097620e-04	
424	-1.25000e+00	1.125903e-04	
425	-1.30000e+00	1.152805e-04	
426	-1.35000e+00	1.178328e-04	
427	-1.40000e+00	1.202473e-04	
428	-1.45000e+00	1.225244e-04	
429	-1.50000e+00	1.246642e-04	
430	-1.55000e+00	1.266671e-04	
431	-1.60000e+00	1.285335e-04	
432	-1.65000e+00	1.302636e-04	
433	-1.70000e+00	1.318581e-04	
434	-1.75000e+00	1.333175e-04	
435	-1.80000e+00	1.346428e-04	
436	-1.85000e+00	1.358350e-04	
437	-1.90000e+00	1.368957e-04	
438	-1.95000e+00	1.378274e-04	
439	-2.00000e+00	1.386335e-04	
440	-2.05000e+00	1.393189e-04	
441	-2.10000e+00	1.398909e-04	
442	-2.15000e+00	1.403598e-04	
443	-2.20000e+00	1.407387e-04	
444	-2.25000e+00	1.410430e-04	
445	-2.30000e+00	1.412888e-04	
446	-2.35000e+00	1.414908e-04	
447	-2.40000e+00	1.416611e-04	
448	-2.45000e+00	1.418086e-04	
449	-2.50000e+00	1.419398e-04	
450	-2.55000e+00	1.420588e-04	
451	-2.60000e+00	1.421688e-04	
452	-2.65000e+00	1.422717e-04	
453	-2.70000e+00	1.423690e-04	
454	-2.75000e+00	1.424617e-04	
455	-2.80000e+00	1.425505e-04	
456	-2.85000e+00	1.426361e-04	
457	-2.90000e+00	1.427188e-04	
458	-2.95000e+00	1.427991e-04	
459	-3.00000e+00	1.428771e-04	
460	-3.05000e+00	1.429533e-04	

Index   v-sweep         i(vds)          
--------------------------------------------------------------------------------
461	-3.10000e+00	1.430276e-04	
462	-3.15000e+00	1.431004e-04	
463	-3.20000e+00	1.431717e-04	
464	-3.25000e+00	1.432416e-04	
465	-3.30000e+00	1.433104e-04	
466	-3.35000e+00	1.433780e-04	
467	-3.40000e+00	1.434445e-04	
468	-3.45000e+00	1.435100e-04	
469	-3.50000e+00	1.435747e-04	
470	-3.55000e+00	1.436384e-04	
471	-3.60000e+00	1.437014e-04	
472	-3.65000e+00	1.437636e-04	
473	-3.70000e+00	1.438250e-04	
474	-3.75000e+00	1.438858e-04	
475	-3.80000e+00	1.439460e-04	
476	-3.85000e+00	1.440055e-04	
477	-3.90000e+00	1.440645e-04	
478	-3.95000e+00	1.441229e-04	
479	-4.00000e+00	1.441808e-04	
480	-4.05000e+00	1.442382e-04	
481	-4.10000e+00	1.442952e-04	
482	-4.15000e+00	1.443516e-04	
483	-4.20000e+00	1.444077e-04	
484	-4.25000e+00	1.444633e-04	
485	-4.30000e+00	1.445185e-04	
486	-4.35000e+00	1.445734e-04	
487	-4.40000e+00	1.446278e-04	
488	-4.45000e+00	1.446820e-04	
489	-4.50000e+00	1.447358e-04	
490	-4.55000e+00	1.447892e-04	
491	-4.60000e+00	1.448424e-04	
492	-4.65000e+00	1.448952e-04	
493	-4.70000e+00	1.449478e-04	
494	-4.75000e+00	1.450001e-04	
495	-4.80000e+00	1.450521e-04	
496	-4.85000e+00	1.451039e-04	
497	-4.90000e+00	1.451554e-04	
498	-4.95000e+00	1.452067e-04	
499	-5.00000e+00	1.452578e-04	
500	-5.05000e+00	1.453086e-04	
501	-5.10000e+00	1.453593e-04	
502	-5.15000e+00	1.454098e-04	
503	-5.20000e+00	1.454602e-04	
504	-5.25000e+00	1.455104e-04	
505	-5.30000e+00	1.455606e-04	
506	-5.35000e+00	1.456106e-04	
507	-5.40000e+00	1.456606e-04	
508	-5.45000e+00	1.457106e-04	
509	-5.50000e+00	1.457606e-04	
510	-5.55000e+00	1.458107e-04	
511	-5.60000e+00	1.458610e-04	
512	-5.65000e+00	1.459115e-04	
513	-5.70000e+00	1.459622e-04	
514	-5.75000e+00	1.460133e-04	
515	-5.80000e+00	1.460649e-04	
516	-5.85000e+00	1.461171e-04	
517	-5.90000e+00	1.461700e-04	
518	-5.95000e+00	1.462237e-04	

Index   v-sweep         i(vds)          
--------------------------------------------------------------------------------
519	-6.00000e+00	1.462784e-04	
520	-6.05000e+00	1.463342e-04	
521	-6.10000e+00	1.463915e-04	
522	-6.15000e+00	1.464503e-04	
523	-6.20000e+00	1.465109e-04	
524	-6.25000e+00	1.465737e-04	
525	-6.30000e+00	1.466388e-04	
526	-6.35000e+00	1.467065e-04	
527	-6.40000e+00	1.467773e-04	
528	-6.45000e+00	1.468515e-04	
529	-6.50000e+00	1.469294e-04	
530	-6.55000e+00	1.470116e-04	
531	-6.60000e+00	1.470986e-04	
532	0.000000e+00	0.000000e+00	
533	-5.00000e-02	7.564485e-06	
534	-1.00000e-01	1.499833e-05	
535	-1.50000e-01	2.230166e-05	
536	-2.00000e-01	2.947463e-05	
537	-2.50000e-01	3.651735e-05	
538	-3.00000e-01	4.342998e-05	
539	-3.50000e-01	5.021264e-05	
540	-4.00000e-01	5.686547e-05	
541	-4.50000e-01	6.338860e-05	
542	-5.00000e-01	6.978218e-05	
543	-5.50000e-01	7.604632e-05	
544	-6.00000e-01	8.218117e-05	
545	-6.50000e-01	8.818687e-05	
546	-7.00000e-01	9.406354e-05	
547	-7.50000e-01	9.981132e-05	
548	-8.00000e-01	1.054304e-04	
549	-8.50000e-01	1.109208e-04	
550	-9.00000e-01	1.162827e-04	
551	-9.50000e-01	1.215163e-04	
552	-1.00000e+00	1.266216e-04	
553	-1.05000e+00	1.315989e-04	
554	-1.10000e+00	1.364482e-04	
555	-1.15000e+00	1.411698e-04	
556	-1.20000e+00	1.457636e-04	
557	-1.25000e+00	1.502299e-04	
558	-1.30000e+00	1.545688e-04	
559	-1.35000e+00	1.587805e-04	
560	-1.40000e+00	1.628650e-04	
561	-1.45000e+00	1.668225e-04	
562	-1.50000e+00	1.706532e-04	
563	-1.55000e+00	1.743572e-04	
564	-1.60000e+00	1.779347e-04	
565	-1.65000e+00	1.813857e-04	
566	-1.70000e+00	1.847104e-04	
567	-1.75000e+00	1.879091e-04	
568	-1.80000e+00	1.909818e-04	
569	-1.85000e+00	1.939287e-04	
570	-1.90000e+00	1.967499e-04	
571	-1.95000e+00	1.994458e-04	
572	-2.00000e+00	2.020163e-04	
573	-2.05000e+00	2.044618e-04	
574	-2.10000e+00	2.067825e-04	
575	-2.15000e+00	2.089785e-04	
576	-2.20000e+00	2.110502e-04	

Index   v-sweep         i(vds)          
--------------------------------------------------------------------------------
577	-2.25000e+00	2.129979e-04	
578	-2.30000e+00	2.148220e-04	
579	-2.35000e+00	2.165228e-04	
580	-2.40000e+00	2.181010e-04	
581	-2.45000e+00	2.195571e-04	
582	-2.50000e+00	2.208922e-04	
583	-2.55000e+00	2.221074e-04	
584	-2.60000e+00	2.232043e-04	
585	-2.65000e+00	2.241851e-04	
586	-2.70000e+00	2.250529e-04	
587	-2.75000e+00	2.258120e-04	
588	-2.80000e+00	2.264681e-04	
589	-2.85000e+00	2.270291e-04	
590	-2.90000e+00	2.275048e-04	
591	-2.95000e+00	2.279067e-04	
592	-3.00000e+00	2.282473e-04	
593	-3.05000e+00	2.285388e-04	
594	-3.10000e+00	2.287923e-04	
595	-3.15000e+00	2.290167e-04	
596	-3.20000e+00	2.292190e-04	
597	-3.25000e+00	2.294044e-04	
598	-3.30000e+00	2.295767e-04	
599	-3.35000e+00	2.297385e-04	
600	-3.40000e+00	2.298920e-04	
601	-3.45000e+00	2.300385e-04	
602	-3.50000e+00	2.301791e-04	
603	-3.55000e+00	2.303148e-04	
604	-3.60000e+00	2.304461e-04	
605	-3.65000e+00	2.305736e-04	
606	-3.70000e+00	2.306977e-04	
607	-3.75000e+00	2.308189e-04	
608	-3.80000e+00	2.309373e-04	
609	-3.85000e+00	2.310532e-04	
610	-3.90000e+00	2.311668e-04	
611	-3.95000e+00	2.312784e-04	
612	-4.00000e+00	2.313880e-04	
613	-4.05000e+00	2.314959e-04	
614	-4.10000e+00	2.316021e-04	
615	-4.15000e+00	2.317068e-04	
616	-4.20000e+00	2.318101e-04	
617	-4.25000e+00	2.319119e-04	
618	-4.30000e+00	2.320126e-04	
619	-4.35000e+00	2.321120e-04	
620	-4.40000e+00	2.322103e-04	
621	-4.45000e+00	2.323076e-04	
622	-4.50000e+00	2.324038e-04	
623	-4.55000e+00	2.324991e-04	
624	-4.60000e+00	2.325935e-04	
625	-4.65000e+00	2.326871e-04	
626	-4.70000e+00	2.327798e-04	
627	-4.75000e+00	2.328717e-04	
628	-4.80000e+00	2.329629e-04	
629	-4.85000e+00	2.330534e-04	
630	-4.90000e+00	2.331431e-04	
631	-4.95000e+00	2.332323e-04	
632	-5.00000e+00	2.333208e-04	
633	-5.05000e+00	2.334087e-04	
634	-5.10000e+00	2.334960e-04	

Index   v-sweep         i(vds)          
--------------------------------------------------------------------------------
635	-5.15000e+00	2.335828e-04	
636	-5.20000e+00	2.336691e-04	
637	-5.25000e+00	2.337548e-04	
638	-5.30000e+00	2.338400e-04	
639	-5.35000e+00	2.339248e-04	
640	-5.40000e+00	2.340091e-04	
641	-5.45000e+00	2.340930e-04	
642	-5.50000e+00	2.341765e-04	
643	-5.55000e+00	2.342595e-04	
644	-5.60000e+00	2.343422e-04	
645	-5.65000e+00	2.344245e-04	
646	-5.70000e+00	2.345065e-04	
647	-5.75000e+00	2.345881e-04	
648	-5.80000e+00	2.346694e-04	
649	-5.85000e+00	2.347505e-04	
650	-5.90000e+00	2.348313e-04	
651	-5.95000e+00	2.349119e-04	
652	-6.00000e+00	2.349923e-04	
653	-6.05000e+00	2.350726e-04	
654	-6.10000e+00	2.351527e-04	
655	-6.15000e+00	2.352329e-04	
656	-6.20000e+00	2.353131e-04	
657	-6.25000e+00	2.353934e-04	
658	-6.30000e+00	2.354738e-04	
659	-6.35000e+00	2.355546e-04	
660	-6.40000e+00	2.356358e-04	
661	-6.45000e+00	2.357175e-04	
662	-6.50000e+00	2.357999e-04	
663	-6.55000e+00	2.358831e-04	
664	-6.60000e+00	2.359674e-04	
665	0.000000e+00	0.000000e+00	
666	-5.00000e-02	8.719446e-06	
667	-1.00000e-01	1.731845e-05	
668	-1.50000e-01	2.579712e-05	
669	-2.00000e-01	3.415559e-05	
670	-2.50000e-01	4.239396e-05	
671	-3.00000e-01	5.051237e-05	
672	-3.50000e-01	5.851091e-05	
673	-4.00000e-01	6.638972e-05	
674	-4.50000e-01	7.414891e-05	
675	-5.00000e-01	8.178859e-05	
676	-5.50000e-01	8.930889e-05	
677	-6.00000e-01	9.670991e-05	
678	-6.50000e-01	1.039918e-04	
679	-7.00000e-01	1.111546e-04	
680	-7.50000e-01	1.181985e-04	
681	-8.00000e-01	1.251237e-04	
682	-8.50000e-01	1.319301e-04	
683	-9.00000e-01	1.386179e-04	
684	-9.50000e-01	1.451873e-04	
685	-1.00000e+00	1.516384e-04	
686	-1.05000e+00	1.579712e-04	
687	-1.10000e+00	1.641860e-04	
688	-1.15000e+00	1.702827e-04	
689	-1.20000e+00	1.762616e-04	
690	-1.25000e+00	1.821227e-04	
691	-1.30000e+00	1.878662e-04	
692	-1.35000e+00	1.934921e-04	

Index   v-sweep         i(vds)          
--------------------------------------------------------------------------------
693	-1.40000e+00	1.990007e-04	
694	-1.45000e+00	2.043919e-04	
695	-1.50000e+00	2.096660e-04	
696	-1.55000e+00	2.148230e-04	
697	-1.60000e+00	2.198631e-04	
698	-1.65000e+00	2.247864e-04	
699	-1.70000e+00	2.295929e-04	
700	-1.75000e+00	2.342828e-04	
701	-1.80000e+00	2.388563e-04	
702	-1.85000e+00	2.433135e-04	
703	-1.90000e+00	2.476543e-04	
704	-1.95000e+00	2.518791e-04	
705	-2.00000e+00	2.559879e-04	
706	-2.05000e+00	2.599808e-04	
707	-2.10000e+00	2.638580e-04	
708	-2.15000e+00	2.676195e-04	
709	-2.20000e+00	2.712655e-04	
710	-2.25000e+00	2.747962e-04	
711	-2.30000e+00	2.782116e-04	
712	-2.35000e+00	2.815119e-04	
713	-2.40000e+00	2.846973e-04	
714	-2.45000e+00	2.877678e-04	
715	-2.50000e+00	2.907236e-04	
716	-2.55000e+00	2.935649e-04	
717	-2.60000e+00	2.962918e-04	
718	-2.65000e+00	2.989045e-04	
719	-2.70000e+00	3.014032e-04	
720	-2.75000e+00	3.037880e-04	
721	-2.80000e+00	3.060592e-04	
722	-2.85000e+00	3.082171e-04	
723	-2.90000e+00	3.102618e-04	
724	-2.95000e+00	3.121938e-04	
725	-3.00000e+00	3.140133e-04	
726	-3.05000e+00	3.157208e-04	
727	-3.10000e+00	3.173169e-04	
728	-3.15000e+00	3.188021e-04	
729	-3.20000e+00	3.201775e-04	
730	-3.25000e+00	3.214440e-04	
731	-3.30000e+00	3.226030e-04	
732	-3.35000e+00	3.236565e-04	
733	-3.40000e+00	3.246070e-04	
734	-3.45000e+00	3.254577e-04	
735	-3.50000e+00	3.262133e-04	
736	-3.55000e+00	3.268793e-04	
737	-3.60000e+00	3.274630e-04	
738	-3.65000e+00	3.279730e-04	
739	-3.70000e+00	3.284189e-04	
740	-3.75000e+00	3.288109e-04	
741	-3.80000e+00	3.291586e-04	
742	-3.85000e+00	3.294707e-04	
743	-3.90000e+00	3.297547e-04	
744	-3.95000e+00	3.300165e-04	
745	-4.00000e+00	3.302604e-04	
746	-4.05000e+00	3.304901e-04	
747	-4.10000e+00	3.307082e-04	
748	-4.15000e+00	3.309165e-04	
749	-4.20000e+00	3.311167e-04	
750	-4.25000e+00	3.313098e-04	

Index   v-sweep         i(vds)          
--------------------------------------------------------------------------------
751	-4.30000e+00	3.314969e-04	
752	-4.35000e+00	3.316786e-04	
753	-4.40000e+00	3.318556e-04	
754	-4.45000e+00	3.320283e-04	
755	-4.50000e+00	3.321972e-04	
756	-4.55000e+00	3.323626e-04	
757	-4.60000e+00	3.325248e-04	
758	-4.65000e+00	3.326841e-04	
759	-4.70000e+00	3.328406e-04	
760	-4.75000e+00	3.329947e-04	
761	-4.80000e+00	3.331464e-04	
762	-4.85000e+00	3.332960e-04	
763	-4.90000e+00	3.334436e-04	
764	-4.95000e+00	3.335892e-04	
765	-5.00000e+00	3.337331e-04	
766	-5.05000e+00	3.338752e-04	
767	-5.10000e+00	3.340158e-04	
768	-5.15000e+00	3.341549e-04	
769	-5.20000e+00	3.342925e-04	
770	-5.25000e+00	3.344289e-04	
771	-5.30000e+00	3.345639e-04	
772	-5.35000e+00	3.346977e-04	
773	-5.40000e+00	3.348303e-04	
774	-5.45000e+00	3.349619e-04	
775	-5.50000e+00	3.350924e-04	
776	-5.55000e+00	3.352219e-04	
777	-5.60000e+00	3.353504e-04	
778	-5.65000e+00	3.354780e-04	
779	-5.70000e+00	3.356047e-04	
780	-5.75000e+00	3.357305e-04	
781	-5.80000e+00	3.358555e-04	
782	-5.85000e+00	3.359798e-04	
783	-5.90000e+00	3.361033e-04	
784	-5.95000e+00	3.362261e-04	
785	-6.00000e+00	3.363482e-04	
786	-6.05000e+00	3.364696e-04	
787	-6.10000e+00	3.365903e-04	
788	-6.15000e+00	3.367105e-04	
789	-6.20000e+00	3.368300e-04	
790	-6.25000e+00	3.369490e-04	
791	-6.30000e+00	3.370674e-04	
792	-6.35000e+00	3.371853e-04	
793	-6.40000e+00	3.373027e-04	
794	-6.45000e+00	3.374196e-04	
795	-6.50000e+00	3.375360e-04	
796	-6.55000e+00	3.376521e-04	
797	-6.60000e+00	3.377678e-04	
Note: No ".plot", ".print", or ".fourier" lines; no simulations run
