
Note: Compatibility modes selected: hs

Warning: m=xx on .subckt line will override multiplier m hierarchy!


Circuit: ***************************

Doing analysis at TEMP = -40.000000 and TNOM = -40.000000


No. of Data Rows : 798
                          ***************************
                          DC transfer characteristic  Mon Jan  9 13:57:53  2023
--------------------------------------------------------------------------------
Index   v-sweep         i(vds)          
--------------------------------------------------------------------------------
0	0.000000e+00	0.000000e+00	
1	-5.00000e-02	1.871994e-09	
2	-1.00000e-01	2.267790e-09	
3	-1.50000e-01	2.325855e-09	
4	-2.00000e-01	2.341076e-09	
5	-2.50000e-01	2.347709e-09	
6	-3.00000e-01	2.351638e-09	
7	-3.50000e-01	2.354437e-09	
8	-4.00000e-01	2.356665e-09	
9	-4.50000e-01	2.358564e-09	
10	-5.00000e-01	2.360253e-09	
11	-5.50000e-01	2.361799e-09	
12	-6.00000e-01	2.363240e-09	
13	-6.50000e-01	2.364601e-09	
14	-7.00000e-01	2.365899e-09	
15	-7.50000e-01	2.367146e-09	
16	-8.00000e-01	2.368351e-09	
17	-8.50000e-01	2.369521e-09	
18	-9.00000e-01	2.370659e-09	
19	-9.50000e-01	2.371771e-09	
20	-1.00000e+00	2.372859e-09	
21	-1.05000e+00	2.373926e-09	
22	-1.10000e+00	2.374974e-09	
23	-1.15000e+00	2.376006e-09	
24	-1.20000e+00	2.377022e-09	
25	-1.25000e+00	2.378025e-09	
26	-1.30000e+00	2.379014e-09	
27	-1.35000e+00	2.379991e-09	
28	-1.40000e+00	2.380958e-09	
29	-1.45000e+00	2.381914e-09	
30	-1.50000e+00	2.382861e-09	
31	-1.55000e+00	2.383799e-09	
32	-1.60000e+00	2.384729e-09	
33	-1.65000e+00	2.385652e-09	
34	-1.70000e+00	2.386566e-09	
35	-1.75000e+00	2.387475e-09	
36	-1.80000e+00	2.388376e-09	
37	-1.85000e+00	2.389272e-09	
38	-1.90000e+00	2.390161e-09	
39	-1.95000e+00	2.391046e-09	
40	-2.00000e+00	2.391925e-09	
41	-2.05000e+00	2.392799e-09	
42	-2.10000e+00	2.393668e-09	
43	-2.15000e+00	2.394533e-09	
44	-2.20000e+00	2.395394e-09	
45	-2.25000e+00	2.396250e-09	
46	-2.30000e+00	2.397103e-09	
47	-2.35000e+00	2.397952e-09	
48	-2.40000e+00	2.398797e-09	
49	-2.45000e+00	2.399639e-09	
50	-2.50000e+00	2.400478e-09	
51	-2.55000e+00	2.401313e-09	
52	-2.60000e+00	2.402146e-09	
53	-2.65000e+00	2.402975e-09	
54	-2.70000e+00	2.403802e-09	

Index   v-sweep         i(vds)          
--------------------------------------------------------------------------------
55	-2.75000e+00	2.404626e-09	
56	-2.80000e+00	2.405448e-09	
57	-2.85000e+00	2.406267e-09	
58	-2.90000e+00	2.407085e-09	
59	-2.95000e+00	2.407900e-09	
60	-3.00000e+00	2.408714e-09	
61	-3.05000e+00	2.409526e-09	
62	-3.10000e+00	2.410337e-09	
63	-3.15000e+00	2.411148e-09	
64	-3.20000e+00	2.411957e-09	
65	-3.25000e+00	2.412767e-09	
66	-3.30000e+00	2.413577e-09	
67	-3.35000e+00	2.414388e-09	
68	-3.40000e+00	2.415201e-09	
69	-3.45000e+00	2.416016e-09	
70	-3.50000e+00	2.416835e-09	
71	-3.55000e+00	2.417658e-09	
72	-3.60000e+00	2.418487e-09	
73	-3.65000e+00	2.419323e-09	
74	-3.70000e+00	2.420167e-09	
75	-3.75000e+00	2.421022e-09	
76	-3.80000e+00	2.421889e-09	
77	-3.85000e+00	2.422770e-09	
78	-3.90000e+00	2.423669e-09	
79	-3.95000e+00	2.424587e-09	
80	-4.00000e+00	2.425528e-09	
81	-4.05000e+00	2.426495e-09	
82	-4.10000e+00	2.427492e-09	
83	-4.15000e+00	2.428523e-09	
84	-4.20000e+00	2.429592e-09	
85	-4.25000e+00	2.430705e-09	
86	-4.30000e+00	2.431868e-09	
87	-4.35000e+00	2.433085e-09	
88	-4.40000e+00	2.434363e-09	
89	-4.45000e+00	2.435709e-09	
90	-4.50000e+00	2.437131e-09	
91	-4.55000e+00	2.438636e-09	
92	-4.60000e+00	2.440234e-09	
93	-4.65000e+00	2.441933e-09	
94	-4.70000e+00	2.443743e-09	
95	-4.75000e+00	2.445675e-09	
96	-4.80000e+00	2.447739e-09	
97	-4.85000e+00	2.449949e-09	
98	-4.90000e+00	2.452315e-09	
99	-4.95000e+00	2.454853e-09	
100	-5.00000e+00	2.457575e-09	
101	-5.05000e+00	2.460497e-09	
102	-5.10000e+00	2.463634e-09	
103	-5.15000e+00	2.467003e-09	
104	-5.20000e+00	2.470622e-09	
105	-5.25000e+00	2.474507e-09	
106	-5.30000e+00	2.478679e-09	
107	-5.35000e+00	2.483156e-09	
108	-5.40000e+00	2.487960e-09	
109	-5.45000e+00	2.493113e-09	
110	-5.50000e+00	2.498636e-09	
111	-5.55000e+00	2.504553e-09	
112	-5.60000e+00	2.510889e-09	

Index   v-sweep         i(vds)          
--------------------------------------------------------------------------------
113	-5.65000e+00	2.517668e-09	
114	-5.70000e+00	2.524916e-09	
115	-5.75000e+00	2.532661e-09	
116	-5.80000e+00	2.540930e-09	
117	-5.85000e+00	2.549752e-09	
118	-5.90000e+00	2.559157e-09	
119	-5.95000e+00	2.569175e-09	
120	-6.00000e+00	2.579838e-09	
121	-6.05000e+00	2.591178e-09	
122	-6.10000e+00	2.603229e-09	
123	-6.15000e+00	2.616024e-09	
124	-6.20000e+00	2.629599e-09	
125	-6.25000e+00	2.643990e-09	
126	-6.30000e+00	2.659234e-09	
127	-6.35000e+00	2.675368e-09	
128	-6.40000e+00	2.692431e-09	
129	-6.45000e+00	2.710462e-09	
130	-6.50000e+00	2.729502e-09	
131	-6.55000e+00	2.749591e-09	
132	-6.60000e+00	2.770772e-09	
133	0.000000e+00	0.000000e+00	
134	-5.00000e-02	5.219236e-08	
135	-1.00000e-01	1.006568e-07	
136	-1.50000e-01	1.453971e-07	
137	-2.00000e-01	1.864174e-07	
138	-2.50000e-01	2.237227e-07	
139	-3.00000e-01	2.573190e-07	
140	-3.50000e-01	2.872139e-07	
141	-4.00000e-01	3.134188e-07	
142	-4.50000e-01	3.359508e-07	
143	-5.00000e-01	3.548393e-07	
144	-5.50000e-01	3.701382e-07	
145	-6.00000e-01	3.819537e-07	
146	-6.50000e-01	3.904992e-07	
147	-7.00000e-01	3.961814e-07	
148	-7.50000e-01	3.996485e-07	
149	-8.00000e-01	4.016648e-07	
150	-8.50000e-01	4.028634e-07	
151	-9.00000e-01	4.036349e-07	
152	-9.50000e-01	4.041822e-07	
153	-1.00000e+00	4.046055e-07	
154	-1.05000e+00	4.049553e-07	
155	-1.10000e+00	4.052583e-07	
156	-1.15000e+00	4.055298e-07	
157	-1.20000e+00	4.057787e-07	
158	-1.25000e+00	4.060109e-07	
159	-1.30000e+00	4.062300e-07	
160	-1.35000e+00	4.064388e-07	
161	-1.40000e+00	4.066391e-07	
162	-1.45000e+00	4.068324e-07	
163	-1.50000e+00	4.070196e-07	
164	-1.55000e+00	4.072016e-07	
165	-1.60000e+00	4.073791e-07	
166	-1.65000e+00	4.075526e-07	
167	-1.70000e+00	4.077226e-07	
168	-1.75000e+00	4.078894e-07	
169	-1.80000e+00	4.080533e-07	
170	-1.85000e+00	4.082146e-07	

Index   v-sweep         i(vds)          
--------------------------------------------------------------------------------
171	-1.90000e+00	4.083735e-07	
172	-1.95000e+00	4.085303e-07	
173	-2.00000e+00	4.086850e-07	
174	-2.05000e+00	4.088378e-07	
175	-2.10000e+00	4.089890e-07	
176	-2.15000e+00	4.091385e-07	
177	-2.20000e+00	4.092866e-07	
178	-2.25000e+00	4.094332e-07	
179	-2.30000e+00	4.095786e-07	
180	-2.35000e+00	4.097227e-07	
181	-2.40000e+00	4.098656e-07	
182	-2.45000e+00	4.100074e-07	
183	-2.50000e+00	4.101482e-07	
184	-2.55000e+00	4.102881e-07	
185	-2.60000e+00	4.104270e-07	
186	-2.65000e+00	4.105650e-07	
187	-2.70000e+00	4.107022e-07	
188	-2.75000e+00	4.108385e-07	
189	-2.80000e+00	4.109741e-07	
190	-2.85000e+00	4.111090e-07	
191	-2.90000e+00	4.112432e-07	
192	-2.95000e+00	4.113768e-07	
193	-3.00000e+00	4.115097e-07	
194	-3.05000e+00	4.116419e-07	
195	-3.10000e+00	4.117736e-07	
196	-3.15000e+00	4.119048e-07	
197	-3.20000e+00	4.120354e-07	
198	-3.25000e+00	4.121655e-07	
199	-3.30000e+00	4.122951e-07	
200	-3.35000e+00	4.124243e-07	
201	-3.40000e+00	4.125530e-07	
202	-3.45000e+00	4.126812e-07	
203	-3.50000e+00	4.128091e-07	
204	-3.55000e+00	4.129367e-07	
205	-3.60000e+00	4.130639e-07	
206	-3.65000e+00	4.131908e-07	
207	-3.70000e+00	4.133174e-07	
208	-3.75000e+00	4.134439e-07	
209	-3.80000e+00	4.135701e-07	
210	-3.85000e+00	4.136963e-07	
211	-3.90000e+00	4.138225e-07	
212	-3.95000e+00	4.139487e-07	
213	-4.00000e+00	4.140751e-07	
214	-4.05000e+00	4.142017e-07	
215	-4.10000e+00	4.143287e-07	
216	-4.15000e+00	4.144563e-07	
217	-4.20000e+00	4.145846e-07	
218	-4.25000e+00	4.147138e-07	
219	-4.30000e+00	4.148442e-07	
220	-4.35000e+00	4.149759e-07	
221	-4.40000e+00	4.151094e-07	
222	-4.45000e+00	4.152448e-07	
223	-4.50000e+00	4.153827e-07	
224	-4.55000e+00	4.155233e-07	
225	-4.60000e+00	4.156672e-07	
226	-4.65000e+00	4.158148e-07	
227	-4.70000e+00	4.159668e-07	
228	-4.75000e+00	4.161237e-07	

Index   v-sweep         i(vds)          
--------------------------------------------------------------------------------
229	-4.80000e+00	4.162863e-07	
230	-4.85000e+00	4.164553e-07	
231	-4.90000e+00	4.166316e-07	
232	-4.95000e+00	4.168160e-07	
233	-5.00000e+00	4.170095e-07	
234	-5.05000e+00	4.172133e-07	
235	-5.10000e+00	4.174283e-07	
236	-5.15000e+00	4.176560e-07	
237	-5.20000e+00	4.178977e-07	
238	-5.25000e+00	4.181547e-07	
239	-5.30000e+00	4.184287e-07	
240	-5.35000e+00	4.187214e-07	
241	-5.40000e+00	4.190344e-07	
242	-5.45000e+00	4.193696e-07	
243	-5.50000e+00	4.197292e-07	
244	-5.55000e+00	4.201151e-07	
245	-5.60000e+00	4.205297e-07	
246	-5.65000e+00	4.209753e-07	
247	-5.70000e+00	4.214545e-07	
248	-5.75000e+00	4.219699e-07	
249	-5.80000e+00	4.225243e-07	
250	-5.85000e+00	4.231205e-07	
251	-5.90000e+00	4.237618e-07	
252	-5.95000e+00	4.244512e-07	
253	-6.00000e+00	4.251922e-07	
254	-6.05000e+00	4.259883e-07	
255	-6.10000e+00	4.268431e-07	
256	-6.15000e+00	4.277603e-07	
257	-6.20000e+00	4.287441e-07	
258	-6.25000e+00	4.297985e-07	
259	-6.30000e+00	4.309278e-07	
260	-6.35000e+00	4.321363e-07	
261	-6.40000e+00	4.334287e-07	
262	-6.45000e+00	4.348097e-07	
263	-6.50000e+00	4.362843e-07	
264	-6.55000e+00	4.378573e-07	
265	-6.60000e+00	4.395342e-07	
266	0.000000e+00	0.000000e+00	
267	-5.00000e-02	9.854086e-08	
268	-1.00000e-01	1.935426e-07	
269	-1.50000e-01	2.850078e-07	
270	-2.00000e-01	3.729389e-07	
271	-2.50000e-01	4.573386e-07	
272	-3.00000e-01	5.382095e-07	
273	-3.50000e-01	6.155543e-07	
274	-4.00000e-01	6.893756e-07	
275	-4.50000e-01	7.596763e-07	
276	-5.00000e-01	8.264591e-07	
277	-5.50000e-01	8.897271e-07	
278	-6.00000e-01	9.494834e-07	
279	-6.50000e-01	1.005731e-06	
280	-7.00000e-01	1.058475e-06	
281	-7.50000e-01	1.107717e-06	
282	-8.00000e-01	1.153464e-06	
283	-8.50000e-01	1.195720e-06	
284	-9.00000e-01	1.234493e-06	
285	-9.50000e-01	1.269791e-06	
286	-1.00000e+00	1.301625e-06	

Index   v-sweep         i(vds)          
--------------------------------------------------------------------------------
287	-1.05000e+00	1.330014e-06	
288	-1.10000e+00	1.354980e-06	
289	-1.15000e+00	1.376564e-06	
290	-1.20000e+00	1.394826e-06	
291	-1.25000e+00	1.409868e-06	
292	-1.30000e+00	1.421854e-06	
293	-1.35000e+00	1.431048e-06	
294	-1.40000e+00	1.437835e-06	
295	-1.45000e+00	1.442706e-06	
296	-1.50000e+00	1.446178e-06	
297	-1.55000e+00	1.448707e-06	
298	-1.60000e+00	1.450627e-06	
299	-1.65000e+00	1.452159e-06	
300	-1.70000e+00	1.453439e-06	
301	-1.75000e+00	1.454550e-06	
302	-1.80000e+00	1.455544e-06	
303	-1.85000e+00	1.456453e-06	
304	-1.90000e+00	1.457298e-06	
305	-1.95000e+00	1.458094e-06	
306	-2.00000e+00	1.458851e-06	
307	-2.05000e+00	1.459576e-06	
308	-2.10000e+00	1.460273e-06	
309	-2.15000e+00	1.460949e-06	
310	-2.20000e+00	1.461605e-06	
311	-2.25000e+00	1.462244e-06	
312	-2.30000e+00	1.462868e-06	
313	-2.35000e+00	1.463479e-06	
314	-2.40000e+00	1.464078e-06	
315	-2.45000e+00	1.464667e-06	
316	-2.50000e+00	1.465246e-06	
317	-2.55000e+00	1.465816e-06	
318	-2.60000e+00	1.466379e-06	
319	-2.65000e+00	1.466934e-06	
320	-2.70000e+00	1.467482e-06	
321	-2.75000e+00	1.468023e-06	
322	-2.80000e+00	1.468559e-06	
323	-2.85000e+00	1.469090e-06	
324	-2.90000e+00	1.469615e-06	
325	-2.95000e+00	1.470136e-06	
326	-3.00000e+00	1.470652e-06	
327	-3.05000e+00	1.471164e-06	
328	-3.10000e+00	1.471671e-06	
329	-3.15000e+00	1.472176e-06	
330	-3.20000e+00	1.472676e-06	
331	-3.25000e+00	1.473173e-06	
332	-3.30000e+00	1.473667e-06	
333	-3.35000e+00	1.474158e-06	
334	-3.40000e+00	1.474646e-06	
335	-3.45000e+00	1.475132e-06	
336	-3.50000e+00	1.475614e-06	
337	-3.55000e+00	1.476095e-06	
338	-3.60000e+00	1.476572e-06	
339	-3.65000e+00	1.477048e-06	
340	-3.70000e+00	1.477521e-06	
341	-3.75000e+00	1.477992e-06	
342	-3.80000e+00	1.478462e-06	
343	-3.85000e+00	1.478929e-06	
344	-3.90000e+00	1.479394e-06	

Index   v-sweep         i(vds)          
--------------------------------------------------------------------------------
345	-3.95000e+00	1.479858e-06	
346	-4.00000e+00	1.480320e-06	
347	-4.05000e+00	1.480780e-06	
348	-4.10000e+00	1.481239e-06	
349	-4.15000e+00	1.481696e-06	
350	-4.20000e+00	1.482152e-06	
351	-4.25000e+00	1.482607e-06	
352	-4.30000e+00	1.483061e-06	
353	-4.35000e+00	1.483513e-06	
354	-4.40000e+00	1.483965e-06	
355	-4.45000e+00	1.484416e-06	
356	-4.50000e+00	1.484867e-06	
357	-4.55000e+00	1.485317e-06	
358	-4.60000e+00	1.485768e-06	
359	-4.65000e+00	1.486218e-06	
360	-4.70000e+00	1.486670e-06	
361	-4.75000e+00	1.487122e-06	
362	-4.80000e+00	1.487576e-06	
363	-4.85000e+00	1.488032e-06	
364	-4.90000e+00	1.488491e-06	
365	-4.95000e+00	1.488953e-06	
366	-5.00000e+00	1.489420e-06	
367	-5.05000e+00	1.489891e-06	
368	-5.10000e+00	1.490369e-06	
369	-5.15000e+00	1.490855e-06	
370	-5.20000e+00	1.491349e-06	
371	-5.25000e+00	1.491854e-06	
372	-5.30000e+00	1.492371e-06	
373	-5.35000e+00	1.492902e-06	
374	-5.40000e+00	1.493448e-06	
375	-5.45000e+00	1.494013e-06	
376	-5.50000e+00	1.494599e-06	
377	-5.55000e+00	1.495208e-06	
378	-5.60000e+00	1.495844e-06	
379	-5.65000e+00	1.496510e-06	
380	-5.70000e+00	1.497210e-06	
381	-5.75000e+00	1.497946e-06	
382	-5.80000e+00	1.498725e-06	
383	-5.85000e+00	1.499549e-06	
384	-5.90000e+00	1.500425e-06	
385	-5.95000e+00	1.501357e-06	
386	-6.00000e+00	1.502350e-06	
387	-6.05000e+00	1.503412e-06	
388	-6.10000e+00	1.504548e-06	
389	-6.15000e+00	1.505766e-06	
390	-6.20000e+00	1.507072e-06	
391	-6.25000e+00	1.508474e-06	
392	-6.30000e+00	1.509981e-06	
393	-6.35000e+00	1.511600e-06	
394	-6.40000e+00	1.513342e-06	
395	-6.45000e+00	1.515216e-06	
396	-6.50000e+00	1.517231e-06	
397	-6.55000e+00	1.519399e-06	
398	-6.60000e+00	1.521730e-06	
399	0.000000e+00	0.000000e+00	
400	-5.00000e-02	1.391723e-07	
401	-1.00000e-01	2.750245e-07	
402	-1.50000e-01	4.075589e-07	

Index   v-sweep         i(vds)          
--------------------------------------------------------------------------------
403	-2.00000e-01	5.367775e-07	
404	-2.50000e-01	6.626824e-07	
405	-3.00000e-01	7.852758e-07	
406	-3.50000e-01	9.045598e-07	
407	-4.00000e-01	1.020537e-06	
408	-4.50000e-01	1.133208e-06	
409	-5.00000e-01	1.242577e-06	
410	-5.50000e-01	1.348645e-06	
411	-6.00000e-01	1.451414e-06	
412	-6.50000e-01	1.550887e-06	
413	-7.00000e-01	1.647065e-06	
414	-7.50000e-01	1.739952e-06	
415	-8.00000e-01	1.829548e-06	
416	-8.50000e-01	1.915858e-06	
417	-9.00000e-01	1.998882e-06	
418	-9.50000e-01	2.078623e-06	
419	-1.00000e+00	2.155084e-06	
420	-1.05000e+00	2.228268e-06	
421	-1.10000e+00	2.298176e-06	
422	-1.15000e+00	2.364812e-06	
423	-1.20000e+00	2.428178e-06	
424	-1.25000e+00	2.488278e-06	
425	-1.30000e+00	2.545116e-06	
426	-1.35000e+00	2.598694e-06	
427	-1.40000e+00	2.649018e-06	
428	-1.45000e+00	2.696092e-06	
429	-1.50000e+00	2.739923e-06	
430	-1.55000e+00	2.780519e-06	
431	-1.60000e+00	2.817889e-06	
432	-1.65000e+00	2.852045e-06	
433	-1.70000e+00	2.883006e-06	
434	-1.75000e+00	2.910795e-06	
435	-1.80000e+00	2.935447e-06	
436	-1.85000e+00	2.957015e-06	
437	-1.90000e+00	2.975573e-06	
438	-1.95000e+00	2.991238e-06	
439	-2.00000e+00	3.004177e-06	
440	-2.05000e+00	3.014631e-06	
441	-2.10000e+00	3.022914e-06	
442	-2.15000e+00	3.029403e-06	
443	-2.20000e+00	3.034493e-06	
444	-2.25000e+00	3.038547e-06	
445	-2.30000e+00	3.041859e-06	
446	-2.35000e+00	3.044650e-06	
447	-2.40000e+00	3.047073e-06	
448	-2.45000e+00	3.049231e-06	
449	-2.50000e+00	3.051196e-06	
450	-2.55000e+00	3.053015e-06	
451	-2.60000e+00	3.054720e-06	
452	-2.65000e+00	3.056336e-06	
453	-2.70000e+00	3.057878e-06	
454	-2.75000e+00	3.059361e-06	
455	-2.80000e+00	3.060792e-06	
456	-2.85000e+00	3.062181e-06	
457	-2.90000e+00	3.063531e-06	
458	-2.95000e+00	3.064849e-06	
459	-3.00000e+00	3.066137e-06	
460	-3.05000e+00	3.067400e-06	

Index   v-sweep         i(vds)          
--------------------------------------------------------------------------------
461	-3.10000e+00	3.068640e-06	
462	-3.15000e+00	3.069858e-06	
463	-3.20000e+00	3.071057e-06	
464	-3.25000e+00	3.072239e-06	
465	-3.30000e+00	3.073405e-06	
466	-3.35000e+00	3.074556e-06	
467	-3.40000e+00	3.075694e-06	
468	-3.45000e+00	3.076819e-06	
469	-3.50000e+00	3.077932e-06	
470	-3.55000e+00	3.079034e-06	
471	-3.60000e+00	3.080126e-06	
472	-3.65000e+00	3.081208e-06	
473	-3.70000e+00	3.082281e-06	
474	-3.75000e+00	3.083346e-06	
475	-3.80000e+00	3.084403e-06	
476	-3.85000e+00	3.085452e-06	
477	-3.90000e+00	3.086493e-06	
478	-3.95000e+00	3.087528e-06	
479	-4.00000e+00	3.088557e-06	
480	-4.05000e+00	3.089579e-06	
481	-4.10000e+00	3.090596e-06	
482	-4.15000e+00	3.091607e-06	
483	-4.20000e+00	3.092612e-06	
484	-4.25000e+00	3.093613e-06	
485	-4.30000e+00	3.094609e-06	
486	-4.35000e+00	3.095600e-06	
487	-4.40000e+00	3.096586e-06	
488	-4.45000e+00	3.097568e-06	
489	-4.50000e+00	3.098546e-06	
490	-4.55000e+00	3.099521e-06	
491	-4.60000e+00	3.100491e-06	
492	-4.65000e+00	3.101458e-06	
493	-4.70000e+00	3.102421e-06	
494	-4.75000e+00	3.103381e-06	
495	-4.80000e+00	3.104338e-06	
496	-4.85000e+00	3.105293e-06	
497	-4.90000e+00	3.106244e-06	
498	-4.95000e+00	3.107193e-06	
499	-5.00000e+00	3.108139e-06	
500	-5.05000e+00	3.109084e-06	
501	-5.10000e+00	3.110027e-06	
502	-5.15000e+00	3.110968e-06	
503	-5.20000e+00	3.111908e-06	
504	-5.25000e+00	3.112848e-06	
505	-5.30000e+00	3.113788e-06	
506	-5.35000e+00	3.114729e-06	
507	-5.40000e+00	3.115671e-06	
508	-5.45000e+00	3.116615e-06	
509	-5.50000e+00	3.117563e-06	
510	-5.55000e+00	3.118515e-06	
511	-5.60000e+00	3.119472e-06	
512	-5.65000e+00	3.120437e-06	
513	-5.70000e+00	3.121411e-06	
514	-5.75000e+00	3.122396e-06	
515	-5.80000e+00	3.123394e-06	
516	-5.85000e+00	3.124408e-06	
517	-5.90000e+00	3.125440e-06	
518	-5.95000e+00	3.126493e-06	

Index   v-sweep         i(vds)          
--------------------------------------------------------------------------------
519	-6.00000e+00	3.127572e-06	
520	-6.05000e+00	3.128680e-06	
521	-6.10000e+00	3.129821e-06	
522	-6.15000e+00	3.131000e-06	
523	-6.20000e+00	3.132223e-06	
524	-6.25000e+00	3.133494e-06	
525	-6.30000e+00	3.134822e-06	
526	-6.35000e+00	3.136211e-06	
527	-6.40000e+00	3.137671e-06	
528	-6.45000e+00	3.139208e-06	
529	-6.50000e+00	3.140832e-06	
530	-6.55000e+00	3.142553e-06	
531	-6.60000e+00	3.144380e-06	
532	0.000000e+00	0.000000e+00	
533	-5.00000e-02	1.748516e-07	
534	-1.00000e-01	3.465954e-07	
535	-1.50000e-01	5.152332e-07	
536	-2.00000e-01	6.807668e-07	
537	-2.50000e-01	8.431980e-07	
538	-3.00000e-01	1.002529e-06	
539	-3.50000e-01	1.158761e-06	
540	-4.00000e-01	1.311896e-06	
541	-4.50000e-01	1.461936e-06	
542	-5.00000e-01	1.608882e-06	
543	-5.50000e-01	1.752737e-06	
544	-6.00000e-01	1.893502e-06	
545	-6.50000e-01	2.031180e-06	
546	-7.00000e-01	2.165771e-06	
547	-7.50000e-01	2.297278e-06	
548	-8.00000e-01	2.425703e-06	
549	-8.50000e-01	2.551047e-06	
550	-9.00000e-01	2.673312e-06	
551	-9.50000e-01	2.792500e-06	
552	-1.00000e+00	2.908613e-06	
553	-1.05000e+00	3.021653e-06	
554	-1.10000e+00	3.131622e-06	
555	-1.15000e+00	3.238521e-06	
556	-1.20000e+00	3.342353e-06	
557	-1.25000e+00	3.443119e-06	
558	-1.30000e+00	3.540822e-06	
559	-1.35000e+00	3.635462e-06	
560	-1.40000e+00	3.727043e-06	
561	-1.45000e+00	3.815566e-06	
562	-1.50000e+00	3.901034e-06	
563	-1.55000e+00	3.983448e-06	
564	-1.60000e+00	4.062811e-06	
565	-1.65000e+00	4.139124e-06	
566	-1.70000e+00	4.212391e-06	
567	-1.75000e+00	4.282614e-06	
568	-1.80000e+00	4.349796e-06	
569	-1.85000e+00	4.413938e-06	
570	-1.90000e+00	4.475046e-06	
571	-1.95000e+00	4.533121e-06	
572	-2.00000e+00	4.588167e-06	
573	-2.05000e+00	4.640190e-06	
574	-2.10000e+00	4.689194e-06	
575	-2.15000e+00	4.735185e-06	
576	-2.20000e+00	4.778171e-06	

Index   v-sweep         i(vds)          
--------------------------------------------------------------------------------
577	-2.25000e+00	4.818161e-06	
578	-2.30000e+00	4.855166e-06	
579	-2.35000e+00	4.889201e-06	
580	-2.40000e+00	4.920288e-06	
581	-2.45000e+00	4.948454e-06	
582	-2.50000e+00	4.973737e-06	
583	-2.55000e+00	4.996190e-06	
584	-2.60000e+00	5.015889e-06	
585	-2.65000e+00	5.032941e-06	
586	-2.70000e+00	5.047493e-06	
587	-2.75000e+00	5.059741e-06	
588	-2.80000e+00	5.069936e-06	
589	-2.85000e+00	5.078369e-06	
590	-2.90000e+00	5.085356e-06	
591	-2.95000e+00	5.091201e-06	
592	-3.00000e+00	5.096172e-06	
593	-3.05000e+00	5.100487e-06	
594	-3.10000e+00	5.104313e-06	
595	-3.15000e+00	5.107771e-06	
596	-3.20000e+00	5.110950e-06	
597	-3.25000e+00	5.113911e-06	
598	-3.30000e+00	5.116702e-06	
599	-3.35000e+00	5.119355e-06	
600	-3.40000e+00	5.121894e-06	
601	-3.45000e+00	5.124339e-06	
602	-3.50000e+00	5.126704e-06	
603	-3.55000e+00	5.129000e-06	
604	-3.60000e+00	5.131237e-06	
605	-3.65000e+00	5.133420e-06	
606	-3.70000e+00	5.135557e-06	
607	-3.75000e+00	5.137653e-06	
608	-3.80000e+00	5.139710e-06	
609	-3.85000e+00	5.141734e-06	
610	-3.90000e+00	5.143728e-06	
611	-3.95000e+00	5.145692e-06	
612	-4.00000e+00	5.147631e-06	
613	-4.05000e+00	5.149546e-06	
614	-4.10000e+00	5.151439e-06	
615	-4.15000e+00	5.153312e-06	
616	-4.20000e+00	5.155165e-06	
617	-4.25000e+00	5.157000e-06	
618	-4.30000e+00	5.158819e-06	
619	-4.35000e+00	5.160621e-06	
620	-4.40000e+00	5.162409e-06	
621	-4.45000e+00	5.164184e-06	
622	-4.50000e+00	5.165945e-06	
623	-4.55000e+00	5.167693e-06	
624	-4.60000e+00	5.169430e-06	
625	-4.65000e+00	5.171156e-06	
626	-4.70000e+00	5.172871e-06	
627	-4.75000e+00	5.174576e-06	
628	-4.80000e+00	5.176271e-06	
629	-4.85000e+00	5.177957e-06	
630	-4.90000e+00	5.179635e-06	
631	-4.95000e+00	5.181304e-06	
632	-5.00000e+00	5.182965e-06	
633	-5.05000e+00	5.184619e-06	
634	-5.10000e+00	5.186265e-06	

Index   v-sweep         i(vds)          
--------------------------------------------------------------------------------
635	-5.15000e+00	5.187904e-06	
636	-5.20000e+00	5.189536e-06	
637	-5.25000e+00	5.191162e-06	
638	-5.30000e+00	5.192782e-06	
639	-5.35000e+00	5.194396e-06	
640	-5.40000e+00	5.196004e-06	
641	-5.45000e+00	5.197607e-06	
642	-5.50000e+00	5.199204e-06	
643	-5.55000e+00	5.200797e-06	
644	-5.60000e+00	5.202385e-06	
645	-5.65000e+00	5.203969e-06	
646	-5.70000e+00	5.205550e-06	
647	-5.75000e+00	5.207127e-06	
648	-5.80000e+00	5.208700e-06	
649	-5.85000e+00	5.210272e-06	
650	-5.90000e+00	5.211842e-06	
651	-5.95000e+00	5.213411e-06	
652	-6.00000e+00	5.214979e-06	
653	-6.05000e+00	5.216549e-06	
654	-6.10000e+00	5.218120e-06	
655	-6.15000e+00	5.219695e-06	
656	-6.20000e+00	5.221275e-06	
657	-6.25000e+00	5.222862e-06	
658	-6.30000e+00	5.224458e-06	
659	-6.35000e+00	5.226065e-06	
660	-6.40000e+00	5.227686e-06	
661	-6.45000e+00	5.229325e-06	
662	-6.50000e+00	5.230984e-06	
663	-6.55000e+00	5.232668e-06	
664	-6.60000e+00	5.234382e-06	
665	0.000000e+00	0.000000e+00	
666	-5.00000e-02	2.062701e-07	
667	-1.00000e-01	4.096311e-07	
668	-1.50000e-01	6.100845e-07	
669	-2.00000e-01	8.076320e-07	
670	-2.50000e-01	1.002275e-06	
671	-3.00000e-01	1.194015e-06	
672	-3.50000e-01	1.382854e-06	
673	-4.00000e-01	1.568793e-06	
674	-4.50000e-01	1.751834e-06	
675	-5.00000e-01	1.931978e-06	
676	-5.50000e-01	2.109227e-06	
677	-6.00000e-01	2.283583e-06	
678	-6.50000e-01	2.455047e-06	
679	-7.00000e-01	2.623620e-06	
680	-7.50000e-01	2.789304e-06	
681	-8.00000e-01	2.952101e-06	
682	-8.50000e-01	3.112012e-06	
683	-9.00000e-01	3.269039e-06	
684	-9.50000e-01	3.423183e-06	
685	-1.00000e+00	3.574446e-06	
686	-1.05000e+00	3.722830e-06	
687	-1.10000e+00	3.868335e-06	
688	-1.15000e+00	4.010964e-06	
689	-1.20000e+00	4.150719e-06	
690	-1.25000e+00	4.287600e-06	
691	-1.30000e+00	4.421609e-06	
692	-1.35000e+00	4.552748e-06	

Index   v-sweep         i(vds)          
--------------------------------------------------------------------------------
693	-1.40000e+00	4.681019e-06	
694	-1.45000e+00	4.806423e-06	
695	-1.50000e+00	4.928961e-06	
696	-1.55000e+00	5.048636e-06	
697	-1.60000e+00	5.165448e-06	
698	-1.65000e+00	5.279400e-06	
699	-1.70000e+00	5.390493e-06	
700	-1.75000e+00	5.498729e-06	
701	-1.80000e+00	5.604110e-06	
702	-1.85000e+00	5.706636e-06	
703	-1.90000e+00	5.806311e-06	
704	-1.95000e+00	5.903135e-06	
705	-2.00000e+00	5.997110e-06	
706	-2.05000e+00	6.088238e-06	
707	-2.10000e+00	6.176522e-06	
708	-2.15000e+00	6.261962e-06	
709	-2.20000e+00	6.344561e-06	
710	-2.25000e+00	6.424321e-06	
711	-2.30000e+00	6.501244e-06	
712	-2.35000e+00	6.575332e-06	
713	-2.40000e+00	6.646588e-06	
714	-2.45000e+00	6.715013e-06	
715	-2.50000e+00	6.780611e-06	
716	-2.55000e+00	6.843385e-06	
717	-2.60000e+00	6.903338e-06	
718	-2.65000e+00	6.960473e-06	
719	-2.70000e+00	7.014794e-06	
720	-2.75000e+00	7.066307e-06	
721	-2.80000e+00	7.115016e-06	
722	-2.85000e+00	7.160928e-06	
723	-2.90000e+00	7.204052e-06	
724	-2.95000e+00	7.244396e-06	
725	-3.00000e+00	7.281973e-06	
726	-3.05000e+00	7.316800e-06	
727	-3.10000e+00	7.348896e-06	
728	-3.15000e+00	7.378288e-06	
729	-3.20000e+00	7.405013e-06	
730	-3.25000e+00	7.429118e-06	
731	-3.30000e+00	7.450669e-06	
732	-3.35000e+00	7.469755e-06	
733	-3.40000e+00	7.486493e-06	
734	-3.45000e+00	7.501036e-06	
735	-3.50000e+00	7.513576e-06	
736	-3.55000e+00	7.524340e-06	
737	-3.60000e+00	7.533579e-06	
738	-3.65000e+00	7.541550e-06	
739	-3.70000e+00	7.548499e-06	
740	-3.75000e+00	7.554641e-06	
741	-3.80000e+00	7.560152e-06	
742	-3.85000e+00	7.565174e-06	
743	-3.90000e+00	7.569812e-06	
744	-3.95000e+00	7.574149e-06	
745	-4.00000e+00	7.578243e-06	
746	-4.05000e+00	7.582140e-06	
747	-4.10000e+00	7.585874e-06	
748	-4.15000e+00	7.589472e-06	
749	-4.20000e+00	7.592954e-06	
750	-4.25000e+00	7.596336e-06	

Index   v-sweep         i(vds)          
--------------------------------------------------------------------------------
751	-4.30000e+00	7.599631e-06	
752	-4.35000e+00	7.602850e-06	
753	-4.40000e+00	7.606000e-06	
754	-4.45000e+00	7.609090e-06	
755	-4.50000e+00	7.612125e-06	
756	-4.55000e+00	7.615111e-06	
757	-4.60000e+00	7.618052e-06	
758	-4.65000e+00	7.620951e-06	
759	-4.70000e+00	7.623813e-06	
760	-4.75000e+00	7.626640e-06	
761	-4.80000e+00	7.629434e-06	
762	-4.85000e+00	7.632198e-06	
763	-4.90000e+00	7.634935e-06	
764	-4.95000e+00	7.637645e-06	
765	-5.00000e+00	7.640330e-06	
766	-5.05000e+00	7.642993e-06	
767	-5.10000e+00	7.645634e-06	
768	-5.15000e+00	7.648254e-06	
769	-5.20000e+00	7.650856e-06	
770	-5.25000e+00	7.653439e-06	
771	-5.30000e+00	7.656005e-06	
772	-5.35000e+00	7.658555e-06	
773	-5.40000e+00	7.661089e-06	
774	-5.45000e+00	7.663608e-06	
775	-5.50000e+00	7.666113e-06	
776	-5.55000e+00	7.668605e-06	
777	-5.60000e+00	7.671084e-06	
778	-5.65000e+00	7.673550e-06	
779	-5.70000e+00	7.676005e-06	
780	-5.75000e+00	7.678449e-06	
781	-5.80000e+00	7.680882e-06	
782	-5.85000e+00	7.683305e-06	
783	-5.90000e+00	7.685717e-06	
784	-5.95000e+00	7.688121e-06	
785	-6.00000e+00	7.690515e-06	
786	-6.05000e+00	7.692900e-06	
787	-6.10000e+00	7.695277e-06	
788	-6.15000e+00	7.697647e-06	
789	-6.20000e+00	7.700008e-06	
790	-6.25000e+00	7.702363e-06	
791	-6.30000e+00	7.704710e-06	
792	-6.35000e+00	7.707052e-06	
793	-6.40000e+00	7.709387e-06	
794	-6.45000e+00	7.711717e-06	
795	-6.50000e+00	7.714043e-06	
796	-6.55000e+00	7.716365e-06	
797	-6.60000e+00	7.718684e-06	
Note: No ".plot", ".print", or ".fourier" lines; no simulations run
