
Note: Compatibility modes selected: hs

Warning: m=xx on .subckt line will override multiplier m hierarchy!


Circuit: ***************************

Doing analysis at TEMP = 125.000000 and TNOM = 125.000000


No. of Data Rows : 798
                          ***************************
                          DC transfer characteristic  Mon Jan  9 13:57:53  2023
--------------------------------------------------------------------------------
Index   v-sweep         i(vds)          
--------------------------------------------------------------------------------
0	0.000000e+00	0.000000e+00	
1	-5.00000e-02	2.424092e-06	
2	-1.00000e-01	4.227690e-06	
3	-1.50000e-01	5.491648e-06	
4	-2.00000e-01	6.264289e-06	
5	-2.50000e-01	6.642203e-06	
6	-3.00000e-01	6.794937e-06	
7	-3.50000e-01	6.862383e-06	
8	-4.00000e-01	6.901859e-06	
9	-4.50000e-01	6.930791e-06	
10	-5.00000e-01	6.954773e-06	
11	-5.50000e-01	6.975928e-06	
12	-6.00000e-01	6.995211e-06	
13	-6.50000e-01	7.013120e-06	
14	-7.00000e-01	7.029947e-06	
15	-7.50000e-01	7.045881e-06	
16	-8.00000e-01	7.061054e-06	
17	-8.50000e-01	7.075565e-06	
18	-9.00000e-01	7.089490e-06	
19	-9.50000e-01	7.102889e-06	
20	-1.00000e+00	7.115815e-06	
21	-1.05000e+00	7.128308e-06	
22	-1.10000e+00	7.140406e-06	
23	-1.15000e+00	7.152140e-06	
24	-1.20000e+00	7.163537e-06	
25	-1.25000e+00	7.174622e-06	
26	-1.30000e+00	7.185416e-06	
27	-1.35000e+00	7.195938e-06	
28	-1.40000e+00	7.206207e-06	
29	-1.45000e+00	7.216238e-06	
30	-1.50000e+00	7.226044e-06	
31	-1.55000e+00	7.235640e-06	
32	-1.60000e+00	7.245036e-06	
33	-1.65000e+00	7.254244e-06	
34	-1.70000e+00	7.263273e-06	
35	-1.75000e+00	7.272134e-06	
36	-1.80000e+00	7.280833e-06	
37	-1.85000e+00	7.289380e-06	
38	-1.90000e+00	7.297781e-06	
39	-1.95000e+00	7.306043e-06	
40	-2.00000e+00	7.314173e-06	
41	-2.05000e+00	7.322176e-06	
42	-2.10000e+00	7.330059e-06	
43	-2.15000e+00	7.337825e-06	
44	-2.20000e+00	7.345480e-06	
45	-2.25000e+00	7.353029e-06	
46	-2.30000e+00	7.360476e-06	
47	-2.35000e+00	7.367824e-06	
48	-2.40000e+00	7.375078e-06	
49	-2.45000e+00	7.382241e-06	
50	-2.50000e+00	7.389316e-06	
51	-2.55000e+00	7.396307e-06	
52	-2.60000e+00	7.403217e-06	
53	-2.65000e+00	7.410049e-06	
54	-2.70000e+00	7.416804e-06	

Index   v-sweep         i(vds)          
--------------------------------------------------------------------------------
55	-2.75000e+00	7.423487e-06	
56	-2.80000e+00	7.430099e-06	
57	-2.85000e+00	7.436644e-06	
58	-2.90000e+00	7.443122e-06	
59	-2.95000e+00	7.449537e-06	
60	-3.00000e+00	7.455891e-06	
61	-3.05000e+00	7.462185e-06	
62	-3.10000e+00	7.468423e-06	
63	-3.15000e+00	7.474606e-06	
64	-3.20000e+00	7.480737e-06	
65	-3.25000e+00	7.486818e-06	
66	-3.30000e+00	7.492851e-06	
67	-3.35000e+00	7.498839e-06	
68	-3.40000e+00	7.504785e-06	
69	-3.45000e+00	7.510691e-06	
70	-3.50000e+00	7.516560e-06	
71	-3.55000e+00	7.522396e-06	
72	-3.60000e+00	7.528203e-06	
73	-3.65000e+00	7.533985e-06	
74	-3.70000e+00	7.539746e-06	
75	-3.75000e+00	7.545491e-06	
76	-3.80000e+00	7.551225e-06	
77	-3.85000e+00	7.556956e-06	
78	-3.90000e+00	7.562690e-06	
79	-3.95000e+00	7.568433e-06	
80	-4.00000e+00	7.574196e-06	
81	-4.05000e+00	7.579986e-06	
82	-4.10000e+00	7.585814e-06	
83	-4.15000e+00	7.591692e-06	
84	-4.20000e+00	7.597632e-06	
85	-4.25000e+00	7.603647e-06	
86	-4.30000e+00	7.609751e-06	
87	-4.35000e+00	7.615963e-06	
88	-4.40000e+00	7.622298e-06	
89	-4.45000e+00	7.628776e-06	
90	-4.50000e+00	7.635418e-06	
91	-4.55000e+00	7.642246e-06	
92	-4.60000e+00	7.649285e-06	
93	-4.65000e+00	7.656561e-06	
94	-4.70000e+00	7.664101e-06	
95	-4.75000e+00	7.671936e-06	
96	-4.80000e+00	7.680097e-06	
97	-4.85000e+00	7.688620e-06	
98	-4.90000e+00	7.697540e-06	
99	-4.95000e+00	7.706897e-06	
100	-5.00000e+00	7.716732e-06	
101	-5.05000e+00	7.727088e-06	
102	-5.10000e+00	7.738012e-06	
103	-5.15000e+00	7.749553e-06	
104	-5.20000e+00	7.761762e-06	
105	-5.25000e+00	7.774693e-06	
106	-5.30000e+00	7.788403e-06	
107	-5.35000e+00	7.802953e-06	
108	-5.40000e+00	7.818403e-06	
109	-5.45000e+00	7.834821e-06	
110	-5.50000e+00	7.852274e-06	
111	-5.55000e+00	7.870834e-06	
112	-5.60000e+00	7.890575e-06	

Index   v-sweep         i(vds)          
--------------------------------------------------------------------------------
113	-5.65000e+00	7.911574e-06	
114	-5.70000e+00	7.933912e-06	
115	-5.75000e+00	7.957672e-06	
116	-5.80000e+00	7.982941e-06	
117	-5.85000e+00	8.009809e-06	
118	-5.90000e+00	8.038367e-06	
119	-5.95000e+00	8.068713e-06	
120	-6.00000e+00	8.100944e-06	
121	-6.05000e+00	8.135164e-06	
122	-6.10000e+00	8.171477e-06	
123	-6.15000e+00	8.209991e-06	
124	-6.20000e+00	8.250817e-06	
125	-6.25000e+00	8.294071e-06	
126	-6.30000e+00	8.339869e-06	
127	-6.35000e+00	8.388332e-06	
128	-6.40000e+00	8.439584e-06	
129	-6.45000e+00	8.493750e-06	
130	-6.50000e+00	8.550960e-06	
131	-6.55000e+00	8.611347e-06	
132	-6.60000e+00	8.675045e-06	
133	0.000000e+00	0.000000e+00	
134	-5.00000e-02	1.112403e-05	
135	-1.00000e-01	2.157244e-05	
136	-1.50000e-01	3.141688e-05	
137	-2.00000e-01	4.067574e-05	
138	-2.50000e-01	4.935509e-05	
139	-3.00000e-01	5.745809e-05	
140	-3.50000e-01	6.498728e-05	
141	-4.00000e-01	7.194513e-05	
142	-4.50000e-01	7.833413e-05	
143	-5.00000e-01	8.415695e-05	
144	-5.50000e-01	8.941651e-05	
145	-6.00000e-01	9.411621e-05	
146	-6.50000e-01	9.826020e-05	
147	-7.00000e-01	1.018541e-04	
148	-7.50000e-01	1.049061e-04	
149	-8.00000e-01	1.074296e-04	
150	-8.50000e-01	1.094476e-04	
151	-9.00000e-01	1.110000e-04	
152	-9.50000e-01	1.121520e-04	
153	-1.00000e+00	1.129930e-04	
154	-1.05000e+00	1.136195e-04	
155	-1.10000e+00	1.141102e-04	
156	-1.15000e+00	1.145176e-04	
157	-1.20000e+00	1.148719e-04	
158	-1.25000e+00	1.151902e-04	
159	-1.30000e+00	1.154825e-04	
160	-1.35000e+00	1.157546e-04	
161	-1.40000e+00	1.160104e-04	
162	-1.45000e+00	1.162527e-04	
163	-1.50000e+00	1.164833e-04	
164	-1.55000e+00	1.167037e-04	
165	-1.60000e+00	1.169150e-04	
166	-1.65000e+00	1.171182e-04	
167	-1.70000e+00	1.173141e-04	
168	-1.75000e+00	1.175033e-04	
169	-1.80000e+00	1.176863e-04	
170	-1.85000e+00	1.178638e-04	

Index   v-sweep         i(vds)          
--------------------------------------------------------------------------------
171	-1.90000e+00	1.180360e-04	
172	-1.95000e+00	1.182034e-04	
173	-2.00000e+00	1.183664e-04	
174	-2.05000e+00	1.185251e-04	
175	-2.10000e+00	1.186799e-04	
176	-2.15000e+00	1.188310e-04	
177	-2.20000e+00	1.189787e-04	
178	-2.25000e+00	1.191231e-04	
179	-2.30000e+00	1.192644e-04	
180	-2.35000e+00	1.194029e-04	
181	-2.40000e+00	1.195385e-04	
182	-2.45000e+00	1.196716e-04	
183	-2.50000e+00	1.198022e-04	
184	-2.55000e+00	1.199305e-04	
185	-2.60000e+00	1.200565e-04	
186	-2.65000e+00	1.201803e-04	
187	-2.70000e+00	1.203021e-04	
188	-2.75000e+00	1.204220e-04	
189	-2.80000e+00	1.205400e-04	
190	-2.85000e+00	1.206562e-04	
191	-2.90000e+00	1.207707e-04	
192	-2.95000e+00	1.208836e-04	
193	-3.00000e+00	1.209949e-04	
194	-3.05000e+00	1.211047e-04	
195	-3.10000e+00	1.212130e-04	
196	-3.15000e+00	1.213200e-04	
197	-3.20000e+00	1.214255e-04	
198	-3.25000e+00	1.215298e-04	
199	-3.30000e+00	1.216329e-04	
200	-3.35000e+00	1.217347e-04	
201	-3.40000e+00	1.218354e-04	
202	-3.45000e+00	1.219349e-04	
203	-3.50000e+00	1.220334e-04	
204	-3.55000e+00	1.221308e-04	
205	-3.60000e+00	1.222272e-04	
206	-3.65000e+00	1.223226e-04	
207	-3.70000e+00	1.224171e-04	
208	-3.75000e+00	1.225107e-04	
209	-3.80000e+00	1.226034e-04	
210	-3.85000e+00	1.226953e-04	
211	-3.90000e+00	1.227863e-04	
212	-3.95000e+00	1.228766e-04	
213	-4.00000e+00	1.229661e-04	
214	-4.05000e+00	1.230550e-04	
215	-4.10000e+00	1.231432e-04	
216	-4.15000e+00	1.232308e-04	
217	-4.20000e+00	1.233178e-04	
218	-4.25000e+00	1.234043e-04	
219	-4.30000e+00	1.234904e-04	
220	-4.35000e+00	1.235760e-04	
221	-4.40000e+00	1.236614e-04	
222	-4.45000e+00	1.237465e-04	
223	-4.50000e+00	1.238315e-04	
224	-4.55000e+00	1.239164e-04	
225	-4.60000e+00	1.240013e-04	
226	-4.65000e+00	1.240864e-04	
227	-4.70000e+00	1.241718e-04	
228	-4.75000e+00	1.242577e-04	

Index   v-sweep         i(vds)          
--------------------------------------------------------------------------------
229	-4.80000e+00	1.243441e-04	
230	-4.85000e+00	1.244314e-04	
231	-4.90000e+00	1.245196e-04	
232	-4.95000e+00	1.246090e-04	
233	-5.00000e+00	1.246998e-04	
234	-5.05000e+00	1.247924e-04	
235	-5.10000e+00	1.248869e-04	
236	-5.15000e+00	1.249836e-04	
237	-5.20000e+00	1.250830e-04	
238	-5.25000e+00	1.251854e-04	
239	-5.30000e+00	1.252911e-04	
240	-5.35000e+00	1.254006e-04	
241	-5.40000e+00	1.255143e-04	
242	-5.45000e+00	1.256327e-04	
243	-5.50000e+00	1.257563e-04	
244	-5.55000e+00	1.258858e-04	
245	-5.60000e+00	1.260216e-04	
246	-5.65000e+00	1.261643e-04	
247	-5.70000e+00	1.263148e-04	
248	-5.75000e+00	1.264736e-04	
249	-5.80000e+00	1.266416e-04	
250	-5.85000e+00	1.268194e-04	
251	-5.90000e+00	1.270080e-04	
252	-5.95000e+00	1.272082e-04	
253	-6.00000e+00	1.274210e-04	
254	-6.05000e+00	1.276473e-04	
255	-6.10000e+00	1.278881e-04	
256	-6.15000e+00	1.281445e-04	
257	-6.20000e+00	1.284177e-04	
258	-6.25000e+00	1.287087e-04	
259	-6.30000e+00	1.290188e-04	
260	-6.35000e+00	1.293492e-04	
261	-6.40000e+00	1.297013e-04	
262	-6.45000e+00	1.300765e-04	
263	-6.50000e+00	1.304760e-04	
264	-6.55000e+00	1.309015e-04	
265	-6.60000e+00	1.313543e-04	
266	0.000000e+00	0.000000e+00	
267	-5.00000e-02	1.816695e-05	
268	-1.00000e-01	3.568817e-05	
269	-1.50000e-01	5.263495e-05	
270	-2.00000e-01	6.902539e-05	
271	-2.50000e-01	8.486515e-05	
272	-3.00000e-01	1.001570e-04	
273	-3.50000e-01	1.149031e-04	
274	-4.00000e-01	1.291054e-04	
275	-4.50000e-01	1.427657e-04	
276	-5.00000e-01	1.558860e-04	
277	-5.50000e-01	1.684681e-04	
278	-6.00000e-01	1.805140e-04	
279	-6.50000e-01	1.920256e-04	
280	-7.00000e-01	2.030047e-04	
281	-7.50000e-01	2.134532e-04	
282	-8.00000e-01	2.233731e-04	
283	-8.50000e-01	2.327663e-04	
284	-9.00000e-01	2.416348e-04	
285	-9.50000e-01	2.499807e-04	
286	-1.00000e+00	2.578059e-04	

Index   v-sweep         i(vds)          
--------------------------------------------------------------------------------
287	-1.05000e+00	2.651129e-04	
288	-1.10000e+00	2.719038e-04	
289	-1.15000e+00	2.781813e-04	
290	-1.20000e+00	2.839484e-04	
291	-1.25000e+00	2.892086e-04	
292	-1.30000e+00	2.939663e-04	
293	-1.35000e+00	2.982273e-04	
294	-1.40000e+00	3.019997e-04	
295	-1.45000e+00	3.052954e-04	
296	-1.50000e+00	3.081324e-04	
297	-1.55000e+00	3.105377e-04	
298	-1.60000e+00	3.125512e-04	
299	-1.65000e+00	3.142261e-04	
300	-1.70000e+00	3.156257e-04	
301	-1.75000e+00	3.168140e-04	
302	-1.80000e+00	3.178460e-04	
303	-1.85000e+00	3.187637e-04	
304	-1.90000e+00	3.195964e-04	
305	-1.95000e+00	3.203637e-04	
306	-2.00000e+00	3.210792e-04	
307	-2.05000e+00	3.217521e-04	
308	-2.10000e+00	3.223890e-04	
309	-2.15000e+00	3.229950e-04	
310	-2.20000e+00	3.235739e-04	
311	-2.25000e+00	3.241288e-04	
312	-2.30000e+00	3.246621e-04	
313	-2.35000e+00	3.251760e-04	
314	-2.40000e+00	3.256721e-04	
315	-2.45000e+00	3.261520e-04	
316	-2.50000e+00	3.266170e-04	
317	-2.55000e+00	3.270683e-04	
318	-2.60000e+00	3.275067e-04	
319	-2.65000e+00	3.279334e-04	
320	-2.70000e+00	3.283489e-04	
321	-2.75000e+00	3.287541e-04	
322	-2.80000e+00	3.291497e-04	
323	-2.85000e+00	3.295361e-04	
324	-2.90000e+00	3.299140e-04	
325	-2.95000e+00	3.302837e-04	
326	-3.00000e+00	3.306459e-04	
327	-3.05000e+00	3.310008e-04	
328	-3.10000e+00	3.313489e-04	
329	-3.15000e+00	3.316904e-04	
330	-3.20000e+00	3.320258e-04	
331	-3.25000e+00	3.323554e-04	
332	-3.30000e+00	3.326793e-04	
333	-3.35000e+00	3.329979e-04	
334	-3.40000e+00	3.333114e-04	
335	-3.45000e+00	3.336200e-04	
336	-3.50000e+00	3.339240e-04	
337	-3.55000e+00	3.342235e-04	
338	-3.60000e+00	3.345187e-04	
339	-3.65000e+00	3.348098e-04	
340	-3.70000e+00	3.350970e-04	
341	-3.75000e+00	3.353804e-04	
342	-3.80000e+00	3.356601e-04	
343	-3.85000e+00	3.359363e-04	
344	-3.90000e+00	3.362092e-04	

Index   v-sweep         i(vds)          
--------------------------------------------------------------------------------
345	-3.95000e+00	3.364787e-04	
346	-4.00000e+00	3.367452e-04	
347	-4.05000e+00	3.370086e-04	
348	-4.10000e+00	3.372691e-04	
349	-4.15000e+00	3.375268e-04	
350	-4.20000e+00	3.377817e-04	
351	-4.25000e+00	3.380340e-04	
352	-4.30000e+00	3.382838e-04	
353	-4.35000e+00	3.385311e-04	
354	-4.40000e+00	3.387760e-04	
355	-4.45000e+00	3.390187e-04	
356	-4.50000e+00	3.392592e-04	
357	-4.55000e+00	3.394975e-04	
358	-4.60000e+00	3.397339e-04	
359	-4.65000e+00	3.399683e-04	
360	-4.70000e+00	3.402009e-04	
361	-4.75000e+00	3.404318e-04	
362	-4.80000e+00	3.406611e-04	
363	-4.85000e+00	3.408888e-04	
364	-4.90000e+00	3.411152e-04	
365	-4.95000e+00	3.413404e-04	
366	-5.00000e+00	3.415646e-04	
367	-5.05000e+00	3.417878e-04	
368	-5.10000e+00	3.420104e-04	
369	-5.15000e+00	3.422324e-04	
370	-5.20000e+00	3.424543e-04	
371	-5.25000e+00	3.426762e-04	
372	-5.30000e+00	3.428984e-04	
373	-5.35000e+00	3.431213e-04	
374	-5.40000e+00	3.433452e-04	
375	-5.45000e+00	3.435706e-04	
376	-5.50000e+00	3.437979e-04	
377	-5.55000e+00	3.440276e-04	
378	-5.60000e+00	3.442603e-04	
379	-5.65000e+00	3.444965e-04	
380	-5.70000e+00	3.447369e-04	
381	-5.75000e+00	3.449823e-04	
382	-5.80000e+00	3.452334e-04	
383	-5.85000e+00	3.454912e-04	
384	-5.90000e+00	3.457565e-04	
385	-5.95000e+00	3.460303e-04	
386	-6.00000e+00	3.463137e-04	
387	-6.05000e+00	3.466080e-04	
388	-6.10000e+00	3.469143e-04	
389	-6.15000e+00	3.472341e-04	
390	-6.20000e+00	3.475687e-04	
391	-6.25000e+00	3.479198e-04	
392	-6.30000e+00	3.482890e-04	
393	-6.35000e+00	3.486780e-04	
394	-6.40000e+00	3.490887e-04	
395	-6.45000e+00	3.495230e-04	
396	-6.50000e+00	3.499832e-04	
397	-6.55000e+00	3.504713e-04	
398	-6.60000e+00	3.509898e-04	
399	0.000000e+00	0.000000e+00	
400	-5.00000e-02	2.412493e-05	
401	-1.00000e-01	4.763382e-05	
402	-1.50000e-01	7.059775e-05	

Index   v-sweep         i(vds)          
--------------------------------------------------------------------------------
403	-2.00000e-01	9.303459e-05	
404	-2.50000e-01	1.149498e-04	
405	-3.00000e-01	1.363459e-04	
406	-3.50000e-01	1.572249e-04	
407	-4.00000e-01	1.775884e-04	
408	-4.50000e-01	1.974381e-04	
409	-5.00000e-01	2.167757e-04	
410	-5.50000e-01	2.356029e-04	
411	-6.00000e-01	2.539213e-04	
412	-6.50000e-01	2.717326e-04	
413	-7.00000e-01	2.890384e-04	
414	-7.50000e-01	3.058403e-04	
415	-8.00000e-01	3.221400e-04	
416	-8.50000e-01	3.379391e-04	
417	-9.00000e-01	3.532393e-04	
418	-9.50000e-01	3.680421e-04	
419	-1.00000e+00	3.823491e-04	
420	-1.05000e+00	3.961621e-04	
421	-1.10000e+00	4.094826e-04	
422	-1.15000e+00	4.223123e-04	
423	-1.20000e+00	4.346527e-04	
424	-1.25000e+00	4.465055e-04	
425	-1.30000e+00	4.578724e-04	
426	-1.35000e+00	4.687549e-04	
427	-1.40000e+00	4.791548e-04	
428	-1.45000e+00	4.890738e-04	
429	-1.50000e+00	4.985137e-04	
430	-1.55000e+00	5.074761e-04	
431	-1.60000e+00	5.159630e-04	
432	-1.65000e+00	5.239764e-04	
433	-1.70000e+00	5.315184e-04	
434	-1.75000e+00	5.385911e-04	
435	-1.80000e+00	5.451974e-04	
436	-1.85000e+00	5.513401e-04	
437	-1.90000e+00	5.570229e-04	
438	-1.95000e+00	5.622502e-04	
439	-2.00000e+00	5.670280e-04	
440	-2.05000e+00	5.713642e-04	
441	-2.10000e+00	5.752697e-04	
442	-2.15000e+00	5.787599e-04	
443	-2.20000e+00	5.818564e-04	
444	-2.25000e+00	5.845887e-04	
445	-2.30000e+00	5.869945e-04	
446	-2.35000e+00	5.891183e-04	
447	-2.40000e+00	5.910072e-04	
448	-2.45000e+00	5.927057e-04	
449	-2.50000e+00	5.942518e-04	
450	-2.55000e+00	5.956757e-04	
451	-2.60000e+00	5.970003e-04	
452	-2.65000e+00	5.982425e-04	
453	-2.70000e+00	5.994153e-04	
454	-2.75000e+00	6.005283e-04	
455	-2.80000e+00	6.015892e-04	
456	-2.85000e+00	6.026041e-04	
457	-2.90000e+00	6.035778e-04	
458	-2.95000e+00	6.045145e-04	
459	-3.00000e+00	6.054175e-04	
460	-3.05000e+00	6.062900e-04	

Index   v-sweep         i(vds)          
--------------------------------------------------------------------------------
461	-3.10000e+00	6.071343e-04	
462	-3.15000e+00	6.079528e-04	
463	-3.20000e+00	6.087473e-04	
464	-3.25000e+00	6.095197e-04	
465	-3.30000e+00	6.102714e-04	
466	-3.35000e+00	6.110039e-04	
467	-3.40000e+00	6.117183e-04	
468	-3.45000e+00	6.124159e-04	
469	-3.50000e+00	6.130976e-04	
470	-3.55000e+00	6.137643e-04	
471	-3.60000e+00	6.144170e-04	
472	-3.65000e+00	6.150563e-04	
473	-3.70000e+00	6.156831e-04	
474	-3.75000e+00	6.162979e-04	
475	-3.80000e+00	6.169013e-04	
476	-3.85000e+00	6.174940e-04	
477	-3.90000e+00	6.180765e-04	
478	-3.95000e+00	6.186492e-04	
479	-4.00000e+00	6.192126e-04	
480	-4.05000e+00	6.197671e-04	
481	-4.10000e+00	6.203131e-04	
482	-4.15000e+00	6.208509e-04	
483	-4.20000e+00	6.213810e-04	
484	-4.25000e+00	6.219036e-04	
485	-4.30000e+00	6.224190e-04	
486	-4.35000e+00	6.229275e-04	
487	-4.40000e+00	6.234294e-04	
488	-4.45000e+00	6.239250e-04	
489	-4.50000e+00	6.244145e-04	
490	-4.55000e+00	6.248980e-04	
491	-4.60000e+00	6.253759e-04	
492	-4.65000e+00	6.258483e-04	
493	-4.70000e+00	6.263154e-04	
494	-4.75000e+00	6.267774e-04	
495	-4.80000e+00	6.272345e-04	
496	-4.85000e+00	6.276868e-04	
497	-4.90000e+00	6.281346e-04	
498	-4.95000e+00	6.285779e-04	
499	-5.00000e+00	6.290169e-04	
500	-5.05000e+00	6.294518e-04	
501	-5.10000e+00	6.298827e-04	
502	-5.15000e+00	6.303098e-04	
503	-5.20000e+00	6.307332e-04	
504	-5.25000e+00	6.311531e-04	
505	-5.30000e+00	6.315697e-04	
506	-5.35000e+00	6.319830e-04	
507	-5.40000e+00	6.323933e-04	
508	-5.45000e+00	6.328009e-04	
509	-5.50000e+00	6.332058e-04	
510	-5.55000e+00	6.336083e-04	
511	-5.60000e+00	6.340087e-04	
512	-5.65000e+00	6.344073e-04	
513	-5.70000e+00	6.348043e-04	
514	-5.75000e+00	6.352001e-04	
515	-5.80000e+00	6.355951e-04	
516	-5.85000e+00	6.359897e-04	
517	-5.90000e+00	6.363844e-04	
518	-5.95000e+00	6.367797e-04	

Index   v-sweep         i(vds)          
--------------------------------------------------------------------------------
519	-6.00000e+00	6.371762e-04	
520	-6.05000e+00	6.375746e-04	
521	-6.10000e+00	6.379756e-04	
522	-6.15000e+00	6.383799e-04	
523	-6.20000e+00	6.387886e-04	
524	-6.25000e+00	6.392026e-04	
525	-6.30000e+00	6.396229e-04	
526	-6.35000e+00	6.400508e-04	
527	-6.40000e+00	6.404876e-04	
528	-6.45000e+00	6.409346e-04	
529	-6.50000e+00	6.413935e-04	
530	-6.55000e+00	6.418658e-04	
531	-6.60000e+00	6.423535e-04	
532	0.000000e+00	0.000000e+00	
533	-5.00000e-02	2.933081e-05	
534	-1.00000e-01	5.807106e-05	
535	-1.50000e-01	8.629166e-05	
536	-2.00000e-01	1.140103e-04	
537	-2.50000e-01	1.412323e-04	
538	-3.00000e-01	1.679601e-04	
539	-3.50000e-01	1.941953e-04	
540	-4.00000e-01	2.199396e-04	
541	-4.50000e-01	2.451945e-04	
542	-5.00000e-01	2.699614e-04	
543	-5.50000e-01	2.942420e-04	
544	-6.00000e-01	3.180376e-04	
545	-6.50000e-01	3.413499e-04	
546	-7.00000e-01	3.641801e-04	
547	-7.50000e-01	3.865300e-04	
548	-8.00000e-01	4.084008e-04	
549	-8.50000e-01	4.297941e-04	
550	-9.00000e-01	4.507114e-04	
551	-9.50000e-01	4.711540e-04	
552	-1.00000e+00	4.911236e-04	
553	-1.05000e+00	5.106214e-04	
554	-1.10000e+00	5.296490e-04	
555	-1.15000e+00	5.482078e-04	
556	-1.20000e+00	5.662992e-04	
557	-1.25000e+00	5.839246e-04	
558	-1.30000e+00	6.010856e-04	
559	-1.35000e+00	6.177835e-04	
560	-1.40000e+00	6.340197e-04	
561	-1.45000e+00	6.497956e-04	
562	-1.50000e+00	6.651128e-04	
563	-1.55000e+00	6.799725e-04	
564	-1.60000e+00	6.943762e-04	
565	-1.65000e+00	7.083254e-04	
566	-1.70000e+00	7.218214e-04	
567	-1.75000e+00	7.348657e-04	
568	-1.80000e+00	7.474597e-04	
569	-1.85000e+00	7.596049e-04	
570	-1.90000e+00	7.713027e-04	
571	-1.95000e+00	7.825545e-04	
572	-2.00000e+00	7.933620e-04	
573	-2.05000e+00	8.037265e-04	
574	-2.10000e+00	8.136497e-04	
575	-2.15000e+00	8.231332e-04	
576	-2.20000e+00	8.321786e-04	

Index   v-sweep         i(vds)          
--------------------------------------------------------------------------------
577	-2.25000e+00	8.407878e-04	
578	-2.30000e+00	8.489626e-04	
579	-2.35000e+00	8.567052e-04	
580	-2.40000e+00	8.640178e-04	
581	-2.45000e+00	8.709031e-04	
582	-2.50000e+00	8.773641e-04	
583	-2.55000e+00	8.834047e-04	
584	-2.60000e+00	8.890294e-04	
585	-2.65000e+00	8.942443e-04	
586	-2.70000e+00	8.990571e-04	
587	-2.75000e+00	9.034784e-04	
588	-2.80000e+00	9.075221e-04	
589	-2.85000e+00	9.112067e-04	
590	-2.90000e+00	9.145562e-04	
591	-2.95000e+00	9.175998e-04	
592	-3.00000e+00	9.203713e-04	
593	-3.05000e+00	9.229061e-04	
594	-3.10000e+00	9.252389e-04	
595	-3.15000e+00	9.274008e-04	
596	-3.20000e+00	9.294183e-04	
597	-3.25000e+00	9.313131e-04	
598	-3.30000e+00	9.331026e-04	
599	-3.35000e+00	9.348005e-04	
600	-3.40000e+00	9.364181e-04	
601	-3.45000e+00	9.379645e-04	
602	-3.50000e+00	9.394471e-04	
603	-3.55000e+00	9.408724e-04	
604	-3.60000e+00	9.422456e-04	
605	-3.65000e+00	9.435714e-04	
606	-3.70000e+00	9.448537e-04	
607	-3.75000e+00	9.460959e-04	
608	-3.80000e+00	9.473012e-04	
609	-3.85000e+00	9.484722e-04	
610	-3.90000e+00	9.496114e-04	
611	-3.95000e+00	9.507209e-04	
612	-4.00000e+00	9.518027e-04	
613	-4.05000e+00	9.528586e-04	
614	-4.10000e+00	9.538900e-04	
615	-4.15000e+00	9.548985e-04	
616	-4.20000e+00	9.558855e-04	
617	-4.25000e+00	9.568520e-04	
618	-4.30000e+00	9.577993e-04	
619	-4.35000e+00	9.587283e-04	
620	-4.40000e+00	9.596400e-04	
621	-4.45000e+00	9.605352e-04	
622	-4.50000e+00	9.614149e-04	
623	-4.55000e+00	9.622796e-04	
624	-4.60000e+00	9.631302e-04	
625	-4.65000e+00	9.639672e-04	
626	-4.70000e+00	9.647913e-04	
627	-4.75000e+00	9.656030e-04	
628	-4.80000e+00	9.664029e-04	
629	-4.85000e+00	9.671915e-04	
630	-4.90000e+00	9.679692e-04	
631	-4.95000e+00	9.687365e-04	
632	-5.00000e+00	9.694938e-04	
633	-5.05000e+00	9.702414e-04	
634	-5.10000e+00	9.709797e-04	

Index   v-sweep         i(vds)          
--------------------------------------------------------------------------------
635	-5.15000e+00	9.717092e-04	
636	-5.20000e+00	9.724300e-04	
637	-5.25000e+00	9.731426e-04	
638	-5.30000e+00	9.738472e-04	
639	-5.35000e+00	9.745441e-04	
640	-5.40000e+00	9.752335e-04	
641	-5.45000e+00	9.759158e-04	
642	-5.50000e+00	9.765911e-04	
643	-5.55000e+00	9.772598e-04	
644	-5.60000e+00	9.779219e-04	
645	-5.65000e+00	9.785778e-04	
646	-5.70000e+00	9.792278e-04	
647	-5.75000e+00	9.798719e-04	
648	-5.80000e+00	9.805104e-04	
649	-5.85000e+00	9.811436e-04	
650	-5.90000e+00	9.817716e-04	
651	-5.95000e+00	9.823948e-04	
652	-6.00000e+00	9.830133e-04	
653	-6.05000e+00	9.836275e-04	
654	-6.10000e+00	9.842376e-04	
655	-6.15000e+00	9.848440e-04	
656	-6.20000e+00	9.854469e-04	
657	-6.25000e+00	9.860468e-04	
658	-6.30000e+00	9.866441e-04	
659	-6.35000e+00	9.872392e-04	
660	-6.40000e+00	9.878327e-04	
661	-6.45000e+00	9.884252e-04	
662	-6.50000e+00	9.890173e-04	
663	-6.55000e+00	9.896098e-04	
664	-6.60000e+00	9.902034e-04	
665	0.000000e+00	0.000000e+00	
666	-5.00000e-02	3.400253e-05	
667	-1.00000e-01	6.743577e-05	
668	-1.50000e-01	1.003705e-04	
669	-2.00000e-01	1.328244e-04	
670	-2.50000e-01	1.648025e-04	
671	-3.00000e-01	1.963072e-04	
672	-3.50000e-01	2.273400e-04	
673	-4.00000e-01	2.579025e-04	
674	-4.50000e-01	2.879959e-04	
675	-5.00000e-01	3.176217e-04	
676	-5.50000e-01	3.467814e-04	
677	-6.00000e-01	3.754761e-04	
678	-6.50000e-01	4.037074e-04	
679	-7.00000e-01	4.314766e-04	
680	-7.50000e-01	4.587850e-04	
681	-8.00000e-01	4.856340e-04	
682	-8.50000e-01	5.120250e-04	
683	-9.00000e-01	5.379593e-04	
684	-9.50000e-01	5.634382e-04	
685	-1.00000e+00	5.884631e-04	
686	-1.05000e+00	6.130353e-04	
687	-1.10000e+00	6.371561e-04	
688	-1.15000e+00	6.608269e-04	
689	-1.20000e+00	6.840490e-04	
690	-1.25000e+00	7.068236e-04	
691	-1.30000e+00	7.291522e-04	
692	-1.35000e+00	7.510359e-04	

Index   v-sweep         i(vds)          
--------------------------------------------------------------------------------
693	-1.40000e+00	7.724762e-04	
694	-1.45000e+00	7.934742e-04	
695	-1.50000e+00	8.140313e-04	
696	-1.55000e+00	8.341488e-04	
697	-1.60000e+00	8.538279e-04	
698	-1.65000e+00	8.730700e-04	
699	-1.70000e+00	8.918763e-04	
700	-1.75000e+00	9.102480e-04	
701	-1.80000e+00	9.281865e-04	
702	-1.85000e+00	9.456931e-04	
703	-1.90000e+00	9.627689e-04	
704	-1.95000e+00	9.794153e-04	
705	-2.00000e+00	9.956335e-04	
706	-2.05000e+00	1.011425e-03	
707	-2.10000e+00	1.026790e-03	
708	-2.15000e+00	1.041732e-03	
709	-2.20000e+00	1.056250e-03	
710	-2.25000e+00	1.070346e-03	
711	-2.30000e+00	1.084022e-03	
712	-2.35000e+00	1.097278e-03	
713	-2.40000e+00	1.110117e-03	
714	-2.45000e+00	1.122538e-03	
715	-2.50000e+00	1.134545e-03	
716	-2.55000e+00	1.146137e-03	
717	-2.60000e+00	1.157316e-03	
718	-2.65000e+00	1.168084e-03	
719	-2.70000e+00	1.178443e-03	
720	-2.75000e+00	1.188393e-03	
721	-2.80000e+00	1.197936e-03	
722	-2.85000e+00	1.207074e-03	
723	-2.90000e+00	1.215808e-03	
724	-2.95000e+00	1.224141e-03	
725	-3.00000e+00	1.232074e-03	
726	-3.05000e+00	1.239610e-03	
727	-3.10000e+00	1.246752e-03	
728	-3.15000e+00	1.253503e-03	
729	-3.20000e+00	1.259867e-03	
730	-3.25000e+00	1.265848e-03	
731	-3.30000e+00	1.271454e-03	
732	-3.35000e+00	1.276691e-03	
733	-3.40000e+00	1.281569e-03	
734	-3.45000e+00	1.286103e-03	
735	-3.50000e+00	1.290308e-03	
736	-3.55000e+00	1.294204e-03	
737	-3.60000e+00	1.297816e-03	
738	-3.65000e+00	1.301170e-03	
739	-3.70000e+00	1.304293e-03	
740	-3.75000e+00	1.307212e-03	
741	-3.80000e+00	1.309953e-03	
742	-3.85000e+00	1.312538e-03	
743	-3.90000e+00	1.314985e-03	
744	-3.95000e+00	1.317311e-03	
745	-4.00000e+00	1.319529e-03	
746	-4.05000e+00	1.321651e-03	
747	-4.10000e+00	1.323685e-03	
748	-4.15000e+00	1.325642e-03	
749	-4.20000e+00	1.327526e-03	
750	-4.25000e+00	1.329346e-03	

Index   v-sweep         i(vds)          
--------------------------------------------------------------------------------
751	-4.30000e+00	1.331105e-03	
752	-4.35000e+00	1.332810e-03	
753	-4.40000e+00	1.334463e-03	
754	-4.45000e+00	1.336069e-03	
755	-4.50000e+00	1.337631e-03	
756	-4.55000e+00	1.339153e-03	
757	-4.60000e+00	1.340636e-03	
758	-4.65000e+00	1.342083e-03	
759	-4.70000e+00	1.343496e-03	
760	-4.75000e+00	1.344878e-03	
761	-4.80000e+00	1.346231e-03	
762	-4.85000e+00	1.347555e-03	
763	-4.90000e+00	1.348852e-03	
764	-4.95000e+00	1.350125e-03	
765	-5.00000e+00	1.351374e-03	
766	-5.05000e+00	1.352600e-03	
767	-5.10000e+00	1.353804e-03	
768	-5.15000e+00	1.354989e-03	
769	-5.20000e+00	1.356153e-03	
770	-5.25000e+00	1.357299e-03	
771	-5.30000e+00	1.358428e-03	
772	-5.35000e+00	1.359539e-03	
773	-5.40000e+00	1.360635e-03	
774	-5.45000e+00	1.361714e-03	
775	-5.50000e+00	1.362779e-03	
776	-5.55000e+00	1.363830e-03	
777	-5.60000e+00	1.364867e-03	
778	-5.65000e+00	1.365890e-03	
779	-5.70000e+00	1.366901e-03	
780	-5.75000e+00	1.367900e-03	
781	-5.80000e+00	1.368887e-03	
782	-5.85000e+00	1.369863e-03	
783	-5.90000e+00	1.370828e-03	
784	-5.95000e+00	1.371782e-03	
785	-6.00000e+00	1.372726e-03	
786	-6.05000e+00	1.373661e-03	
787	-6.10000e+00	1.374586e-03	
788	-6.15000e+00	1.375502e-03	
789	-6.20000e+00	1.376409e-03	
790	-6.25000e+00	1.377307e-03	
791	-6.30000e+00	1.378197e-03	
792	-6.35000e+00	1.379079e-03	
793	-6.40000e+00	1.379954e-03	
794	-6.45000e+00	1.380821e-03	
795	-6.50000e+00	1.381682e-03	
796	-6.55000e+00	1.382535e-03	
797	-6.60000e+00	1.383382e-03	
Note: No ".plot", ".print", or ".fourier" lines; no simulations run
