
Note: Compatibility modes selected: hs

Warning: m=xx on .subckt line will override multiplier m hierarchy!


Circuit: ***************************

Doing analysis at TEMP = 125.000000 and TNOM = 125.000000


No. of Data Rows : 798
                          ***************************
                          DC transfer characteristic  Mon Jan  9 13:57:53  2023
--------------------------------------------------------------------------------
Index   v-sweep         i(vds)          
--------------------------------------------------------------------------------
0	0.000000e+00	0.000000e+00	
1	-5.00000e-02	7.869650e-08	
2	-1.00000e-01	1.390529e-07	
3	-1.50000e-01	1.833822e-07	
4	-2.00000e-01	2.127693e-07	
5	-2.50000e-01	2.290929e-07	
6	-3.00000e-01	2.364174e-07	
7	-3.50000e-01	2.395629e-07	
8	-4.00000e-01	2.412465e-07	
9	-4.50000e-01	2.424123e-07	
10	-5.00000e-01	2.433589e-07	
11	-5.50000e-01	2.441922e-07	
12	-6.00000e-01	2.449560e-07	
13	-6.50000e-01	2.456712e-07	
14	-7.00000e-01	2.463492e-07	
15	-7.50000e-01	2.469968e-07	
16	-8.00000e-01	2.476186e-07	
17	-8.50000e-01	2.482177e-07	
18	-9.00000e-01	2.487967e-07	
19	-9.50000e-01	2.493573e-07	
20	-1.00000e+00	2.499012e-07	
21	-1.05000e+00	2.504296e-07	
22	-1.10000e+00	2.509438e-07	
23	-1.15000e+00	2.514446e-07	
24	-1.20000e+00	2.519329e-07	
25	-1.25000e+00	2.524095e-07	
26	-1.30000e+00	2.528751e-07	
27	-1.35000e+00	2.533303e-07	
28	-1.40000e+00	2.537758e-07	
29	-1.45000e+00	2.542119e-07	
30	-1.50000e+00	2.546392e-07	
31	-1.55000e+00	2.550581e-07	
32	-1.60000e+00	2.554691e-07	
33	-1.65000e+00	2.558725e-07	
34	-1.70000e+00	2.562686e-07	
35	-1.75000e+00	2.566579e-07	
36	-1.80000e+00	2.570405e-07	
37	-1.85000e+00	2.574168e-07	
38	-1.90000e+00	2.577870e-07	
39	-1.95000e+00	2.581514e-07	
40	-2.00000e+00	2.585102e-07	
41	-2.05000e+00	2.588637e-07	
42	-2.10000e+00	2.592120e-07	
43	-2.15000e+00	2.595553e-07	
44	-2.20000e+00	2.598939e-07	
45	-2.25000e+00	2.602278e-07	
46	-2.30000e+00	2.605574e-07	
47	-2.35000e+00	2.608826e-07	
48	-2.40000e+00	2.612037e-07	
49	-2.45000e+00	2.615208e-07	
50	-2.50000e+00	2.618341e-07	
51	-2.55000e+00	2.621436e-07	
52	-2.60000e+00	2.624495e-07	
53	-2.65000e+00	2.627520e-07	
54	-2.70000e+00	2.630510e-07	

Index   v-sweep         i(vds)          
--------------------------------------------------------------------------------
55	-2.75000e+00	2.633468e-07	
56	-2.80000e+00	2.636393e-07	
57	-2.85000e+00	2.639288e-07	
58	-2.90000e+00	2.642153e-07	
59	-2.95000e+00	2.644989e-07	
60	-3.00000e+00	2.647797e-07	
61	-3.05000e+00	2.650578e-07	
62	-3.10000e+00	2.653332e-07	
63	-3.15000e+00	2.656061e-07	
64	-3.20000e+00	2.658765e-07	
65	-3.25000e+00	2.661445e-07	
66	-3.30000e+00	2.664102e-07	
67	-3.35000e+00	2.666737e-07	
68	-3.40000e+00	2.669351e-07	
69	-3.45000e+00	2.671944e-07	
70	-3.50000e+00	2.674519e-07	
71	-3.55000e+00	2.677074e-07	
72	-3.60000e+00	2.679613e-07	
73	-3.65000e+00	2.682136e-07	
74	-3.70000e+00	2.684644e-07	
75	-3.75000e+00	2.687139e-07	
76	-3.80000e+00	2.689623e-07	
77	-3.85000e+00	2.692097e-07	
78	-3.90000e+00	2.694562e-07	
79	-3.95000e+00	2.697023e-07	
80	-4.00000e+00	2.699480e-07	
81	-4.05000e+00	2.701936e-07	
82	-4.10000e+00	2.704394e-07	
83	-4.15000e+00	2.706857e-07	
84	-4.20000e+00	2.709330e-07	
85	-4.25000e+00	2.711814e-07	
86	-4.30000e+00	2.714315e-07	
87	-4.35000e+00	2.716838e-07	
88	-4.40000e+00	2.719386e-07	
89	-4.45000e+00	2.721966e-07	
90	-4.50000e+00	2.724584e-07	
91	-4.55000e+00	2.727245e-07	
92	-4.60000e+00	2.729957e-07	
93	-4.65000e+00	2.732726e-07	
94	-4.70000e+00	2.735562e-07	
95	-4.75000e+00	2.738473e-07	
96	-4.80000e+00	2.741468e-07	
97	-4.85000e+00	2.744557e-07	
98	-4.90000e+00	2.747750e-07	
99	-4.95000e+00	2.751060e-07	
100	-5.00000e+00	2.754497e-07	
101	-5.05000e+00	2.758075e-07	
102	-5.10000e+00	2.761808e-07	
103	-5.15000e+00	2.765709e-07	
104	-5.20000e+00	2.769795e-07	
105	-5.25000e+00	2.774081e-07	
106	-5.30000e+00	2.778584e-07	
107	-5.35000e+00	2.783322e-07	
108	-5.40000e+00	2.788315e-07	
109	-5.45000e+00	2.793580e-07	
110	-5.50000e+00	2.799141e-07	
111	-5.55000e+00	2.805017e-07	
112	-5.60000e+00	2.811231e-07	

Index   v-sweep         i(vds)          
--------------------------------------------------------------------------------
113	-5.65000e+00	2.817808e-07	
114	-5.70000e+00	2.824772e-07	
115	-5.75000e+00	2.832148e-07	
116	-5.80000e+00	2.839962e-07	
117	-5.85000e+00	2.848244e-07	
118	-5.90000e+00	2.857021e-07	
119	-5.95000e+00	2.866322e-07	
120	-6.00000e+00	2.876180e-07	
121	-6.05000e+00	2.886625e-07	
122	-6.10000e+00	2.897690e-07	
123	-6.15000e+00	2.909410e-07	
124	-6.20000e+00	2.921820e-07	
125	-6.25000e+00	2.934954e-07	
126	-6.30000e+00	2.948851e-07	
127	-6.35000e+00	2.963549e-07	
128	-6.40000e+00	2.979086e-07	
129	-6.45000e+00	2.995503e-07	
130	-6.50000e+00	3.012842e-07	
131	-6.55000e+00	3.031143e-07	
132	-6.60000e+00	3.050452e-07	
133	0.000000e+00	0.000000e+00	
134	-5.00000e-02	3.397267e-07	
135	-1.00000e-01	6.593024e-07	
136	-1.50000e-01	9.608526e-07	
137	-2.00000e-01	1.244907e-06	
138	-2.50000e-01	1.511623e-06	
139	-3.00000e-01	1.761074e-06	
140	-3.50000e-01	1.993313e-06	
141	-4.00000e-01	2.208391e-06	
142	-4.50000e-01	2.406361e-06	
143	-5.00000e-01	2.587280e-06	
144	-5.50000e-01	2.751212e-06	
145	-6.00000e-01	2.898235e-06	
146	-6.50000e-01	3.028448e-06	
147	-7.00000e-01	3.141989e-06	
148	-7.50000e-01	3.239067e-06	
149	-8.00000e-01	3.320026e-06	
150	-8.50000e-01	3.385464e-06	
151	-9.00000e-01	3.436443e-06	
152	-9.50000e-01	3.474742e-06	
153	-1.00000e+00	3.502939e-06	
154	-1.05000e+00	3.523996e-06	
155	-1.10000e+00	3.540508e-06	
156	-1.15000e+00	3.554266e-06	
157	-1.20000e+00	3.566330e-06	
158	-1.25000e+00	3.577288e-06	
159	-1.30000e+00	3.587466e-06	
160	-1.35000e+00	3.597055e-06	
161	-1.40000e+00	3.606171e-06	
162	-1.45000e+00	3.614891e-06	
163	-1.50000e+00	3.623270e-06	
164	-1.55000e+00	3.631347e-06	
165	-1.60000e+00	3.639153e-06	
166	-1.65000e+00	3.646712e-06	
167	-1.70000e+00	3.654045e-06	
168	-1.75000e+00	3.661170e-06	
169	-1.80000e+00	3.668101e-06	
170	-1.85000e+00	3.674852e-06	

Index   v-sweep         i(vds)          
--------------------------------------------------------------------------------
171	-1.90000e+00	3.681433e-06	
172	-1.95000e+00	3.687856e-06	
173	-2.00000e+00	3.694130e-06	
174	-2.05000e+00	3.700263e-06	
175	-2.10000e+00	3.706263e-06	
176	-2.15000e+00	3.712137e-06	
177	-2.20000e+00	3.717892e-06	
178	-2.25000e+00	3.723533e-06	
179	-2.30000e+00	3.729065e-06	
180	-2.35000e+00	3.734495e-06	
181	-2.40000e+00	3.739826e-06	
182	-2.45000e+00	3.745064e-06	
183	-2.50000e+00	3.750212e-06	
184	-2.55000e+00	3.755274e-06	
185	-2.60000e+00	3.760253e-06	
186	-2.65000e+00	3.765154e-06	
187	-2.70000e+00	3.769979e-06	
188	-2.75000e+00	3.774731e-06	
189	-2.80000e+00	3.779413e-06	
190	-2.85000e+00	3.784028e-06	
191	-2.90000e+00	3.788578e-06	
192	-2.95000e+00	3.793066e-06	
193	-3.00000e+00	3.797493e-06	
194	-3.05000e+00	3.801862e-06	
195	-3.10000e+00	3.806176e-06	
196	-3.15000e+00	3.810434e-06	
197	-3.20000e+00	3.814641e-06	
198	-3.25000e+00	3.818797e-06	
199	-3.30000e+00	3.822903e-06	
200	-3.35000e+00	3.826963e-06	
201	-3.40000e+00	3.830976e-06	
202	-3.45000e+00	3.834945e-06	
203	-3.50000e+00	3.838870e-06	
204	-3.55000e+00	3.842754e-06	
205	-3.60000e+00	3.846597e-06	
206	-3.65000e+00	3.850401e-06	
207	-3.70000e+00	3.854167e-06	
208	-3.75000e+00	3.857896e-06	
209	-3.80000e+00	3.861588e-06	
210	-3.85000e+00	3.865247e-06	
211	-3.90000e+00	3.868871e-06	
212	-3.95000e+00	3.872463e-06	
213	-4.00000e+00	3.876024e-06	
214	-4.05000e+00	3.879555e-06	
215	-4.10000e+00	3.883057e-06	
216	-4.15000e+00	3.886532e-06	
217	-4.20000e+00	3.889980e-06	
218	-4.25000e+00	3.893403e-06	
219	-4.30000e+00	3.896804e-06	
220	-4.35000e+00	3.900183e-06	
221	-4.40000e+00	3.903542e-06	
222	-4.45000e+00	3.906884e-06	
223	-4.50000e+00	3.910211e-06	
224	-4.55000e+00	3.913525e-06	
225	-4.60000e+00	3.916828e-06	
226	-4.65000e+00	3.920125e-06	
227	-4.70000e+00	3.923418e-06	
228	-4.75000e+00	3.926710e-06	

Index   v-sweep         i(vds)          
--------------------------------------------------------------------------------
229	-4.80000e+00	3.930007e-06	
230	-4.85000e+00	3.933312e-06	
231	-4.90000e+00	3.936630e-06	
232	-4.95000e+00	3.939967e-06	
233	-5.00000e+00	3.943328e-06	
234	-5.05000e+00	3.946721e-06	
235	-5.10000e+00	3.950152e-06	
236	-5.15000e+00	3.953628e-06	
237	-5.20000e+00	3.957159e-06	
238	-5.25000e+00	3.960754e-06	
239	-5.30000e+00	3.964422e-06	
240	-5.35000e+00	3.968174e-06	
241	-5.40000e+00	3.972021e-06	
242	-5.45000e+00	3.975977e-06	
243	-5.50000e+00	3.980054e-06	
244	-5.55000e+00	3.984267e-06	
245	-5.60000e+00	3.988630e-06	
246	-5.65000e+00	3.993162e-06	
247	-5.70000e+00	3.997877e-06	
248	-5.75000e+00	4.002797e-06	
249	-5.80000e+00	4.007939e-06	
250	-5.85000e+00	4.013325e-06	
251	-5.90000e+00	4.018977e-06	
252	-5.95000e+00	4.024918e-06	
253	-6.00000e+00	4.031173e-06	
254	-6.05000e+00	4.037767e-06	
255	-6.10000e+00	4.044729e-06	
256	-6.15000e+00	4.052086e-06	
257	-6.20000e+00	4.059868e-06	
258	-6.25000e+00	4.068107e-06	
259	-6.30000e+00	4.076836e-06	
260	-6.35000e+00	4.086089e-06	
261	-6.40000e+00	4.095901e-06	
262	-6.45000e+00	4.106309e-06	
263	-6.50000e+00	4.117353e-06	
264	-6.55000e+00	4.129072e-06	
265	-6.60000e+00	4.141509e-06	
266	0.000000e+00	0.000000e+00	
267	-5.00000e-02	5.696892e-07	
268	-1.00000e-01	1.119684e-06	
269	-1.50000e-01	1.652101e-06	
270	-2.00000e-01	2.167464e-06	
271	-2.50000e-01	2.665920e-06	
272	-3.00000e-01	3.147534e-06	
273	-3.50000e-01	3.612348e-06	
274	-4.00000e-01	4.060401e-06	
275	-4.50000e-01	4.491729e-06	
276	-5.00000e-01	4.906369e-06	
277	-5.50000e-01	5.304359e-06	
278	-6.00000e-01	5.685736e-06	
279	-6.50000e-01	6.050537e-06	
280	-7.00000e-01	6.398799e-06	
281	-7.50000e-01	6.730562e-06	
282	-8.00000e-01	7.045863e-06	
283	-8.50000e-01	7.344743e-06	
284	-9.00000e-01	7.627243e-06	
285	-9.50000e-01	7.893405e-06	
286	-1.00000e+00	8.143276e-06	

Index   v-sweep         i(vds)          
--------------------------------------------------------------------------------
287	-1.05000e+00	8.376902e-06	
288	-1.10000e+00	8.594339e-06	
289	-1.15000e+00	8.795648e-06	
290	-1.20000e+00	8.980901e-06	
291	-1.25000e+00	9.150190e-06	
292	-1.30000e+00	9.303632e-06	
293	-1.35000e+00	9.441388e-06	
294	-1.40000e+00	9.563693e-06	
295	-1.45000e+00	9.670895e-06	
296	-1.50000e+00	9.763533e-06	
297	-1.55000e+00	9.842429e-06	
298	-1.60000e+00	9.908806e-06	
299	-1.65000e+00	9.964339e-06	
300	-1.70000e+00	1.001105e-05	
301	-1.75000e+00	1.005102e-05	
302	-1.80000e+00	1.008608e-05	
303	-1.85000e+00	1.011763e-05	
304	-1.90000e+00	1.014661e-05	
305	-1.95000e+00	1.017366e-05	
306	-2.00000e+00	1.019920e-05	
307	-2.05000e+00	1.022350e-05	
308	-2.10000e+00	1.024675e-05	
309	-2.15000e+00	1.026909e-05	
310	-2.20000e+00	1.029063e-05	
311	-2.25000e+00	1.031144e-05	
312	-2.30000e+00	1.033159e-05	
313	-2.35000e+00	1.035114e-05	
314	-2.40000e+00	1.037013e-05	
315	-2.45000e+00	1.038861e-05	
316	-2.50000e+00	1.040660e-05	
317	-2.55000e+00	1.042415e-05	
318	-2.60000e+00	1.044127e-05	
319	-2.65000e+00	1.045799e-05	
320	-2.70000e+00	1.047434e-05	
321	-2.75000e+00	1.049033e-05	
322	-2.80000e+00	1.050598e-05	
323	-2.85000e+00	1.052132e-05	
324	-2.90000e+00	1.053635e-05	
325	-2.95000e+00	1.055110e-05	
326	-3.00000e+00	1.056557e-05	
327	-3.05000e+00	1.057978e-05	
328	-3.10000e+00	1.059374e-05	
329	-3.15000e+00	1.060747e-05	
330	-3.20000e+00	1.062096e-05	
331	-3.25000e+00	1.063423e-05	
332	-3.30000e+00	1.064730e-05	
333	-3.35000e+00	1.066016e-05	
334	-3.40000e+00	1.067283e-05	
335	-3.45000e+00	1.068532e-05	
336	-3.50000e+00	1.069762e-05	
337	-3.55000e+00	1.070976e-05	
338	-3.60000e+00	1.072172e-05	
339	-3.65000e+00	1.073353e-05	
340	-3.70000e+00	1.074519e-05	
341	-3.75000e+00	1.075669e-05	
342	-3.80000e+00	1.076805e-05	
343	-3.85000e+00	1.077927e-05	
344	-3.90000e+00	1.079036e-05	

Index   v-sweep         i(vds)          
--------------------------------------------------------------------------------
345	-3.95000e+00	1.080132e-05	
346	-4.00000e+00	1.081215e-05	
347	-4.05000e+00	1.082286e-05	
348	-4.10000e+00	1.083345e-05	
349	-4.15000e+00	1.084393e-05	
350	-4.20000e+00	1.085429e-05	
351	-4.25000e+00	1.086455e-05	
352	-4.30000e+00	1.087471e-05	
353	-4.35000e+00	1.088476e-05	
354	-4.40000e+00	1.089471e-05	
355	-4.45000e+00	1.090457e-05	
356	-4.50000e+00	1.091434e-05	
357	-4.55000e+00	1.092402e-05	
358	-4.60000e+00	1.093361e-05	
359	-4.65000e+00	1.094312e-05	
360	-4.70000e+00	1.095255e-05	
361	-4.75000e+00	1.096191e-05	
362	-4.80000e+00	1.097119e-05	
363	-4.85000e+00	1.098040e-05	
364	-4.90000e+00	1.098954e-05	
365	-4.95000e+00	1.099862e-05	
366	-5.00000e+00	1.100765e-05	
367	-5.05000e+00	1.101662e-05	
368	-5.10000e+00	1.102555e-05	
369	-5.15000e+00	1.103443e-05	
370	-5.20000e+00	1.104328e-05	
371	-5.25000e+00	1.105209e-05	
372	-5.30000e+00	1.106089e-05	
373	-5.35000e+00	1.106968e-05	
374	-5.40000e+00	1.107846e-05	
375	-5.45000e+00	1.108726e-05	
376	-5.50000e+00	1.109607e-05	
377	-5.55000e+00	1.110491e-05	
378	-5.60000e+00	1.111381e-05	
379	-5.65000e+00	1.112276e-05	
380	-5.70000e+00	1.113180e-05	
381	-5.75000e+00	1.114093e-05	
382	-5.80000e+00	1.115018e-05	
383	-5.85000e+00	1.115958e-05	
384	-5.90000e+00	1.116913e-05	
385	-5.95000e+00	1.117889e-05	
386	-6.00000e+00	1.118886e-05	
387	-6.05000e+00	1.119908e-05	
388	-6.10000e+00	1.120959e-05	
389	-6.15000e+00	1.122042e-05	
390	-6.20000e+00	1.123161e-05	
391	-6.25000e+00	1.124320e-05	
392	-6.30000e+00	1.125523e-05	
393	-6.35000e+00	1.126775e-05	
394	-6.40000e+00	1.128082e-05	
395	-6.45000e+00	1.129448e-05	
396	-6.50000e+00	1.130879e-05	
397	-6.55000e+00	1.132381e-05	
398	-6.60000e+00	1.133961e-05	
399	0.000000e+00	0.000000e+00	
400	-5.00000e-02	7.766798e-07	
401	-1.00000e-01	1.534264e-06	
402	-1.50000e-01	2.274866e-06	

Index   v-sweep         i(vds)          
--------------------------------------------------------------------------------
403	-2.00000e-01	2.999002e-06	
404	-2.50000e-01	3.706817e-06	
405	-3.00000e-01	4.398369e-06	
406	-3.50000e-01	5.073696e-06	
407	-4.00000e-01	5.732830e-06	
408	-4.50000e-01	6.375803e-06	
409	-5.00000e-01	7.002648e-06	
410	-5.50000e-01	7.613396e-06	
411	-6.00000e-01	8.208077e-06	
412	-6.50000e-01	8.786724e-06	
413	-7.00000e-01	9.349369e-06	
414	-7.50000e-01	9.896041e-06	
415	-8.00000e-01	1.042677e-05	
416	-8.50000e-01	1.094160e-05	
417	-9.00000e-01	1.144054e-05	
418	-9.50000e-01	1.192364e-05	
419	-1.00000e+00	1.239093e-05	
420	-1.05000e+00	1.284243e-05	
421	-1.10000e+00	1.327818e-05	
422	-1.15000e+00	1.369822e-05	
423	-1.20000e+00	1.410256e-05	
424	-1.25000e+00	1.449126e-05	
425	-1.30000e+00	1.486433e-05	
426	-1.35000e+00	1.522182e-05	
427	-1.40000e+00	1.556375e-05	
428	-1.45000e+00	1.589017e-05	
429	-1.50000e+00	1.620111e-05	
430	-1.55000e+00	1.649661e-05	
431	-1.60000e+00	1.677671e-05	
432	-1.65000e+00	1.704146e-05	
433	-1.70000e+00	1.729090e-05	
434	-1.75000e+00	1.752510e-05	
435	-1.80000e+00	1.774413e-05	
436	-1.85000e+00	1.794805e-05	
437	-1.90000e+00	1.813699e-05	
438	-1.95000e+00	1.831106e-05	
439	-2.00000e+00	1.847044e-05	
440	-2.05000e+00	1.861539e-05	
441	-2.10000e+00	1.874626e-05	
442	-2.15000e+00	1.886355e-05	
443	-2.20000e+00	1.896796e-05	
444	-2.25000e+00	1.906048e-05	
445	-2.30000e+00	1.914239e-05	
446	-2.35000e+00	1.921517e-05	
447	-2.40000e+00	1.928045e-05	
448	-2.45000e+00	1.933973e-05	
449	-2.50000e+00	1.939431e-05	
450	-2.55000e+00	1.944517e-05	
451	-2.60000e+00	1.949306e-05	
452	-2.65000e+00	1.953852e-05	
453	-2.70000e+00	1.958191e-05	
454	-2.75000e+00	1.962353e-05	
455	-2.80000e+00	1.966359e-05	
456	-2.85000e+00	1.970225e-05	
457	-2.90000e+00	1.973965e-05	
458	-2.95000e+00	1.977589e-05	
459	-3.00000e+00	1.981107e-05	
460	-3.05000e+00	1.984527e-05	

Index   v-sweep         i(vds)          
--------------------------------------------------------------------------------
461	-3.10000e+00	1.987855e-05	
462	-3.15000e+00	1.991098e-05	
463	-3.20000e+00	1.994261e-05	
464	-3.25000e+00	1.997349e-05	
465	-3.30000e+00	2.000366e-05	
466	-3.35000e+00	2.003316e-05	
467	-3.40000e+00	2.006204e-05	
468	-3.45000e+00	2.009031e-05	
469	-3.50000e+00	2.011802e-05	
470	-3.55000e+00	2.014519e-05	
471	-3.60000e+00	2.017185e-05	
472	-3.65000e+00	2.019801e-05	
473	-3.70000e+00	2.022372e-05	
474	-3.75000e+00	2.024897e-05	
475	-3.80000e+00	2.027380e-05	
476	-3.85000e+00	2.029822e-05	
477	-3.90000e+00	2.032226e-05	
478	-3.95000e+00	2.034591e-05	
479	-4.00000e+00	2.036921e-05	
480	-4.05000e+00	2.039216e-05	
481	-4.10000e+00	2.041478e-05	
482	-4.15000e+00	2.043708e-05	
483	-4.20000e+00	2.045908e-05	
484	-4.25000e+00	2.048077e-05	
485	-4.30000e+00	2.050219e-05	
486	-4.35000e+00	2.052332e-05	
487	-4.40000e+00	2.054419e-05	
488	-4.45000e+00	2.056481e-05	
489	-4.50000e+00	2.058517e-05	
490	-4.55000e+00	2.060530e-05	
491	-4.60000e+00	2.062519e-05	
492	-4.65000e+00	2.064486e-05	
493	-4.70000e+00	2.066431e-05	
494	-4.75000e+00	2.068354e-05	
495	-4.80000e+00	2.070258e-05	
496	-4.85000e+00	2.072141e-05	
497	-4.90000e+00	2.074006e-05	
498	-4.95000e+00	2.075851e-05	
499	-5.00000e+00	2.077679e-05	
500	-5.05000e+00	2.079489e-05	
501	-5.10000e+00	2.081282e-05	
502	-5.15000e+00	2.083059e-05	
503	-5.20000e+00	2.084820e-05	
504	-5.25000e+00	2.086565e-05	
505	-5.30000e+00	2.088295e-05	
506	-5.35000e+00	2.090011e-05	
507	-5.40000e+00	2.091714e-05	
508	-5.45000e+00	2.093403e-05	
509	-5.50000e+00	2.095080e-05	
510	-5.55000e+00	2.096745e-05	
511	-5.60000e+00	2.098399e-05	
512	-5.65000e+00	2.100042e-05	
513	-5.70000e+00	2.101677e-05	
514	-5.75000e+00	2.103302e-05	
515	-5.80000e+00	2.104921e-05	
516	-5.85000e+00	2.106532e-05	
517	-5.90000e+00	2.108139e-05	
518	-5.95000e+00	2.109743e-05	

Index   v-sweep         i(vds)          
--------------------------------------------------------------------------------
519	-6.00000e+00	2.111344e-05	
520	-6.05000e+00	2.112945e-05	
521	-6.10000e+00	2.114548e-05	
522	-6.15000e+00	2.116155e-05	
523	-6.20000e+00	2.117767e-05	
524	-6.25000e+00	2.119389e-05	
525	-6.30000e+00	2.121022e-05	
526	-6.35000e+00	2.122670e-05	
527	-6.40000e+00	2.124336e-05	
528	-6.45000e+00	2.126024e-05	
529	-6.50000e+00	2.127739e-05	
530	-6.55000e+00	2.129484e-05	
531	-6.60000e+00	2.131264e-05	
532	0.000000e+00	0.000000e+00	
533	-5.00000e-02	9.657582e-07	
534	-1.00000e-01	1.913009e-06	
535	-1.50000e-01	2.843863e-06	
536	-2.00000e-01	3.758832e-06	
537	-2.50000e-01	4.658056e-06	
538	-3.00000e-01	5.541590e-06	
539	-3.50000e-01	6.409469e-06	
540	-4.00000e-01	7.261721e-06	
541	-4.50000e-01	8.098374e-06	
542	-5.00000e-01	8.919457e-06	
543	-5.50000e-01	9.724996e-06	
544	-6.00000e-01	1.051502e-05	
545	-6.50000e-01	1.128956e-05	
546	-7.00000e-01	1.204863e-05	
547	-7.50000e-01	1.279228e-05	
548	-8.00000e-01	1.352051e-05	
549	-8.50000e-01	1.423337e-05	
550	-9.00000e-01	1.493088e-05	
551	-9.50000e-01	1.561307e-05	
552	-1.00000e+00	1.627996e-05	
553	-1.05000e+00	1.693158e-05	
554	-1.10000e+00	1.756796e-05	
555	-1.15000e+00	1.818912e-05	
556	-1.20000e+00	1.879510e-05	
557	-1.25000e+00	1.938592e-05	
558	-1.30000e+00	1.996161e-05	
559	-1.35000e+00	2.052219e-05	
560	-1.40000e+00	2.106769e-05	
561	-1.45000e+00	2.159815e-05	
562	-1.50000e+00	2.211358e-05	
563	-1.55000e+00	2.261401e-05	
564	-1.60000e+00	2.309948e-05	
565	-1.65000e+00	2.357001e-05	
566	-1.70000e+00	2.402562e-05	
567	-1.75000e+00	2.446635e-05	
568	-1.80000e+00	2.489223e-05	
569	-1.85000e+00	2.530329e-05	
570	-1.90000e+00	2.569954e-05	
571	-1.95000e+00	2.608104e-05	
572	-2.00000e+00	2.644780e-05	
573	-2.05000e+00	2.679986e-05	
574	-2.10000e+00	2.713726e-05	
575	-2.15000e+00	2.746002e-05	
576	-2.20000e+00	2.776820e-05	

Index   v-sweep         i(vds)          
--------------------------------------------------------------------------------
577	-2.25000e+00	2.806182e-05	
578	-2.30000e+00	2.834095e-05	
579	-2.35000e+00	2.860563e-05	
580	-2.40000e+00	2.885592e-05	
581	-2.45000e+00	2.909191e-05	
582	-2.50000e+00	2.931367e-05	
583	-2.55000e+00	2.952133e-05	
584	-2.60000e+00	2.971502e-05	
585	-2.65000e+00	2.989495e-05	
586	-2.70000e+00	3.006137e-05	
587	-2.75000e+00	3.021465e-05	
588	-2.80000e+00	3.035525e-05	
589	-2.85000e+00	3.048382e-05	
590	-2.90000e+00	3.060121e-05	
591	-2.95000e+00	3.070845e-05	
592	-3.00000e+00	3.080673e-05	
593	-3.05000e+00	3.089733e-05	
594	-3.10000e+00	3.098146e-05	
595	-3.15000e+00	3.106022e-05	
596	-3.20000e+00	3.113452e-05	
597	-3.25000e+00	3.120506e-05	
598	-3.30000e+00	3.127240e-05	
599	-3.35000e+00	3.133695e-05	
600	-3.40000e+00	3.139906e-05	
601	-3.45000e+00	3.145897e-05	
602	-3.50000e+00	3.151690e-05	
603	-3.55000e+00	3.157302e-05	
604	-3.60000e+00	3.162748e-05	
605	-3.65000e+00	3.168040e-05	
606	-3.70000e+00	3.173189e-05	
607	-3.75000e+00	3.178205e-05	
608	-3.80000e+00	3.183096e-05	
609	-3.85000e+00	3.187869e-05	
610	-3.90000e+00	3.192533e-05	
611	-3.95000e+00	3.197092e-05	
612	-4.00000e+00	3.201553e-05	
613	-4.05000e+00	3.205920e-05	
614	-4.10000e+00	3.210200e-05	
615	-4.15000e+00	3.214395e-05	
616	-4.20000e+00	3.218511e-05	
617	-4.25000e+00	3.222551e-05	
618	-4.30000e+00	3.226518e-05	
619	-4.35000e+00	3.230416e-05	
620	-4.40000e+00	3.234248e-05	
621	-4.45000e+00	3.238017e-05	
622	-4.50000e+00	3.241725e-05	
623	-4.55000e+00	3.245375e-05	
624	-4.60000e+00	3.248970e-05	
625	-4.65000e+00	3.252511e-05	
626	-4.70000e+00	3.256000e-05	
627	-4.75000e+00	3.259440e-05	
628	-4.80000e+00	3.262833e-05	
629	-4.85000e+00	3.266180e-05	
630	-4.90000e+00	3.269482e-05	
631	-4.95000e+00	3.272742e-05	
632	-5.00000e+00	3.275961e-05	
633	-5.05000e+00	3.279141e-05	
634	-5.10000e+00	3.282282e-05	

Index   v-sweep         i(vds)          
--------------------------------------------------------------------------------
635	-5.15000e+00	3.285385e-05	
636	-5.20000e+00	3.288453e-05	
637	-5.25000e+00	3.291487e-05	
638	-5.30000e+00	3.294486e-05	
639	-5.35000e+00	3.297454e-05	
640	-5.40000e+00	3.300389e-05	
641	-5.45000e+00	3.303294e-05	
642	-5.50000e+00	3.306170e-05	
643	-5.55000e+00	3.309017e-05	
644	-5.60000e+00	3.311835e-05	
645	-5.65000e+00	3.314627e-05	
646	-5.70000e+00	3.317393e-05	
647	-5.75000e+00	3.320133e-05	
648	-5.80000e+00	3.322849e-05	
649	-5.85000e+00	3.325540e-05	
650	-5.90000e+00	3.328209e-05	
651	-5.95000e+00	3.330856e-05	
652	-6.00000e+00	3.333481e-05	
653	-6.05000e+00	3.336085e-05	
654	-6.10000e+00	3.338670e-05	
655	-6.15000e+00	3.341237e-05	
656	-6.20000e+00	3.343786e-05	
657	-6.25000e+00	3.346318e-05	
658	-6.30000e+00	3.348835e-05	
659	-6.35000e+00	3.351339e-05	
660	-6.40000e+00	3.353829e-05	
661	-6.45000e+00	3.356309e-05	
662	-6.50000e+00	3.358780e-05	
663	-6.55000e+00	3.361244e-05	
664	-6.60000e+00	3.363703e-05	
665	0.000000e+00	0.000000e+00	
666	-5.00000e-02	1.140582e-06	
667	-1.00000e-01	2.263206e-06	
668	-1.50000e-01	3.369977e-06	
669	-2.00000e-01	4.461406e-06	
670	-2.50000e-01	5.537631e-06	
671	-3.00000e-01	6.598702e-06	
672	-3.50000e-01	7.644650e-06	
673	-4.00000e-01	8.675503e-06	
674	-4.50000e-01	9.691284e-06	
675	-5.00000e-01	1.069202e-05	
676	-5.50000e-01	1.167773e-05	
677	-6.00000e-01	1.264845e-05	
678	-6.50000e-01	1.360419e-05	
679	-7.00000e-01	1.454499e-05	
680	-7.50000e-01	1.547086e-05	
681	-8.00000e-01	1.638183e-05	
682	-8.50000e-01	1.727793e-05	
683	-9.00000e-01	1.815918e-05	
684	-9.50000e-01	1.902560e-05	
685	-1.00000e+00	1.987722e-05	
686	-1.05000e+00	2.071406e-05	
687	-1.10000e+00	2.153615e-05	
688	-1.15000e+00	2.234351e-05	
689	-1.20000e+00	2.313617e-05	
690	-1.25000e+00	2.391414e-05	
691	-1.30000e+00	2.467746e-05	
692	-1.35000e+00	2.542614e-05	

Index   v-sweep         i(vds)          
--------------------------------------------------------------------------------
693	-1.40000e+00	2.616022e-05	
694	-1.45000e+00	2.687971e-05	
695	-1.50000e+00	2.758464e-05	
696	-1.55000e+00	2.827503e-05	
697	-1.60000e+00	2.895091e-05	
698	-1.65000e+00	2.961230e-05	
699	-1.70000e+00	3.025923e-05	
700	-1.75000e+00	3.089171e-05	
701	-1.80000e+00	3.150978e-05	
702	-1.85000e+00	3.211346e-05	
703	-1.90000e+00	3.270277e-05	
704	-1.95000e+00	3.327773e-05	
705	-2.00000e+00	3.383837e-05	
706	-2.05000e+00	3.438472e-05	
707	-2.10000e+00	3.491679e-05	
708	-2.15000e+00	3.543462e-05	
709	-2.20000e+00	3.593822e-05	
710	-2.25000e+00	3.642763e-05	
711	-2.30000e+00	3.690287e-05	
712	-2.35000e+00	3.736396e-05	
713	-2.40000e+00	3.781093e-05	
714	-2.45000e+00	3.824381e-05	
715	-2.50000e+00	3.866262e-05	
716	-2.55000e+00	3.906739e-05	
717	-2.60000e+00	3.945816e-05	
718	-2.65000e+00	3.983494e-05	
719	-2.70000e+00	4.019779e-05	
720	-2.75000e+00	4.054672e-05	
721	-2.80000e+00	4.088177e-05	
722	-2.85000e+00	4.120299e-05	
723	-2.90000e+00	4.151043e-05	
724	-2.95000e+00	4.180412e-05	
725	-3.00000e+00	4.208413e-05	
726	-3.05000e+00	4.235053e-05	
727	-3.10000e+00	4.260339e-05	
728	-3.15000e+00	4.284283e-05	
729	-3.20000e+00	4.306896e-05	
730	-3.25000e+00	4.328194e-05	
731	-3.30000e+00	4.348199e-05	
732	-3.35000e+00	4.366937e-05	
733	-3.40000e+00	4.384445e-05	
734	-3.45000e+00	4.400767e-05	
735	-3.50000e+00	4.415965e-05	
736	-3.55000e+00	4.430111e-05	
737	-3.60000e+00	4.443293e-05	
738	-3.65000e+00	4.455610e-05	
739	-3.70000e+00	4.467164e-05	
740	-3.75000e+00	4.478054e-05	
741	-3.80000e+00	4.488371e-05	
742	-3.85000e+00	4.498192e-05	
743	-3.90000e+00	4.507581e-05	
744	-3.95000e+00	4.516592e-05	
745	-4.00000e+00	4.525265e-05	
746	-4.05000e+00	4.533634e-05	
747	-4.10000e+00	4.541729e-05	
748	-4.15000e+00	4.549571e-05	
749	-4.20000e+00	4.557182e-05	
750	-4.25000e+00	4.564578e-05	

Index   v-sweep         i(vds)          
--------------------------------------------------------------------------------
751	-4.30000e+00	4.571775e-05	
752	-4.35000e+00	4.578785e-05	
753	-4.40000e+00	4.585620e-05	
754	-4.45000e+00	4.592292e-05	
755	-4.50000e+00	4.598809e-05	
756	-4.55000e+00	4.605181e-05	
757	-4.60000e+00	4.611415e-05	
758	-4.65000e+00	4.617518e-05	
759	-4.70000e+00	4.623498e-05	
760	-4.75000e+00	4.629361e-05	
761	-4.80000e+00	4.635112e-05	
762	-4.85000e+00	4.640757e-05	
763	-4.90000e+00	4.646300e-05	
764	-4.95000e+00	4.651747e-05	
765	-5.00000e+00	4.657101e-05	
766	-5.05000e+00	4.662367e-05	
767	-5.10000e+00	4.667548e-05	
768	-5.15000e+00	4.672648e-05	
769	-5.20000e+00	4.677671e-05	
770	-5.25000e+00	4.682618e-05	
771	-5.30000e+00	4.687494e-05	
772	-5.35000e+00	4.692301e-05	
773	-5.40000e+00	4.697041e-05	
774	-5.45000e+00	4.701718e-05	
775	-5.50000e+00	4.706333e-05	
776	-5.55000e+00	4.710888e-05	
777	-5.60000e+00	4.715386e-05	
778	-5.65000e+00	4.719829e-05	
779	-5.70000e+00	4.724218e-05	
780	-5.75000e+00	4.728556e-05	
781	-5.80000e+00	4.732844e-05	
782	-5.85000e+00	4.737083e-05	
783	-5.90000e+00	4.741276e-05	
784	-5.95000e+00	4.745423e-05	
785	-6.00000e+00	4.749526e-05	
786	-6.05000e+00	4.753587e-05	
787	-6.10000e+00	4.757606e-05	
788	-6.15000e+00	4.761586e-05	
789	-6.20000e+00	4.765526e-05	
790	-6.25000e+00	4.769429e-05	
791	-6.30000e+00	4.773296e-05	
792	-6.35000e+00	4.777126e-05	
793	-6.40000e+00	4.780923e-05	
794	-6.45000e+00	4.784686e-05	
795	-6.50000e+00	4.788418e-05	
796	-6.55000e+00	4.792118e-05	
797	-6.60000e+00	4.795788e-05	
Note: No ".plot", ".print", or ".fourier" lines; no simulations run
