
Note: Compatibility modes selected: hs

Warning: m=xx on .subckt line will override multiplier m hierarchy!


Circuit: ***************************

Doing analysis at TEMP = 125.000000 and TNOM = 125.000000


No. of Data Rows : 798
                          ***************************
                          DC transfer characteristic  Mon Jan  9 13:57:53  2023
--------------------------------------------------------------------------------
Index   v-sweep         i(vds)          
--------------------------------------------------------------------------------
0	0.000000e+00	0.000000e+00	
1	-5.00000e-02	5.737858e-07	
2	-1.00000e-01	1.037089e-06	
3	-1.50000e-01	1.398466e-06	
4	-2.00000e-01	1.662306e-06	
5	-2.50000e-01	1.835333e-06	
6	-3.00000e-01	1.933373e-06	
7	-3.50000e-01	1.984524e-06	
8	-4.00000e-01	2.015052e-06	
9	-4.50000e-01	2.037928e-06	
10	-5.00000e-01	2.057697e-06	
11	-5.50000e-01	2.075916e-06	
12	-6.00000e-01	2.093194e-06	
13	-6.50000e-01	2.109806e-06	
14	-7.00000e-01	2.125901e-06	
15	-7.50000e-01	2.141566e-06	
16	-8.00000e-01	2.156861e-06	
17	-8.50000e-01	2.171830e-06	
18	-9.00000e-01	2.186507e-06	
19	-9.50000e-01	2.200919e-06	
20	-1.00000e+00	2.215089e-06	
21	-1.05000e+00	2.229037e-06	
22	-1.10000e+00	2.242780e-06	
23	-1.15000e+00	2.256332e-06	
24	-1.20000e+00	2.269708e-06	
25	-1.25000e+00	2.282919e-06	
26	-1.30000e+00	2.295976e-06	
27	-1.35000e+00	2.308890e-06	
28	-1.40000e+00	2.321668e-06	
29	-1.45000e+00	2.334320e-06	
30	-1.50000e+00	2.346852e-06	
31	-1.55000e+00	2.359272e-06	
32	-1.60000e+00	2.371586e-06	
33	-1.65000e+00	2.383800e-06	
34	-1.70000e+00	2.395920e-06	
35	-1.75000e+00	2.407951e-06	
36	-1.80000e+00	2.419897e-06	
37	-1.85000e+00	2.431762e-06	
38	-1.90000e+00	2.443552e-06	
39	-1.95000e+00	2.455270e-06	
40	-2.00000e+00	2.466919e-06	
41	-2.05000e+00	2.478503e-06	
42	-2.10000e+00	2.490025e-06	
43	-2.15000e+00	2.501489e-06	
44	-2.20000e+00	2.512896e-06	
45	-2.25000e+00	2.524250e-06	
46	-2.30000e+00	2.535554e-06	
47	-2.35000e+00	2.546809e-06	
48	-2.40000e+00	2.558017e-06	
49	-2.45000e+00	2.569182e-06	
50	-2.50000e+00	2.580305e-06	
51	-2.55000e+00	2.591388e-06	
52	-2.60000e+00	2.602432e-06	
53	-2.65000e+00	2.613440e-06	
54	-2.70000e+00	2.624413e-06	

Index   v-sweep         i(vds)          
--------------------------------------------------------------------------------
55	-2.75000e+00	2.635353e-06	
56	-2.80000e+00	2.646262e-06	
57	-2.85000e+00	2.657139e-06	
58	-2.90000e+00	2.667989e-06	
59	-2.95000e+00	2.678810e-06	
60	-3.00000e+00	2.689605e-06	
61	-3.05000e+00	2.700376e-06	
62	-3.10000e+00	2.711122e-06	
63	-3.15000e+00	2.721846e-06	
64	-3.20000e+00	2.732549e-06	
65	-3.25000e+00	2.743231e-06	
66	-3.30000e+00	2.753894e-06	
67	-3.35000e+00	2.764540e-06	
68	-3.40000e+00	2.775169e-06	
69	-3.45000e+00	2.785782e-06	
70	-3.50000e+00	2.796382e-06	
71	-3.55000e+00	2.806968e-06	
72	-3.60000e+00	2.817544e-06	
73	-3.65000e+00	2.828109e-06	
74	-3.70000e+00	2.838667e-06	
75	-3.75000e+00	2.849219e-06	
76	-3.80000e+00	2.859766e-06	
77	-3.85000e+00	2.870311e-06	
78	-3.90000e+00	2.880857e-06	
79	-3.95000e+00	2.891405e-06	
80	-4.00000e+00	2.901960e-06	
81	-4.05000e+00	2.912523e-06	
82	-4.10000e+00	2.923099e-06	
83	-4.15000e+00	2.933691e-06	
84	-4.20000e+00	2.944303e-06	
85	-4.25000e+00	2.954941e-06	
86	-4.30000e+00	2.965610e-06	
87	-4.35000e+00	2.976314e-06	
88	-4.40000e+00	2.987061e-06	
89	-4.45000e+00	2.997857e-06	
90	-4.50000e+00	3.008709e-06	
91	-4.55000e+00	3.019625e-06	
92	-4.60000e+00	3.030615e-06	
93	-4.65000e+00	3.041687e-06	
94	-4.70000e+00	3.052851e-06	
95	-4.75000e+00	3.064120e-06	
96	-4.80000e+00	3.075504e-06	
97	-4.85000e+00	3.087017e-06	
98	-4.90000e+00	3.098672e-06	
99	-4.95000e+00	3.110484e-06	
100	-5.00000e+00	3.122469e-06	
101	-5.05000e+00	3.134644e-06	
102	-5.10000e+00	3.147026e-06	
103	-5.15000e+00	3.159635e-06	
104	-5.20000e+00	3.172491e-06	
105	-5.25000e+00	3.185616e-06	
106	-5.30000e+00	3.199032e-06	
107	-5.35000e+00	3.212764e-06	
108	-5.40000e+00	3.226837e-06	
109	-5.45000e+00	3.241277e-06	
110	-5.50000e+00	3.256114e-06	
111	-5.55000e+00	3.271376e-06	
112	-5.60000e+00	3.287096e-06	

Index   v-sweep         i(vds)          
--------------------------------------------------------------------------------
113	-5.65000e+00	3.303305e-06	
114	-5.70000e+00	3.320038e-06	
115	-5.75000e+00	3.337331e-06	
116	-5.80000e+00	3.355221e-06	
117	-5.85000e+00	3.373748e-06	
118	-5.90000e+00	3.392951e-06	
119	-5.95000e+00	3.412873e-06	
120	-6.00000e+00	3.433559e-06	
121	-6.05000e+00	3.455054e-06	
122	-6.10000e+00	3.477406e-06	
123	-6.15000e+00	3.500663e-06	
124	-6.20000e+00	3.524877e-06	
125	-6.25000e+00	3.550101e-06	
126	-6.30000e+00	3.576389e-06	
127	-6.35000e+00	3.603797e-06	
128	-6.40000e+00	3.632385e-06	
129	-6.45000e+00	3.662211e-06	
130	-6.50000e+00	3.693338e-06	
131	-6.55000e+00	3.725829e-06	
132	-6.60000e+00	3.759751e-06	
133	0.000000e+00	0.000000e+00	
134	-5.00000e-02	2.276770e-06	
135	-1.00000e-01	4.431905e-06	
136	-1.50000e-01	6.473203e-06	
137	-2.00000e-01	8.403135e-06	
138	-2.50000e-01	1.022293e-05	
139	-3.00000e-01	1.193352e-05	
140	-3.50000e-01	1.353577e-05	
141	-4.00000e-01	1.503053e-05	
142	-4.50000e-01	1.641866e-05	
143	-5.00000e-01	1.770103e-05	
144	-5.50000e-01	1.887852e-05	
145	-6.00000e-01	1.995207e-05	
146	-6.50000e-01	2.092270e-05	
147	-7.00000e-01	2.179153e-05	
148	-7.50000e-01	2.255996e-05	
149	-8.00000e-01	2.322980e-05	
150	-8.50000e-01	2.380365e-05	
151	-9.00000e-01	2.428562e-05	
152	-9.50000e-01	2.468236e-05	
153	-1.00000e+00	2.500439e-05	
154	-1.05000e+00	2.526629e-05	
155	-1.10000e+00	2.548444e-05	
156	-1.15000e+00	2.567315e-05	
157	-1.20000e+00	2.584246e-05	
158	-1.25000e+00	2.599852e-05	
159	-1.30000e+00	2.614490e-05	
160	-1.35000e+00	2.628375e-05	
161	-1.40000e+00	2.641641e-05	
162	-1.45000e+00	2.654377e-05	
163	-1.50000e+00	2.666650e-05	
164	-1.55000e+00	2.678510e-05	
165	-1.60000e+00	2.689996e-05	
166	-1.65000e+00	2.701143e-05	
167	-1.70000e+00	2.711977e-05	
168	-1.75000e+00	2.722524e-05	
169	-1.80000e+00	2.732804e-05	
170	-1.85000e+00	2.742836e-05	

Index   v-sweep         i(vds)          
--------------------------------------------------------------------------------
171	-1.90000e+00	2.752636e-05	
172	-1.95000e+00	2.762220e-05	
173	-2.00000e+00	2.771601e-05	
174	-2.05000e+00	2.780791e-05	
175	-2.10000e+00	2.789801e-05	
176	-2.15000e+00	2.798642e-05	
177	-2.20000e+00	2.807322e-05	
178	-2.25000e+00	2.815851e-05	
179	-2.30000e+00	2.824236e-05	
180	-2.35000e+00	2.832485e-05	
181	-2.40000e+00	2.840604e-05	
182	-2.45000e+00	2.848600e-05	
183	-2.50000e+00	2.856478e-05	
184	-2.55000e+00	2.864244e-05	
185	-2.60000e+00	2.871903e-05	
186	-2.65000e+00	2.879460e-05	
187	-2.70000e+00	2.886919e-05	
188	-2.75000e+00	2.894284e-05	
189	-2.80000e+00	2.901559e-05	
190	-2.85000e+00	2.908749e-05	
191	-2.90000e+00	2.915856e-05	
192	-2.95000e+00	2.922883e-05	
193	-3.00000e+00	2.929834e-05	
194	-3.05000e+00	2.936712e-05	
195	-3.10000e+00	2.943519e-05	
196	-3.15000e+00	2.950258e-05	
197	-3.20000e+00	2.956931e-05	
198	-3.25000e+00	2.963542e-05	
199	-3.30000e+00	2.970091e-05	
200	-3.35000e+00	2.976581e-05	
201	-3.40000e+00	2.983015e-05	
202	-3.45000e+00	2.989393e-05	
203	-3.50000e+00	2.995719e-05	
204	-3.55000e+00	3.001993e-05	
205	-3.60000e+00	3.008217e-05	
206	-3.65000e+00	3.014393e-05	
207	-3.70000e+00	3.020523e-05	
208	-3.75000e+00	3.026608e-05	
209	-3.80000e+00	3.032649e-05	
210	-3.85000e+00	3.038648e-05	
211	-3.90000e+00	3.044606e-05	
212	-3.95000e+00	3.050525e-05	
213	-4.00000e+00	3.056406e-05	
214	-4.05000e+00	3.062251e-05	
215	-4.10000e+00	3.068060e-05	
216	-4.15000e+00	3.073835e-05	
217	-4.20000e+00	3.079578e-05	
218	-4.25000e+00	3.085290e-05	
219	-4.30000e+00	3.090973e-05	
220	-4.35000e+00	3.096629e-05	
221	-4.40000e+00	3.102259e-05	
222	-4.45000e+00	3.107865e-05	
223	-4.50000e+00	3.113450e-05	
224	-4.55000e+00	3.119015e-05	
225	-4.60000e+00	3.124563e-05	
226	-4.65000e+00	3.130097e-05	
227	-4.70000e+00	3.135620e-05	
228	-4.75000e+00	3.141135e-05	

Index   v-sweep         i(vds)          
--------------------------------------------------------------------------------
229	-4.80000e+00	3.146646e-05	
230	-4.85000e+00	3.152156e-05	
231	-4.90000e+00	3.157670e-05	
232	-4.95000e+00	3.163192e-05	
233	-5.00000e+00	3.168728e-05	
234	-5.05000e+00	3.174283e-05	
235	-5.10000e+00	3.179864e-05	
236	-5.15000e+00	3.185477e-05	
237	-5.20000e+00	3.191129e-05	
238	-5.25000e+00	3.196829e-05	
239	-5.30000e+00	3.202584e-05	
240	-5.35000e+00	3.208405e-05	
241	-5.40000e+00	3.214301e-05	
242	-5.45000e+00	3.220283e-05	
243	-5.50000e+00	3.226362e-05	
244	-5.55000e+00	3.232551e-05	
245	-5.60000e+00	3.238864e-05	
246	-5.65000e+00	3.245314e-05	
247	-5.70000e+00	3.251917e-05	
248	-5.75000e+00	3.258689e-05	
249	-5.80000e+00	3.265647e-05	
250	-5.85000e+00	3.272809e-05	
251	-5.90000e+00	3.280196e-05	
252	-5.95000e+00	3.287827e-05	
253	-6.00000e+00	3.295724e-05	
254	-6.05000e+00	3.303910e-05	
255	-6.10000e+00	3.312409e-05	
256	-6.15000e+00	3.321246e-05	
257	-6.20000e+00	3.330448e-05	
258	-6.25000e+00	3.340043e-05	
259	-6.30000e+00	3.350060e-05	
260	-6.35000e+00	3.360530e-05	
261	-6.40000e+00	3.371483e-05	
262	-6.45000e+00	3.382954e-05	
263	-6.50000e+00	3.394978e-05	
264	-6.55000e+00	3.407590e-05	
265	-6.60000e+00	3.420827e-05	
266	0.000000e+00	0.000000e+00	
267	-5.00000e-02	3.640266e-06	
268	-1.00000e-01	7.161689e-06	
269	-1.50000e-01	1.057195e-05	
270	-2.00000e-01	1.387341e-05	
271	-2.50000e-01	1.706717e-05	
272	-3.00000e-01	2.015404e-05	
273	-3.50000e-01	2.313479e-05	
274	-4.00000e-01	2.601011e-05	
275	-4.50000e-01	2.878072e-05	
276	-5.00000e-01	3.144734e-05	
277	-5.50000e-01	3.401065e-05	
278	-6.00000e-01	3.647136e-05	
279	-6.50000e-01	3.883016e-05	
280	-7.00000e-01	4.108773e-05	
281	-7.50000e-01	4.324476e-05	
282	-8.00000e-01	4.530193e-05	
283	-8.50000e-01	4.725993e-05	
284	-9.00000e-01	4.911945e-05	
285	-9.50000e-01	5.088116e-05	
286	-1.00000e+00	5.254577e-05	

Index   v-sweep         i(vds)          
--------------------------------------------------------------------------------
287	-1.05000e+00	5.411399e-05	
288	-1.10000e+00	5.558655e-05	
289	-1.15000e+00	5.696421e-05	
290	-1.20000e+00	5.824779e-05	
291	-1.25000e+00	5.943817e-05	
292	-1.30000e+00	6.053638e-05	
293	-1.35000e+00	6.154362e-05	
294	-1.40000e+00	6.246143e-05	
295	-1.45000e+00	6.329183e-05	
296	-1.50000e+00	6.403767e-05	
297	-1.55000e+00	6.470304e-05	
298	-1.60000e+00	6.529380e-05	
299	-1.65000e+00	6.581793e-05	
300	-1.70000e+00	6.628530e-05	
301	-1.75000e+00	6.670654e-05	
302	-1.80000e+00	6.709151e-05	
303	-1.85000e+00	6.744816e-05	
304	-1.90000e+00	6.778237e-05	
305	-1.95000e+00	6.809827e-05	
306	-2.00000e+00	6.839881e-05	
307	-2.05000e+00	6.868610e-05	
308	-2.10000e+00	6.896175e-05	
309	-2.15000e+00	6.922701e-05	
310	-2.20000e+00	6.948290e-05	
311	-2.25000e+00	6.973026e-05	
312	-2.30000e+00	6.996981e-05	
313	-2.35000e+00	7.020217e-05	
314	-2.40000e+00	7.042789e-05	
315	-2.45000e+00	7.064744e-05	
316	-2.50000e+00	7.086124e-05	
317	-2.55000e+00	7.106968e-05	
318	-2.60000e+00	7.127311e-05	
319	-2.65000e+00	7.147182e-05	
320	-2.70000e+00	7.166612e-05	
321	-2.75000e+00	7.185624e-05	
322	-2.80000e+00	7.204243e-05	
323	-2.85000e+00	7.222490e-05	
324	-2.90000e+00	7.240385e-05	
325	-2.95000e+00	7.257947e-05	
326	-3.00000e+00	7.275192e-05	
327	-3.05000e+00	7.292137e-05	
328	-3.10000e+00	7.308794e-05	
329	-3.15000e+00	7.325179e-05	
330	-3.20000e+00	7.341304e-05	
331	-3.25000e+00	7.357180e-05	
332	-3.30000e+00	7.372818e-05	
333	-3.35000e+00	7.388229e-05	
334	-3.40000e+00	7.403423e-05	
335	-3.45000e+00	7.418407e-05	
336	-3.50000e+00	7.433192e-05	
337	-3.55000e+00	7.447784e-05	
338	-3.60000e+00	7.462192e-05	
339	-3.65000e+00	7.476423e-05	
340	-3.70000e+00	7.490482e-05	
341	-3.75000e+00	7.504377e-05	
342	-3.80000e+00	7.518114e-05	
343	-3.85000e+00	7.531698e-05	
344	-3.90000e+00	7.545134e-05	

Index   v-sweep         i(vds)          
--------------------------------------------------------------------------------
345	-3.95000e+00	7.558429e-05	
346	-4.00000e+00	7.571586e-05	
347	-4.05000e+00	7.584610e-05	
348	-4.10000e+00	7.597506e-05	
349	-4.15000e+00	7.610277e-05	
350	-4.20000e+00	7.622929e-05	
351	-4.25000e+00	7.635465e-05	
352	-4.30000e+00	7.647888e-05	
353	-4.35000e+00	7.660202e-05	
354	-4.40000e+00	7.672411e-05	
355	-4.45000e+00	7.684518e-05	
356	-4.50000e+00	7.696526e-05	
357	-4.55000e+00	7.708439e-05	
358	-4.60000e+00	7.720259e-05	
359	-4.65000e+00	7.731991e-05	
360	-4.70000e+00	7.743636e-05	
361	-4.75000e+00	7.755200e-05	
362	-4.80000e+00	7.766684e-05	
363	-4.85000e+00	7.778092e-05	
364	-4.90000e+00	7.789428e-05	
365	-4.95000e+00	7.800696e-05	
366	-5.00000e+00	7.811900e-05	
367	-5.05000e+00	7.823044e-05	
368	-5.10000e+00	7.834134e-05	
369	-5.15000e+00	7.845173e-05	
370	-5.20000e+00	7.856168e-05	
371	-5.25000e+00	7.867124e-05	
372	-5.30000e+00	7.878049e-05	
373	-5.35000e+00	7.888950e-05	
374	-5.40000e+00	7.899835e-05	
375	-5.45000e+00	7.910711e-05	
376	-5.50000e+00	7.921590e-05	
377	-5.55000e+00	7.932482e-05	
378	-5.60000e+00	7.943398e-05	
379	-5.65000e+00	7.954351e-05	
380	-5.70000e+00	7.965356e-05	
381	-5.75000e+00	7.976427e-05	
382	-5.80000e+00	7.987580e-05	
383	-5.85000e+00	7.998835e-05	
384	-5.90000e+00	8.010210e-05	
385	-5.95000e+00	8.021727e-05	
386	-6.00000e+00	8.033409e-05	
387	-6.05000e+00	8.045280e-05	
388	-6.10000e+00	8.057368e-05	
389	-6.15000e+00	8.069701e-05	
390	-6.20000e+00	8.082309e-05	
391	-6.25000e+00	8.095226e-05	
392	-6.30000e+00	8.108488e-05	
393	-6.35000e+00	8.122131e-05	
394	-6.40000e+00	8.136196e-05	
395	-6.45000e+00	8.150725e-05	
396	-6.50000e+00	8.165763e-05	
397	-6.55000e+00	8.181359e-05	
398	-6.60000e+00	8.197563e-05	
399	0.000000e+00	0.000000e+00	
400	-5.00000e-02	4.785995e-06	
401	-1.00000e-01	9.456894e-06	
402	-1.50000e-01	1.402029e-05	

Index   v-sweep         i(vds)          
--------------------------------------------------------------------------------
403	-2.00000e-01	1.847846e-05	
404	-2.50000e-01	2.283242e-05	
405	-3.00000e-01	2.708290e-05	
406	-3.50000e-01	3.123056e-05	
407	-4.00000e-01	3.527604e-05	
408	-4.50000e-01	3.921997e-05	
409	-5.00000e-01	4.306296e-05	
410	-5.50000e-01	4.680564e-05	
411	-6.00000e-01	5.044863e-05	
412	-6.50000e-01	5.399252e-05	
413	-7.00000e-01	5.743792e-05	
414	-7.50000e-01	6.078543e-05	
415	-8.00000e-01	6.403565e-05	
416	-8.50000e-01	6.718917e-05	
417	-9.00000e-01	7.024658e-05	
418	-9.50000e-01	7.320846e-05	
419	-1.00000e+00	7.607538e-05	
420	-1.05000e+00	7.884793e-05	
421	-1.10000e+00	8.152668e-05	
422	-1.15000e+00	8.411220e-05	
423	-1.20000e+00	8.660506e-05	
424	-1.25000e+00	8.900582e-05	
425	-1.30000e+00	9.131506e-05	
426	-1.35000e+00	9.353334e-05	
427	-1.40000e+00	9.566123e-05	
428	-1.45000e+00	9.769930e-05	
429	-1.50000e+00	9.964814e-05	
430	-1.55000e+00	1.015083e-04	
431	-1.60000e+00	1.032804e-04	
432	-1.65000e+00	1.049651e-04	
433	-1.70000e+00	1.065630e-04	
434	-1.75000e+00	1.080749e-04	
435	-1.80000e+00	1.095013e-04	
436	-1.85000e+00	1.108433e-04	
437	-1.90000e+00	1.121017e-04	
438	-1.95000e+00	1.132777e-04	
439	-2.00000e+00	1.143729e-04	
440	-2.05000e+00	1.153889e-04	
441	-2.10000e+00	1.163285e-04	
442	-2.15000e+00	1.171948e-04	
443	-2.20000e+00	1.179925e-04	
444	-2.25000e+00	1.187273e-04	
445	-2.30000e+00	1.194058e-04	
446	-2.35000e+00	1.200354e-04	
447	-2.40000e+00	1.206233e-04	
448	-2.45000e+00	1.211756e-04	
449	-2.50000e+00	1.216977e-04	
450	-2.55000e+00	1.221936e-04	
451	-2.60000e+00	1.226665e-04	
452	-2.65000e+00	1.231192e-04	
453	-2.70000e+00	1.235538e-04	
454	-2.75000e+00	1.239719e-04	
455	-2.80000e+00	1.243751e-04	
456	-2.85000e+00	1.247646e-04	
457	-2.90000e+00	1.251415e-04	
458	-2.95000e+00	1.255069e-04	
459	-3.00000e+00	1.258615e-04	
460	-3.05000e+00	1.262062e-04	

Index   v-sweep         i(vds)          
--------------------------------------------------------------------------------
461	-3.10000e+00	1.265415e-04	
462	-3.15000e+00	1.268681e-04	
463	-3.20000e+00	1.271867e-04	
464	-3.25000e+00	1.274975e-04	
465	-3.30000e+00	1.278012e-04	
466	-3.35000e+00	1.280982e-04	
467	-3.40000e+00	1.283887e-04	
468	-3.45000e+00	1.286733e-04	
469	-3.50000e+00	1.289521e-04	
470	-3.55000e+00	1.292255e-04	
471	-3.60000e+00	1.294938e-04	
472	-3.65000e+00	1.297572e-04	
473	-3.70000e+00	1.300160e-04	
474	-3.75000e+00	1.302703e-04	
475	-3.80000e+00	1.305204e-04	
476	-3.85000e+00	1.307665e-04	
477	-3.90000e+00	1.310088e-04	
478	-3.95000e+00	1.312473e-04	
479	-4.00000e+00	1.314824e-04	
480	-4.05000e+00	1.317140e-04	
481	-4.10000e+00	1.319424e-04	
482	-4.15000e+00	1.321677e-04	
483	-4.20000e+00	1.323900e-04	
484	-4.25000e+00	1.326095e-04	
485	-4.30000e+00	1.328261e-04	
486	-4.35000e+00	1.330401e-04	
487	-4.40000e+00	1.332516e-04	
488	-4.45000e+00	1.334605e-04	
489	-4.50000e+00	1.336671e-04	
490	-4.55000e+00	1.338714e-04	
491	-4.60000e+00	1.340734e-04	
492	-4.65000e+00	1.342733e-04	
493	-4.70000e+00	1.344712e-04	
494	-4.75000e+00	1.346670e-04	
495	-4.80000e+00	1.348608e-04	
496	-4.85000e+00	1.350528e-04	
497	-4.90000e+00	1.352430e-04	
498	-4.95000e+00	1.354314e-04	
499	-5.00000e+00	1.356181e-04	
500	-5.05000e+00	1.358031e-04	
501	-5.10000e+00	1.359865e-04	
502	-5.15000e+00	1.361684e-04	
503	-5.20000e+00	1.363488e-04	
504	-5.25000e+00	1.365278e-04	
505	-5.30000e+00	1.367054e-04	
506	-5.35000e+00	1.368816e-04	
507	-5.40000e+00	1.370566e-04	
508	-5.45000e+00	1.372303e-04	
509	-5.50000e+00	1.374029e-04	
510	-5.55000e+00	1.375744e-04	
511	-5.60000e+00	1.377448e-04	
512	-5.65000e+00	1.379143e-04	
513	-5.70000e+00	1.380830e-04	
514	-5.75000e+00	1.382508e-04	
515	-5.80000e+00	1.384179e-04	
516	-5.85000e+00	1.385845e-04	
517	-5.90000e+00	1.387505e-04	
518	-5.95000e+00	1.389163e-04	

Index   v-sweep         i(vds)          
--------------------------------------------------------------------------------
519	-6.00000e+00	1.390818e-04	
520	-6.05000e+00	1.392472e-04	
521	-6.10000e+00	1.394127e-04	
522	-6.15000e+00	1.395785e-04	
523	-6.20000e+00	1.397448e-04	
524	-6.25000e+00	1.399118e-04	
525	-6.30000e+00	1.400798e-04	
526	-6.35000e+00	1.402489e-04	
527	-6.40000e+00	1.404195e-04	
528	-6.45000e+00	1.405920e-04	
529	-6.50000e+00	1.407666e-04	
530	-6.55000e+00	1.409437e-04	
531	-6.60000e+00	1.411237e-04	
532	0.000000e+00	0.000000e+00	
533	-5.00000e-02	5.776754e-06	
534	-1.00000e-01	1.144207e-05	
535	-1.50000e-01	1.700348e-05	
536	-2.00000e-01	2.246317e-05	
537	-2.50000e-01	2.782211e-05	
538	-3.00000e-01	3.308096e-05	
539	-3.50000e-01	3.824031e-05	
540	-4.00000e-01	4.330073e-05	
541	-4.50000e-01	4.826278e-05	
542	-5.00000e-01	5.312703e-05	
543	-5.50000e-01	5.789402e-05	
544	-6.00000e-01	6.256432e-05	
545	-6.50000e-01	6.713846e-05	
546	-7.00000e-01	7.161698e-05	
547	-7.50000e-01	7.600044e-05	
548	-8.00000e-01	8.028935e-05	
549	-8.50000e-01	8.448426e-05	
550	-9.00000e-01	8.858568e-05	
551	-9.50000e-01	9.259414e-05	
552	-1.00000e+00	9.651017e-05	
553	-1.05000e+00	1.003343e-04	
554	-1.10000e+00	1.040670e-04	
555	-1.15000e+00	1.077088e-04	
556	-1.20000e+00	1.112601e-04	
557	-1.25000e+00	1.147217e-04	
558	-1.30000e+00	1.180938e-04	
559	-1.35000e+00	1.213770e-04	
560	-1.40000e+00	1.245718e-04	
561	-1.45000e+00	1.276787e-04	
562	-1.50000e+00	1.306982e-04	
563	-1.55000e+00	1.336307e-04	
564	-1.60000e+00	1.364768e-04	
565	-1.65000e+00	1.392369e-04	
566	-1.70000e+00	1.419116e-04	
567	-1.75000e+00	1.445012e-04	
568	-1.80000e+00	1.470063e-04	
569	-1.85000e+00	1.494274e-04	
570	-1.90000e+00	1.517649e-04	
571	-1.95000e+00	1.540194e-04	
572	-2.00000e+00	1.561913e-04	
573	-2.05000e+00	1.582811e-04	
574	-2.10000e+00	1.602893e-04	
575	-2.15000e+00	1.622165e-04	
576	-2.20000e+00	1.640632e-04	

Index   v-sweep         i(vds)          
--------------------------------------------------------------------------------
577	-2.25000e+00	1.658300e-04	
578	-2.30000e+00	1.675174e-04	
579	-2.35000e+00	1.691262e-04	
580	-2.40000e+00	1.706570e-04	
581	-2.45000e+00	1.721108e-04	
582	-2.50000e+00	1.734884e-04	
583	-2.55000e+00	1.747911e-04	
584	-2.60000e+00	1.760204e-04	
585	-2.65000e+00	1.771780e-04	
586	-2.70000e+00	1.782665e-04	
587	-2.75000e+00	1.792888e-04	
588	-2.80000e+00	1.802488e-04	
589	-2.85000e+00	1.811508e-04	
590	-2.90000e+00	1.819999e-04	
591	-2.95000e+00	1.828012e-04	
592	-3.00000e+00	1.835598e-04	
593	-3.05000e+00	1.842801e-04	
594	-3.10000e+00	1.849663e-04	
595	-3.15000e+00	1.856219e-04	
596	-3.20000e+00	1.862497e-04	
597	-3.25000e+00	1.868524e-04	
598	-3.30000e+00	1.874322e-04	
599	-3.35000e+00	1.879911e-04	
600	-3.40000e+00	1.885307e-04	
601	-3.45000e+00	1.890525e-04	
602	-3.50000e+00	1.895579e-04	
603	-3.55000e+00	1.900481e-04	
604	-3.60000e+00	1.905242e-04	
605	-3.65000e+00	1.909870e-04	
606	-3.70000e+00	1.914375e-04	
607	-3.75000e+00	1.918765e-04	
608	-3.80000e+00	1.923046e-04	
609	-3.85000e+00	1.927226e-04	
610	-3.90000e+00	1.931310e-04	
611	-3.95000e+00	1.935303e-04	
612	-4.00000e+00	1.939211e-04	
613	-4.05000e+00	1.943038e-04	
614	-4.10000e+00	1.946789e-04	
615	-4.15000e+00	1.950468e-04	
616	-4.20000e+00	1.954077e-04	
617	-4.25000e+00	1.957621e-04	
618	-4.30000e+00	1.961102e-04	
619	-4.35000e+00	1.964524e-04	
620	-4.40000e+00	1.967888e-04	
621	-4.45000e+00	1.971199e-04	
622	-4.50000e+00	1.974458e-04	
623	-4.55000e+00	1.977667e-04	
624	-4.60000e+00	1.980828e-04	
625	-4.65000e+00	1.983944e-04	
626	-4.70000e+00	1.987016e-04	
627	-4.75000e+00	1.990046e-04	
628	-4.80000e+00	1.993035e-04	
629	-4.85000e+00	1.995986e-04	
630	-4.90000e+00	1.998899e-04	
631	-4.95000e+00	2.001776e-04	
632	-5.00000e+00	2.004619e-04	
633	-5.05000e+00	2.007427e-04	
634	-5.10000e+00	2.010204e-04	

Index   v-sweep         i(vds)          
--------------------------------------------------------------------------------
635	-5.15000e+00	2.012949e-04	
636	-5.20000e+00	2.015664e-04	
637	-5.25000e+00	2.018350e-04	
638	-5.30000e+00	2.021008e-04	
639	-5.35000e+00	2.023638e-04	
640	-5.40000e+00	2.026243e-04	
641	-5.45000e+00	2.028821e-04	
642	-5.50000e+00	2.031375e-04	
643	-5.55000e+00	2.033905e-04	
644	-5.60000e+00	2.036412e-04	
645	-5.65000e+00	2.038896e-04	
646	-5.70000e+00	2.041359e-04	
647	-5.75000e+00	2.043800e-04	
648	-5.80000e+00	2.046222e-04	
649	-5.85000e+00	2.048624e-04	
650	-5.90000e+00	2.051007e-04	
651	-5.95000e+00	2.053373e-04	
652	-6.00000e+00	2.055721e-04	
653	-6.05000e+00	2.058053e-04	
654	-6.10000e+00	2.060369e-04	
655	-6.15000e+00	2.062671e-04	
656	-6.20000e+00	2.064960e-04	
657	-6.25000e+00	2.067236e-04	
658	-6.30000e+00	2.069501e-04	
659	-6.35000e+00	2.071756e-04	
660	-6.40000e+00	2.074003e-04	
661	-6.45000e+00	2.076243e-04	
662	-6.50000e+00	2.078478e-04	
663	-6.55000e+00	2.080710e-04	
664	-6.60000e+00	2.082940e-04	
665	0.000000e+00	0.000000e+00	
666	-5.00000e-02	6.653294e-06	
667	-1.00000e-01	1.319851e-05	
668	-1.50000e-01	1.964312e-05	
669	-2.00000e-01	2.598927e-05	
670	-2.50000e-01	3.223785e-05	
671	-3.00000e-01	3.838948e-05	
672	-3.50000e-01	4.444470e-05	
673	-4.00000e-01	5.040402e-05	
674	-4.50000e-01	5.626795e-05	
675	-5.00000e-01	6.203700e-05	
676	-5.50000e-01	6.771168e-05	
677	-6.00000e-01	7.329249e-05	
678	-6.50000e-01	7.877991e-05	
679	-7.00000e-01	8.417445e-05	
680	-7.50000e-01	8.947659e-05	
681	-8.00000e-01	9.468682e-05	
682	-8.50000e-01	9.980562e-05	
683	-9.00000e-01	1.048335e-04	
684	-9.50000e-01	1.097708e-04	
685	-1.00000e+00	1.146182e-04	
686	-1.05000e+00	1.193761e-04	
687	-1.10000e+00	1.240449e-04	
688	-1.15000e+00	1.286250e-04	
689	-1.20000e+00	1.331171e-04	
690	-1.25000e+00	1.375214e-04	
691	-1.30000e+00	1.418386e-04	
692	-1.35000e+00	1.460689e-04	

Index   v-sweep         i(vds)          
--------------------------------------------------------------------------------
693	-1.40000e+00	1.502129e-04	
694	-1.45000e+00	1.542711e-04	
695	-1.50000e+00	1.582438e-04	
696	-1.55000e+00	1.621315e-04	
697	-1.60000e+00	1.659346e-04	
698	-1.65000e+00	1.696536e-04	
699	-1.70000e+00	1.732889e-04	
700	-1.75000e+00	1.768410e-04	
701	-1.80000e+00	1.803102e-04	
702	-1.85000e+00	1.836970e-04	
703	-1.90000e+00	1.870018e-04	
704	-1.95000e+00	1.902251e-04	
705	-2.00000e+00	1.933672e-04	
706	-2.05000e+00	1.964286e-04	
707	-2.10000e+00	1.994097e-04	
708	-2.15000e+00	2.023109e-04	
709	-2.20000e+00	2.051327e-04	
710	-2.25000e+00	2.078753e-04	
711	-2.30000e+00	2.105394e-04	
712	-2.35000e+00	2.131252e-04	
713	-2.40000e+00	2.156333e-04	
714	-2.45000e+00	2.180639e-04	
715	-2.50000e+00	2.204177e-04	
716	-2.55000e+00	2.226949e-04	
717	-2.60000e+00	2.248960e-04	
718	-2.65000e+00	2.270215e-04	
719	-2.70000e+00	2.290719e-04	
720	-2.75000e+00	2.310477e-04	
721	-2.80000e+00	2.329493e-04	
722	-2.85000e+00	2.347773e-04	
723	-2.90000e+00	2.365323e-04	
724	-2.95000e+00	2.382150e-04	
725	-3.00000e+00	2.398261e-04	
726	-3.05000e+00	2.413665e-04	
727	-3.10000e+00	2.428372e-04	
728	-3.15000e+00	2.442395e-04	
729	-3.20000e+00	2.455749e-04	
730	-3.25000e+00	2.468452e-04	
731	-3.30000e+00	2.480526e-04	
732	-3.35000e+00	2.491998e-04	
733	-3.40000e+00	2.502900e-04	
734	-3.45000e+00	2.513266e-04	
735	-3.50000e+00	2.523132e-04	
736	-3.55000e+00	2.532535e-04	
737	-3.60000e+00	2.541512e-04	
738	-3.65000e+00	2.550097e-04	
739	-3.70000e+00	2.558321e-04	
740	-3.75000e+00	2.566214e-04	
741	-3.80000e+00	2.573802e-04	
742	-3.85000e+00	2.581110e-04	
743	-3.90000e+00	2.588158e-04	
744	-3.95000e+00	2.594968e-04	
745	-4.00000e+00	2.601556e-04	
746	-4.05000e+00	2.607938e-04	
747	-4.10000e+00	2.614129e-04	
748	-4.15000e+00	2.620142e-04	
749	-4.20000e+00	2.625988e-04	
750	-4.25000e+00	2.631679e-04	

Index   v-sweep         i(vds)          
--------------------------------------------------------------------------------
751	-4.30000e+00	2.637223e-04	
752	-4.35000e+00	2.642631e-04	
753	-4.40000e+00	2.647910e-04	
754	-4.45000e+00	2.653068e-04	
755	-4.50000e+00	2.658111e-04	
756	-4.55000e+00	2.663046e-04	
757	-4.60000e+00	2.667879e-04	
758	-4.65000e+00	2.672614e-04	
759	-4.70000e+00	2.677257e-04	
760	-4.75000e+00	2.681813e-04	
761	-4.80000e+00	2.686286e-04	
762	-4.85000e+00	2.690679e-04	
763	-4.90000e+00	2.694997e-04	
764	-4.95000e+00	2.699242e-04	
765	-5.00000e+00	2.703419e-04	
766	-5.05000e+00	2.707529e-04	
767	-5.10000e+00	2.711577e-04	
768	-5.15000e+00	2.715564e-04	
769	-5.20000e+00	2.719493e-04	
770	-5.25000e+00	2.723367e-04	
771	-5.30000e+00	2.727187e-04	
772	-5.35000e+00	2.730956e-04	
773	-5.40000e+00	2.734675e-04	
774	-5.45000e+00	2.738347e-04	
775	-5.50000e+00	2.741973e-04	
776	-5.55000e+00	2.745555e-04	
777	-5.60000e+00	2.749094e-04	
778	-5.65000e+00	2.752592e-04	
779	-5.70000e+00	2.756050e-04	
780	-5.75000e+00	2.759471e-04	
781	-5.80000e+00	2.762854e-04	
782	-5.85000e+00	2.766201e-04	
783	-5.90000e+00	2.769514e-04	
784	-5.95000e+00	2.772793e-04	
785	-6.00000e+00	2.776040e-04	
786	-6.05000e+00	2.779255e-04	
787	-6.10000e+00	2.782440e-04	
788	-6.15000e+00	2.785595e-04	
789	-6.20000e+00	2.788722e-04	
790	-6.25000e+00	2.791821e-04	
791	-6.30000e+00	2.794894e-04	
792	-6.35000e+00	2.797941e-04	
793	-6.40000e+00	2.800964e-04	
794	-6.45000e+00	2.803963e-04	
795	-6.50000e+00	2.806939e-04	
796	-6.55000e+00	2.809893e-04	
797	-6.60000e+00	2.812827e-04	
Note: No ".plot", ".print", or ".fourier" lines; no simulations run
