
Note: Compatibility modes selected: hs

Warning: m=xx on .subckt line will override multiplier m hierarchy!


Circuit: ***************************

Doing analysis at TEMP = -40.000000 and TNOM = -40.000000


No. of Data Rows : 798
                          ***************************
                          DC transfer characteristic  Mon Jan  9 13:57:53  2023
--------------------------------------------------------------------------------
Index   v-sweep         i(vds)          
--------------------------------------------------------------------------------
0	0.000000e+00	0.000000e+00	
1	-5.00000e-02	3.148667e-07	
2	-1.00000e-01	3.871360e-07	
3	-1.50000e-01	3.999057e-07	
4	-2.00000e-01	4.046736e-07	
5	-2.50000e-01	4.076778e-07	
6	-3.00000e-01	4.100169e-07	
7	-3.50000e-01	4.120049e-07	
8	-4.00000e-01	4.137669e-07	
9	-4.50000e-01	4.153657e-07	
10	-5.00000e-01	4.168380e-07	
11	-5.50000e-01	4.182079e-07	
12	-6.00000e-01	4.194924e-07	
13	-6.50000e-01	4.207040e-07	
14	-7.00000e-01	4.218527e-07	
15	-7.50000e-01	4.229461e-07	
16	-8.00000e-01	4.239906e-07	
17	-8.50000e-01	4.249915e-07	
18	-9.00000e-01	4.259531e-07	
19	-9.50000e-01	4.268792e-07	
20	-1.00000e+00	4.277731e-07	
21	-1.05000e+00	4.286375e-07	
22	-1.10000e+00	4.294748e-07	
23	-1.15000e+00	4.302873e-07	
24	-1.20000e+00	4.310768e-07	
25	-1.25000e+00	4.318450e-07	
26	-1.30000e+00	4.325933e-07	
27	-1.35000e+00	4.333232e-07	
28	-1.40000e+00	4.340359e-07	
29	-1.45000e+00	4.347324e-07	
30	-1.50000e+00	4.354138e-07	
31	-1.55000e+00	4.360810e-07	
32	-1.60000e+00	4.367347e-07	
33	-1.65000e+00	4.373758e-07	
34	-1.70000e+00	4.380049e-07	
35	-1.75000e+00	4.386227e-07	
36	-1.80000e+00	4.392298e-07	
37	-1.85000e+00	4.398266e-07	
38	-1.90000e+00	4.404138e-07	
39	-1.95000e+00	4.409918e-07	
40	-2.00000e+00	4.415611e-07	
41	-2.05000e+00	4.421219e-07	
42	-2.10000e+00	4.426748e-07	
43	-2.15000e+00	4.432200e-07	
44	-2.20000e+00	4.437580e-07	
45	-2.25000e+00	4.442889e-07	
46	-2.30000e+00	4.448131e-07	
47	-2.35000e+00	4.453309e-07	
48	-2.40000e+00	4.458425e-07	
49	-2.45000e+00	4.463482e-07	
50	-2.50000e+00	4.468482e-07	
51	-2.55000e+00	4.473428e-07	
52	-2.60000e+00	4.478320e-07	
53	-2.65000e+00	4.483162e-07	
54	-2.70000e+00	4.487955e-07	

Index   v-sweep         i(vds)          
--------------------------------------------------------------------------------
55	-2.75000e+00	4.492700e-07	
56	-2.80000e+00	4.497401e-07	
57	-2.85000e+00	4.502058e-07	
58	-2.90000e+00	4.506673e-07	
59	-2.95000e+00	4.511248e-07	
60	-3.00000e+00	4.515784e-07	
61	-3.05000e+00	4.520284e-07	
62	-3.10000e+00	4.524748e-07	
63	-3.15000e+00	4.529179e-07	
64	-3.20000e+00	4.533578e-07	
65	-3.25000e+00	4.537948e-07	
66	-3.30000e+00	4.542290e-07	
67	-3.35000e+00	4.546607e-07	
68	-3.40000e+00	4.550900e-07	
69	-3.45000e+00	4.555173e-07	
70	-3.50000e+00	4.559429e-07	
71	-3.55000e+00	4.563670e-07	
72	-3.60000e+00	4.567899e-07	
73	-3.65000e+00	4.572122e-07	
74	-3.70000e+00	4.576341e-07	
75	-3.75000e+00	4.580561e-07	
76	-3.80000e+00	4.584787e-07	
77	-3.85000e+00	4.589026e-07	
78	-3.90000e+00	4.593282e-07	
79	-3.95000e+00	4.597563e-07	
80	-4.00000e+00	4.601877e-07	
81	-4.05000e+00	4.606230e-07	
82	-4.10000e+00	4.610633e-07	
83	-4.15000e+00	4.615095e-07	
84	-4.20000e+00	4.619625e-07	
85	-4.25000e+00	4.624237e-07	
86	-4.30000e+00	4.628942e-07	
87	-4.35000e+00	4.633754e-07	
88	-4.40000e+00	4.638686e-07	
89	-4.45000e+00	4.643756e-07	
90	-4.50000e+00	4.648980e-07	
91	-4.55000e+00	4.654375e-07	
92	-4.60000e+00	4.659962e-07	
93	-4.65000e+00	4.665760e-07	
94	-4.70000e+00	4.671792e-07	
95	-4.75000e+00	4.678082e-07	
96	-4.80000e+00	4.684653e-07	
97	-4.85000e+00	4.691534e-07	
98	-4.90000e+00	4.698751e-07	
99	-4.95000e+00	4.706335e-07	
100	-5.00000e+00	4.714316e-07	
101	-5.05000e+00	4.722727e-07	
102	-5.10000e+00	4.731604e-07	
103	-5.15000e+00	4.740981e-07	
104	-5.20000e+00	4.750898e-07	
105	-5.25000e+00	4.761395e-07	
106	-5.30000e+00	4.772512e-07	
107	-5.35000e+00	4.784294e-07	
108	-5.40000e+00	4.796786e-07	
109	-5.45000e+00	4.810035e-07	
110	-5.50000e+00	4.824091e-07	
111	-5.55000e+00	4.839004e-07	
112	-5.60000e+00	4.854827e-07	

Index   v-sweep         i(vds)          
--------------------------------------------------------------------------------
113	-5.65000e+00	4.871616e-07	
114	-5.70000e+00	4.889428e-07	
115	-5.75000e+00	4.908320e-07	
116	-5.80000e+00	4.928355e-07	
117	-5.85000e+00	4.949595e-07	
118	-5.90000e+00	4.972104e-07	
119	-5.95000e+00	4.995950e-07	
120	-6.00000e+00	5.021200e-07	
121	-6.05000e+00	5.047926e-07	
122	-6.10000e+00	5.076200e-07	
123	-6.15000e+00	5.106097e-07	
124	-6.20000e+00	5.137692e-07	
125	-6.25000e+00	5.171064e-07	
126	-6.30000e+00	5.206293e-07	
127	-6.35000e+00	5.243461e-07	
128	-6.40000e+00	5.282651e-07	
129	-6.45000e+00	5.323950e-07	
130	-6.50000e+00	5.367445e-07	
131	-6.55000e+00	5.413224e-07	
132	-6.60000e+00	5.461379e-07	
133	0.000000e+00	0.000000e+00	
134	-5.00000e-02	8.781581e-06	
135	-1.00000e-01	1.693576e-05	
136	-1.50000e-01	2.446966e-05	
137	-2.00000e-01	3.139032e-05	
138	-2.50000e-01	3.770480e-05	
139	-3.00000e-01	4.342015e-05	
140	-3.50000e-01	4.854358e-05	
141	-4.00000e-01	5.308256e-05	
142	-4.50000e-01	5.704517e-05	
143	-5.00000e-01	6.044073e-05	
144	-5.50000e-01	6.328118e-05	
145	-6.00000e-01	6.558397e-05	
146	-6.50000e-01	6.737810e-05	
147	-7.00000e-01	6.871441e-05	
148	-7.50000e-01	6.967483e-05	
149	-8.00000e-01	7.036377e-05	
150	-8.50000e-01	7.087810e-05	
151	-9.00000e-01	7.128512e-05	
152	-9.50000e-01	7.162422e-05	
153	-1.00000e+00	7.191745e-05	
154	-1.05000e+00	7.217760e-05	
155	-1.10000e+00	7.241258e-05	
156	-1.15000e+00	7.262761e-05	
157	-1.20000e+00	7.282635e-05	
158	-1.25000e+00	7.301148e-05	
159	-1.30000e+00	7.318502e-05	
160	-1.35000e+00	7.334858e-05	
161	-1.40000e+00	7.350341e-05	
162	-1.45000e+00	7.365055e-05	
163	-1.50000e+00	7.379086e-05	
164	-1.55000e+00	7.392505e-05	
165	-1.60000e+00	7.405373e-05	
166	-1.65000e+00	7.417741e-05	
167	-1.70000e+00	7.429656e-05	
168	-1.75000e+00	7.441154e-05	
169	-1.80000e+00	7.452272e-05	
170	-1.85000e+00	7.463038e-05	

Index   v-sweep         i(vds)          
--------------------------------------------------------------------------------
171	-1.90000e+00	7.473479e-05	
172	-1.95000e+00	7.483620e-05	
173	-2.00000e+00	7.493480e-05	
174	-2.05000e+00	7.503080e-05	
175	-2.10000e+00	7.512436e-05	
176	-2.15000e+00	7.521563e-05	
177	-2.20000e+00	7.530477e-05	
178	-2.25000e+00	7.539188e-05	
179	-2.30000e+00	7.547710e-05	
180	-2.35000e+00	7.556053e-05	
181	-2.40000e+00	7.564227e-05	
182	-2.45000e+00	7.572240e-05	
183	-2.50000e+00	7.580102e-05	
184	-2.55000e+00	7.587819e-05	
185	-2.60000e+00	7.595399e-05	
186	-2.65000e+00	7.602849e-05	
187	-2.70000e+00	7.610174e-05	
188	-2.75000e+00	7.617380e-05	
189	-2.80000e+00	7.624473e-05	
190	-2.85000e+00	7.631458e-05	
191	-2.90000e+00	7.638339e-05	
192	-2.95000e+00	7.645121e-05	
193	-3.00000e+00	7.651808e-05	
194	-3.05000e+00	7.658403e-05	
195	-3.10000e+00	7.664910e-05	
196	-3.15000e+00	7.671334e-05	
197	-3.20000e+00	7.677676e-05	
198	-3.25000e+00	7.683940e-05	
199	-3.30000e+00	7.690130e-05	
200	-3.35000e+00	7.696247e-05	
201	-3.40000e+00	7.702295e-05	
202	-3.45000e+00	7.708276e-05	
203	-3.50000e+00	7.714193e-05	
204	-3.55000e+00	7.720048e-05	
205	-3.60000e+00	7.725844e-05	
206	-3.65000e+00	7.731583e-05	
207	-3.70000e+00	7.737268e-05	
208	-3.75000e+00	7.742901e-05	
209	-3.80000e+00	7.748484e-05	
210	-3.85000e+00	7.754022e-05	
211	-3.90000e+00	7.759516e-05	
212	-3.95000e+00	7.764970e-05	
213	-4.00000e+00	7.770386e-05	
214	-4.05000e+00	7.775770e-05	
215	-4.10000e+00	7.781123e-05	
216	-4.15000e+00	7.786452e-05	
217	-4.20000e+00	7.791761e-05	
218	-4.25000e+00	7.797055e-05	
219	-4.30000e+00	7.802339e-05	
220	-4.35000e+00	7.807621e-05	
221	-4.40000e+00	7.812908e-05	
222	-4.45000e+00	7.818207e-05	
223	-4.50000e+00	7.823528e-05	
224	-4.55000e+00	7.828880e-05	
225	-4.60000e+00	7.834274e-05	
226	-4.65000e+00	7.839722e-05	
227	-4.70000e+00	7.845236e-05	
228	-4.75000e+00	7.850831e-05	

Index   v-sweep         i(vds)          
--------------------------------------------------------------------------------
229	-4.80000e+00	7.856523e-05	
230	-4.85000e+00	7.862329e-05	
231	-4.90000e+00	7.868266e-05	
232	-4.95000e+00	7.874356e-05	
233	-5.00000e+00	7.880619e-05	
234	-5.05000e+00	7.887081e-05	
235	-5.10000e+00	7.893765e-05	
236	-5.15000e+00	7.900699e-05	
237	-5.20000e+00	7.907912e-05	
238	-5.25000e+00	7.915437e-05	
239	-5.30000e+00	7.923307e-05	
240	-5.35000e+00	7.931557e-05	
241	-5.40000e+00	7.940226e-05	
242	-5.45000e+00	7.949354e-05	
243	-5.50000e+00	7.958986e-05	
244	-5.55000e+00	7.969166e-05	
245	-5.60000e+00	7.979942e-05	
246	-5.65000e+00	7.991367e-05	
247	-5.70000e+00	8.003494e-05	
248	-5.75000e+00	8.016379e-05	
249	-5.80000e+00	8.030082e-05	
250	-5.85000e+00	8.044665e-05	
251	-5.90000e+00	8.060195e-05	
252	-5.95000e+00	8.076738e-05	
253	-6.00000e+00	8.094367e-05	
254	-6.05000e+00	8.113157e-05	
255	-6.10000e+00	8.133184e-05	
256	-6.15000e+00	8.154529e-05	
257	-6.20000e+00	8.177278e-05	
258	-6.25000e+00	8.201515e-05	
259	-6.30000e+00	8.227333e-05	
260	-6.35000e+00	8.254825e-05	
261	-6.40000e+00	8.284086e-05	
262	-6.45000e+00	8.315218e-05	
263	-6.50000e+00	8.348323e-05	
264	-6.55000e+00	8.383508e-05	
265	-6.60000e+00	8.420883e-05	
266	0.000000e+00	0.000000e+00	
267	-5.00000e-02	1.547976e-05	
268	-1.00000e-01	3.035778e-05	
269	-1.50000e-01	4.463999e-05	
270	-2.00000e-01	5.833227e-05	
271	-2.50000e-01	7.144043e-05	
272	-3.00000e-01	8.397019e-05	
273	-3.50000e-01	9.592721e-05	
274	-4.00000e-01	1.073171e-04	
275	-4.50000e-01	1.181453e-04	
276	-5.00000e-01	1.284175e-04	
277	-5.50000e-01	1.381389e-04	
278	-6.00000e-01	1.473149e-04	
279	-6.50000e-01	1.559510e-04	
280	-7.00000e-01	1.640523e-04	
281	-7.50000e-01	1.716242e-04	
282	-8.00000e-01	1.786721e-04	
283	-8.50000e-01	1.852011e-04	
284	-9.00000e-01	1.912170e-04	
285	-9.50000e-01	1.967252e-04	
286	-1.00000e+00	2.017321e-04	

Index   v-sweep         i(vds)          
--------------------------------------------------------------------------------
287	-1.05000e+00	2.062442e-04	
288	-1.10000e+00	2.102696e-04	
289	-1.15000e+00	2.138184e-04	
290	-1.20000e+00	2.169043e-04	
291	-1.25000e+00	2.195474e-04	
292	-1.30000e+00	2.217777e-04	
293	-1.35000e+00	2.236383e-04	
294	-1.40000e+00	2.251849e-04	
295	-1.45000e+00	2.264790e-04	
296	-1.50000e+00	2.275779e-04	
297	-1.55000e+00	2.285283e-04	
298	-1.60000e+00	2.293651e-04	
299	-1.65000e+00	2.301135e-04	
300	-1.70000e+00	2.307915e-04	
301	-1.75000e+00	2.314122e-04	
302	-1.80000e+00	2.319855e-04	
303	-1.85000e+00	2.325189e-04	
304	-1.90000e+00	2.330183e-04	
305	-1.95000e+00	2.334883e-04	
306	-2.00000e+00	2.339326e-04	
307	-2.05000e+00	2.343543e-04	
308	-2.10000e+00	2.347559e-04	
309	-2.15000e+00	2.351397e-04	
310	-2.20000e+00	2.355074e-04	
311	-2.25000e+00	2.358605e-04	
312	-2.30000e+00	2.362004e-04	
313	-2.35000e+00	2.365283e-04	
314	-2.40000e+00	2.368452e-04	
315	-2.45000e+00	2.371519e-04	
316	-2.50000e+00	2.374492e-04	
317	-2.55000e+00	2.377379e-04	
318	-2.60000e+00	2.380185e-04	
319	-2.65000e+00	2.382917e-04	
320	-2.70000e+00	2.385578e-04	
321	-2.75000e+00	2.388175e-04	
322	-2.80000e+00	2.390710e-04	
323	-2.85000e+00	2.393188e-04	
324	-2.90000e+00	2.395612e-04	
325	-2.95000e+00	2.397985e-04	
326	-3.00000e+00	2.400310e-04	
327	-3.05000e+00	2.402590e-04	
328	-3.10000e+00	2.404826e-04	
329	-3.15000e+00	2.407022e-04	
330	-3.20000e+00	2.409179e-04	
331	-3.25000e+00	2.411299e-04	
332	-3.30000e+00	2.413384e-04	
333	-3.35000e+00	2.415436e-04	
334	-3.40000e+00	2.417455e-04	
335	-3.45000e+00	2.419444e-04	
336	-3.50000e+00	2.421404e-04	
337	-3.55000e+00	2.423336e-04	
338	-3.60000e+00	2.425242e-04	
339	-3.65000e+00	2.427121e-04	
340	-3.70000e+00	2.428976e-04	
341	-3.75000e+00	2.430808e-04	
342	-3.80000e+00	2.432617e-04	
343	-3.85000e+00	2.434404e-04	
344	-3.90000e+00	2.436170e-04	

Index   v-sweep         i(vds)          
--------------------------------------------------------------------------------
345	-3.95000e+00	2.437916e-04	
346	-4.00000e+00	2.439642e-04	
347	-4.05000e+00	2.441350e-04	
348	-4.10000e+00	2.443040e-04	
349	-4.15000e+00	2.444712e-04	
350	-4.20000e+00	2.446368e-04	
351	-4.25000e+00	2.448009e-04	
352	-4.30000e+00	2.449634e-04	
353	-4.35000e+00	2.451245e-04	
354	-4.40000e+00	2.452842e-04	
355	-4.45000e+00	2.454426e-04	
356	-4.50000e+00	2.455998e-04	
357	-4.55000e+00	2.457559e-04	
358	-4.60000e+00	2.459110e-04	
359	-4.65000e+00	2.460652e-04	
360	-4.70000e+00	2.462186e-04	
361	-4.75000e+00	2.463713e-04	
362	-4.80000e+00	2.465235e-04	
363	-4.85000e+00	2.466753e-04	
364	-4.90000e+00	2.468269e-04	
365	-4.95000e+00	2.469784e-04	
366	-5.00000e+00	2.471302e-04	
367	-5.05000e+00	2.472825e-04	
368	-5.10000e+00	2.474354e-04	
369	-5.15000e+00	2.475893e-04	
370	-5.20000e+00	2.477445e-04	
371	-5.25000e+00	2.479014e-04	
372	-5.30000e+00	2.480603e-04	
373	-5.35000e+00	2.482218e-04	
374	-5.40000e+00	2.483861e-04	
375	-5.45000e+00	2.485540e-04	
376	-5.50000e+00	2.487258e-04	
377	-5.55000e+00	2.489023e-04	
378	-5.60000e+00	2.490841e-04	
379	-5.65000e+00	2.492718e-04	
380	-5.70000e+00	2.494664e-04	
381	-5.75000e+00	2.496685e-04	
382	-5.80000e+00	2.498792e-04	
383	-5.85000e+00	2.500993e-04	
384	-5.90000e+00	2.503299e-04	
385	-5.95000e+00	2.505721e-04	
386	-6.00000e+00	2.508270e-04	
387	-6.05000e+00	2.510959e-04	
388	-6.10000e+00	2.513802e-04	
389	-6.15000e+00	2.516811e-04	
390	-6.20000e+00	2.520003e-04	
391	-6.25000e+00	2.523393e-04	
392	-6.30000e+00	2.526996e-04	
393	-6.35000e+00	2.530832e-04	
394	-6.40000e+00	2.534918e-04	
395	-6.45000e+00	2.539273e-04	
396	-6.50000e+00	2.543917e-04	
397	-6.55000e+00	2.548872e-04	
398	-6.60000e+00	2.554160e-04	
399	0.000000e+00	0.000000e+00	
400	-5.00000e-02	2.064679e-05	
401	-1.00000e-01	4.072692e-05	
402	-1.50000e-01	6.024542e-05	

Index   v-sweep         i(vds)          
--------------------------------------------------------------------------------
403	-2.00000e-01	7.920728e-05	
404	-2.50000e-01	9.761740e-05	
405	-3.00000e-01	1.154807e-04	
406	-3.50000e-01	1.328018e-04	
407	-4.00000e-01	1.495857e-04	
408	-4.50000e-01	1.658369e-04	
409	-5.00000e-01	1.815602e-04	
410	-5.50000e-01	1.967601e-04	
411	-6.00000e-01	2.114411e-04	
412	-6.50000e-01	2.256077e-04	
413	-7.00000e-01	2.392645e-04	
414	-7.50000e-01	2.524156e-04	
415	-8.00000e-01	2.650657e-04	
416	-8.50000e-01	2.772188e-04	
417	-9.00000e-01	2.888793e-04	
418	-9.50000e-01	3.000514e-04	
419	-1.00000e+00	3.107393e-04	
420	-1.05000e+00	3.209472e-04	
421	-1.10000e+00	3.306790e-04	
422	-1.15000e+00	3.399390e-04	
423	-1.20000e+00	3.487312e-04	
424	-1.25000e+00	3.570597e-04	
425	-1.30000e+00	3.649284e-04	
426	-1.35000e+00	3.723416e-04	
427	-1.40000e+00	3.793033e-04	
428	-1.45000e+00	3.858177e-04	
429	-1.50000e+00	3.918892e-04	
430	-1.55000e+00	3.975223e-04	
431	-1.60000e+00	4.027221e-04	
432	-1.65000e+00	4.074941e-04	
433	-1.70000e+00	4.118450e-04	
434	-1.75000e+00	4.157832e-04	
435	-1.80000e+00	4.193197e-04	
436	-1.85000e+00	4.224699e-04	
437	-1.90000e+00	4.252553e-04	
438	-1.95000e+00	4.277048e-04	
439	-2.00000e+00	4.298545e-04	
440	-2.05000e+00	4.317453e-04	
441	-2.10000e+00	4.334178e-04	
442	-2.15000e+00	4.349096e-04	
443	-2.20000e+00	4.362524e-04	
444	-2.25000e+00	4.374721e-04	
445	-2.30000e+00	4.385893e-04	
446	-2.35000e+00	4.396205e-04	
447	-2.40000e+00	4.405788e-04	
448	-2.45000e+00	4.414745e-04	
449	-2.50000e+00	4.423161e-04	
450	-2.55000e+00	4.431105e-04	
451	-2.60000e+00	4.438634e-04	
452	-2.65000e+00	4.445796e-04	
453	-2.70000e+00	4.452630e-04	
454	-2.75000e+00	4.459170e-04	
455	-2.80000e+00	4.465444e-04	
456	-2.85000e+00	4.471479e-04	
457	-2.90000e+00	4.477295e-04	
458	-2.95000e+00	4.482911e-04	
459	-3.00000e+00	4.488345e-04	
460	-3.05000e+00	4.493609e-04	

Index   v-sweep         i(vds)          
--------------------------------------------------------------------------------
461	-3.10000e+00	4.498717e-04	
462	-3.15000e+00	4.503682e-04	
463	-3.20000e+00	4.508512e-04	
464	-3.25000e+00	4.513217e-04	
465	-3.30000e+00	4.517806e-04	
466	-3.35000e+00	4.522285e-04	
467	-3.40000e+00	4.526663e-04	
468	-3.45000e+00	4.530944e-04	
469	-3.50000e+00	4.535135e-04	
470	-3.55000e+00	4.539241e-04	
471	-3.60000e+00	4.543266e-04	
472	-3.65000e+00	4.547215e-04	
473	-3.70000e+00	4.551092e-04	
474	-3.75000e+00	4.554901e-04	
475	-3.80000e+00	4.558644e-04	
476	-3.85000e+00	4.562326e-04	
477	-3.90000e+00	4.565949e-04	
478	-3.95000e+00	4.569515e-04	
479	-4.00000e+00	4.573028e-04	
480	-4.05000e+00	4.576490e-04	
481	-4.10000e+00	4.579903e-04	
482	-4.15000e+00	4.583269e-04	
483	-4.20000e+00	4.586591e-04	
484	-4.25000e+00	4.589869e-04	
485	-4.30000e+00	4.593106e-04	
486	-4.35000e+00	4.596303e-04	
487	-4.40000e+00	4.599462e-04	
488	-4.45000e+00	4.602585e-04	
489	-4.50000e+00	4.605672e-04	
490	-4.55000e+00	4.608726e-04	
491	-4.60000e+00	4.611747e-04	
492	-4.65000e+00	4.614737e-04	
493	-4.70000e+00	4.617696e-04	
494	-4.75000e+00	4.620627e-04	
495	-4.80000e+00	4.623530e-04	
496	-4.85000e+00	4.626407e-04	
497	-4.90000e+00	4.629259e-04	
498	-4.95000e+00	4.632087e-04	
499	-5.00000e+00	4.634892e-04	
500	-5.05000e+00	4.637676e-04	
501	-5.10000e+00	4.640441e-04	
502	-5.15000e+00	4.643187e-04	
503	-5.20000e+00	4.645918e-04	
504	-5.25000e+00	4.648634e-04	
505	-5.30000e+00	4.651338e-04	
506	-5.35000e+00	4.654033e-04	
507	-5.40000e+00	4.656720e-04	
508	-5.45000e+00	4.659404e-04	
509	-5.50000e+00	4.662087e-04	
510	-5.55000e+00	4.664772e-04	
511	-5.60000e+00	4.667465e-04	
512	-5.65000e+00	4.670169e-04	
513	-5.70000e+00	4.672890e-04	
514	-5.75000e+00	4.675633e-04	
515	-5.80000e+00	4.678404e-04	
516	-5.85000e+00	4.681211e-04	
517	-5.90000e+00	4.684060e-04	
518	-5.95000e+00	4.686960e-04	

Index   v-sweep         i(vds)          
--------------------------------------------------------------------------------
519	-6.00000e+00	4.689920e-04	
520	-6.05000e+00	4.692949e-04	
521	-6.10000e+00	4.696059e-04	
522	-6.15000e+00	4.699261e-04	
523	-6.20000e+00	4.702568e-04	
524	-6.25000e+00	4.705994e-04	
525	-6.30000e+00	4.709553e-04	
526	-6.35000e+00	4.713261e-04	
527	-6.40000e+00	4.717136e-04	
528	-6.45000e+00	4.721196e-04	
529	-6.50000e+00	4.725460e-04	
530	-6.55000e+00	4.729950e-04	
531	-6.60000e+00	4.734688e-04	
532	0.000000e+00	0.000000e+00	
533	-5.00000e-02	2.470162e-05	
534	-1.00000e-01	4.887256e-05	
535	-1.50000e-01	7.251711e-05	
536	-2.00000e-01	9.563950e-05	
537	-2.50000e-01	1.182439e-04	
538	-3.00000e-01	1.403345e-04	
539	-3.50000e-01	1.619154e-04	
540	-4.00000e-01	1.829907e-04	
541	-4.50000e-01	2.035643e-04	
542	-5.00000e-01	2.236403e-04	
543	-5.50000e-01	2.432225e-04	
544	-6.00000e-01	2.623150e-04	
545	-6.50000e-01	2.809214e-04	
546	-7.00000e-01	2.990457e-04	
547	-7.50000e-01	3.166917e-04	
548	-8.00000e-01	3.338629e-04	
549	-8.50000e-01	3.505633e-04	
550	-9.00000e-01	3.667964e-04	
551	-9.50000e-01	3.825658e-04	
552	-1.00000e+00	3.978751e-04	
553	-1.05000e+00	4.127279e-04	
554	-1.10000e+00	4.271278e-04	
555	-1.15000e+00	4.410781e-04	
556	-1.20000e+00	4.545824e-04	
557	-1.25000e+00	4.676440e-04	
558	-1.30000e+00	4.802664e-04	
559	-1.35000e+00	4.924529e-04	
560	-1.40000e+00	5.042068e-04	
561	-1.45000e+00	5.155315e-04	
562	-1.50000e+00	5.264302e-04	
563	-1.55000e+00	5.369061e-04	
564	-1.60000e+00	5.469625e-04	
565	-1.65000e+00	5.566026e-04	
566	-1.70000e+00	5.658296e-04	
567	-1.75000e+00	5.746466e-04	
568	-1.80000e+00	5.830568e-04	
569	-1.85000e+00	5.910634e-04	
570	-1.90000e+00	5.986696e-04	
571	-1.95000e+00	6.058784e-04	
572	-2.00000e+00	6.126933e-04	
573	-2.05000e+00	6.191174e-04	
574	-2.10000e+00	6.251541e-04	
575	-2.15000e+00	6.308072e-04	
576	-2.20000e+00	6.360803e-04	

Index   v-sweep         i(vds)          
--------------------------------------------------------------------------------
577	-2.25000e+00	6.409780e-04	
578	-2.30000e+00	6.455052e-04	
579	-2.35000e+00	6.496685e-04	
580	-2.40000e+00	6.534764e-04	
581	-2.45000e+00	6.569406e-04	
582	-2.50000e+00	6.600772e-04	
583	-2.55000e+00	6.629080e-04	
584	-2.60000e+00	6.654595e-04	
585	-2.65000e+00	6.677622e-04	
586	-2.70000e+00	6.698473e-04	
587	-2.75000e+00	6.717446e-04	
588	-2.80000e+00	6.734811e-04	
589	-2.85000e+00	6.750802e-04	
590	-2.90000e+00	6.765614e-04	
591	-2.95000e+00	6.779411e-04	
592	-3.00000e+00	6.792330e-04	
593	-3.05000e+00	6.804483e-04	
594	-3.10000e+00	6.815964e-04	
595	-3.15000e+00	6.826852e-04	
596	-3.20000e+00	6.837213e-04	
597	-3.25000e+00	6.847104e-04	
598	-3.30000e+00	6.856572e-04	
599	-3.35000e+00	6.865658e-04	
600	-3.40000e+00	6.874399e-04	
601	-3.45000e+00	6.882825e-04	
602	-3.50000e+00	6.890963e-04	
603	-3.55000e+00	6.898837e-04	
604	-3.60000e+00	6.906468e-04	
605	-3.65000e+00	6.913874e-04	
606	-3.70000e+00	6.921073e-04	
607	-3.75000e+00	6.928079e-04	
608	-3.80000e+00	6.934905e-04	
609	-3.85000e+00	6.941563e-04	
610	-3.90000e+00	6.948065e-04	
611	-3.95000e+00	6.954419e-04	
612	-4.00000e+00	6.960636e-04	
613	-4.05000e+00	6.966723e-04	
614	-4.10000e+00	6.972687e-04	
615	-4.15000e+00	6.978535e-04	
616	-4.20000e+00	6.984275e-04	
617	-4.25000e+00	6.989911e-04	
618	-4.30000e+00	6.995448e-04	
619	-4.35000e+00	7.000893e-04	
620	-4.40000e+00	7.006249e-04	
621	-4.45000e+00	7.011520e-04	
622	-4.50000e+00	7.016711e-04	
623	-4.55000e+00	7.021825e-04	
624	-4.60000e+00	7.026867e-04	
625	-4.65000e+00	7.031838e-04	
626	-4.70000e+00	7.036742e-04	
627	-4.75000e+00	7.041581e-04	
628	-4.80000e+00	7.046360e-04	
629	-4.85000e+00	7.051079e-04	
630	-4.90000e+00	7.055741e-04	
631	-4.95000e+00	7.060349e-04	
632	-5.00000e+00	7.064905e-04	
633	-5.05000e+00	7.069411e-04	
634	-5.10000e+00	7.073868e-04	

Index   v-sweep         i(vds)          
--------------------------------------------------------------------------------
635	-5.15000e+00	7.078278e-04	
636	-5.20000e+00	7.082644e-04	
637	-5.25000e+00	7.086967e-04	
638	-5.30000e+00	7.091249e-04	
639	-5.35000e+00	7.095492e-04	
640	-5.40000e+00	7.099697e-04	
641	-5.45000e+00	7.103865e-04	
642	-5.50000e+00	7.108000e-04	
643	-5.55000e+00	7.112103e-04	
644	-5.60000e+00	7.116176e-04	
645	-5.65000e+00	7.120220e-04	
646	-5.70000e+00	7.124240e-04	
647	-5.75000e+00	7.128236e-04	
648	-5.80000e+00	7.132212e-04	
649	-5.85000e+00	7.136171e-04	
650	-5.90000e+00	7.140117e-04	
651	-5.95000e+00	7.144053e-04	
652	-6.00000e+00	7.147984e-04	
653	-6.05000e+00	7.151914e-04	
654	-6.10000e+00	7.155850e-04	
655	-6.15000e+00	7.159796e-04	
656	-6.20000e+00	7.163759e-04	
657	-6.25000e+00	7.167748e-04	
658	-6.30000e+00	7.171770e-04	
659	-6.35000e+00	7.175834e-04	
660	-6.40000e+00	7.179950e-04	
661	-6.45000e+00	7.184130e-04	
662	-6.50000e+00	7.188386e-04	
663	-6.55000e+00	7.192730e-04	
664	-6.60000e+00	7.197179e-04	
665	0.000000e+00	0.000000e+00	
666	-5.00000e-02	2.792426e-05	
667	-1.00000e-01	5.535246e-05	
668	-1.50000e-01	8.228827e-05	
669	-2.00000e-01	1.087353e-04	
670	-2.50000e-01	1.346972e-04	
671	-3.00000e-01	1.601775e-04	
672	-3.50000e-01	1.851798e-04	
673	-4.00000e-01	2.097074e-04	
674	-4.50000e-01	2.337640e-04	
675	-5.00000e-01	2.573528e-04	
676	-5.50000e-01	2.804774e-04	
677	-6.00000e-01	3.031410e-04	
678	-6.50000e-01	3.253470e-04	
679	-7.00000e-01	3.470987e-04	
680	-7.50000e-01	3.683993e-04	
681	-8.00000e-01	3.892521e-04	
682	-8.50000e-01	4.096603e-04	
683	-9.00000e-01	4.296271e-04	
684	-9.50000e-01	4.491556e-04	
685	-1.00000e+00	4.682489e-04	
686	-1.05000e+00	4.869101e-04	
687	-1.10000e+00	5.051422e-04	
688	-1.15000e+00	5.229484e-04	
689	-1.20000e+00	5.403315e-04	
690	-1.25000e+00	5.572946e-04	
691	-1.30000e+00	5.738406e-04	
692	-1.35000e+00	5.899724e-04	

Index   v-sweep         i(vds)          
--------------------------------------------------------------------------------
693	-1.40000e+00	6.056930e-04	
694	-1.45000e+00	6.210051e-04	
695	-1.50000e+00	6.359117e-04	
696	-1.55000e+00	6.504155e-04	
697	-1.60000e+00	6.645193e-04	
698	-1.65000e+00	6.782260e-04	
699	-1.70000e+00	6.915382e-04	
700	-1.75000e+00	7.044587e-04	
701	-1.80000e+00	7.169902e-04	
702	-1.85000e+00	7.291353e-04	
703	-1.90000e+00	7.408968e-04	
704	-1.95000e+00	7.522772e-04	
705	-2.00000e+00	7.632791e-04	
706	-2.05000e+00	7.739052e-04	
707	-2.10000e+00	7.841580e-04	
708	-2.15000e+00	7.940402e-04	
709	-2.20000e+00	8.035541e-04	
710	-2.25000e+00	8.127024e-04	
711	-2.30000e+00	8.214876e-04	
712	-2.35000e+00	8.299121e-04	
713	-2.40000e+00	8.379785e-04	
714	-2.45000e+00	8.456893e-04	
715	-2.50000e+00	8.530468e-04	
716	-2.55000e+00	8.600535e-04	
717	-2.60000e+00	8.667119e-04	
718	-2.65000e+00	8.730244e-04	
719	-2.70000e+00	8.789934e-04	
720	-2.75000e+00	8.846216e-04	
721	-2.80000e+00	8.899113e-04	
722	-2.85000e+00	8.948655e-04	
723	-2.90000e+00	8.994875e-04	
724	-2.95000e+00	9.037816e-04	
725	-3.00000e+00	9.077542e-04	
726	-3.05000e+00	9.114144e-04	
727	-3.10000e+00	9.147755e-04	
728	-3.15000e+00	9.178554e-04	
729	-3.20000e+00	9.206762e-04	
730	-3.25000e+00	9.232627e-04	
731	-3.30000e+00	9.256408e-04	
732	-3.35000e+00	9.278353e-04	
733	-3.40000e+00	9.298691e-04	
734	-3.45000e+00	9.317625e-04	
735	-3.50000e+00	9.335333e-04	
736	-3.55000e+00	9.351966e-04	
737	-3.60000e+00	9.367652e-04	
738	-3.65000e+00	9.382503e-04	
739	-3.70000e+00	9.396611e-04	
740	-3.75000e+00	9.410055e-04	
741	-3.80000e+00	9.422906e-04	
742	-3.85000e+00	9.435220e-04	
743	-3.90000e+00	9.447050e-04	
744	-3.95000e+00	9.458440e-04	
745	-4.00000e+00	9.469428e-04	
746	-4.05000e+00	9.480048e-04	
747	-4.10000e+00	9.490331e-04	
748	-4.15000e+00	9.500302e-04	
749	-4.20000e+00	9.509986e-04	
750	-4.25000e+00	9.519403e-04	

Index   v-sweep         i(vds)          
--------------------------------------------------------------------------------
751	-4.30000e+00	9.528573e-04	
752	-4.35000e+00	9.537512e-04	
753	-4.40000e+00	9.546235e-04	
754	-4.45000e+00	9.554756e-04	
755	-4.50000e+00	9.563089e-04	
756	-4.55000e+00	9.571244e-04	
757	-4.60000e+00	9.579232e-04	
758	-4.65000e+00	9.587063e-04	
759	-4.70000e+00	9.594744e-04	
760	-4.75000e+00	9.602285e-04	
761	-4.80000e+00	9.609693e-04	
762	-4.85000e+00	9.616974e-04	
763	-4.90000e+00	9.624135e-04	
764	-4.95000e+00	9.631182e-04	
765	-5.00000e+00	9.638120e-04	
766	-5.05000e+00	9.644955e-04	
767	-5.10000e+00	9.651690e-04	
768	-5.15000e+00	9.658332e-04	
769	-5.20000e+00	9.664883e-04	
770	-5.25000e+00	9.671347e-04	
771	-5.30000e+00	9.677729e-04	
772	-5.35000e+00	9.684032e-04	
773	-5.40000e+00	9.690258e-04	
774	-5.45000e+00	9.696412e-04	
775	-5.50000e+00	9.702495e-04	
776	-5.55000e+00	9.708510e-04	
777	-5.60000e+00	9.714461e-04	
778	-5.65000e+00	9.720350e-04	
779	-5.70000e+00	9.726178e-04	
780	-5.75000e+00	9.731949e-04	
781	-5.80000e+00	9.737665e-04	
782	-5.85000e+00	9.743328e-04	
783	-5.90000e+00	9.748940e-04	
784	-5.95000e+00	9.754503e-04	
785	-6.00000e+00	9.760020e-04	
786	-6.05000e+00	9.765494e-04	
787	-6.10000e+00	9.770926e-04	
788	-6.15000e+00	9.776320e-04	
789	-6.20000e+00	9.781678e-04	
790	-6.25000e+00	9.787003e-04	
791	-6.30000e+00	9.792300e-04	
792	-6.35000e+00	9.797571e-04	
793	-6.40000e+00	9.802821e-04	
794	-6.45000e+00	9.808054e-04	
795	-6.50000e+00	9.813277e-04	
796	-6.55000e+00	9.818493e-04	
797	-6.60000e+00	9.823711e-04	
Note: No ".plot", ".print", or ".fourier" lines; no simulations run
