
Note: Compatibility modes selected: hs

Warning: m=xx on .subckt line will override multiplier m hierarchy!


Circuit: ***************************

Doing analysis at TEMP = -40.000000 and TNOM = -40.000000


No. of Data Rows : 798
                          ***************************
                          DC transfer characteristic  Mon Jan  9 13:57:53  2023
--------------------------------------------------------------------------------
Index   v-sweep         i(vds)          
--------------------------------------------------------------------------------
0	0.000000e+00	0.000000e+00	
1	-5.00000e-02	4.936891e-09	
2	-1.00000e-01	5.888397e-09	
3	-1.50000e-01	6.024718e-09	
4	-2.00000e-01	6.061262e-09	
5	-2.50000e-01	6.077398e-09	
6	-3.00000e-01	6.087007e-09	
7	-3.50000e-01	6.093865e-09	
8	-4.00000e-01	6.099329e-09	
9	-4.50000e-01	6.103986e-09	
10	-5.00000e-01	6.108132e-09	
11	-5.50000e-01	6.111926e-09	
12	-6.00000e-01	6.115464e-09	
13	-6.50000e-01	6.118809e-09	
14	-7.00000e-01	6.122001e-09	
15	-7.50000e-01	6.125070e-09	
16	-8.00000e-01	6.128035e-09	
17	-8.50000e-01	6.130914e-09	
18	-9.00000e-01	6.133718e-09	
19	-9.50000e-01	6.136457e-09	
20	-1.00000e+00	6.139139e-09	
21	-1.05000e+00	6.141770e-09	
22	-1.10000e+00	6.144356e-09	
23	-1.15000e+00	6.146901e-09	
24	-1.20000e+00	6.149409e-09	
25	-1.25000e+00	6.151883e-09	
26	-1.30000e+00	6.154325e-09	
27	-1.35000e+00	6.156739e-09	
28	-1.40000e+00	6.159126e-09	
29	-1.45000e+00	6.161488e-09	
30	-1.50000e+00	6.163828e-09	
31	-1.55000e+00	6.166146e-09	
32	-1.60000e+00	6.168443e-09	
33	-1.65000e+00	6.170722e-09	
34	-1.70000e+00	6.172984e-09	
35	-1.75000e+00	6.175228e-09	
36	-1.80000e+00	6.177457e-09	
37	-1.85000e+00	6.179671e-09	
38	-1.90000e+00	6.181871e-09	
39	-1.95000e+00	6.184058e-09	
40	-2.00000e+00	6.186232e-09	
41	-2.05000e+00	6.188394e-09	
42	-2.10000e+00	6.190544e-09	
43	-2.15000e+00	6.192683e-09	
44	-2.20000e+00	6.194812e-09	
45	-2.25000e+00	6.196931e-09	
46	-2.30000e+00	6.199040e-09	
47	-2.35000e+00	6.201140e-09	
48	-2.40000e+00	6.203231e-09	
49	-2.45000e+00	6.205314e-09	
50	-2.50000e+00	6.207389e-09	
51	-2.55000e+00	6.209456e-09	
52	-2.60000e+00	6.211516e-09	
53	-2.65000e+00	6.213569e-09	
54	-2.70000e+00	6.215615e-09	

Index   v-sweep         i(vds)          
--------------------------------------------------------------------------------
55	-2.75000e+00	6.217655e-09	
56	-2.80000e+00	6.219690e-09	
57	-2.85000e+00	6.221718e-09	
58	-2.90000e+00	6.223742e-09	
59	-2.95000e+00	6.225761e-09	
60	-3.00000e+00	6.227777e-09	
61	-3.05000e+00	6.229789e-09	
62	-3.10000e+00	6.231799e-09	
63	-3.15000e+00	6.233808e-09	
64	-3.20000e+00	6.235816e-09	
65	-3.25000e+00	6.237826e-09	
66	-3.30000e+00	6.239838e-09	
67	-3.35000e+00	6.241854e-09	
68	-3.40000e+00	6.243876e-09	
69	-3.45000e+00	6.245907e-09	
70	-3.50000e+00	6.247949e-09	
71	-3.55000e+00	6.250005e-09	
72	-3.60000e+00	6.252079e-09	
73	-3.65000e+00	6.254175e-09	
74	-3.70000e+00	6.256297e-09	
75	-3.75000e+00	6.258451e-09	
76	-3.80000e+00	6.260641e-09	
77	-3.85000e+00	6.262876e-09	
78	-3.90000e+00	6.265161e-09	
79	-3.95000e+00	6.267504e-09	
80	-4.00000e+00	6.269916e-09	
81	-4.05000e+00	6.272405e-09	
82	-4.10000e+00	6.274982e-09	
83	-4.15000e+00	6.277659e-09	
84	-4.20000e+00	6.280450e-09	
85	-4.25000e+00	6.283368e-09	
86	-4.30000e+00	6.286430e-09	
87	-4.35000e+00	6.289651e-09	
88	-4.40000e+00	6.293049e-09	
89	-4.45000e+00	6.296646e-09	
90	-4.50000e+00	6.300461e-09	
91	-4.55000e+00	6.304518e-09	
92	-4.60000e+00	6.308840e-09	
93	-4.65000e+00	6.313454e-09	
94	-4.70000e+00	6.318388e-09	
95	-4.75000e+00	6.323672e-09	
96	-4.80000e+00	6.329336e-09	
97	-4.85000e+00	6.335415e-09	
98	-4.90000e+00	6.341943e-09	
99	-4.95000e+00	6.348959e-09	
100	-5.00000e+00	6.356501e-09	
101	-5.05000e+00	6.364612e-09	
102	-5.10000e+00	6.373335e-09	
103	-5.15000e+00	6.382716e-09	
104	-5.20000e+00	6.392804e-09	
105	-5.25000e+00	6.403648e-09	
106	-5.30000e+00	6.415302e-09	
107	-5.35000e+00	6.427821e-09	
108	-5.40000e+00	6.441261e-09	
109	-5.45000e+00	6.455684e-09	
110	-5.50000e+00	6.471151e-09	
111	-5.55000e+00	6.487726e-09	
112	-5.60000e+00	6.505477e-09	

Index   v-sweep         i(vds)          
--------------------------------------------------------------------------------
113	-5.65000e+00	6.524473e-09	
114	-5.70000e+00	6.544786e-09	
115	-5.75000e+00	6.566490e-09	
116	-5.80000e+00	6.589662e-09	
117	-5.85000e+00	6.614381e-09	
118	-5.90000e+00	6.640728e-09	
119	-5.95000e+00	6.668788e-09	
120	-6.00000e+00	6.698647e-09	
121	-6.05000e+00	6.730393e-09	
122	-6.10000e+00	6.764118e-09	
123	-6.15000e+00	6.799916e-09	
124	-6.20000e+00	6.837881e-09	
125	-6.25000e+00	6.878113e-09	
126	-6.30000e+00	6.920712e-09	
127	-6.35000e+00	6.965780e-09	
128	-6.40000e+00	7.013423e-09	
129	-6.45000e+00	7.063747e-09	
130	-6.50000e+00	7.116862e-09	
131	-6.55000e+00	7.172880e-09	
132	-6.60000e+00	7.231914e-09	
133	0.000000e+00	0.000000e+00	
134	-5.00000e-02	1.544013e-07	
135	-1.00000e-01	2.978066e-07	
136	-1.50000e-01	4.302289e-07	
137	-2.00000e-01	5.516823e-07	
138	-2.50000e-01	6.621828e-07	
139	-3.00000e-01	7.617497e-07	
140	-3.50000e-01	8.504075e-07	
141	-4.00000e-01	9.281901e-07	
142	-4.50000e-01	9.951488e-07	
143	-5.00000e-01	1.051369e-06	
144	-5.50000e-01	1.097006e-06	
145	-6.00000e-01	1.132362e-06	
146	-6.50000e-01	1.158041e-06	
147	-7.00000e-01	1.175199e-06	
148	-7.50000e-01	1.185704e-06	
149	-8.00000e-01	1.191802e-06	
150	-8.50000e-01	1.195400e-06	
151	-9.00000e-01	1.197691e-06	
152	-9.50000e-01	1.199299e-06	
153	-1.00000e+00	1.200533e-06	
154	-1.05000e+00	1.201547e-06	
155	-1.10000e+00	1.202424e-06	
156	-1.15000e+00	1.203208e-06	
157	-1.20000e+00	1.203926e-06	
158	-1.25000e+00	1.204596e-06	
159	-1.30000e+00	1.205229e-06	
160	-1.35000e+00	1.205833e-06	
161	-1.40000e+00	1.206412e-06	
162	-1.45000e+00	1.206972e-06	
163	-1.50000e+00	1.207514e-06	
164	-1.55000e+00	1.208042e-06	
165	-1.60000e+00	1.208557e-06	
166	-1.65000e+00	1.209061e-06	
167	-1.70000e+00	1.209555e-06	
168	-1.75000e+00	1.210041e-06	
169	-1.80000e+00	1.210518e-06	
170	-1.85000e+00	1.210987e-06	

Index   v-sweep         i(vds)          
--------------------------------------------------------------------------------
171	-1.90000e+00	1.211451e-06	
172	-1.95000e+00	1.211908e-06	
173	-2.00000e+00	1.212359e-06	
174	-2.05000e+00	1.212805e-06	
175	-2.10000e+00	1.213247e-06	
176	-2.15000e+00	1.213683e-06	
177	-2.20000e+00	1.214116e-06	
178	-2.25000e+00	1.214545e-06	
179	-2.30000e+00	1.214970e-06	
180	-2.35000e+00	1.215392e-06	
181	-2.40000e+00	1.215810e-06	
182	-2.45000e+00	1.216225e-06	
183	-2.50000e+00	1.216638e-06	
184	-2.55000e+00	1.217047e-06	
185	-2.60000e+00	1.217454e-06	
186	-2.65000e+00	1.217859e-06	
187	-2.70000e+00	1.218261e-06	
188	-2.75000e+00	1.218661e-06	
189	-2.80000e+00	1.219059e-06	
190	-2.85000e+00	1.219455e-06	
191	-2.90000e+00	1.219848e-06	
192	-2.95000e+00	1.220240e-06	
193	-3.00000e+00	1.220631e-06	
194	-3.05000e+00	1.221019e-06	
195	-3.10000e+00	1.221406e-06	
196	-3.15000e+00	1.221791e-06	
197	-3.20000e+00	1.222175e-06	
198	-3.25000e+00	1.222557e-06	
199	-3.30000e+00	1.222938e-06	
200	-3.35000e+00	1.223318e-06	
201	-3.40000e+00	1.223696e-06	
202	-3.45000e+00	1.224073e-06	
203	-3.50000e+00	1.224449e-06	
204	-3.55000e+00	1.224825e-06	
205	-3.60000e+00	1.225199e-06	
206	-3.65000e+00	1.225572e-06	
207	-3.70000e+00	1.225945e-06	
208	-3.75000e+00	1.226318e-06	
209	-3.80000e+00	1.226690e-06	
210	-3.85000e+00	1.227061e-06	
211	-3.90000e+00	1.227433e-06	
212	-3.95000e+00	1.227806e-06	
213	-4.00000e+00	1.228179e-06	
214	-4.05000e+00	1.228553e-06	
215	-4.10000e+00	1.228929e-06	
216	-4.15000e+00	1.229307e-06	
217	-4.20000e+00	1.229687e-06	
218	-4.25000e+00	1.230070e-06	
219	-4.30000e+00	1.230458e-06	
220	-4.35000e+00	1.230850e-06	
221	-4.40000e+00	1.231248e-06	
222	-4.45000e+00	1.231653e-06	
223	-4.50000e+00	1.232066e-06	
224	-4.55000e+00	1.232488e-06	
225	-4.60000e+00	1.232921e-06	
226	-4.65000e+00	1.233367e-06	
227	-4.70000e+00	1.233827e-06	
228	-4.75000e+00	1.234304e-06	

Index   v-sweep         i(vds)          
--------------------------------------------------------------------------------
229	-4.80000e+00	1.234800e-06	
230	-4.85000e+00	1.235316e-06	
231	-4.90000e+00	1.235857e-06	
232	-4.95000e+00	1.236425e-06	
233	-5.00000e+00	1.237022e-06	
234	-5.05000e+00	1.237653e-06	
235	-5.10000e+00	1.238322e-06	
236	-5.15000e+00	1.239031e-06	
237	-5.20000e+00	1.239787e-06	
238	-5.25000e+00	1.240592e-06	
239	-5.30000e+00	1.241453e-06	
240	-5.35000e+00	1.242375e-06	
241	-5.40000e+00	1.243362e-06	
242	-5.45000e+00	1.244423e-06	
243	-5.50000e+00	1.245561e-06	
244	-5.55000e+00	1.246786e-06	
245	-5.60000e+00	1.248103e-06	
246	-5.65000e+00	1.249521e-06	
247	-5.70000e+00	1.251047e-06	
248	-5.75000e+00	1.252690e-06	
249	-5.80000e+00	1.254458e-06	
250	-5.85000e+00	1.256362e-06	
251	-5.90000e+00	1.258410e-06	
252	-5.95000e+00	1.260613e-06	
253	-6.00000e+00	1.262982e-06	
254	-6.05000e+00	1.265527e-06	
255	-6.10000e+00	1.268261e-06	
256	-6.15000e+00	1.271195e-06	
257	-6.20000e+00	1.274341e-06	
258	-6.25000e+00	1.277714e-06	
259	-6.30000e+00	1.281325e-06	
260	-6.35000e+00	1.285190e-06	
261	-6.40000e+00	1.289322e-06	
262	-6.45000e+00	1.293736e-06	
263	-6.50000e+00	1.298448e-06	
264	-6.55000e+00	1.303474e-06	
265	-6.60000e+00	1.308830e-06	
266	0.000000e+00	0.000000e+00	
267	-5.00000e-02	2.859935e-07	
268	-1.00000e-01	5.617838e-07	
269	-1.50000e-01	8.273800e-07	
270	-2.00000e-01	1.082791e-06	
271	-2.50000e-01	1.328026e-06	
272	-3.00000e-01	1.563094e-06	
273	-3.50000e-01	1.788005e-06	
274	-4.00000e-01	2.002768e-06	
275	-4.50000e-01	2.207392e-06	
276	-5.00000e-01	2.401888e-06	
277	-5.50000e-01	2.586265e-06	
278	-6.00000e-01	2.760534e-06	
279	-6.50000e-01	2.924707e-06	
280	-7.00000e-01	3.078795e-06	
281	-7.50000e-01	3.222811e-06	
282	-8.00000e-01	3.356770e-06	
283	-8.50000e-01	3.480689e-06	
284	-9.00000e-01	3.594588e-06	
285	-9.50000e-01	3.698493e-06	
286	-1.00000e+00	3.792436e-06	

Index   v-sweep         i(vds)          
--------------------------------------------------------------------------------
287	-1.05000e+00	3.876463e-06	
288	-1.10000e+00	3.950641e-06	
289	-1.15000e+00	4.015069e-06	
290	-1.20000e+00	4.069907e-06	
291	-1.25000e+00	4.115409e-06	
292	-1.30000e+00	4.151997e-06	
293	-1.35000e+00	4.180344e-06	
294	-1.40000e+00	4.201457e-06	
295	-1.45000e+00	4.216675e-06	
296	-1.50000e+00	4.227492e-06	
297	-1.55000e+00	4.235282e-06	
298	-1.60000e+00	4.241105e-06	
299	-1.65000e+00	4.245677e-06	
300	-1.70000e+00	4.249448e-06	
301	-1.75000e+00	4.252689e-06	
302	-1.80000e+00	4.255568e-06	
303	-1.85000e+00	4.258189e-06	
304	-1.90000e+00	4.260620e-06	
305	-1.95000e+00	4.262905e-06	
306	-2.00000e+00	4.265076e-06	
307	-2.05000e+00	4.267153e-06	
308	-2.10000e+00	4.269154e-06	
309	-2.15000e+00	4.271091e-06	
310	-2.20000e+00	4.272973e-06	
311	-2.25000e+00	4.274807e-06	
312	-2.30000e+00	4.276599e-06	
313	-2.35000e+00	4.278354e-06	
314	-2.40000e+00	4.280076e-06	
315	-2.45000e+00	4.281768e-06	
316	-2.50000e+00	4.283434e-06	
317	-2.55000e+00	4.285075e-06	
318	-2.60000e+00	4.286693e-06	
319	-2.65000e+00	4.288291e-06	
320	-2.70000e+00	4.289870e-06	
321	-2.75000e+00	4.291432e-06	
322	-2.80000e+00	4.292977e-06	
323	-2.85000e+00	4.294507e-06	
324	-2.90000e+00	4.296023e-06	
325	-2.95000e+00	4.297525e-06	
326	-3.00000e+00	4.299015e-06	
327	-3.05000e+00	4.300494e-06	
328	-3.10000e+00	4.301961e-06	
329	-3.15000e+00	4.303417e-06	
330	-3.20000e+00	4.304864e-06	
331	-3.25000e+00	4.306302e-06	
332	-3.30000e+00	4.307730e-06	
333	-3.35000e+00	4.309150e-06	
334	-3.40000e+00	4.310562e-06	
335	-3.45000e+00	4.311966e-06	
336	-3.50000e+00	4.313363e-06	
337	-3.55000e+00	4.314753e-06	
338	-3.60000e+00	4.316137e-06	
339	-3.65000e+00	4.317514e-06	
340	-3.70000e+00	4.318884e-06	
341	-3.75000e+00	4.320249e-06	
342	-3.80000e+00	4.321609e-06	
343	-3.85000e+00	4.322963e-06	
344	-3.90000e+00	4.324311e-06	

Index   v-sweep         i(vds)          
--------------------------------------------------------------------------------
345	-3.95000e+00	4.325655e-06	
346	-4.00000e+00	4.326994e-06	
347	-4.05000e+00	4.328329e-06	
348	-4.10000e+00	4.329660e-06	
349	-4.15000e+00	4.330986e-06	
350	-4.20000e+00	4.332309e-06	
351	-4.25000e+00	4.333629e-06	
352	-4.30000e+00	4.334945e-06	
353	-4.35000e+00	4.336259e-06	
354	-4.40000e+00	4.337570e-06	
355	-4.45000e+00	4.338880e-06	
356	-4.50000e+00	4.340189e-06	
357	-4.55000e+00	4.341498e-06	
358	-4.60000e+00	4.342807e-06	
359	-4.65000e+00	4.344117e-06	
360	-4.70000e+00	4.345430e-06	
361	-4.75000e+00	4.346747e-06	
362	-4.80000e+00	4.348069e-06	
363	-4.85000e+00	4.349398e-06	
364	-4.90000e+00	4.350737e-06	
365	-4.95000e+00	4.352087e-06	
366	-5.00000e+00	4.353450e-06	
367	-5.05000e+00	4.354831e-06	
368	-5.10000e+00	4.356232e-06	
369	-5.15000e+00	4.357658e-06	
370	-5.20000e+00	4.359112e-06	
371	-5.25000e+00	4.360599e-06	
372	-5.30000e+00	4.362125e-06	
373	-5.35000e+00	4.363695e-06	
374	-5.40000e+00	4.365316e-06	
375	-5.45000e+00	4.366995e-06	
376	-5.50000e+00	4.368741e-06	
377	-5.55000e+00	4.370561e-06	
378	-5.60000e+00	4.372466e-06	
379	-5.65000e+00	4.374466e-06	
380	-5.70000e+00	4.376571e-06	
381	-5.75000e+00	4.378795e-06	
382	-5.80000e+00	4.381150e-06	
383	-5.85000e+00	4.383651e-06	
384	-5.90000e+00	4.386314e-06	
385	-5.95000e+00	4.389153e-06	
386	-6.00000e+00	4.392188e-06	
387	-6.05000e+00	4.395436e-06	
388	-6.10000e+00	4.398919e-06	
389	-6.15000e+00	4.402656e-06	
390	-6.20000e+00	4.406672e-06	
391	-6.25000e+00	4.410990e-06	
392	-6.30000e+00	4.415635e-06	
393	-6.35000e+00	4.420634e-06	
394	-6.40000e+00	4.426016e-06	
395	-6.45000e+00	4.431810e-06	
396	-6.50000e+00	4.438047e-06	
397	-6.55000e+00	4.444762e-06	
398	-6.60000e+00	4.451986e-06	
399	0.000000e+00	0.000000e+00	
400	-5.00000e-02	3.953026e-07	
401	-1.00000e-01	7.812447e-07	
402	-1.50000e-01	1.157834e-06	

Index   v-sweep         i(vds)          
--------------------------------------------------------------------------------
403	-2.00000e-01	1.525077e-06	
404	-2.50000e-01	1.882982e-06	
405	-3.00000e-01	2.231557e-06	
406	-3.50000e-01	2.570809e-06	
407	-4.00000e-01	2.900745e-06	
408	-4.50000e-01	3.221373e-06	
409	-5.00000e-01	3.532700e-06	
410	-5.50000e-01	3.834734e-06	
411	-6.00000e-01	4.127483e-06	
412	-6.50000e-01	4.410954e-06	
413	-7.00000e-01	4.685155e-06	
414	-7.50000e-01	4.950094e-06	
415	-8.00000e-01	5.205778e-06	
416	-8.50000e-01	5.452215e-06	
417	-9.00000e-01	5.689414e-06	
418	-9.50000e-01	5.917382e-06	
419	-1.00000e+00	6.136127e-06	
420	-1.05000e+00	6.345659e-06	
421	-1.10000e+00	6.545986e-06	
422	-1.15000e+00	6.737117e-06	
423	-1.20000e+00	6.919062e-06	
424	-1.25000e+00	7.091830e-06	
425	-1.30000e+00	7.255433e-06	
426	-1.35000e+00	7.409882e-06	
427	-1.40000e+00	7.555190e-06	
428	-1.45000e+00	7.691373e-06	
429	-1.50000e+00	7.818447e-06	
430	-1.55000e+00	7.936434e-06	
431	-1.60000e+00	8.045360e-06	
432	-1.65000e+00	8.145257e-06	
433	-1.70000e+00	8.236170e-06	
434	-1.75000e+00	8.318158e-06	
435	-1.80000e+00	8.391305e-06	
436	-1.85000e+00	8.455733e-06	
437	-1.90000e+00	8.511620e-06	
438	-1.95000e+00	8.559234e-06	
439	-2.00000e+00	8.598968e-06	
440	-2.05000e+00	8.631393e-06	
441	-2.10000e+00	8.657288e-06	
442	-2.15000e+00	8.677632e-06	
443	-2.20000e+00	8.693522e-06	
444	-2.25000e+00	8.706033e-06	
445	-2.30000e+00	8.716097e-06	
446	-2.35000e+00	8.724434e-06	
447	-2.40000e+00	8.731562e-06	
448	-2.45000e+00	8.737835e-06	
449	-2.50000e+00	8.743492e-06	
450	-2.55000e+00	8.748692e-06	
451	-2.60000e+00	8.753547e-06	
452	-2.65000e+00	8.758131e-06	
453	-2.70000e+00	8.762500e-06	
454	-2.75000e+00	8.766692e-06	
455	-2.80000e+00	8.770737e-06	
456	-2.85000e+00	8.774657e-06	
457	-2.90000e+00	8.778471e-06	
458	-2.95000e+00	8.782192e-06	
459	-3.00000e+00	8.785830e-06	
460	-3.05000e+00	8.789397e-06	

Index   v-sweep         i(vds)          
--------------------------------------------------------------------------------
461	-3.10000e+00	8.792898e-06	
462	-3.15000e+00	8.796341e-06	
463	-3.20000e+00	8.799730e-06	
464	-3.25000e+00	8.803072e-06	
465	-3.30000e+00	8.806369e-06	
466	-3.35000e+00	8.809625e-06	
467	-3.40000e+00	8.812844e-06	
468	-3.45000e+00	8.816028e-06	
469	-3.50000e+00	8.819179e-06	
470	-3.55000e+00	8.822301e-06	
471	-3.60000e+00	8.825393e-06	
472	-3.65000e+00	8.828460e-06	
473	-3.70000e+00	8.831501e-06	
474	-3.75000e+00	8.834520e-06	
475	-3.80000e+00	8.837516e-06	
476	-3.85000e+00	8.840491e-06	
477	-3.90000e+00	8.843446e-06	
478	-3.95000e+00	8.846383e-06	
479	-4.00000e+00	8.849301e-06	
480	-4.05000e+00	8.852203e-06	
481	-4.10000e+00	8.855089e-06	
482	-4.15000e+00	8.857959e-06	
483	-4.20000e+00	8.860815e-06	
484	-4.25000e+00	8.863657e-06	
485	-4.30000e+00	8.866485e-06	
486	-4.35000e+00	8.869300e-06	
487	-4.40000e+00	8.872104e-06	
488	-4.45000e+00	8.874895e-06	
489	-4.50000e+00	8.877675e-06	
490	-4.55000e+00	8.880445e-06	
491	-4.60000e+00	8.883204e-06	
492	-4.65000e+00	8.885953e-06	
493	-4.70000e+00	8.888693e-06	
494	-4.75000e+00	8.891423e-06	
495	-4.80000e+00	8.894145e-06	
496	-4.85000e+00	8.896860e-06	
497	-4.90000e+00	8.899566e-06	
498	-4.95000e+00	8.902266e-06	
499	-5.00000e+00	8.904960e-06	
500	-5.05000e+00	8.907648e-06	
501	-5.10000e+00	8.910332e-06	
502	-5.15000e+00	8.913012e-06	
503	-5.20000e+00	8.915690e-06	
504	-5.25000e+00	8.918367e-06	
505	-5.30000e+00	8.921045e-06	
506	-5.35000e+00	8.923725e-06	
507	-5.40000e+00	8.926410e-06	
508	-5.45000e+00	8.929102e-06	
509	-5.50000e+00	8.931804e-06	
510	-5.55000e+00	8.934520e-06	
511	-5.60000e+00	8.937254e-06	
512	-5.65000e+00	8.940010e-06	
513	-5.70000e+00	8.942794e-06	
514	-5.75000e+00	8.945611e-06	
515	-5.80000e+00	8.948467e-06	
516	-5.85000e+00	8.951372e-06	
517	-5.90000e+00	8.954332e-06	
518	-5.95000e+00	8.957358e-06	

Index   v-sweep         i(vds)          
--------------------------------------------------------------------------------
519	-6.00000e+00	8.960460e-06	
520	-6.05000e+00	8.963649e-06	
521	-6.10000e+00	8.966940e-06	
522	-6.15000e+00	8.970346e-06	
523	-6.20000e+00	8.973883e-06	
524	-6.25000e+00	8.977569e-06	
525	-6.30000e+00	8.981423e-06	
526	-6.35000e+00	8.985465e-06	
527	-6.40000e+00	8.989718e-06	
528	-6.45000e+00	8.994207e-06	
529	-6.50000e+00	8.998958e-06	
530	-6.55000e+00	9.004000e-06	
531	-6.60000e+00	9.009363e-06	
532	0.000000e+00	0.000000e+00	
533	-5.00000e-02	4.860785e-07	
534	-1.00000e-01	9.635820e-07	
535	-1.50000e-01	1.432517e-06	
536	-2.00000e-01	1.892889e-06	
537	-2.50000e-01	2.344705e-06	
538	-3.00000e-01	2.787972e-06	
539	-3.50000e-01	3.222694e-06	
540	-4.00000e-01	3.648880e-06	
541	-4.50000e-01	4.066535e-06	
542	-5.00000e-01	4.475665e-06	
543	-5.50000e-01	4.876276e-06	
544	-6.00000e-01	5.268376e-06	
545	-6.50000e-01	5.651970e-06	
546	-7.00000e-01	6.027064e-06	
547	-7.50000e-01	6.393666e-06	
548	-8.00000e-01	6.751781e-06	
549	-8.50000e-01	7.101415e-06	
550	-9.00000e-01	7.442575e-06	
551	-9.50000e-01	7.775268e-06	
552	-1.00000e+00	8.099499e-06	
553	-1.05000e+00	8.415275e-06	
554	-1.10000e+00	8.722603e-06	
555	-1.15000e+00	9.021489e-06	
556	-1.20000e+00	9.311939e-06	
557	-1.25000e+00	9.593960e-06	
558	-1.30000e+00	9.867559e-06	
559	-1.35000e+00	1.013274e-05	
560	-1.40000e+00	1.038952e-05	
561	-1.45000e+00	1.063789e-05	
562	-1.50000e+00	1.087787e-05	
563	-1.55000e+00	1.110945e-05	
564	-1.60000e+00	1.133266e-05	
565	-1.65000e+00	1.154749e-05	
566	-1.70000e+00	1.175396e-05	
567	-1.75000e+00	1.195207e-05	
568	-1.80000e+00	1.214183e-05	
569	-1.85000e+00	1.232325e-05	
570	-1.90000e+00	1.249634e-05	
571	-1.95000e+00	1.266110e-05	
572	-2.00000e+00	1.281756e-05	
573	-2.05000e+00	1.296572e-05	
574	-2.10000e+00	1.310559e-05	
575	-2.15000e+00	1.323719e-05	
576	-2.20000e+00	1.336055e-05	

Index   v-sweep         i(vds)          
--------------------------------------------------------------------------------
577	-2.25000e+00	1.347568e-05	
578	-2.30000e+00	1.358261e-05	
579	-2.35000e+00	1.368138e-05	
580	-2.40000e+00	1.377204e-05	
581	-2.45000e+00	1.385464e-05	
582	-2.50000e+00	1.392928e-05	
583	-2.55000e+00	1.399607e-05	
584	-2.60000e+00	1.405517e-05	
585	-2.65000e+00	1.410681e-05	
586	-2.70000e+00	1.415132e-05	
587	-2.75000e+00	1.418912e-05	
588	-2.80000e+00	1.422081e-05	
589	-2.85000e+00	1.424708e-05	
590	-2.90000e+00	1.426878e-05	
591	-2.95000e+00	1.428675e-05	
592	-3.00000e+00	1.430183e-05	
593	-3.05000e+00	1.431469e-05	
594	-3.10000e+00	1.432592e-05	
595	-3.15000e+00	1.433592e-05	
596	-3.20000e+00	1.434501e-05	
597	-3.25000e+00	1.435341e-05	
598	-3.30000e+00	1.436127e-05	
599	-3.35000e+00	1.436871e-05	
600	-3.40000e+00	1.437581e-05	
601	-3.45000e+00	1.438262e-05	
602	-3.50000e+00	1.438920e-05	
603	-3.55000e+00	1.439559e-05	
604	-3.60000e+00	1.440180e-05	
605	-3.65000e+00	1.440786e-05	
606	-3.70000e+00	1.441379e-05	
607	-3.75000e+00	1.441961e-05	
608	-3.80000e+00	1.442532e-05	
609	-3.85000e+00	1.443093e-05	
610	-3.90000e+00	1.443647e-05	
611	-3.95000e+00	1.444192e-05	
612	-4.00000e+00	1.444730e-05	
613	-4.05000e+00	1.445262e-05	
614	-4.10000e+00	1.445788e-05	
615	-4.15000e+00	1.446308e-05	
616	-4.20000e+00	1.446822e-05	
617	-4.25000e+00	1.447332e-05	
618	-4.30000e+00	1.447838e-05	
619	-4.35000e+00	1.448339e-05	
620	-4.40000e+00	1.448836e-05	
621	-4.45000e+00	1.449329e-05	
622	-4.50000e+00	1.449819e-05	
623	-4.55000e+00	1.450305e-05	
624	-4.60000e+00	1.450788e-05	
625	-4.65000e+00	1.451269e-05	
626	-4.70000e+00	1.451746e-05	
627	-4.75000e+00	1.452220e-05	
628	-4.80000e+00	1.452692e-05	
629	-4.85000e+00	1.453162e-05	
630	-4.90000e+00	1.453629e-05	
631	-4.95000e+00	1.454094e-05	
632	-5.00000e+00	1.454556e-05	
633	-5.05000e+00	1.455017e-05	
634	-5.10000e+00	1.455475e-05	

Index   v-sweep         i(vds)          
--------------------------------------------------------------------------------
635	-5.15000e+00	1.455932e-05	
636	-5.20000e+00	1.456387e-05	
637	-5.25000e+00	1.456840e-05	
638	-5.30000e+00	1.457292e-05	
639	-5.35000e+00	1.457741e-05	
640	-5.40000e+00	1.458190e-05	
641	-5.45000e+00	1.458636e-05	
642	-5.50000e+00	1.459082e-05	
643	-5.55000e+00	1.459526e-05	
644	-5.60000e+00	1.459969e-05	
645	-5.65000e+00	1.460411e-05	
646	-5.70000e+00	1.460851e-05	
647	-5.75000e+00	1.461291e-05	
648	-5.80000e+00	1.461730e-05	
649	-5.85000e+00	1.462169e-05	
650	-5.90000e+00	1.462606e-05	
651	-5.95000e+00	1.463044e-05	
652	-6.00000e+00	1.463482e-05	
653	-6.05000e+00	1.463920e-05	
654	-6.10000e+00	1.464358e-05	
655	-6.15000e+00	1.464798e-05	
656	-6.20000e+00	1.465238e-05	
657	-6.25000e+00	1.465681e-05	
658	-6.30000e+00	1.466127e-05	
659	-6.35000e+00	1.466575e-05	
660	-6.40000e+00	1.467028e-05	
661	-6.45000e+00	1.467485e-05	
662	-6.50000e+00	1.467949e-05	
663	-6.55000e+00	1.468419e-05	
664	-6.60000e+00	1.468898e-05	
665	0.000000e+00	0.000000e+00	
666	-5.00000e-02	5.615128e-07	
667	-1.00000e-01	1.115165e-06	
668	-1.50000e-01	1.660962e-06	
669	-2.00000e-01	2.198908e-06	
670	-2.50000e-01	2.729010e-06	
671	-3.00000e-01	3.251273e-06	
672	-3.50000e-01	3.765701e-06	
673	-4.00000e-01	4.272301e-06	
674	-4.50000e-01	4.771078e-06	
675	-5.00000e-01	5.262037e-06	
676	-5.50000e-01	5.745183e-06	
677	-6.00000e-01	6.220521e-06	
678	-6.50000e-01	6.688058e-06	
679	-7.00000e-01	7.147799e-06	
680	-7.50000e-01	7.599748e-06	
681	-8.00000e-01	8.043911e-06	
682	-8.50000e-01	8.480294e-06	
683	-9.00000e-01	8.908901e-06	
684	-9.50000e-01	9.329739e-06	
685	-1.00000e+00	9.742812e-06	
686	-1.05000e+00	1.014813e-05	
687	-1.10000e+00	1.054569e-05	
688	-1.15000e+00	1.093550e-05	
689	-1.20000e+00	1.131757e-05	
690	-1.25000e+00	1.169190e-05	
691	-1.30000e+00	1.205849e-05	
692	-1.35000e+00	1.241737e-05	

Index   v-sweep         i(vds)          
--------------------------------------------------------------------------------
693	-1.40000e+00	1.276851e-05	
694	-1.45000e+00	1.311195e-05	
695	-1.50000e+00	1.344767e-05	
696	-1.55000e+00	1.377569e-05	
697	-1.60000e+00	1.409600e-05	
698	-1.65000e+00	1.440863e-05	
699	-1.70000e+00	1.471356e-05	
700	-1.75000e+00	1.501081e-05	
701	-1.80000e+00	1.530038e-05	
702	-1.85000e+00	1.558228e-05	
703	-1.90000e+00	1.585652e-05	
704	-1.95000e+00	1.612309e-05	
705	-2.00000e+00	1.638201e-05	
706	-2.05000e+00	1.663328e-05	
707	-2.10000e+00	1.687690e-05	
708	-2.15000e+00	1.711289e-05	
709	-2.20000e+00	1.734125e-05	
710	-2.25000e+00	1.756198e-05	
711	-2.30000e+00	1.777510e-05	
712	-2.35000e+00	1.798060e-05	
713	-2.40000e+00	1.817850e-05	
714	-2.45000e+00	1.836880e-05	
715	-2.50000e+00	1.855152e-05	
716	-2.55000e+00	1.872665e-05	
717	-2.60000e+00	1.889421e-05	
718	-2.65000e+00	1.905422e-05	
719	-2.70000e+00	1.920667e-05	
720	-2.75000e+00	1.935158e-05	
721	-2.80000e+00	1.948897e-05	
722	-2.85000e+00	1.961885e-05	
723	-2.90000e+00	1.974124e-05	
724	-2.95000e+00	1.985617e-05	
725	-3.00000e+00	1.996365e-05	
726	-3.05000e+00	2.006373e-05	
727	-3.10000e+00	2.015646e-05	
728	-3.15000e+00	2.024188e-05	
729	-3.20000e+00	2.032007e-05	
730	-3.25000e+00	2.039113e-05	
731	-3.30000e+00	2.045519e-05	
732	-3.35000e+00	2.051243e-05	
733	-3.40000e+00	2.056309e-05	
734	-3.45000e+00	2.060748e-05	
735	-3.50000e+00	2.064601e-05	
736	-3.55000e+00	2.067920e-05	
737	-3.60000e+00	2.070766e-05	
738	-3.65000e+00	2.073205e-05	
739	-3.70000e+00	2.075306e-05	
740	-3.75000e+00	2.077136e-05	
741	-3.80000e+00	2.078752e-05	
742	-3.85000e+00	2.080202e-05	
743	-3.90000e+00	2.081524e-05	
744	-3.95000e+00	2.082746e-05	
745	-4.00000e+00	2.083889e-05	
746	-4.05000e+00	2.084971e-05	
747	-4.10000e+00	2.086002e-05	
748	-4.15000e+00	2.086992e-05	
749	-4.20000e+00	2.087947e-05	
750	-4.25000e+00	2.088873e-05	

Index   v-sweep         i(vds)          
--------------------------------------------------------------------------------
751	-4.30000e+00	2.089774e-05	
752	-4.35000e+00	2.090653e-05	
753	-4.40000e+00	2.091513e-05	
754	-4.45000e+00	2.092356e-05	
755	-4.50000e+00	2.093184e-05	
756	-4.55000e+00	2.093998e-05	
757	-4.60000e+00	2.094800e-05	
758	-4.65000e+00	2.095590e-05	
759	-4.70000e+00	2.096370e-05	
760	-4.75000e+00	2.097141e-05	
761	-4.80000e+00	2.097902e-05	
762	-4.85000e+00	2.098656e-05	
763	-4.90000e+00	2.099402e-05	
764	-4.95000e+00	2.100141e-05	
765	-5.00000e+00	2.100873e-05	
766	-5.05000e+00	2.101600e-05	
767	-5.10000e+00	2.102320e-05	
768	-5.15000e+00	2.103035e-05	
769	-5.20000e+00	2.103745e-05	
770	-5.25000e+00	2.104449e-05	
771	-5.30000e+00	2.105150e-05	
772	-5.35000e+00	2.105846e-05	
773	-5.40000e+00	2.106537e-05	
774	-5.45000e+00	2.107225e-05	
775	-5.50000e+00	2.107909e-05	
776	-5.55000e+00	2.108589e-05	
777	-5.60000e+00	2.109266e-05	
778	-5.65000e+00	2.109940e-05	
779	-5.70000e+00	2.110610e-05	
780	-5.75000e+00	2.111278e-05	
781	-5.80000e+00	2.111943e-05	
782	-5.85000e+00	2.112604e-05	
783	-5.90000e+00	2.113264e-05	
784	-5.95000e+00	2.113920e-05	
785	-6.00000e+00	2.114575e-05	
786	-6.05000e+00	2.115227e-05	
787	-6.10000e+00	2.115876e-05	
788	-6.15000e+00	2.116524e-05	
789	-6.20000e+00	2.117169e-05	
790	-6.25000e+00	2.117813e-05	
791	-6.30000e+00	2.118455e-05	
792	-6.35000e+00	2.119095e-05	
793	-6.40000e+00	2.119733e-05	
794	-6.45000e+00	2.120371e-05	
795	-6.50000e+00	2.121006e-05	
796	-6.55000e+00	2.121641e-05	
797	-6.60000e+00	2.122275e-05	
Note: No ".plot", ".print", or ".fourier" lines; no simulations run
