
Note: Compatibility modes selected: hs

Warning: m=xx on .subckt line will override multiplier m hierarchy!


Circuit: ***************************

Doing analysis at TEMP = -40.000000 and TNOM = -40.000000


No. of Data Rows : 798
                          ***************************
                          DC transfer characteristic  Mon Jan  9 13:57:53  2023
--------------------------------------------------------------------------------
Index   v-sweep         i(vds)          
--------------------------------------------------------------------------------
0	0.000000e+00	0.000000e+00	
1	-5.00000e-02	1.004580e-07	
2	-1.00000e-01	1.491788e-07	
3	-1.50000e-01	1.652541e-07	
4	-2.00000e-01	1.712152e-07	
5	-2.50000e-01	1.750508e-07	
6	-3.00000e-01	1.782649e-07	
7	-3.50000e-01	1.811935e-07	
8	-4.00000e-01	1.839450e-07	
9	-4.50000e-01	1.865671e-07	
10	-5.00000e-01	1.890859e-07	
11	-5.50000e-01	1.915185e-07	
12	-6.00000e-01	1.938771e-07	
13	-6.50000e-01	1.961711e-07	
14	-7.00000e-01	1.984079e-07	
15	-7.50000e-01	2.005938e-07	
16	-8.00000e-01	2.027340e-07	
17	-8.50000e-01	2.048328e-07	
18	-9.00000e-01	2.068942e-07	
19	-9.50000e-01	2.089215e-07	
20	-1.00000e+00	2.109176e-07	
21	-1.05000e+00	2.128852e-07	
22	-1.10000e+00	2.148266e-07	
23	-1.15000e+00	2.167439e-07	
24	-1.20000e+00	2.186389e-07	
25	-1.25000e+00	2.205133e-07	
26	-1.30000e+00	2.223686e-07	
27	-1.35000e+00	2.242063e-07	
28	-1.40000e+00	2.260276e-07	
29	-1.45000e+00	2.278337e-07	
30	-1.50000e+00	2.296255e-07	
31	-1.55000e+00	2.314041e-07	
32	-1.60000e+00	2.331704e-07	
33	-1.65000e+00	2.349252e-07	
34	-1.70000e+00	2.366693e-07	
35	-1.75000e+00	2.384033e-07	
36	-1.80000e+00	2.401279e-07	
37	-1.85000e+00	2.418437e-07	
38	-1.90000e+00	2.435514e-07	
39	-1.95000e+00	2.452513e-07	
40	-2.00000e+00	2.469441e-07	
41	-2.05000e+00	2.486302e-07	
42	-2.10000e+00	2.503099e-07	
43	-2.15000e+00	2.519838e-07	
44	-2.20000e+00	2.536522e-07	
45	-2.25000e+00	2.553155e-07	
46	-2.30000e+00	2.569739e-07	
47	-2.35000e+00	2.586279e-07	
48	-2.40000e+00	2.602777e-07	
49	-2.45000e+00	2.619236e-07	
50	-2.50000e+00	2.635659e-07	
51	-2.55000e+00	2.652048e-07	
52	-2.60000e+00	2.668405e-07	
53	-2.65000e+00	2.684734e-07	
54	-2.70000e+00	2.701036e-07	

Index   v-sweep         i(vds)          
--------------------------------------------------------------------------------
55	-2.75000e+00	2.717313e-07	
56	-2.80000e+00	2.733568e-07	
57	-2.85000e+00	2.749801e-07	
58	-2.90000e+00	2.766016e-07	
59	-2.95000e+00	2.782213e-07	
60	-3.00000e+00	2.798396e-07	
61	-3.05000e+00	2.814564e-07	
62	-3.10000e+00	2.830720e-07	
63	-3.15000e+00	2.846865e-07	
64	-3.20000e+00	2.863002e-07	
65	-3.25000e+00	2.879131e-07	
66	-3.30000e+00	2.895254e-07	
67	-3.35000e+00	2.911373e-07	
68	-3.40000e+00	2.927490e-07	
69	-3.45000e+00	2.943605e-07	
70	-3.50000e+00	2.959722e-07	
71	-3.55000e+00	2.975842e-07	
72	-3.60000e+00	2.991967e-07	
73	-3.65000e+00	3.008099e-07	
74	-3.70000e+00	3.024240e-07	
75	-3.75000e+00	3.040393e-07	
76	-3.80000e+00	3.056561e-07	
77	-3.85000e+00	3.072747e-07	
78	-3.90000e+00	3.088954e-07	
79	-3.95000e+00	3.105185e-07	
80	-4.00000e+00	3.121444e-07	
81	-4.05000e+00	3.137736e-07	
82	-4.10000e+00	3.154066e-07	
83	-4.15000e+00	3.170438e-07	
84	-4.20000e+00	3.186858e-07	
85	-4.25000e+00	3.203332e-07	
86	-4.30000e+00	3.219867e-07	
87	-4.35000e+00	3.236471e-07	
88	-4.40000e+00	3.253150e-07	
89	-4.45000e+00	3.269915e-07	
90	-4.50000e+00	3.286774e-07	
91	-4.55000e+00	3.303738e-07	
92	-4.60000e+00	3.320817e-07	
93	-4.65000e+00	3.338024e-07	
94	-4.70000e+00	3.355371e-07	
95	-4.75000e+00	3.372873e-07	
96	-4.80000e+00	3.390544e-07	
97	-4.85000e+00	3.408401e-07	
98	-4.90000e+00	3.426460e-07	
99	-4.95000e+00	3.444740e-07	
100	-5.00000e+00	3.463260e-07	
101	-5.05000e+00	3.482041e-07	
102	-5.10000e+00	3.501105e-07	
103	-5.15000e+00	3.520476e-07	
104	-5.20000e+00	3.540179e-07	
105	-5.25000e+00	3.560240e-07	
106	-5.30000e+00	3.580687e-07	
107	-5.35000e+00	3.601550e-07	
108	-5.40000e+00	3.622860e-07	
109	-5.45000e+00	3.644649e-07	
110	-5.50000e+00	3.666953e-07	
111	-5.55000e+00	3.689806e-07	
112	-5.60000e+00	3.713248e-07	

Index   v-sweep         i(vds)          
--------------------------------------------------------------------------------
113	-5.65000e+00	3.737318e-07	
114	-5.70000e+00	3.762058e-07	
115	-5.75000e+00	3.787511e-07	
116	-5.80000e+00	3.813724e-07	
117	-5.85000e+00	3.840743e-07	
118	-5.90000e+00	3.868617e-07	
119	-5.95000e+00	3.897400e-07	
120	-6.00000e+00	3.927144e-07	
121	-6.05000e+00	3.957904e-07	
122	-6.10000e+00	3.989740e-07	
123	-6.15000e+00	4.022711e-07	
124	-6.20000e+00	4.056878e-07	
125	-6.25000e+00	4.092308e-07	
126	-6.30000e+00	4.129065e-07	
127	-6.35000e+00	4.167220e-07	
128	-6.40000e+00	4.206844e-07	
129	-6.45000e+00	4.248009e-07	
130	-6.50000e+00	4.290792e-07	
131	-6.55000e+00	4.335271e-07	
132	-6.60000e+00	4.381527e-07	
133	0.000000e+00	0.000000e+00	
134	-5.00000e-02	1.113466e-06	
135	-1.00000e-01	2.145230e-06	
136	-1.50000e-01	3.097444e-06	
137	-2.00000e-01	3.972190e-06	
138	-2.50000e-01	4.771489e-06	
139	-3.00000e-01	5.497309e-06	
140	-3.50000e-01	6.151573e-06	
141	-4.00000e-01	6.736179e-06	
142	-4.50000e-01	7.253035e-06	
143	-5.00000e-01	7.704118e-06	
144	-5.50000e-01	8.091600e-06	
145	-6.00000e-01	8.418116e-06	
146	-6.50000e-01	8.687291e-06	
147	-7.00000e-01	8.904678e-06	
148	-7.50000e-01	9.078661e-06	
149	-8.00000e-01	9.219890e-06	
150	-8.50000e-01	9.338532e-06	
151	-9.00000e-01	9.441951e-06	
152	-9.50000e-01	9.534662e-06	
153	-1.00000e+00	9.619339e-06	
154	-1.05000e+00	9.697651e-06	
155	-1.10000e+00	9.770718e-06	
156	-1.15000e+00	9.839347e-06	
157	-1.20000e+00	9.904150e-06	
158	-1.25000e+00	9.965607e-06	
159	-1.30000e+00	1.002411e-05	
160	-1.35000e+00	1.007997e-05	
161	-1.40000e+00	1.013348e-05	
162	-1.45000e+00	1.018484e-05	
163	-1.50000e+00	1.023427e-05	
164	-1.55000e+00	1.028193e-05	
165	-1.60000e+00	1.032796e-05	
166	-1.65000e+00	1.037251e-05	
167	-1.70000e+00	1.041569e-05	
168	-1.75000e+00	1.045759e-05	
169	-1.80000e+00	1.049831e-05	
170	-1.85000e+00	1.053793e-05	

Index   v-sweep         i(vds)          
--------------------------------------------------------------------------------
171	-1.90000e+00	1.057653e-05	
172	-1.95000e+00	1.061417e-05	
173	-2.00000e+00	1.065091e-05	
174	-2.05000e+00	1.068681e-05	
175	-2.10000e+00	1.072191e-05	
176	-2.15000e+00	1.075626e-05	
177	-2.20000e+00	1.078991e-05	
178	-2.25000e+00	1.082289e-05	
179	-2.30000e+00	1.085524e-05	
180	-2.35000e+00	1.088699e-05	
181	-2.40000e+00	1.091817e-05	
182	-2.45000e+00	1.094881e-05	
183	-2.50000e+00	1.097894e-05	
184	-2.55000e+00	1.100857e-05	
185	-2.60000e+00	1.103774e-05	
186	-2.65000e+00	1.106646e-05	
187	-2.70000e+00	1.109475e-05	
188	-2.75000e+00	1.112263e-05	
189	-2.80000e+00	1.115013e-05	
190	-2.85000e+00	1.117724e-05	
191	-2.90000e+00	1.120400e-05	
192	-2.95000e+00	1.123041e-05	
193	-3.00000e+00	1.125649e-05	
194	-3.05000e+00	1.128225e-05	
195	-3.10000e+00	1.130771e-05	
196	-3.15000e+00	1.133286e-05	
197	-3.20000e+00	1.135774e-05	
198	-3.25000e+00	1.138234e-05	
199	-3.30000e+00	1.140667e-05	
200	-3.35000e+00	1.143075e-05	
201	-3.40000e+00	1.145458e-05	
202	-3.45000e+00	1.147818e-05	
203	-3.50000e+00	1.150154e-05	
204	-3.55000e+00	1.152468e-05	
205	-3.60000e+00	1.154761e-05	
206	-3.65000e+00	1.157033e-05	
207	-3.70000e+00	1.159285e-05	
208	-3.75000e+00	1.161518e-05	
209	-3.80000e+00	1.163732e-05	
210	-3.85000e+00	1.165928e-05	
211	-3.90000e+00	1.168106e-05	
212	-3.95000e+00	1.170268e-05	
213	-4.00000e+00	1.172414e-05	
214	-4.05000e+00	1.174545e-05	
215	-4.10000e+00	1.176662e-05	
216	-4.15000e+00	1.178764e-05	
217	-4.20000e+00	1.180854e-05	
218	-4.25000e+00	1.182931e-05	
219	-4.30000e+00	1.184997e-05	
220	-4.35000e+00	1.187053e-05	
221	-4.40000e+00	1.189100e-05	
222	-4.45000e+00	1.191138e-05	
223	-4.50000e+00	1.193169e-05	
224	-4.55000e+00	1.195194e-05	
225	-4.60000e+00	1.197215e-05	
226	-4.65000e+00	1.199233e-05	
227	-4.70000e+00	1.201250e-05	
228	-4.75000e+00	1.203267e-05	

Index   v-sweep         i(vds)          
--------------------------------------------------------------------------------
229	-4.80000e+00	1.205286e-05	
230	-4.85000e+00	1.207310e-05	
231	-4.90000e+00	1.209340e-05	
232	-4.95000e+00	1.211380e-05	
233	-5.00000e+00	1.213431e-05	
234	-5.05000e+00	1.215498e-05	
235	-5.10000e+00	1.217582e-05	
236	-5.15000e+00	1.219687e-05	
237	-5.20000e+00	1.221817e-05	
238	-5.25000e+00	1.223975e-05	
239	-5.30000e+00	1.226167e-05	
240	-5.35000e+00	1.228395e-05	
241	-5.40000e+00	1.230666e-05	
242	-5.45000e+00	1.232983e-05	
243	-5.50000e+00	1.235353e-05	
244	-5.55000e+00	1.237782e-05	
245	-5.60000e+00	1.240274e-05	
246	-5.65000e+00	1.242838e-05	
247	-5.70000e+00	1.245479e-05	
248	-5.75000e+00	1.248205e-05	
249	-5.80000e+00	1.251024e-05	
250	-5.85000e+00	1.253943e-05	
251	-5.90000e+00	1.256971e-05	
252	-5.95000e+00	1.260117e-05	
253	-6.00000e+00	1.263391e-05	
254	-6.05000e+00	1.266802e-05	
255	-6.10000e+00	1.270360e-05	
256	-6.15000e+00	1.274077e-05	
257	-6.20000e+00	1.277962e-05	
258	-6.25000e+00	1.282029e-05	
259	-6.30000e+00	1.286289e-05	
260	-6.35000e+00	1.290754e-05	
261	-6.40000e+00	1.295439e-05	
262	-6.45000e+00	1.300356e-05	
263	-6.50000e+00	1.305520e-05	
264	-6.55000e+00	1.310944e-05	
265	-6.60000e+00	1.316646e-05	
266	0.000000e+00	0.000000e+00	
267	-5.00000e-02	1.900884e-06	
268	-1.00000e-01	3.717608e-06	
269	-1.50000e-01	5.452039e-06	
270	-2.00000e-01	7.105993e-06	
271	-2.50000e-01	8.681231e-06	
272	-3.00000e-01	1.017946e-05	
273	-3.50000e-01	1.160236e-05	
274	-4.00000e-01	1.295152e-05	
275	-4.50000e-01	1.422854e-05	
276	-5.00000e-01	1.543494e-05	
277	-5.50000e-01	1.657221e-05	
278	-6.00000e-01	1.764180e-05	
279	-6.50000e-01	1.864513e-05	
280	-7.00000e-01	1.958360e-05	
281	-7.50000e-01	2.045857e-05	
282	-8.00000e-01	2.127137e-05	
283	-8.50000e-01	2.202334e-05	
284	-9.00000e-01	2.271582e-05	
285	-9.50000e-01	2.335019e-05	
286	-1.00000e+00	2.392788e-05	

Index   v-sweep         i(vds)          
--------------------------------------------------------------------------------
287	-1.05000e+00	2.445050e-05	
288	-1.10000e+00	2.491994e-05	
289	-1.15000e+00	2.533860e-05	
290	-1.20000e+00	2.570971e-05	
291	-1.25000e+00	2.603762e-05	
292	-1.30000e+00	2.632776e-05	
293	-1.35000e+00	2.658609e-05	
294	-1.40000e+00	2.681824e-05	
295	-1.45000e+00	2.702898e-05	
296	-1.50000e+00	2.722206e-05	
297	-1.55000e+00	2.740039e-05	
298	-1.60000e+00	2.756623e-05	
299	-1.65000e+00	2.772136e-05	
300	-1.70000e+00	2.786720e-05	
301	-1.75000e+00	2.800492e-05	
302	-1.80000e+00	2.813545e-05	
303	-1.85000e+00	2.825961e-05	
304	-1.90000e+00	2.837805e-05	
305	-1.95000e+00	2.849136e-05	
306	-2.00000e+00	2.860001e-05	
307	-2.05000e+00	2.870443e-05	
308	-2.10000e+00	2.880499e-05	
309	-2.15000e+00	2.890200e-05	
310	-2.20000e+00	2.899576e-05	
311	-2.25000e+00	2.908652e-05	
312	-2.30000e+00	2.917448e-05	
313	-2.35000e+00	2.925987e-05	
314	-2.40000e+00	2.934285e-05	
315	-2.45000e+00	2.942358e-05	
316	-2.50000e+00	2.950222e-05	
317	-2.55000e+00	2.957889e-05	
318	-2.60000e+00	2.965370e-05	
319	-2.65000e+00	2.972678e-05	
320	-2.70000e+00	2.979823e-05	
321	-2.75000e+00	2.986812e-05	
322	-2.80000e+00	2.993655e-05	
323	-2.85000e+00	3.000360e-05	
324	-2.90000e+00	3.006933e-05	
325	-2.95000e+00	3.013381e-05	
326	-3.00000e+00	3.019711e-05	
327	-3.05000e+00	3.025928e-05	
328	-3.10000e+00	3.032037e-05	
329	-3.15000e+00	3.038044e-05	
330	-3.20000e+00	3.043952e-05	
331	-3.25000e+00	3.049767e-05	
332	-3.30000e+00	3.055492e-05	
333	-3.35000e+00	3.061131e-05	
334	-3.40000e+00	3.066687e-05	
335	-3.45000e+00	3.072165e-05	
336	-3.50000e+00	3.077566e-05	
337	-3.55000e+00	3.082895e-05	
338	-3.60000e+00	3.088153e-05	
339	-3.65000e+00	3.093344e-05	
340	-3.70000e+00	3.098470e-05	
341	-3.75000e+00	3.103533e-05	
342	-3.80000e+00	3.108536e-05	
343	-3.85000e+00	3.113481e-05	
344	-3.90000e+00	3.118369e-05	

Index   v-sweep         i(vds)          
--------------------------------------------------------------------------------
345	-3.95000e+00	3.123203e-05	
346	-4.00000e+00	3.127985e-05	
347	-4.05000e+00	3.132716e-05	
348	-4.10000e+00	3.137398e-05	
349	-4.15000e+00	3.142033e-05	
350	-4.20000e+00	3.146623e-05	
351	-4.25000e+00	3.151168e-05	
352	-4.30000e+00	3.155671e-05	
353	-4.35000e+00	3.160133e-05	
354	-4.40000e+00	3.164556e-05	
355	-4.45000e+00	3.168942e-05	
356	-4.50000e+00	3.173291e-05	
357	-4.55000e+00	3.177605e-05	
358	-4.60000e+00	3.181887e-05	
359	-4.65000e+00	3.186138e-05	
360	-4.70000e+00	3.190360e-05	
361	-4.75000e+00	3.194555e-05	
362	-4.80000e+00	3.198725e-05	
363	-4.85000e+00	3.202873e-05	
364	-4.90000e+00	3.207000e-05	
365	-4.95000e+00	3.211110e-05	
366	-5.00000e+00	3.215205e-05	
367	-5.05000e+00	3.219289e-05	
368	-5.10000e+00	3.223365e-05	
369	-5.15000e+00	3.227437e-05	
370	-5.20000e+00	3.231509e-05	
371	-5.25000e+00	3.235586e-05	
372	-5.30000e+00	3.239671e-05	
373	-5.35000e+00	3.243772e-05	
374	-5.40000e+00	3.247893e-05	
375	-5.45000e+00	3.252040e-05	
376	-5.50000e+00	3.256221e-05	
377	-5.55000e+00	3.260443e-05	
378	-5.60000e+00	3.264714e-05	
379	-5.65000e+00	3.269042e-05	
380	-5.70000e+00	3.273437e-05	
381	-5.75000e+00	3.277909e-05	
382	-5.80000e+00	3.282468e-05	
383	-5.85000e+00	3.287127e-05	
384	-5.90000e+00	3.291896e-05	
385	-5.95000e+00	3.296790e-05	
386	-6.00000e+00	3.301822e-05	
387	-6.05000e+00	3.307007e-05	
388	-6.10000e+00	3.312361e-05	
389	-6.15000e+00	3.317901e-05	
390	-6.20000e+00	3.323644e-05	
391	-6.25000e+00	3.329610e-05	
392	-6.30000e+00	3.335817e-05	
393	-6.35000e+00	3.342288e-05	
394	-6.40000e+00	3.349043e-05	
395	-6.45000e+00	3.356106e-05	
396	-6.50000e+00	3.363501e-05	
397	-6.55000e+00	3.371253e-05	
398	-6.60000e+00	3.379389e-05	
399	0.000000e+00	0.000000e+00	
400	-5.00000e-02	2.542181e-06	
401	-1.00000e-01	5.000785e-06	
402	-1.50000e-01	7.377424e-06	

Index   v-sweep         i(vds)          
--------------------------------------------------------------------------------
403	-2.00000e-01	9.673668e-06	
404	-2.50000e-01	1.189105e-05	
405	-3.00000e-01	1.403106e-05	
406	-3.50000e-01	1.609515e-05	
407	-4.00000e-01	1.808474e-05	
408	-4.50000e-01	2.000122e-05	
409	-5.00000e-01	2.184594e-05	
410	-5.50000e-01	2.362022e-05	
411	-6.00000e-01	2.532533e-05	
412	-6.50000e-01	2.696254e-05	
413	-7.00000e-01	2.853307e-05	
414	-7.50000e-01	3.003812e-05	
415	-8.00000e-01	3.147887e-05	
416	-8.50000e-01	3.285644e-05	
417	-9.00000e-01	3.417197e-05	
418	-9.50000e-01	3.542654e-05	
419	-1.00000e+00	3.662123e-05	
420	-1.05000e+00	3.775708e-05	
421	-1.10000e+00	3.883514e-05	
422	-1.15000e+00	3.985640e-05	
423	-1.20000e+00	4.082187e-05	
424	-1.25000e+00	4.173254e-05	
425	-1.30000e+00	4.258938e-05	
426	-1.35000e+00	4.339337e-05	
427	-1.40000e+00	4.414551e-05	
428	-1.45000e+00	4.484682e-05	
429	-1.50000e+00	4.549836e-05	
430	-1.55000e+00	4.610132e-05	
431	-1.60000e+00	4.665706e-05	
432	-1.65000e+00	4.716722e-05	
433	-1.70000e+00	4.763393e-05	
434	-1.75000e+00	4.805988e-05	
435	-1.80000e+00	4.844844e-05	
436	-1.85000e+00	4.880345e-05	
437	-1.90000e+00	4.912891e-05	
438	-1.95000e+00	4.942863e-05	
439	-2.00000e+00	4.970605e-05	
440	-2.05000e+00	4.996412e-05	
441	-2.10000e+00	5.020538e-05	
442	-2.15000e+00	5.043192e-05	
443	-2.20000e+00	5.064553e-05	
444	-2.25000e+00	5.084770e-05	
445	-2.30000e+00	5.103968e-05	
446	-2.35000e+00	5.122256e-05	
447	-2.40000e+00	5.139723e-05	
448	-2.45000e+00	5.156449e-05	
449	-2.50000e+00	5.172502e-05	
450	-2.55000e+00	5.187942e-05	
451	-2.60000e+00	5.202819e-05	
452	-2.65000e+00	5.217181e-05	
453	-2.70000e+00	5.231068e-05	
454	-2.75000e+00	5.244514e-05	
455	-2.80000e+00	5.257553e-05	
456	-2.85000e+00	5.270213e-05	
457	-2.90000e+00	5.282520e-05	
458	-2.95000e+00	5.294497e-05	
459	-3.00000e+00	5.306165e-05	
460	-3.05000e+00	5.317544e-05	

Index   v-sweep         i(vds)          
--------------------------------------------------------------------------------
461	-3.10000e+00	5.328650e-05	
462	-3.15000e+00	5.339499e-05	
463	-3.20000e+00	5.350107e-05	
464	-3.25000e+00	5.360486e-05	
465	-3.30000e+00	5.370649e-05	
466	-3.35000e+00	5.380607e-05	
467	-3.40000e+00	5.390371e-05	
468	-3.45000e+00	5.399950e-05	
469	-3.50000e+00	5.409353e-05	
470	-3.55000e+00	5.418589e-05	
471	-3.60000e+00	5.427666e-05	
472	-3.65000e+00	5.436590e-05	
473	-3.70000e+00	5.445368e-05	
474	-3.75000e+00	5.454008e-05	
475	-3.80000e+00	5.462514e-05	
476	-3.85000e+00	5.470892e-05	
477	-3.90000e+00	5.479148e-05	
478	-3.95000e+00	5.487286e-05	
479	-4.00000e+00	5.495312e-05	
480	-4.05000e+00	5.503229e-05	
481	-4.10000e+00	5.511041e-05	
482	-4.15000e+00	5.518753e-05	
483	-4.20000e+00	5.526368e-05	
484	-4.25000e+00	5.533890e-05	
485	-4.30000e+00	5.541322e-05	
486	-4.35000e+00	5.548667e-05	
487	-4.40000e+00	5.555928e-05	
488	-4.45000e+00	5.563109e-05	
489	-4.50000e+00	5.570211e-05	
490	-4.55000e+00	5.577238e-05	
491	-4.60000e+00	5.584192e-05	
492	-4.65000e+00	5.591076e-05	
493	-4.70000e+00	5.597893e-05	
494	-4.75000e+00	5.604644e-05	
495	-4.80000e+00	5.611332e-05	
496	-4.85000e+00	5.617960e-05	
497	-4.90000e+00	5.624531e-05	
498	-4.95000e+00	5.631046e-05	
499	-5.00000e+00	5.637508e-05	
500	-5.05000e+00	5.643921e-05	
501	-5.10000e+00	5.650286e-05	
502	-5.15000e+00	5.656608e-05	
503	-5.20000e+00	5.662889e-05	
504	-5.25000e+00	5.669133e-05	
505	-5.30000e+00	5.675344e-05	
506	-5.35000e+00	5.681526e-05	
507	-5.40000e+00	5.687682e-05	
508	-5.45000e+00	5.693819e-05	
509	-5.50000e+00	5.699941e-05	
510	-5.55000e+00	5.706055e-05	
511	-5.60000e+00	5.712166e-05	
512	-5.65000e+00	5.718281e-05	
513	-5.70000e+00	5.724409e-05	
514	-5.75000e+00	5.730557e-05	
515	-5.80000e+00	5.736734e-05	
516	-5.85000e+00	5.742951e-05	
517	-5.90000e+00	5.749217e-05	
518	-5.95000e+00	5.755545e-05	

Index   v-sweep         i(vds)          
--------------------------------------------------------------------------------
519	-6.00000e+00	5.761948e-05	
520	-6.05000e+00	5.768438e-05	
521	-6.10000e+00	5.775031e-05	
522	-6.15000e+00	5.781742e-05	
523	-6.20000e+00	5.788590e-05	
524	-6.25000e+00	5.795591e-05	
525	-6.30000e+00	5.802767e-05	
526	-6.35000e+00	5.810137e-05	
527	-6.40000e+00	5.817725e-05	
528	-6.45000e+00	5.825555e-05	
529	-6.50000e+00	5.833652e-05	
530	-6.55000e+00	5.842043e-05	
531	-6.60000e+00	5.850758e-05	
532	0.000000e+00	0.000000e+00	
533	-5.00000e-02	3.087115e-06	
534	-1.00000e-01	6.092332e-06	
535	-1.50000e-01	9.017046e-06	
536	-2.00000e-01	1.186263e-05	
537	-2.50000e-01	1.463040e-05	
538	-3.00000e-01	1.732169e-05	
539	-3.50000e-01	1.993775e-05	
540	-4.00000e-01	2.247984e-05	
541	-4.50000e-01	2.494919e-05	
542	-5.00000e-01	2.734697e-05	
543	-5.50000e-01	2.967437e-05	
544	-6.00000e-01	3.193252e-05	
545	-6.50000e-01	3.412254e-05	
546	-7.00000e-01	3.624553e-05	
547	-7.50000e-01	3.830256e-05	
548	-8.00000e-01	4.029468e-05	
549	-8.50000e-01	4.222291e-05	
550	-9.00000e-01	4.408826e-05	
551	-9.50000e-01	4.589171e-05	
552	-1.00000e+00	4.763423e-05	
553	-1.05000e+00	4.931676e-05	
554	-1.10000e+00	5.094024e-05	
555	-1.15000e+00	5.250556e-05	
556	-1.20000e+00	5.401362e-05	
557	-1.25000e+00	5.546529e-05	
558	-1.30000e+00	5.686143e-05	
559	-1.35000e+00	5.820287e-05	
560	-1.40000e+00	5.949045e-05	
561	-1.45000e+00	6.072496e-05	
562	-1.50000e+00	6.190721e-05	
563	-1.55000e+00	6.303797e-05	
564	-1.60000e+00	6.411801e-05	
565	-1.65000e+00	6.514808e-05	
566	-1.70000e+00	6.612892e-05	
567	-1.75000e+00	6.706125e-05	
568	-1.80000e+00	6.794577e-05	
569	-1.85000e+00	6.878317e-05	
570	-1.90000e+00	6.957408e-05	
571	-1.95000e+00	7.031914e-05	
572	-2.00000e+00	7.101893e-05	
573	-2.05000e+00	7.167401e-05	
574	-2.10000e+00	7.228502e-05	
575	-2.15000e+00	7.285286e-05	
576	-2.20000e+00	7.337888e-05	

Index   v-sweep         i(vds)          
--------------------------------------------------------------------------------
577	-2.25000e+00	7.386512e-05	
578	-2.30000e+00	7.431437e-05	
579	-2.35000e+00	7.472991e-05	
580	-2.40000e+00	7.511525e-05	
581	-2.45000e+00	7.547377e-05	
582	-2.50000e+00	7.580861e-05	
583	-2.55000e+00	7.612257e-05	
584	-2.60000e+00	7.641807e-05	
585	-2.65000e+00	7.669720e-05	
586	-2.70000e+00	7.696175e-05	
587	-2.75000e+00	7.721326e-05	
588	-2.80000e+00	7.745305e-05	
589	-2.85000e+00	7.768228e-05	
590	-2.90000e+00	7.790193e-05	
591	-2.95000e+00	7.811286e-05	
592	-3.00000e+00	7.831583e-05	
593	-3.05000e+00	7.851151e-05	
594	-3.10000e+00	7.870047e-05	
595	-3.15000e+00	7.888324e-05	
596	-3.20000e+00	7.906028e-05	
597	-3.25000e+00	7.923200e-05	
598	-3.30000e+00	7.939877e-05	
599	-3.35000e+00	7.956094e-05	
600	-3.40000e+00	7.971879e-05	
601	-3.45000e+00	7.987260e-05	
602	-3.50000e+00	8.002263e-05	
603	-3.55000e+00	8.016909e-05	
604	-3.60000e+00	8.031220e-05	
605	-3.65000e+00	8.045214e-05	
606	-3.70000e+00	8.058908e-05	
607	-3.75000e+00	8.072320e-05	
608	-3.80000e+00	8.085463e-05	
609	-3.85000e+00	8.098351e-05	
610	-3.90000e+00	8.110997e-05	
611	-3.95000e+00	8.123413e-05	
612	-4.00000e+00	8.135610e-05	
613	-4.05000e+00	8.147597e-05	
614	-4.10000e+00	8.159384e-05	
615	-4.15000e+00	8.170981e-05	
616	-4.20000e+00	8.182394e-05	
617	-4.25000e+00	8.193633e-05	
618	-4.30000e+00	8.204705e-05	
619	-4.35000e+00	8.215615e-05	
620	-4.40000e+00	8.226371e-05	
621	-4.45000e+00	8.236979e-05	
622	-4.50000e+00	8.247445e-05	
623	-4.55000e+00	8.257773e-05	
624	-4.60000e+00	8.267969e-05	
625	-4.65000e+00	8.278038e-05	
626	-4.70000e+00	8.287985e-05	
627	-4.75000e+00	8.297813e-05	
628	-4.80000e+00	8.307528e-05	
629	-4.85000e+00	8.317132e-05	
630	-4.90000e+00	8.326630e-05	
631	-4.95000e+00	8.336026e-05	
632	-5.00000e+00	8.345323e-05	
633	-5.05000e+00	8.354524e-05	
634	-5.10000e+00	8.363634e-05	

Index   v-sweep         i(vds)          
--------------------------------------------------------------------------------
635	-5.15000e+00	8.372655e-05	
636	-5.20000e+00	8.381590e-05	
637	-5.25000e+00	8.390443e-05	
638	-5.30000e+00	8.399218e-05	
639	-5.35000e+00	8.407918e-05	
640	-5.40000e+00	8.416546e-05	
641	-5.45000e+00	8.425107e-05	
642	-5.50000e+00	8.433603e-05	
643	-5.55000e+00	8.442040e-05	
644	-5.60000e+00	8.450422e-05	
645	-5.65000e+00	8.458752e-05	
646	-5.70000e+00	8.467038e-05	
647	-5.75000e+00	8.475283e-05	
648	-5.80000e+00	8.483495e-05	
649	-5.85000e+00	8.491679e-05	
650	-5.90000e+00	8.499843e-05	
651	-5.95000e+00	8.507996e-05	
652	-6.00000e+00	8.516145e-05	
653	-6.05000e+00	8.524300e-05	
654	-6.10000e+00	8.532472e-05	
655	-6.15000e+00	8.540672e-05	
656	-6.20000e+00	8.548913e-05	
657	-6.25000e+00	8.557209e-05	
658	-6.30000e+00	8.565573e-05	
659	-6.35000e+00	8.574023e-05	
660	-6.40000e+00	8.582576e-05	
661	-6.45000e+00	8.591251e-05	
662	-6.50000e+00	8.600070e-05	
663	-6.55000e+00	8.609053e-05	
664	-6.60000e+00	8.618226e-05	
665	0.000000e+00	0.000000e+00	
666	-5.00000e-02	3.564979e-06	
667	-1.00000e-01	7.050127e-06	
668	-1.50000e-01	1.045667e-05	
669	-2.00000e-01	1.378579e-05	
670	-2.50000e-01	1.703868e-05	
671	-3.00000e-01	2.021648e-05	
672	-3.50000e-01	2.332031e-05	
673	-4.00000e-01	2.635129e-05	
674	-4.50000e-01	2.931049e-05	
675	-5.00000e-01	3.219898e-05	
676	-5.50000e-01	3.501779e-05	
677	-6.00000e-01	3.776794e-05	
678	-6.50000e-01	4.045044e-05	
679	-7.00000e-01	4.306626e-05	
680	-7.50000e-01	4.561637e-05	
681	-8.00000e-01	4.810170e-05	
682	-8.50000e-01	5.052320e-05	
683	-9.00000e-01	5.288175e-05	
684	-9.50000e-01	5.517826e-05	
685	-1.00000e+00	5.741360e-05	
686	-1.05000e+00	5.958862e-05	
687	-1.10000e+00	6.170418e-05	
688	-1.15000e+00	6.376108e-05	
689	-1.20000e+00	6.576015e-05	
690	-1.25000e+00	6.770218e-05	
691	-1.30000e+00	6.958796e-05	
692	-1.35000e+00	7.141825e-05	

Index   v-sweep         i(vds)          
--------------------------------------------------------------------------------
693	-1.40000e+00	7.319381e-05	
694	-1.45000e+00	7.491537e-05	
695	-1.50000e+00	7.658367e-05	
696	-1.55000e+00	7.819943e-05	
697	-1.60000e+00	7.976334e-05	
698	-1.65000e+00	8.127609e-05	
699	-1.70000e+00	8.273837e-05	
700	-1.75000e+00	8.415083e-05	
701	-1.80000e+00	8.551414e-05	
702	-1.85000e+00	8.682894e-05	
703	-1.90000e+00	8.809584e-05	
704	-1.95000e+00	8.931548e-05	
705	-2.00000e+00	9.048844e-05	
706	-2.05000e+00	9.161530e-05	
707	-2.10000e+00	9.269662e-05	
708	-2.15000e+00	9.373293e-05	
709	-2.20000e+00	9.472471e-05	
710	-2.25000e+00	9.567239e-05	
711	-2.30000e+00	9.657632e-05	
712	-2.35000e+00	9.743673e-05	
713	-2.40000e+00	9.825373e-05	
714	-2.45000e+00	9.902725e-05	
715	-2.50000e+00	9.975714e-05	
716	-2.55000e+00	1.004432e-04	
717	-2.60000e+00	1.010857e-04	
718	-2.65000e+00	1.016854e-04	
719	-2.70000e+00	1.022438e-04	
720	-2.75000e+00	1.027634e-04	
721	-2.80000e+00	1.032473e-04	
722	-2.85000e+00	1.036988e-04	
723	-2.90000e+00	1.041211e-04	
724	-2.95000e+00	1.045175e-04	
725	-3.00000e+00	1.048906e-04	
726	-3.05000e+00	1.052431e-04	
727	-3.10000e+00	1.055771e-04	
728	-3.15000e+00	1.058946e-04	
729	-3.20000e+00	1.061971e-04	
730	-3.25000e+00	1.064862e-04	
731	-3.30000e+00	1.067630e-04	
732	-3.35000e+00	1.070287e-04	
733	-3.40000e+00	1.072843e-04	
734	-3.45000e+00	1.075306e-04	
735	-3.50000e+00	1.077683e-04	
736	-3.55000e+00	1.079982e-04	
737	-3.60000e+00	1.082207e-04	
738	-3.65000e+00	1.084365e-04	
739	-3.70000e+00	1.086461e-04	
740	-3.75000e+00	1.088497e-04	
741	-3.80000e+00	1.090479e-04	
742	-3.85000e+00	1.092410e-04	
743	-3.90000e+00	1.094293e-04	
744	-3.95000e+00	1.096130e-04	
745	-4.00000e+00	1.097925e-04	
746	-4.05000e+00	1.099680e-04	
747	-4.10000e+00	1.101398e-04	
748	-4.15000e+00	1.103079e-04	
749	-4.20000e+00	1.104727e-04	
750	-4.25000e+00	1.106342e-04	

Index   v-sweep         i(vds)          
--------------------------------------------------------------------------------
751	-4.30000e+00	1.107927e-04	
752	-4.35000e+00	1.109483e-04	
753	-4.40000e+00	1.111011e-04	
754	-4.45000e+00	1.112513e-04	
755	-4.50000e+00	1.113989e-04	
756	-4.55000e+00	1.115442e-04	
757	-4.60000e+00	1.116871e-04	
758	-4.65000e+00	1.118279e-04	
759	-4.70000e+00	1.119665e-04	
760	-4.75000e+00	1.121032e-04	
761	-4.80000e+00	1.122379e-04	
762	-4.85000e+00	1.123707e-04	
763	-4.90000e+00	1.125017e-04	
764	-4.95000e+00	1.126310e-04	
765	-5.00000e+00	1.127587e-04	
766	-5.05000e+00	1.128848e-04	
767	-5.10000e+00	1.130093e-04	
768	-5.15000e+00	1.131323e-04	
769	-5.20000e+00	1.132539e-04	
770	-5.25000e+00	1.133742e-04	
771	-5.30000e+00	1.134931e-04	
772	-5.35000e+00	1.136107e-04	
773	-5.40000e+00	1.137271e-04	
774	-5.45000e+00	1.138423e-04	
775	-5.50000e+00	1.139563e-04	
776	-5.55000e+00	1.140692e-04	
777	-5.60000e+00	1.141811e-04	
778	-5.65000e+00	1.142919e-04	
779	-5.70000e+00	1.144017e-04	
780	-5.75000e+00	1.145106e-04	
781	-5.80000e+00	1.146186e-04	
782	-5.85000e+00	1.147258e-04	
783	-5.90000e+00	1.148322e-04	
784	-5.95000e+00	1.149378e-04	
785	-6.00000e+00	1.150427e-04	
786	-6.05000e+00	1.151470e-04	
787	-6.10000e+00	1.152507e-04	
788	-6.15000e+00	1.153540e-04	
789	-6.20000e+00	1.154568e-04	
790	-6.25000e+00	1.155593e-04	
791	-6.30000e+00	1.156616e-04	
792	-6.35000e+00	1.157637e-04	
793	-6.40000e+00	1.158658e-04	
794	-6.45000e+00	1.159681e-04	
795	-6.50000e+00	1.160705e-04	
796	-6.55000e+00	1.161734e-04	
797	-6.60000e+00	1.162768e-04	
Note: No ".plot", ".print", or ".fourier" lines; no simulations run
