
Note: Compatibility modes selected: hs

Warning: m=xx on .subckt line will override multiplier m hierarchy!


Circuit: ***************************

Doing analysis at TEMP = -40.000000 and TNOM = -40.000000


No. of Data Rows : 798
                          ***************************
                          DC transfer characteristic  Mon Jan  9 13:57:53  2023
--------------------------------------------------------------------------------
Index   v-sweep         i(vds)          
--------------------------------------------------------------------------------
0	0.000000e+00	0.000000e+00	
1	-5.00000e-02	1.404909e-07	
2	-1.00000e-01	2.250731e-07	
3	-1.50000e-01	2.636945e-07	
4	-2.00000e-01	2.777821e-07	
5	-2.50000e-01	2.845959e-07	
6	-3.00000e-01	2.894902e-07	
7	-3.50000e-01	2.936655e-07	
8	-4.00000e-01	2.974552e-07	
9	-4.50000e-01	3.009855e-07	
10	-5.00000e-01	3.043181e-07	
11	-5.50000e-01	3.074898e-07	
12	-6.00000e-01	3.105256e-07	
13	-6.50000e-01	3.134437e-07	
14	-7.00000e-01	3.162584e-07	
15	-7.50000e-01	3.189813e-07	
16	-8.00000e-01	3.216218e-07	
17	-8.50000e-01	3.241880e-07	
18	-9.00000e-01	3.266868e-07	
19	-9.50000e-01	3.291241e-07	
20	-1.00000e+00	3.315052e-07	
21	-1.05000e+00	3.338346e-07	
22	-1.10000e+00	3.361163e-07	
23	-1.15000e+00	3.383540e-07	
24	-1.20000e+00	3.405508e-07	
25	-1.25000e+00	3.427097e-07	
26	-1.30000e+00	3.448333e-07	
27	-1.35000e+00	3.469238e-07	
28	-1.40000e+00	3.489835e-07	
29	-1.45000e+00	3.510144e-07	
30	-1.50000e+00	3.530180e-07	
31	-1.55000e+00	3.549963e-07	
32	-1.60000e+00	3.569505e-07	
33	-1.65000e+00	3.588821e-07	
34	-1.70000e+00	3.607923e-07	
35	-1.75000e+00	3.626825e-07	
36	-1.80000e+00	3.645535e-07	
37	-1.85000e+00	3.664065e-07	
38	-1.90000e+00	3.682423e-07	
39	-1.95000e+00	3.700620e-07	
40	-2.00000e+00	3.718661e-07	
41	-2.05000e+00	3.736557e-07	
42	-2.10000e+00	3.754313e-07	
43	-2.15000e+00	3.771936e-07	
44	-2.20000e+00	3.789432e-07	
45	-2.25000e+00	3.806808e-07	
46	-2.30000e+00	3.824069e-07	
47	-2.35000e+00	3.841220e-07	
48	-2.40000e+00	3.858266e-07	
49	-2.45000e+00	3.875212e-07	
50	-2.50000e+00	3.892062e-07	
51	-2.55000e+00	3.908821e-07	
52	-2.60000e+00	3.925491e-07	
53	-2.65000e+00	3.942078e-07	
54	-2.70000e+00	3.958585e-07	

Index   v-sweep         i(vds)          
--------------------------------------------------------------------------------
55	-2.75000e+00	3.975014e-07	
56	-2.80000e+00	3.991370e-07	
57	-2.85000e+00	4.007655e-07	
58	-2.90000e+00	4.023872e-07	
59	-2.95000e+00	4.040024e-07	
60	-3.00000e+00	4.056114e-07	
61	-3.05000e+00	4.072145e-07	
62	-3.10000e+00	4.088119e-07	
63	-3.15000e+00	4.104039e-07	
64	-3.20000e+00	4.119906e-07	
65	-3.25000e+00	4.135725e-07	
66	-3.30000e+00	4.151496e-07	
67	-3.35000e+00	4.167223e-07	
68	-3.40000e+00	4.182908e-07	
69	-3.45000e+00	4.198554e-07	
70	-3.50000e+00	4.214163e-07	
71	-3.55000e+00	4.229739e-07	
72	-3.60000e+00	4.245283e-07	
73	-3.65000e+00	4.260799e-07	
74	-3.70000e+00	4.276291e-07	
75	-3.75000e+00	4.291762e-07	
76	-3.80000e+00	4.307215e-07	
77	-3.85000e+00	4.322656e-07	
78	-3.90000e+00	4.338087e-07	
79	-3.95000e+00	4.353514e-07	
80	-4.00000e+00	4.368943e-07	
81	-4.05000e+00	4.384379e-07	
82	-4.10000e+00	4.399827e-07	
83	-4.15000e+00	4.415296e-07	
84	-4.20000e+00	4.430792e-07	
85	-4.25000e+00	4.446324e-07	
86	-4.30000e+00	4.461900e-07	
87	-4.35000e+00	4.477530e-07	
88	-4.40000e+00	4.493223e-07	
89	-4.45000e+00	4.508993e-07	
90	-4.50000e+00	4.524850e-07	
91	-4.55000e+00	4.540808e-07	
92	-4.60000e+00	4.556881e-07	
93	-4.65000e+00	4.573084e-07	
94	-4.70000e+00	4.589434e-07	
95	-4.75000e+00	4.605949e-07	
96	-4.80000e+00	4.622648e-07	
97	-4.85000e+00	4.639551e-07	
98	-4.90000e+00	4.656680e-07	
99	-4.95000e+00	4.674057e-07	
100	-5.00000e+00	4.691709e-07	
101	-5.05000e+00	4.709660e-07	
102	-5.10000e+00	4.727939e-07	
103	-5.15000e+00	4.746576e-07	
104	-5.20000e+00	4.765601e-07	
105	-5.25000e+00	4.785048e-07	
106	-5.30000e+00	4.804952e-07	
107	-5.35000e+00	4.825350e-07	
108	-5.40000e+00	4.846280e-07	
109	-5.45000e+00	4.867782e-07	
110	-5.50000e+00	4.889901e-07	
111	-5.55000e+00	4.912680e-07	
112	-5.60000e+00	4.936166e-07	

Index   v-sweep         i(vds)          
--------------------------------------------------------------------------------
113	-5.65000e+00	4.960408e-07	
114	-5.70000e+00	4.985458e-07	
115	-5.75000e+00	5.011369e-07	
116	-5.80000e+00	5.038196e-07	
117	-5.85000e+00	5.065998e-07	
118	-5.90000e+00	5.094835e-07	
119	-5.95000e+00	5.124770e-07	
120	-6.00000e+00	5.155866e-07	
121	-6.05000e+00	5.188193e-07	
122	-6.10000e+00	5.221820e-07	
123	-6.15000e+00	5.256818e-07	
124	-6.20000e+00	5.293264e-07	
125	-6.25000e+00	5.331233e-07	
126	-6.30000e+00	5.370805e-07	
127	-6.35000e+00	5.412064e-07	
128	-6.40000e+00	5.455093e-07	
129	-6.45000e+00	5.499980e-07	
130	-6.50000e+00	5.546815e-07	
131	-6.55000e+00	5.595690e-07	
132	-6.60000e+00	5.646699e-07	
133	0.000000e+00	0.000000e+00	
134	-5.00000e-02	1.071765e-06	
135	-1.00000e-01	2.068768e-06	
136	-1.50000e-01	2.992753e-06	
137	-2.00000e-01	3.845417e-06	
138	-2.50000e-01	4.628412e-06	
139	-3.00000e-01	5.343348e-06	
140	-3.50000e-01	5.991806e-06	
141	-4.00000e-01	6.575346e-06	
142	-4.50000e-01	7.095530e-06	
143	-5.00000e-01	7.553957e-06	
144	-5.50000e-01	7.952345e-06	
145	-6.00000e-01	8.292679e-06	
146	-6.50000e-01	8.577536e-06	
147	-7.00000e-01	8.810699e-06	
148	-7.50000e-01	8.998077e-06	
149	-8.00000e-01	9.148210e-06	
150	-8.50000e-01	9.271000e-06	
151	-9.00000e-01	9.375059e-06	
152	-9.50000e-01	9.466285e-06	
153	-1.00000e+00	9.548269e-06	
154	-1.05000e+00	9.623194e-06	
155	-1.10000e+00	9.692462e-06	
156	-1.15000e+00	9.757043e-06	
157	-1.20000e+00	9.817643e-06	
158	-1.25000e+00	9.874807e-06	
159	-1.30000e+00	9.928963e-06	
160	-1.35000e+00	9.980461e-06	
161	-1.40000e+00	1.002959e-05	
162	-1.45000e+00	1.007659e-05	
163	-1.50000e+00	1.012167e-05	
164	-1.55000e+00	1.016500e-05	
165	-1.60000e+00	1.020675e-05	
166	-1.65000e+00	1.024703e-05	
167	-1.70000e+00	1.028598e-05	
168	-1.75000e+00	1.032369e-05	
169	-1.80000e+00	1.036026e-05	
170	-1.85000e+00	1.039576e-05	

Index   v-sweep         i(vds)          
--------------------------------------------------------------------------------
171	-1.90000e+00	1.043027e-05	
172	-1.95000e+00	1.046387e-05	
173	-2.00000e+00	1.049659e-05	
174	-2.05000e+00	1.052851e-05	
175	-2.10000e+00	1.055968e-05	
176	-2.15000e+00	1.059012e-05	
177	-2.20000e+00	1.061990e-05	
178	-2.25000e+00	1.064903e-05	
179	-2.30000e+00	1.067757e-05	
180	-2.35000e+00	1.070554e-05	
181	-2.40000e+00	1.073297e-05	
182	-2.45000e+00	1.075988e-05	
183	-2.50000e+00	1.078631e-05	
184	-2.55000e+00	1.081227e-05	
185	-2.60000e+00	1.083779e-05	
186	-2.65000e+00	1.086289e-05	
187	-2.70000e+00	1.088759e-05	
188	-2.75000e+00	1.091190e-05	
189	-2.80000e+00	1.093584e-05	
190	-2.85000e+00	1.095943e-05	
191	-2.90000e+00	1.098268e-05	
192	-2.95000e+00	1.100561e-05	
193	-3.00000e+00	1.102822e-05	
194	-3.05000e+00	1.105054e-05	
195	-3.10000e+00	1.107256e-05	
196	-3.15000e+00	1.109431e-05	
197	-3.20000e+00	1.111579e-05	
198	-3.25000e+00	1.113702e-05	
199	-3.30000e+00	1.115799e-05	
200	-3.35000e+00	1.117873e-05	
201	-3.40000e+00	1.119924e-05	
202	-3.45000e+00	1.121952e-05	
203	-3.50000e+00	1.123959e-05	
204	-3.55000e+00	1.125945e-05	
205	-3.60000e+00	1.127911e-05	
206	-3.65000e+00	1.129857e-05	
207	-3.70000e+00	1.131785e-05	
208	-3.75000e+00	1.133695e-05	
209	-3.80000e+00	1.135587e-05	
210	-3.85000e+00	1.137462e-05	
211	-3.90000e+00	1.139321e-05	
212	-3.95000e+00	1.141165e-05	
213	-4.00000e+00	1.142994e-05	
214	-4.05000e+00	1.144808e-05	
215	-4.10000e+00	1.146609e-05	
216	-4.15000e+00	1.148396e-05	
217	-4.20000e+00	1.150172e-05	
218	-4.25000e+00	1.151936e-05	
219	-4.30000e+00	1.153689e-05	
220	-4.35000e+00	1.155433e-05	
221	-4.40000e+00	1.157167e-05	
222	-4.45000e+00	1.158894e-05	
223	-4.50000e+00	1.160614e-05	
224	-4.55000e+00	1.162328e-05	
225	-4.60000e+00	1.164038e-05	
226	-4.65000e+00	1.165745e-05	
227	-4.70000e+00	1.167450e-05	
228	-4.75000e+00	1.169156e-05	

Index   v-sweep         i(vds)          
--------------------------------------------------------------------------------
229	-4.80000e+00	1.170863e-05	
230	-4.85000e+00	1.172575e-05	
231	-4.90000e+00	1.174292e-05	
232	-4.95000e+00	1.176017e-05	
233	-5.00000e+00	1.177753e-05	
234	-5.05000e+00	1.179503e-05	
235	-5.10000e+00	1.181268e-05	
236	-5.15000e+00	1.183054e-05	
237	-5.20000e+00	1.184861e-05	
238	-5.25000e+00	1.186696e-05	
239	-5.30000e+00	1.188560e-05	
240	-5.35000e+00	1.190459e-05	
241	-5.40000e+00	1.192396e-05	
242	-5.45000e+00	1.194377e-05	
243	-5.50000e+00	1.196407e-05	
244	-5.55000e+00	1.198491e-05	
245	-5.60000e+00	1.200635e-05	
246	-5.65000e+00	1.202844e-05	
247	-5.70000e+00	1.205126e-05	
248	-5.75000e+00	1.207487e-05	
249	-5.80000e+00	1.209934e-05	
250	-5.85000e+00	1.212475e-05	
251	-5.90000e+00	1.215118e-05	
252	-5.95000e+00	1.217872e-05	
253	-6.00000e+00	1.220744e-05	
254	-6.05000e+00	1.223745e-05	
255	-6.10000e+00	1.226883e-05	
256	-6.15000e+00	1.230170e-05	
257	-6.20000e+00	1.233615e-05	
258	-6.25000e+00	1.237230e-05	
259	-6.30000e+00	1.241026e-05	
260	-6.35000e+00	1.245015e-05	
261	-6.40000e+00	1.249210e-05	
262	-6.45000e+00	1.253623e-05	
263	-6.50000e+00	1.258267e-05	
264	-6.55000e+00	1.263157e-05	
265	-6.60000e+00	1.268307e-05	
266	0.000000e+00	0.000000e+00	
267	-5.00000e-02	1.794474e-06	
268	-1.00000e-01	3.513075e-06	
269	-1.50000e-01	5.157297e-06	
270	-2.00000e-01	6.728596e-06	
271	-2.50000e-01	8.228392e-06	
272	-3.00000e-01	9.658067e-06	
273	-3.50000e-01	1.101897e-05	
274	-4.00000e-01	1.231242e-05	
275	-4.50000e-01	1.353969e-05	
276	-5.00000e-01	1.470204e-05	
277	-5.50000e-01	1.580069e-05	
278	-6.00000e-01	1.683684e-05	
279	-6.50000e-01	1.781165e-05	
280	-7.00000e-01	1.872629e-05	
281	-7.50000e-01	1.958186e-05	
282	-8.00000e-01	2.037949e-05	
283	-8.50000e-01	2.112029e-05	
284	-9.00000e-01	2.180534e-05	
285	-9.50000e-01	2.243578e-05	
286	-1.00000e+00	2.301276e-05	

Index   v-sweep         i(vds)          
--------------------------------------------------------------------------------
287	-1.05000e+00	2.353753e-05	
288	-1.10000e+00	2.401152e-05	
289	-1.15000e+00	2.443644e-05	
290	-1.20000e+00	2.481455e-05	
291	-1.25000e+00	2.514892e-05	
292	-1.30000e+00	2.544370e-05	
293	-1.35000e+00	2.570400e-05	
294	-1.40000e+00	2.593537e-05	
295	-1.45000e+00	2.614297e-05	
296	-1.50000e+00	2.633114e-05	
297	-1.55000e+00	2.650330e-05	
298	-1.60000e+00	2.666210e-05	
299	-1.65000e+00	2.680961e-05	
300	-1.70000e+00	2.694743e-05	
301	-1.75000e+00	2.707687e-05	
302	-1.80000e+00	2.719898e-05	
303	-1.85000e+00	2.731462e-05	
304	-1.90000e+00	2.742452e-05	
305	-1.95000e+00	2.752929e-05	
306	-2.00000e+00	2.762943e-05	
307	-2.05000e+00	2.772539e-05	
308	-2.10000e+00	2.781756e-05	
309	-2.15000e+00	2.790625e-05	
310	-2.20000e+00	2.799177e-05	
311	-2.25000e+00	2.807437e-05	
312	-2.30000e+00	2.815428e-05	
313	-2.35000e+00	2.823169e-05	
314	-2.40000e+00	2.830678e-05	
315	-2.45000e+00	2.837972e-05	
316	-2.50000e+00	2.845065e-05	
317	-2.55000e+00	2.851970e-05	
318	-2.60000e+00	2.858698e-05	
319	-2.65000e+00	2.865262e-05	
320	-2.70000e+00	2.871669e-05	
321	-2.75000e+00	2.877931e-05	
322	-2.80000e+00	2.884053e-05	
323	-2.85000e+00	2.890045e-05	
324	-2.90000e+00	2.895913e-05	
325	-2.95000e+00	2.901663e-05	
326	-3.00000e+00	2.907302e-05	
327	-3.05000e+00	2.912835e-05	
328	-3.10000e+00	2.918267e-05	
329	-3.15000e+00	2.923602e-05	
330	-3.20000e+00	2.928846e-05	
331	-3.25000e+00	2.934002e-05	
332	-3.30000e+00	2.939074e-05	
333	-3.35000e+00	2.944066e-05	
334	-3.40000e+00	2.948981e-05	
335	-3.45000e+00	2.953823e-05	
336	-3.50000e+00	2.958593e-05	
337	-3.55000e+00	2.963296e-05	
338	-3.60000e+00	2.967934e-05	
339	-3.65000e+00	2.972509e-05	
340	-3.70000e+00	2.977023e-05	
341	-3.75000e+00	2.981480e-05	
342	-3.80000e+00	2.985880e-05	
343	-3.85000e+00	2.990227e-05	
344	-3.90000e+00	2.994521e-05	

Index   v-sweep         i(vds)          
--------------------------------------------------------------------------------
345	-3.95000e+00	2.998765e-05	
346	-4.00000e+00	3.002961e-05	
347	-4.05000e+00	3.007110e-05	
348	-4.10000e+00	3.011213e-05	
349	-4.15000e+00	3.015273e-05	
350	-4.20000e+00	3.019291e-05	
351	-4.25000e+00	3.023268e-05	
352	-4.30000e+00	3.027206e-05	
353	-4.35000e+00	3.031106e-05	
354	-4.40000e+00	3.034969e-05	
355	-4.45000e+00	3.038798e-05	
356	-4.50000e+00	3.042593e-05	
357	-4.55000e+00	3.046356e-05	
358	-4.60000e+00	3.050089e-05	
359	-4.65000e+00	3.053793e-05	
360	-4.70000e+00	3.057470e-05	
361	-4.75000e+00	3.061121e-05	
362	-4.80000e+00	3.064749e-05	
363	-4.85000e+00	3.068355e-05	
364	-4.90000e+00	3.071942e-05	
365	-4.95000e+00	3.075513e-05	
366	-5.00000e+00	3.079069e-05	
367	-5.05000e+00	3.082613e-05	
368	-5.10000e+00	3.086150e-05	
369	-5.15000e+00	3.089681e-05	
370	-5.20000e+00	3.093211e-05	
371	-5.25000e+00	3.096744e-05	
372	-5.30000e+00	3.100283e-05	
373	-5.35000e+00	3.103835e-05	
374	-5.40000e+00	3.107403e-05	
375	-5.45000e+00	3.110995e-05	
376	-5.50000e+00	3.114614e-05	
377	-5.55000e+00	3.118270e-05	
378	-5.60000e+00	3.121968e-05	
379	-5.65000e+00	3.125716e-05	
380	-5.70000e+00	3.129524e-05	
381	-5.75000e+00	3.133399e-05	
382	-5.80000e+00	3.137352e-05	
383	-5.85000e+00	3.141393e-05	
384	-5.90000e+00	3.145533e-05	
385	-5.95000e+00	3.149785e-05	
386	-6.00000e+00	3.154160e-05	
387	-6.05000e+00	3.158673e-05	
388	-6.10000e+00	3.163339e-05	
389	-6.15000e+00	3.168171e-05	
390	-6.20000e+00	3.173188e-05	
391	-6.25000e+00	3.178405e-05	
392	-6.30000e+00	3.183842e-05	
393	-6.35000e+00	3.189517e-05	
394	-6.40000e+00	3.195450e-05	
395	-6.45000e+00	3.201664e-05	
396	-6.50000e+00	3.208179e-05	
397	-6.55000e+00	3.215021e-05	
398	-6.60000e+00	3.222212e-05	
399	0.000000e+00	0.000000e+00	
400	-5.00000e-02	2.383464e-06	
401	-1.00000e-01	4.692234e-06	
402	-1.50000e-01	6.927591e-06	

Index   v-sweep         i(vds)          
--------------------------------------------------------------------------------
403	-2.00000e-01	9.090782e-06	
404	-2.50000e-01	1.118303e-05	
405	-3.00000e-01	1.320553e-05	
406	-3.50000e-01	1.515945e-05	
407	-4.00000e-01	1.704593e-05	
408	-4.50000e-01	1.886609e-05	
409	-5.00000e-01	2.062102e-05	
410	-5.50000e-01	2.231179e-05	
411	-6.00000e-01	2.393944e-05	
412	-6.50000e-01	2.550501e-05	
413	-7.00000e-01	2.700949e-05	
414	-7.50000e-01	2.845386e-05	
415	-8.00000e-01	2.983909e-05	
416	-8.50000e-01	3.116612e-05	
417	-9.00000e-01	3.243587e-05	
418	-9.50000e-01	3.364925e-05	
419	-1.00000e+00	3.480714e-05	
420	-1.05000e+00	3.591042e-05	
421	-1.10000e+00	3.695995e-05	
422	-1.15000e+00	3.795656e-05	
423	-1.20000e+00	3.890110e-05	
424	-1.25000e+00	3.979438e-05	
425	-1.30000e+00	4.063722e-05	
426	-1.35000e+00	4.143044e-05	
427	-1.40000e+00	4.217484e-05	
428	-1.45000e+00	4.287127e-05	
429	-1.50000e+00	4.352058e-05	
430	-1.55000e+00	4.412370e-05	
431	-1.60000e+00	4.468163e-05	
432	-1.65000e+00	4.519556e-05	
433	-1.70000e+00	4.566695e-05	
434	-1.75000e+00	4.609769e-05	
435	-1.80000e+00	4.649025e-05	
436	-1.85000e+00	4.684769e-05	
437	-1.90000e+00	4.717358e-05	
438	-1.95000e+00	4.747167e-05	
439	-2.00000e+00	4.774556e-05	
440	-2.05000e+00	4.799850e-05	
441	-2.10000e+00	4.823332e-05	
442	-2.15000e+00	4.845242e-05	
443	-2.20000e+00	4.865779e-05	
444	-2.25000e+00	4.885114e-05	
445	-2.30000e+00	4.903386e-05	
446	-2.35000e+00	4.920714e-05	
447	-2.40000e+00	4.937199e-05	
448	-2.45000e+00	4.952927e-05	
449	-2.50000e+00	4.967973e-05	
450	-2.55000e+00	4.982398e-05	
451	-2.60000e+00	4.996260e-05	
452	-2.65000e+00	5.009606e-05	
453	-2.70000e+00	5.022479e-05	
454	-2.75000e+00	5.034917e-05	
455	-2.80000e+00	5.046952e-05	
456	-2.85000e+00	5.058614e-05	
457	-2.90000e+00	5.069930e-05	
458	-2.95000e+00	5.080924e-05	
459	-3.00000e+00	5.091617e-05	
460	-3.05000e+00	5.102028e-05	

Index   v-sweep         i(vds)          
--------------------------------------------------------------------------------
461	-3.10000e+00	5.112175e-05	
462	-3.15000e+00	5.122074e-05	
463	-3.20000e+00	5.131740e-05	
464	-3.25000e+00	5.141186e-05	
465	-3.30000e+00	5.150425e-05	
466	-3.35000e+00	5.159467e-05	
467	-3.40000e+00	5.168322e-05	
468	-3.45000e+00	5.177002e-05	
469	-3.50000e+00	5.185513e-05	
470	-3.55000e+00	5.193866e-05	
471	-3.60000e+00	5.202066e-05	
472	-3.65000e+00	5.210122e-05	
473	-3.70000e+00	5.218040e-05	
474	-3.75000e+00	5.225826e-05	
475	-3.80000e+00	5.233486e-05	
476	-3.85000e+00	5.241025e-05	
477	-3.90000e+00	5.248449e-05	
478	-3.95000e+00	5.255761e-05	
479	-4.00000e+00	5.262968e-05	
480	-4.05000e+00	5.270072e-05	
481	-4.10000e+00	5.277078e-05	
482	-4.15000e+00	5.283990e-05	
483	-4.20000e+00	5.290810e-05	
484	-4.25000e+00	5.297544e-05	
485	-4.30000e+00	5.304192e-05	
486	-4.35000e+00	5.310760e-05	
487	-4.40000e+00	5.317249e-05	
488	-4.45000e+00	5.323662e-05	
489	-4.50000e+00	5.330003e-05	
490	-4.55000e+00	5.336273e-05	
491	-4.60000e+00	5.342475e-05	
492	-4.65000e+00	5.348611e-05	
493	-4.70000e+00	5.354684e-05	
494	-4.75000e+00	5.360695e-05	
495	-4.80000e+00	5.366648e-05	
496	-4.85000e+00	5.372545e-05	
497	-4.90000e+00	5.378387e-05	
498	-4.95000e+00	5.384177e-05	
499	-5.00000e+00	5.389917e-05	
500	-5.05000e+00	5.395610e-05	
501	-5.10000e+00	5.401259e-05	
502	-5.15000e+00	5.406866e-05	
503	-5.20000e+00	5.412433e-05	
504	-5.25000e+00	5.417964e-05	
505	-5.30000e+00	5.423463e-05	
506	-5.35000e+00	5.428932e-05	
507	-5.40000e+00	5.434376e-05	
508	-5.45000e+00	5.439799e-05	
509	-5.50000e+00	5.445205e-05	
510	-5.55000e+00	5.450600e-05	
511	-5.60000e+00	5.455988e-05	
512	-5.65000e+00	5.461377e-05	
513	-5.70000e+00	5.466771e-05	
514	-5.75000e+00	5.472180e-05	
515	-5.80000e+00	5.477611e-05	
516	-5.85000e+00	5.483071e-05	
517	-5.90000e+00	5.488571e-05	
518	-5.95000e+00	5.494122e-05	

Index   v-sweep         i(vds)          
--------------------------------------------------------------------------------
519	-6.00000e+00	5.499733e-05	
520	-6.05000e+00	5.505417e-05	
521	-6.10000e+00	5.511187e-05	
522	-6.15000e+00	5.517057e-05	
523	-6.20000e+00	5.523042e-05	
524	-6.25000e+00	5.529160e-05	
525	-6.30000e+00	5.535426e-05	
526	-6.35000e+00	5.541861e-05	
527	-6.40000e+00	5.548484e-05	
528	-6.45000e+00	5.555317e-05	
529	-6.50000e+00	5.562383e-05	
530	-6.55000e+00	5.569706e-05	
531	-6.60000e+00	5.577313e-05	
532	0.000000e+00	0.000000e+00	
533	-5.00000e-02	2.883490e-06	
534	-1.00000e-01	5.694237e-06	
535	-1.50000e-01	8.433343e-06	
536	-2.00000e-01	1.110189e-05	
537	-2.50000e-01	1.370093e-05	
538	-3.00000e-01	1.623151e-05	
539	-3.50000e-01	1.869464e-05	
540	-4.00000e-01	2.109131e-05	
541	-4.50000e-01	2.342251e-05	
542	-5.00000e-01	2.568920e-05	
543	-5.50000e-01	2.789230e-05	
544	-6.00000e-01	3.003275e-05	
545	-6.50000e-01	3.211145e-05	
546	-7.00000e-01	3.412929e-05	
547	-7.50000e-01	3.608713e-05	
548	-8.00000e-01	3.798582e-05	
549	-8.50000e-01	3.982622e-05	
550	-9.00000e-01	4.160913e-05	
551	-9.50000e-01	4.333536e-05	
552	-1.00000e+00	4.500571e-05	
553	-1.05000e+00	4.662096e-05	
554	-1.10000e+00	4.818186e-05	
555	-1.15000e+00	4.968918e-05	
556	-1.20000e+00	5.114364e-05	
557	-1.25000e+00	5.254596e-05	
558	-1.30000e+00	5.389687e-05	
559	-1.35000e+00	5.519706e-05	
560	-1.40000e+00	5.644722e-05	
561	-1.45000e+00	5.764802e-05	
562	-1.50000e+00	5.880013e-05	
563	-1.55000e+00	5.990421e-05	
564	-1.60000e+00	6.096090e-05	
565	-1.65000e+00	6.197083e-05	
566	-1.70000e+00	6.293463e-05	
567	-1.75000e+00	6.385292e-05	
568	-1.80000e+00	6.472629e-05	
569	-1.85000e+00	6.555533e-05	
570	-1.90000e+00	6.634063e-05	
571	-1.95000e+00	6.708275e-05	
572	-2.00000e+00	6.778221e-05	
573	-2.05000e+00	6.843955e-05	
574	-2.10000e+00	6.905526e-05	
575	-2.15000e+00	6.962993e-05	
576	-2.20000e+00	7.016427e-05	

Index   v-sweep         i(vds)          
--------------------------------------------------------------------------------
577	-2.25000e+00	7.065939e-05	
578	-2.30000e+00	7.111696e-05	
579	-2.35000e+00	7.153930e-05	
580	-2.40000e+00	7.192932e-05	
581	-2.45000e+00	7.229020e-05	
582	-2.50000e+00	7.262516e-05	
583	-2.55000e+00	7.293719e-05	
584	-2.60000e+00	7.322902e-05	
585	-2.65000e+00	7.350302e-05	
586	-2.70000e+00	7.376125e-05	
587	-2.75000e+00	7.400548e-05	
588	-2.80000e+00	7.423721e-05	
589	-2.85000e+00	7.445775e-05	
590	-2.90000e+00	7.466821e-05	
591	-2.95000e+00	7.486957e-05	
592	-3.00000e+00	7.506266e-05	
593	-3.05000e+00	7.524822e-05	
594	-3.10000e+00	7.542689e-05	
595	-3.15000e+00	7.559923e-05	
596	-3.20000e+00	7.576574e-05	
597	-3.25000e+00	7.592687e-05	
598	-3.30000e+00	7.608302e-05	
599	-3.35000e+00	7.623454e-05	
600	-3.40000e+00	7.638174e-05	
601	-3.45000e+00	7.652492e-05	
602	-3.50000e+00	7.666433e-05	
603	-3.55000e+00	7.680021e-05	
604	-3.60000e+00	7.693278e-05	
605	-3.65000e+00	7.706222e-05	
606	-3.70000e+00	7.718873e-05	
607	-3.75000e+00	7.731246e-05	
608	-3.80000e+00	7.743357e-05	
609	-3.85000e+00	7.755219e-05	
610	-3.90000e+00	7.766845e-05	
611	-3.95000e+00	7.778247e-05	
612	-4.00000e+00	7.789436e-05	
613	-4.05000e+00	7.800423e-05	
614	-4.10000e+00	7.811217e-05	
615	-4.15000e+00	7.821826e-05	
616	-4.20000e+00	7.832259e-05	
617	-4.25000e+00	7.842524e-05	
618	-4.30000e+00	7.852628e-05	
619	-4.35000e+00	7.862578e-05	
620	-4.40000e+00	7.872379e-05	
621	-4.45000e+00	7.882039e-05	
622	-4.50000e+00	7.891563e-05	
623	-4.55000e+00	7.900955e-05	
624	-4.60000e+00	7.910222e-05	
625	-4.65000e+00	7.919367e-05	
626	-4.70000e+00	7.928396e-05	
627	-4.75000e+00	7.937312e-05	
628	-4.80000e+00	7.946120e-05	
629	-4.85000e+00	7.954824e-05	
630	-4.90000e+00	7.963426e-05	
631	-4.95000e+00	7.971931e-05	
632	-5.00000e+00	7.980343e-05	
633	-5.05000e+00	7.988663e-05	
634	-5.10000e+00	7.996897e-05	

Index   v-sweep         i(vds)          
--------------------------------------------------------------------------------
635	-5.15000e+00	8.005046e-05	
636	-5.20000e+00	8.013113e-05	
637	-5.25000e+00	8.021103e-05	
638	-5.30000e+00	8.029018e-05	
639	-5.35000e+00	8.036860e-05	
640	-5.40000e+00	8.044634e-05	
641	-5.45000e+00	8.052342e-05	
642	-5.50000e+00	8.059989e-05	
643	-5.55000e+00	8.067576e-05	
644	-5.60000e+00	8.075109e-05	
645	-5.65000e+00	8.082591e-05	
646	-5.70000e+00	8.090026e-05	
647	-5.75000e+00	8.097420e-05	
648	-5.80000e+00	8.104777e-05	
649	-5.85000e+00	8.112103e-05	
650	-5.90000e+00	8.119405e-05	
651	-5.95000e+00	8.126687e-05	
652	-6.00000e+00	8.133959e-05	
653	-6.05000e+00	8.141228e-05	
654	-6.10000e+00	8.148503e-05	
655	-6.15000e+00	8.155793e-05	
656	-6.20000e+00	8.163109e-05	
657	-6.25000e+00	8.170463e-05	
658	-6.30000e+00	8.177867e-05	
659	-6.35000e+00	8.185335e-05	
660	-6.40000e+00	8.192882e-05	
661	-6.45000e+00	8.200526e-05	
662	-6.50000e+00	8.208282e-05	
663	-6.55000e+00	8.216171e-05	
664	-6.60000e+00	8.224214e-05	
665	0.000000e+00	0.000000e+00	
666	-5.00000e-02	3.321118e-06	
667	-1.00000e-01	6.571675e-06	
668	-1.50000e-01	9.752628e-06	
669	-2.00000e-01	1.286492e-05	
670	-2.50000e-01	1.590948e-05	
671	-3.00000e-01	1.888720e-05	
672	-3.50000e-01	2.179900e-05	
673	-4.00000e-01	2.464573e-05	
674	-4.50000e-01	2.742826e-05	
675	-5.00000e-01	3.014743e-05	
676	-5.50000e-01	3.280409e-05	
677	-6.00000e-01	3.539904e-05	
678	-6.50000e-01	3.793308e-05	
679	-7.00000e-01	4.040700e-05	
680	-7.50000e-01	4.282159e-05	
681	-8.00000e-01	4.517759e-05	
682	-8.50000e-01	4.747577e-05	
683	-9.00000e-01	4.971685e-05	
684	-9.50000e-01	5.190156e-05	
685	-1.00000e+00	5.403060e-05	
686	-1.05000e+00	5.610469e-05	
687	-1.10000e+00	5.812450e-05	
688	-1.15000e+00	6.009072e-05	
689	-1.20000e+00	6.200401e-05	
690	-1.25000e+00	6.386503e-05	
691	-1.30000e+00	6.567441e-05	
692	-1.35000e+00	6.743279e-05	

Index   v-sweep         i(vds)          
--------------------------------------------------------------------------------
693	-1.40000e+00	6.914080e-05	
694	-1.45000e+00	7.079905e-05	
695	-1.50000e+00	7.240815e-05	
696	-1.55000e+00	7.396868e-05	
697	-1.60000e+00	7.548124e-05	
698	-1.65000e+00	7.694639e-05	
699	-1.70000e+00	7.836472e-05	
700	-1.75000e+00	7.973676e-05	
701	-1.80000e+00	8.106309e-05	
702	-1.85000e+00	8.234422e-05	
703	-1.90000e+00	8.358071e-05	
704	-1.95000e+00	8.477306e-05	
705	-2.00000e+00	8.592179e-05	
706	-2.05000e+00	8.702739e-05	
707	-2.10000e+00	8.809037e-05	
708	-2.15000e+00	8.911118e-05	
709	-2.20000e+00	9.009029e-05	
710	-2.25000e+00	9.102811e-05	
711	-2.30000e+00	9.192504e-05	
712	-2.35000e+00	9.278140e-05	
713	-2.40000e+00	9.359747e-05	
714	-2.45000e+00	9.437342e-05	
715	-2.50000e+00	9.510930e-05	
716	-2.55000e+00	9.580506e-05	
717	-2.60000e+00	9.646058e-05	
718	-2.65000e+00	9.707586e-05	
719	-2.70000e+00	9.765124e-05	
720	-2.75000e+00	9.818768e-05	
721	-2.80000e+00	9.868688e-05	
722	-2.85000e+00	9.915126e-05	
723	-2.90000e+00	9.958368e-05	
724	-2.95000e+00	9.998718e-05	
725	-3.00000e+00	1.003648e-04	
726	-3.05000e+00	1.007192e-04	
727	-3.10000e+00	1.010530e-04	
728	-3.15000e+00	1.013684e-04	
729	-3.20000e+00	1.016673e-04	
730	-3.25000e+00	1.019515e-04	
731	-3.30000e+00	1.022224e-04	
732	-3.35000e+00	1.024813e-04	
733	-3.40000e+00	1.027292e-04	
734	-3.45000e+00	1.029673e-04	
735	-3.50000e+00	1.031963e-04	
736	-3.55000e+00	1.034170e-04	
737	-3.60000e+00	1.036300e-04	
738	-3.65000e+00	1.038360e-04	
739	-3.70000e+00	1.040355e-04	
740	-3.75000e+00	1.042290e-04	
741	-3.80000e+00	1.044168e-04	
742	-3.85000e+00	1.045993e-04	
743	-3.90000e+00	1.047770e-04	
744	-3.95000e+00	1.049501e-04	
745	-4.00000e+00	1.051189e-04	
746	-4.05000e+00	1.052836e-04	
747	-4.10000e+00	1.054446e-04	
748	-4.15000e+00	1.056019e-04	
749	-4.20000e+00	1.057559e-04	
750	-4.25000e+00	1.059066e-04	

Index   v-sweep         i(vds)          
--------------------------------------------------------------------------------
751	-4.30000e+00	1.060543e-04	
752	-4.35000e+00	1.061992e-04	
753	-4.40000e+00	1.063412e-04	
754	-4.45000e+00	1.064807e-04	
755	-4.50000e+00	1.066177e-04	
756	-4.55000e+00	1.067524e-04	
757	-4.60000e+00	1.068847e-04	
758	-4.65000e+00	1.070149e-04	
759	-4.70000e+00	1.071431e-04	
760	-4.75000e+00	1.072693e-04	
761	-4.80000e+00	1.073936e-04	
762	-4.85000e+00	1.075160e-04	
763	-4.90000e+00	1.076367e-04	
764	-4.95000e+00	1.077558e-04	
765	-5.00000e+00	1.078732e-04	
766	-5.05000e+00	1.079891e-04	
767	-5.10000e+00	1.081036e-04	
768	-5.15000e+00	1.082165e-04	
769	-5.20000e+00	1.083281e-04	
770	-5.25000e+00	1.084384e-04	
771	-5.30000e+00	1.085474e-04	
772	-5.35000e+00	1.086551e-04	
773	-5.40000e+00	1.087616e-04	
774	-5.45000e+00	1.088670e-04	
775	-5.50000e+00	1.089713e-04	
776	-5.55000e+00	1.090745e-04	
777	-5.60000e+00	1.091767e-04	
778	-5.65000e+00	1.092779e-04	
779	-5.70000e+00	1.093781e-04	
780	-5.75000e+00	1.094774e-04	
781	-5.80000e+00	1.095758e-04	
782	-5.85000e+00	1.096734e-04	
783	-5.90000e+00	1.097702e-04	
784	-5.95000e+00	1.098662e-04	
785	-6.00000e+00	1.099615e-04	
786	-6.05000e+00	1.100562e-04	
787	-6.10000e+00	1.101503e-04	
788	-6.15000e+00	1.102439e-04	
789	-6.20000e+00	1.103369e-04	
790	-6.25000e+00	1.104296e-04	
791	-6.30000e+00	1.105219e-04	
792	-6.35000e+00	1.106140e-04	
793	-6.40000e+00	1.107059e-04	
794	-6.45000e+00	1.107978e-04	
795	-6.50000e+00	1.108897e-04	
796	-6.55000e+00	1.109818e-04	
797	-6.60000e+00	1.110742e-04	
Note: No ".plot", ".print", or ".fourier" lines; no simulations run
