
Note: Compatibility modes selected: hs

Warning: m=xx on .subckt line will override multiplier m hierarchy!


Circuit: ***************************

Doing analysis at TEMP = 125.000000 and TNOM = 125.000000


No. of Data Rows : 798
                          ***************************
                          DC transfer characteristic  Mon Jan  9 13:57:53  2023
--------------------------------------------------------------------------------
Index   v-sweep         i(vds)          
--------------------------------------------------------------------------------
0	0.000000e+00	0.000000e+00	
1	-5.00000e-02	4.923534e-07	
2	-1.00000e-01	8.839561e-07	
3	-1.50000e-01	1.183268e-06	
4	-2.00000e-01	1.394813e-06	
5	-2.50000e-01	1.526244e-06	
6	-3.00000e-01	1.595461e-06	
7	-3.50000e-01	1.629961e-06	
8	-4.00000e-01	1.650663e-06	
9	-4.50000e-01	1.666351e-06	
10	-5.00000e-01	1.679929e-06	
11	-5.50000e-01	1.692404e-06	
12	-6.00000e-01	1.704183e-06	
13	-6.50000e-01	1.715458e-06	
14	-7.00000e-01	1.726335e-06	
15	-7.50000e-01	1.736879e-06	
16	-8.00000e-01	1.747136e-06	
17	-8.50000e-01	1.757139e-06	
18	-9.00000e-01	1.766913e-06	
19	-9.50000e-01	1.776480e-06	
20	-1.00000e+00	1.785857e-06	
21	-1.05000e+00	1.795059e-06	
22	-1.10000e+00	1.804100e-06	
23	-1.15000e+00	1.812991e-06	
24	-1.20000e+00	1.821743e-06	
25	-1.25000e+00	1.830364e-06	
26	-1.30000e+00	1.838864e-06	
27	-1.35000e+00	1.847249e-06	
28	-1.40000e+00	1.855527e-06	
29	-1.45000e+00	1.863704e-06	
30	-1.50000e+00	1.871785e-06	
31	-1.55000e+00	1.879777e-06	
32	-1.60000e+00	1.887683e-06	
33	-1.65000e+00	1.895509e-06	
34	-1.70000e+00	1.903259e-06	
35	-1.75000e+00	1.910936e-06	
36	-1.80000e+00	1.918545e-06	
37	-1.85000e+00	1.926088e-06	
38	-1.90000e+00	1.933569e-06	
39	-1.95000e+00	1.940990e-06	
40	-2.00000e+00	1.948355e-06	
41	-2.05000e+00	1.955666e-06	
42	-2.10000e+00	1.962926e-06	
43	-2.15000e+00	1.970137e-06	
44	-2.20000e+00	1.977300e-06	
45	-2.25000e+00	1.984419e-06	
46	-2.30000e+00	1.991494e-06	
47	-2.35000e+00	1.998529e-06	
48	-2.40000e+00	2.005524e-06	
49	-2.45000e+00	2.012481e-06	
50	-2.50000e+00	2.019402e-06	
51	-2.55000e+00	2.026288e-06	
52	-2.60000e+00	2.033140e-06	
53	-2.65000e+00	2.039961e-06	
54	-2.70000e+00	2.046750e-06	

Index   v-sweep         i(vds)          
--------------------------------------------------------------------------------
55	-2.75000e+00	2.053510e-06	
56	-2.80000e+00	2.060242e-06	
57	-2.85000e+00	2.066946e-06	
58	-2.90000e+00	2.073624e-06	
59	-2.95000e+00	2.080276e-06	
60	-3.00000e+00	2.086905e-06	
61	-3.05000e+00	2.093510e-06	
62	-3.10000e+00	2.100092e-06	
63	-3.15000e+00	2.106653e-06	
64	-3.20000e+00	2.113194e-06	
65	-3.25000e+00	2.119715e-06	
66	-3.30000e+00	2.126217e-06	
67	-3.35000e+00	2.132701e-06	
68	-3.40000e+00	2.139169e-06	
69	-3.45000e+00	2.145620e-06	
70	-3.50000e+00	2.152057e-06	
71	-3.55000e+00	2.158480e-06	
72	-3.60000e+00	2.164890e-06	
73	-3.65000e+00	2.171289e-06	
74	-3.70000e+00	2.177678e-06	
75	-3.75000e+00	2.184058e-06	
76	-3.80000e+00	2.190432e-06	
77	-3.85000e+00	2.196799e-06	
78	-3.90000e+00	2.203164e-06	
79	-3.95000e+00	2.209526e-06	
80	-4.00000e+00	2.215890e-06	
81	-4.05000e+00	2.222257e-06	
82	-4.10000e+00	2.228630e-06	
83	-4.15000e+00	2.235012e-06	
84	-4.20000e+00	2.241407e-06	
85	-4.25000e+00	2.247818e-06	
86	-4.30000e+00	2.254249e-06	
87	-4.35000e+00	2.260704e-06	
88	-4.40000e+00	2.267189e-06	
89	-4.45000e+00	2.273709e-06	
90	-4.50000e+00	2.280268e-06	
91	-4.55000e+00	2.286874e-06	
92	-4.60000e+00	2.293534e-06	
93	-4.65000e+00	2.300253e-06	
94	-4.70000e+00	2.307041e-06	
95	-4.75000e+00	2.313906e-06	
96	-4.80000e+00	2.320857e-06	
97	-4.85000e+00	2.327903e-06	
98	-4.90000e+00	2.335055e-06	
99	-4.95000e+00	2.342325e-06	
100	-5.00000e+00	2.349724e-06	
101	-5.05000e+00	2.357265e-06	
102	-5.10000e+00	2.364962e-06	
103	-5.15000e+00	2.372828e-06	
104	-5.20000e+00	2.380881e-06	
105	-5.25000e+00	2.389134e-06	
106	-5.30000e+00	2.397606e-06	
107	-5.35000e+00	2.406315e-06	
108	-5.40000e+00	2.415280e-06	
109	-5.45000e+00	2.424520e-06	
110	-5.50000e+00	2.434057e-06	
111	-5.55000e+00	2.443913e-06	
112	-5.60000e+00	2.454110e-06	

Index   v-sweep         i(vds)          
--------------------------------------------------------------------------------
113	-5.65000e+00	2.464674e-06	
114	-5.70000e+00	2.475629e-06	
115	-5.75000e+00	2.487002e-06	
116	-5.80000e+00	2.498821e-06	
117	-5.85000e+00	2.511113e-06	
118	-5.90000e+00	2.523910e-06	
119	-5.95000e+00	2.537241e-06	
120	-6.00000e+00	2.551139e-06	
121	-6.05000e+00	2.565638e-06	
122	-6.10000e+00	2.580773e-06	
123	-6.15000e+00	2.596578e-06	
124	-6.20000e+00	2.613091e-06	
125	-6.25000e+00	2.630351e-06	
126	-6.30000e+00	2.648396e-06	
127	-6.35000e+00	2.667268e-06	
128	-6.40000e+00	2.687008e-06	
129	-6.45000e+00	2.707661e-06	
130	-6.50000e+00	2.729269e-06	
131	-6.55000e+00	2.751880e-06	
132	-6.60000e+00	2.775540e-06	
133	0.000000e+00	0.000000e+00	
134	-5.00000e-02	2.035953e-06	
135	-1.00000e-01	3.960886e-06	
136	-1.50000e-01	5.782433e-06	
137	-2.00000e-01	7.502907e-06	
138	-2.50000e-01	9.123376e-06	
139	-3.00000e-01	1.064462e-05	
140	-3.50000e-01	1.206735e-05	
141	-4.00000e-01	1.339226e-05	
142	-4.50000e-01	1.462007e-05	
143	-5.00000e-01	1.575148e-05	
144	-5.50000e-01	1.678724e-05	
145	-6.00000e-01	1.772815e-05	
146	-6.50000e-01	1.857506e-05	
147	-7.00000e-01	1.932900e-05	
148	-7.50000e-01	1.999121e-05	
149	-8.00000e-01	2.056342e-05	
150	-8.50000e-01	2.104821e-05	
151	-9.00000e-01	2.144974e-05	
152	-9.50000e-01	2.177492e-05	
153	-1.00000e+00	2.203446e-05	
154	-1.05000e+00	2.224266e-05	
155	-1.10000e+00	2.241462e-05	
156	-1.15000e+00	2.256271e-05	
157	-1.20000e+00	2.269519e-05	
158	-1.25000e+00	2.281700e-05	
159	-1.30000e+00	2.293098e-05	
160	-1.35000e+00	2.303885e-05	
161	-1.40000e+00	2.314168e-05	
162	-1.45000e+00	2.324021e-05	
163	-1.50000e+00	2.333498e-05	
164	-1.55000e+00	2.342639e-05	
165	-1.60000e+00	2.351478e-05	
166	-1.65000e+00	2.360041e-05	
167	-1.70000e+00	2.368352e-05	
168	-1.75000e+00	2.376429e-05	
169	-1.80000e+00	2.384291e-05	
170	-1.85000e+00	2.391953e-05	

Index   v-sweep         i(vds)          
--------------------------------------------------------------------------------
171	-1.90000e+00	2.399427e-05	
172	-1.95000e+00	2.406727e-05	
173	-2.00000e+00	2.413863e-05	
174	-2.05000e+00	2.420845e-05	
175	-2.10000e+00	2.427681e-05	
176	-2.15000e+00	2.434381e-05	
177	-2.20000e+00	2.440952e-05	
178	-2.25000e+00	2.447401e-05	
179	-2.30000e+00	2.453733e-05	
180	-2.35000e+00	2.459955e-05	
181	-2.40000e+00	2.466073e-05	
182	-2.45000e+00	2.472091e-05	
183	-2.50000e+00	2.478014e-05	
184	-2.55000e+00	2.483847e-05	
185	-2.60000e+00	2.489594e-05	
186	-2.65000e+00	2.495257e-05	
187	-2.70000e+00	2.500842e-05	
188	-2.75000e+00	2.506351e-05	
189	-2.80000e+00	2.511788e-05	
190	-2.85000e+00	2.517155e-05	
191	-2.90000e+00	2.522455e-05	
192	-2.95000e+00	2.527691e-05	
193	-3.00000e+00	2.532865e-05	
194	-3.05000e+00	2.537980e-05	
195	-3.10000e+00	2.543038e-05	
196	-3.15000e+00	2.548041e-05	
197	-3.20000e+00	2.552991e-05	
198	-3.25000e+00	2.557889e-05	
199	-3.30000e+00	2.562738e-05	
200	-3.35000e+00	2.567539e-05	
201	-3.40000e+00	2.572295e-05	
202	-3.45000e+00	2.577005e-05	
203	-3.50000e+00	2.581673e-05	
204	-3.55000e+00	2.586298e-05	
205	-3.60000e+00	2.590884e-05	
206	-3.65000e+00	2.595430e-05	
207	-3.70000e+00	2.599939e-05	
208	-3.75000e+00	2.604411e-05	
209	-3.80000e+00	2.608848e-05	
210	-3.85000e+00	2.613250e-05	
211	-3.90000e+00	2.617619e-05	
212	-3.95000e+00	2.621957e-05	
213	-4.00000e+00	2.626263e-05	
214	-4.05000e+00	2.630540e-05	
215	-4.10000e+00	2.634788e-05	
216	-4.15000e+00	2.639009e-05	
217	-4.20000e+00	2.643204e-05	
218	-4.25000e+00	2.647374e-05	
219	-4.30000e+00	2.651520e-05	
220	-4.35000e+00	2.655645e-05	
221	-4.40000e+00	2.659749e-05	
222	-4.45000e+00	2.663834e-05	
223	-4.50000e+00	2.667902e-05	
224	-4.55000e+00	2.671955e-05	
225	-4.60000e+00	2.675995e-05	
226	-4.65000e+00	2.680025e-05	
227	-4.70000e+00	2.684047e-05	
228	-4.75000e+00	2.688064e-05	

Index   v-sweep         i(vds)          
--------------------------------------------------------------------------------
229	-4.80000e+00	2.692079e-05	
230	-4.85000e+00	2.696095e-05	
231	-4.90000e+00	2.700117e-05	
232	-4.95000e+00	2.704148e-05	
233	-5.00000e+00	2.708193e-05	
234	-5.05000e+00	2.712257e-05	
235	-5.10000e+00	2.716344e-05	
236	-5.15000e+00	2.720463e-05	
237	-5.20000e+00	2.724617e-05	
238	-5.25000e+00	2.728815e-05	
239	-5.30000e+00	2.733063e-05	
240	-5.35000e+00	2.737371e-05	
241	-5.40000e+00	2.741746e-05	
242	-5.45000e+00	2.746198e-05	
243	-5.50000e+00	2.750738e-05	
244	-5.55000e+00	2.755375e-05	
245	-5.60000e+00	2.760122e-05	
246	-5.65000e+00	2.764991e-05	
247	-5.70000e+00	2.769995e-05	
248	-5.75000e+00	2.775148e-05	
249	-5.80000e+00	2.780465e-05	
250	-5.85000e+00	2.785962e-05	
251	-5.90000e+00	2.791656e-05	
252	-5.95000e+00	2.797564e-05	
253	-6.00000e+00	2.803705e-05	
254	-6.05000e+00	2.810099e-05	
255	-6.10000e+00	2.816766e-05	
256	-6.15000e+00	2.823728e-05	
257	-6.20000e+00	2.831008e-05	
258	-6.25000e+00	2.838631e-05	
259	-6.30000e+00	2.846620e-05	
260	-6.35000e+00	2.855002e-05	
261	-6.40000e+00	2.863804e-05	
262	-6.45000e+00	2.873055e-05	
263	-6.50000e+00	2.882785e-05	
264	-6.55000e+00	2.893023e-05	
265	-6.60000e+00	2.903802e-05	
266	0.000000e+00	0.000000e+00	
267	-5.00000e-02	3.278500e-06	
268	-1.00000e-01	6.448861e-06	
269	-1.50000e-01	9.518624e-06	
270	-2.00000e-01	1.249000e-05	
271	-2.50000e-01	1.536397e-05	
272	-3.00000e-01	1.814120e-05	
273	-3.50000e-01	2.082231e-05	
274	-4.00000e-01	2.340788e-05	
275	-4.50000e-01	2.589848e-05	
276	-5.00000e-01	2.829470e-05	
277	-5.50000e-01	3.059711e-05	
278	-6.00000e-01	3.280627e-05	
279	-6.50000e-01	3.492275e-05	
280	-7.00000e-01	3.694711e-05	
281	-7.50000e-01	3.887992e-05	
282	-8.00000e-01	4.072174e-05	
283	-8.50000e-01	4.247313e-05	
284	-9.00000e-01	4.413465e-05	
285	-9.50000e-01	4.570687e-05	
286	-1.00000e+00	4.719038e-05	

Index   v-sweep         i(vds)          
--------------------------------------------------------------------------------
287	-1.05000e+00	4.858576e-05	
288	-1.10000e+00	4.989363e-05	
289	-1.15000e+00	5.111463e-05	
290	-1.20000e+00	5.224945e-05	
291	-1.25000e+00	5.329885e-05	
292	-1.30000e+00	5.426374e-05	
293	-1.35000e+00	5.514518e-05	
294	-1.40000e+00	5.594456e-05	
295	-1.45000e+00	5.666376e-05	
296	-1.50000e+00	5.730545e-05	
297	-1.55000e+00	5.787353e-05	
298	-1.60000e+00	5.837362e-05	
299	-1.65000e+00	5.881335e-05	
300	-1.70000e+00	5.920210e-05	
301	-1.75000e+00	5.954986e-05	
302	-1.80000e+00	5.986573e-05	
303	-1.85000e+00	6.015695e-05	
304	-1.90000e+00	6.042881e-05	
305	-1.95000e+00	6.068503e-05	
306	-2.00000e+00	6.092819e-05	
307	-2.05000e+00	6.116016e-05	
308	-2.10000e+00	6.138233e-05	
309	-2.15000e+00	6.159580e-05	
310	-2.20000e+00	6.180144e-05	
311	-2.25000e+00	6.199997e-05	
312	-2.30000e+00	6.219201e-05	
313	-2.35000e+00	6.237807e-05	
314	-2.40000e+00	6.255861e-05	
315	-2.45000e+00	6.273405e-05	
316	-2.50000e+00	6.290472e-05	
317	-2.55000e+00	6.307096e-05	
318	-2.60000e+00	6.323304e-05	
319	-2.65000e+00	6.339123e-05	
320	-2.70000e+00	6.354577e-05	
321	-2.75000e+00	6.369686e-05	
322	-2.80000e+00	6.384470e-05	
323	-2.85000e+00	6.398948e-05	
324	-2.90000e+00	6.413135e-05	
325	-2.95000e+00	6.427046e-05	
326	-3.00000e+00	6.440697e-05	
327	-3.05000e+00	6.454099e-05	
328	-3.10000e+00	6.467264e-05	
329	-3.15000e+00	6.480205e-05	
330	-3.20000e+00	6.492931e-05	
331	-3.25000e+00	6.505452e-05	
332	-3.30000e+00	6.517777e-05	
333	-3.35000e+00	6.529914e-05	
334	-3.40000e+00	6.541872e-05	
335	-3.45000e+00	6.553658e-05	
336	-3.50000e+00	6.565279e-05	
337	-3.55000e+00	6.576741e-05	
338	-3.60000e+00	6.588051e-05	
339	-3.65000e+00	6.599215e-05	
340	-3.70000e+00	6.610237e-05	
341	-3.75000e+00	6.621124e-05	
342	-3.80000e+00	6.631881e-05	
343	-3.85000e+00	6.642511e-05	
344	-3.90000e+00	6.653019e-05	

Index   v-sweep         i(vds)          
--------------------------------------------------------------------------------
345	-3.95000e+00	6.663411e-05	
346	-4.00000e+00	6.673689e-05	
347	-4.05000e+00	6.683857e-05	
348	-4.10000e+00	6.693919e-05	
349	-4.15000e+00	6.703879e-05	
350	-4.20000e+00	6.713740e-05	
351	-4.25000e+00	6.723505e-05	
352	-4.30000e+00	6.733177e-05	
353	-4.35000e+00	6.742760e-05	
354	-4.40000e+00	6.752255e-05	
355	-4.45000e+00	6.761666e-05	
356	-4.50000e+00	6.770996e-05	
357	-4.55000e+00	6.780246e-05	
358	-4.60000e+00	6.789421e-05	
359	-4.65000e+00	6.798522e-05	
360	-4.70000e+00	6.807553e-05	
361	-4.75000e+00	6.816516e-05	
362	-4.80000e+00	6.825413e-05	
363	-4.85000e+00	6.834249e-05	
364	-4.90000e+00	6.843026e-05	
365	-4.95000e+00	6.851747e-05	
366	-5.00000e+00	6.860415e-05	
367	-5.05000e+00	6.869036e-05	
368	-5.10000e+00	6.877612e-05	
369	-5.15000e+00	6.886149e-05	
370	-5.20000e+00	6.894651e-05	
371	-5.25000e+00	6.903123e-05	
372	-5.30000e+00	6.911571e-05	
373	-5.35000e+00	6.920003e-05	
374	-5.40000e+00	6.928424e-05	
375	-5.45000e+00	6.936843e-05	
376	-5.50000e+00	6.945268e-05	
377	-5.55000e+00	6.953708e-05	
378	-5.60000e+00	6.962175e-05	
379	-5.65000e+00	6.970679e-05	
380	-5.70000e+00	6.979233e-05	
381	-5.75000e+00	6.987849e-05	
382	-5.80000e+00	6.996544e-05	
383	-5.85000e+00	7.005333e-05	
384	-5.90000e+00	7.014233e-05	
385	-5.95000e+00	7.023263e-05	
386	-6.00000e+00	7.032443e-05	
387	-6.05000e+00	7.041796e-05	
388	-6.10000e+00	7.051345e-05	
389	-6.15000e+00	7.061116e-05	
390	-6.20000e+00	7.071135e-05	
391	-6.25000e+00	7.081432e-05	
392	-6.30000e+00	7.092039e-05	
393	-6.35000e+00	7.102988e-05	
394	-6.40000e+00	7.114314e-05	
395	-6.45000e+00	7.126056e-05	
396	-6.50000e+00	7.138253e-05	
397	-6.55000e+00	7.150947e-05	
398	-6.60000e+00	7.164183e-05	
399	0.000000e+00	0.000000e+00	
400	-5.00000e-02	4.327175e-06	
401	-1.00000e-01	8.549820e-06	
402	-1.50000e-01	1.267541e-05	

Index   v-sweep         i(vds)          
--------------------------------------------------------------------------------
403	-2.00000e-01	1.670607e-05	
404	-2.50000e-01	2.064273e-05	
405	-3.00000e-01	2.448598e-05	
406	-3.50000e-01	2.823636e-05	
407	-4.00000e-01	3.189440e-05	
408	-4.50000e-01	3.546060e-05	
409	-5.00000e-01	3.893547e-05	
410	-5.50000e-01	4.231951e-05	
411	-6.00000e-01	4.561323e-05	
412	-6.50000e-01	4.881712e-05	
413	-7.00000e-01	5.193168e-05	
414	-7.50000e-01	5.495739e-05	
415	-8.00000e-01	5.789474e-05	
416	-8.50000e-01	6.074423e-05	
417	-9.00000e-01	6.350632e-05	
418	-9.50000e-01	6.618149e-05	
419	-1.00000e+00	6.877023e-05	
420	-1.05000e+00	7.127301e-05	
421	-1.10000e+00	7.369030e-05	
422	-1.15000e+00	7.602257e-05	
423	-1.20000e+00	7.827029e-05	
424	-1.25000e+00	8.043392e-05	
425	-1.30000e+00	8.251395e-05	
426	-1.35000e+00	8.451082e-05	
427	-1.40000e+00	8.642503e-05	
428	-1.45000e+00	8.825704e-05	
429	-1.50000e+00	9.000733e-05	
430	-1.55000e+00	9.167639e-05	
431	-1.60000e+00	9.326472e-05	
432	-1.65000e+00	9.477285e-05	
433	-1.70000e+00	9.620131e-05	
434	-1.75000e+00	9.755069e-05	
435	-1.80000e+00	9.882163e-05	
436	-1.85000e+00	1.000148e-04	
437	-1.90000e+00	1.011311e-04	
438	-1.95000e+00	1.021716e-04	
439	-2.00000e+00	1.031374e-04	
440	-2.05000e+00	1.040302e-04	
441	-2.10000e+00	1.048523e-04	
442	-2.15000e+00	1.056067e-04	
443	-2.20000e+00	1.062975e-04	
444	-2.25000e+00	1.069299e-04	
445	-2.30000e+00	1.075102e-04	
446	-2.35000e+00	1.080454e-04	
447	-2.40000e+00	1.085423e-04	
448	-2.45000e+00	1.090070e-04	
449	-2.50000e+00	1.094444e-04	
450	-2.55000e+00	1.098585e-04	
451	-2.60000e+00	1.102525e-04	
452	-2.65000e+00	1.106287e-04	
453	-2.70000e+00	1.109892e-04	
454	-2.75000e+00	1.113355e-04	
455	-2.80000e+00	1.116689e-04	
456	-2.85000e+00	1.119907e-04	
457	-2.90000e+00	1.123017e-04	
458	-2.95000e+00	1.126028e-04	
459	-3.00000e+00	1.128948e-04	
460	-3.05000e+00	1.131783e-04	

Index   v-sweep         i(vds)          
--------------------------------------------------------------------------------
461	-3.10000e+00	1.134539e-04	
462	-3.15000e+00	1.137221e-04	
463	-3.20000e+00	1.139834e-04	
464	-3.25000e+00	1.142382e-04	
465	-3.30000e+00	1.144870e-04	
466	-3.35000e+00	1.147301e-04	
467	-3.40000e+00	1.149677e-04	
468	-3.45000e+00	1.152003e-04	
469	-3.50000e+00	1.154280e-04	
470	-3.55000e+00	1.156512e-04	
471	-3.60000e+00	1.158701e-04	
472	-3.65000e+00	1.160848e-04	
473	-3.70000e+00	1.162956e-04	
474	-3.75000e+00	1.165027e-04	
475	-3.80000e+00	1.167062e-04	
476	-3.85000e+00	1.169064e-04	
477	-3.90000e+00	1.171033e-04	
478	-3.95000e+00	1.172971e-04	
479	-4.00000e+00	1.174879e-04	
480	-4.05000e+00	1.176758e-04	
481	-4.10000e+00	1.178611e-04	
482	-4.15000e+00	1.180437e-04	
483	-4.20000e+00	1.182238e-04	
484	-4.25000e+00	1.184015e-04	
485	-4.30000e+00	1.185769e-04	
486	-4.35000e+00	1.187500e-04	
487	-4.40000e+00	1.189210e-04	
488	-4.45000e+00	1.190898e-04	
489	-4.50000e+00	1.192567e-04	
490	-4.55000e+00	1.194216e-04	
491	-4.60000e+00	1.195847e-04	
492	-4.65000e+00	1.197459e-04	
493	-4.70000e+00	1.199055e-04	
494	-4.75000e+00	1.200633e-04	
495	-4.80000e+00	1.202194e-04	
496	-4.85000e+00	1.203740e-04	
497	-4.90000e+00	1.205271e-04	
498	-4.95000e+00	1.206787e-04	
499	-5.00000e+00	1.208288e-04	
500	-5.05000e+00	1.209776e-04	
501	-5.10000e+00	1.211250e-04	
502	-5.15000e+00	1.212711e-04	
503	-5.20000e+00	1.214160e-04	
504	-5.25000e+00	1.215596e-04	
505	-5.30000e+00	1.217021e-04	
506	-5.35000e+00	1.218435e-04	
507	-5.40000e+00	1.219837e-04	
508	-5.45000e+00	1.221230e-04	
509	-5.50000e+00	1.222613e-04	
510	-5.55000e+00	1.223987e-04	
511	-5.60000e+00	1.225352e-04	
512	-5.65000e+00	1.226709e-04	
513	-5.70000e+00	1.228059e-04	
514	-5.75000e+00	1.229403e-04	
515	-5.80000e+00	1.230741e-04	
516	-5.85000e+00	1.232074e-04	
517	-5.90000e+00	1.233403e-04	
518	-5.95000e+00	1.234730e-04	

Index   v-sweep         i(vds)          
--------------------------------------------------------------------------------
519	-6.00000e+00	1.236055e-04	
520	-6.05000e+00	1.237380e-04	
521	-6.10000e+00	1.238706e-04	
522	-6.15000e+00	1.240035e-04	
523	-6.20000e+00	1.241369e-04	
524	-6.25000e+00	1.242710e-04	
525	-6.30000e+00	1.244059e-04	
526	-6.35000e+00	1.245419e-04	
527	-6.40000e+00	1.246793e-04	
528	-6.45000e+00	1.248183e-04	
529	-6.50000e+00	1.249593e-04	
530	-6.55000e+00	1.251025e-04	
531	-6.60000e+00	1.252483e-04	
532	0.000000e+00	0.000000e+00	
533	-5.00000e-02	5.238092e-06	
534	-1.00000e-01	1.037508e-05	
535	-1.50000e-01	1.541838e-05	
536	-2.00000e-01	2.037009e-05	
537	-2.50000e-01	2.523104e-05	
538	-3.00000e-01	3.000179e-05	
539	-3.50000e-01	3.468284e-05	
540	-4.00000e-01	3.927463e-05	
541	-4.50000e-01	4.377765e-05	
542	-5.00000e-01	4.819233e-05	
543	-5.50000e-01	5.251913e-05	
544	-6.00000e-01	5.675850e-05	
545	-6.50000e-01	6.091089e-05	
546	-7.00000e-01	6.497674e-05	
547	-7.50000e-01	6.895648e-05	
548	-8.00000e-01	7.285057e-05	
549	-8.50000e-01	7.665943e-05	
550	-9.00000e-01	8.038349e-05	
551	-9.50000e-01	8.402319e-05	
552	-1.00000e+00	8.757895e-05	
553	-1.05000e+00	9.105119e-05	
554	-1.10000e+00	9.444034e-05	
555	-1.15000e+00	9.774681e-05	
556	-1.20000e+00	1.009710e-04	
557	-1.25000e+00	1.041134e-04	
558	-1.30000e+00	1.071743e-04	
559	-1.35000e+00	1.101543e-04	
560	-1.40000e+00	1.130536e-04	
561	-1.45000e+00	1.158726e-04	
562	-1.50000e+00	1.186119e-04	
563	-1.55000e+00	1.212718e-04	
564	-1.60000e+00	1.238527e-04	
565	-1.65000e+00	1.263550e-04	
566	-1.70000e+00	1.287791e-04	
567	-1.75000e+00	1.311254e-04	
568	-1.80000e+00	1.333943e-04	
569	-1.85000e+00	1.355862e-04	
570	-1.90000e+00	1.377015e-04	
571	-1.95000e+00	1.397406e-04	
572	-2.00000e+00	1.417039e-04	
573	-2.05000e+00	1.435919e-04	
574	-2.10000e+00	1.454049e-04	
575	-2.15000e+00	1.471434e-04	
576	-2.20000e+00	1.488079e-04	

Index   v-sweep         i(vds)          
--------------------------------------------------------------------------------
577	-2.25000e+00	1.503988e-04	
578	-2.30000e+00	1.519167e-04	
579	-2.35000e+00	1.533620e-04	
580	-2.40000e+00	1.547355e-04	
581	-2.45000e+00	1.560378e-04	
582	-2.50000e+00	1.572697e-04	
583	-2.55000e+00	1.584322e-04	
584	-2.60000e+00	1.595267e-04	
585	-2.65000e+00	1.605546e-04	
586	-2.70000e+00	1.615180e-04	
587	-2.75000e+00	1.624196e-04	
588	-2.80000e+00	1.632627e-04	
589	-2.85000e+00	1.640514e-04	
590	-2.90000e+00	1.647904e-04	
591	-2.95000e+00	1.654846e-04	
592	-3.00000e+00	1.661389e-04	
593	-3.05000e+00	1.667579e-04	
594	-3.10000e+00	1.673457e-04	
595	-3.15000e+00	1.679056e-04	
596	-3.20000e+00	1.684405e-04	
597	-3.25000e+00	1.689530e-04	
598	-3.30000e+00	1.694451e-04	
599	-3.35000e+00	1.699187e-04	
600	-3.40000e+00	1.703753e-04	
601	-3.45000e+00	1.708162e-04	
602	-3.50000e+00	1.712428e-04	
603	-3.55000e+00	1.716561e-04	
604	-3.60000e+00	1.720570e-04	
605	-3.65000e+00	1.724464e-04	
606	-3.70000e+00	1.728251e-04	
607	-3.75000e+00	1.731937e-04	
608	-3.80000e+00	1.735529e-04	
609	-3.85000e+00	1.739034e-04	
610	-3.90000e+00	1.742455e-04	
611	-3.95000e+00	1.745798e-04	
612	-4.00000e+00	1.749067e-04	
613	-4.05000e+00	1.752266e-04	
614	-4.10000e+00	1.755399e-04	
615	-4.15000e+00	1.758470e-04	
616	-4.20000e+00	1.761481e-04	
617	-4.25000e+00	1.764436e-04	
618	-4.30000e+00	1.767337e-04	
619	-4.35000e+00	1.770186e-04	
620	-4.40000e+00	1.772987e-04	
621	-4.45000e+00	1.775741e-04	
622	-4.50000e+00	1.778450e-04	
623	-4.55000e+00	1.781117e-04	
624	-4.60000e+00	1.783742e-04	
625	-4.65000e+00	1.786329e-04	
626	-4.70000e+00	1.788877e-04	
627	-4.75000e+00	1.791390e-04	
628	-4.80000e+00	1.793868e-04	
629	-4.85000e+00	1.796313e-04	
630	-4.90000e+00	1.798725e-04	
631	-4.95000e+00	1.801107e-04	
632	-5.00000e+00	1.803459e-04	
633	-5.05000e+00	1.805782e-04	
634	-5.10000e+00	1.808077e-04	

Index   v-sweep         i(vds)          
--------------------------------------------------------------------------------
635	-5.15000e+00	1.810346e-04	
636	-5.20000e+00	1.812588e-04	
637	-5.25000e+00	1.814806e-04	
638	-5.30000e+00	1.817000e-04	
639	-5.35000e+00	1.819170e-04	
640	-5.40000e+00	1.821318e-04	
641	-5.45000e+00	1.823443e-04	
642	-5.50000e+00	1.825548e-04	
643	-5.55000e+00	1.827632e-04	
644	-5.60000e+00	1.829696e-04	
645	-5.65000e+00	1.831742e-04	
646	-5.70000e+00	1.833768e-04	
647	-5.75000e+00	1.835777e-04	
648	-5.80000e+00	1.837768e-04	
649	-5.85000e+00	1.839743e-04	
650	-5.90000e+00	1.841701e-04	
651	-5.95000e+00	1.843644e-04	
652	-6.00000e+00	1.845573e-04	
653	-6.05000e+00	1.847487e-04	
654	-6.10000e+00	1.849389e-04	
655	-6.15000e+00	1.851278e-04	
656	-6.20000e+00	1.853155e-04	
657	-6.25000e+00	1.855022e-04	
658	-6.30000e+00	1.856879e-04	
659	-6.35000e+00	1.858728e-04	
660	-6.40000e+00	1.860570e-04	
661	-6.45000e+00	1.862405e-04	
662	-6.50000e+00	1.864237e-04	
663	-6.55000e+00	1.866066e-04	
664	-6.60000e+00	1.867894e-04	
665	0.000000e+00	0.000000e+00	
666	-5.00000e-02	6.047763e-06	
667	-1.00000e-01	1.199751e-05	
668	-1.50000e-01	1.785662e-05	
669	-2.00000e-01	2.362713e-05	
670	-2.50000e-01	2.930985e-05	
671	-3.00000e-01	3.490529e-05	
672	-3.50000e-01	4.041388e-05	
673	-4.00000e-01	4.583606e-05	
674	-4.50000e-01	5.117223e-05	
675	-5.00000e-01	5.642282e-05	
676	-5.50000e-01	6.158824e-05	
677	-6.00000e-01	6.666889e-05	
678	-6.50000e-01	7.166518e-05	
679	-7.00000e-01	7.657751e-05	
680	-7.50000e-01	8.140628e-05	
681	-8.00000e-01	8.615189e-05	
682	-8.50000e-01	9.081474e-05	
683	-9.00000e-01	9.539522e-05	
684	-9.50000e-01	9.989372e-05	
685	-1.00000e+00	1.043106e-04	
686	-1.05000e+00	1.086463e-04	
687	-1.10000e+00	1.129012e-04	
688	-1.15000e+00	1.170757e-04	
689	-1.20000e+00	1.211700e-04	
690	-1.25000e+00	1.251848e-04	
691	-1.30000e+00	1.291201e-04	
692	-1.35000e+00	1.329766e-04	

Index   v-sweep         i(vds)          
--------------------------------------------------------------------------------
693	-1.40000e+00	1.367545e-04	
694	-1.45000e+00	1.404542e-04	
695	-1.50000e+00	1.440761e-04	
696	-1.55000e+00	1.476205e-04	
697	-1.60000e+00	1.510878e-04	
698	-1.65000e+00	1.544783e-04	
699	-1.70000e+00	1.577925e-04	
700	-1.75000e+00	1.610306e-04	
701	-1.80000e+00	1.641931e-04	
702	-1.85000e+00	1.672803e-04	
703	-1.90000e+00	1.702925e-04	
704	-1.95000e+00	1.732300e-04	
705	-2.00000e+00	1.760934e-04	
706	-2.05000e+00	1.788828e-04	
707	-2.10000e+00	1.815986e-04	
708	-2.15000e+00	1.842412e-04	
709	-2.20000e+00	1.868110e-04	
710	-2.25000e+00	1.893082e-04	
711	-2.30000e+00	1.917333e-04	
712	-2.35000e+00	1.940865e-04	
713	-2.40000e+00	1.963682e-04	
714	-2.45000e+00	1.985789e-04	
715	-2.50000e+00	2.007188e-04	
716	-2.55000e+00	2.027882e-04	
717	-2.60000e+00	2.047877e-04	
718	-2.65000e+00	2.067175e-04	
719	-2.70000e+00	2.085780e-04	
720	-2.75000e+00	2.103697e-04	
721	-2.80000e+00	2.120930e-04	
722	-2.85000e+00	2.137483e-04	
723	-2.90000e+00	2.153361e-04	
724	-2.95000e+00	2.168571e-04	
725	-3.00000e+00	2.183117e-04	
726	-3.05000e+00	2.197008e-04	
727	-3.10000e+00	2.210251e-04	
728	-3.15000e+00	2.222857e-04	
729	-3.20000e+00	2.234839e-04	
730	-3.25000e+00	2.246211e-04	
731	-3.30000e+00	2.256994e-04	
732	-3.35000e+00	2.267211e-04	
733	-3.40000e+00	2.276890e-04	
734	-3.45000e+00	2.286062e-04	
735	-3.50000e+00	2.294764e-04	
736	-3.55000e+00	2.303031e-04	
737	-3.60000e+00	2.310900e-04	
738	-3.65000e+00	2.318404e-04	
739	-3.70000e+00	2.325574e-04	
740	-3.75000e+00	2.332441e-04	
741	-3.80000e+00	2.339029e-04	
742	-3.85000e+00	2.345362e-04	
743	-3.90000e+00	2.351459e-04	
744	-3.95000e+00	2.357341e-04	
745	-4.00000e+00	2.363023e-04	
746	-4.05000e+00	2.368520e-04	
747	-4.10000e+00	2.373845e-04	
748	-4.15000e+00	2.379011e-04	
749	-4.20000e+00	2.384028e-04	
750	-4.25000e+00	2.388907e-04	

Index   v-sweep         i(vds)          
--------------------------------------------------------------------------------
751	-4.30000e+00	2.393655e-04	
752	-4.35000e+00	2.398282e-04	
753	-4.40000e+00	2.402795e-04	
754	-4.45000e+00	2.407199e-04	
755	-4.50000e+00	2.411503e-04	
756	-4.55000e+00	2.415711e-04	
757	-4.60000e+00	2.419828e-04	
758	-4.65000e+00	2.423859e-04	
759	-4.70000e+00	2.427809e-04	
760	-4.75000e+00	2.431683e-04	
761	-4.80000e+00	2.435482e-04	
762	-4.85000e+00	2.439212e-04	
763	-4.90000e+00	2.442876e-04	
764	-4.95000e+00	2.446476e-04	
765	-5.00000e+00	2.450016e-04	
766	-5.05000e+00	2.453498e-04	
767	-5.10000e+00	2.456924e-04	
768	-5.15000e+00	2.460298e-04	
769	-5.20000e+00	2.463620e-04	
770	-5.25000e+00	2.466894e-04	
771	-5.30000e+00	2.470122e-04	
772	-5.35000e+00	2.473304e-04	
773	-5.40000e+00	2.476443e-04	
774	-5.45000e+00	2.479541e-04	
775	-5.50000e+00	2.482598e-04	
776	-5.55000e+00	2.485617e-04	
777	-5.60000e+00	2.488599e-04	
778	-5.65000e+00	2.491545e-04	
779	-5.70000e+00	2.494457e-04	
780	-5.75000e+00	2.497335e-04	
781	-5.80000e+00	2.500180e-04	
782	-5.85000e+00	2.502995e-04	
783	-5.90000e+00	2.505779e-04	
784	-5.95000e+00	2.508534e-04	
785	-6.00000e+00	2.511261e-04	
786	-6.05000e+00	2.513960e-04	
787	-6.10000e+00	2.516633e-04	
788	-6.15000e+00	2.519280e-04	
789	-6.20000e+00	2.521903e-04	
790	-6.25000e+00	2.524501e-04	
791	-6.30000e+00	2.527076e-04	
792	-6.35000e+00	2.529629e-04	
793	-6.40000e+00	2.532161e-04	
794	-6.45000e+00	2.534671e-04	
795	-6.50000e+00	2.537162e-04	
796	-6.55000e+00	2.539634e-04	
797	-6.60000e+00	2.542088e-04	
Note: No ".plot", ".print", or ".fourier" lines; no simulations run
