
Note: Compatibility modes selected: hs

Warning: m=xx on .subckt line will override multiplier m hierarchy!


Circuit: ***************************

Doing analysis at TEMP = 25.000000 and TNOM = 25.000000


No. of Data Rows : 798
                          ***************************
                          DC transfer characteristic  Mon Jan  9 13:57:53  2023
--------------------------------------------------------------------------------
Index   v-sweep         i(vds)          
--------------------------------------------------------------------------------
0	0.000000e+00	0.000000e+00	
1	-5.00000e-02	5.011971e-07	
2	-1.00000e-01	8.549840e-07	
3	-1.50000e-01	1.071131e-06	
4	-2.00000e-01	1.176710e-06	
5	-2.50000e-01	1.222490e-06	
6	-3.00000e-01	1.248122e-06	
7	-3.50000e-01	1.267620e-06	
8	-4.00000e-01	1.284706e-06	
9	-4.50000e-01	1.300513e-06	
10	-5.00000e-01	1.315480e-06	
11	-5.50000e-01	1.329822e-06	
12	-6.00000e-01	1.343663e-06	
13	-6.50000e-01	1.357083e-06	
14	-7.00000e-01	1.370143e-06	
15	-7.50000e-01	1.382888e-06	
16	-8.00000e-01	1.395354e-06	
17	-8.50000e-01	1.407572e-06	
18	-9.00000e-01	1.419566e-06	
19	-9.50000e-01	1.431359e-06	
20	-1.00000e+00	1.442969e-06	
21	-1.05000e+00	1.454411e-06	
22	-1.10000e+00	1.465702e-06	
23	-1.15000e+00	1.476853e-06	
24	-1.20000e+00	1.487875e-06	
25	-1.25000e+00	1.498779e-06	
26	-1.30000e+00	1.509573e-06	
27	-1.35000e+00	1.520267e-06	
28	-1.40000e+00	1.530867e-06	
29	-1.45000e+00	1.541381e-06	
30	-1.50000e+00	1.551813e-06	
31	-1.55000e+00	1.562171e-06	
32	-1.60000e+00	1.572459e-06	
33	-1.65000e+00	1.582683e-06	
34	-1.70000e+00	1.592845e-06	
35	-1.75000e+00	1.602951e-06	
36	-1.80000e+00	1.613004e-06	
37	-1.85000e+00	1.623008e-06	
38	-1.90000e+00	1.632965e-06	
39	-1.95000e+00	1.642880e-06	
40	-2.00000e+00	1.652754e-06	
41	-2.05000e+00	1.662590e-06	
42	-2.10000e+00	1.672391e-06	
43	-2.15000e+00	1.682159e-06	
44	-2.20000e+00	1.691896e-06	
45	-2.25000e+00	1.701605e-06	
46	-2.30000e+00	1.711286e-06	
47	-2.35000e+00	1.720942e-06	
48	-2.40000e+00	1.730575e-06	
49	-2.45000e+00	1.740185e-06	
50	-2.50000e+00	1.749775e-06	
51	-2.55000e+00	1.759347e-06	
52	-2.60000e+00	1.768900e-06	
53	-2.65000e+00	1.778437e-06	
54	-2.70000e+00	1.787959e-06	

Index   v-sweep         i(vds)          
--------------------------------------------------------------------------------
55	-2.75000e+00	1.797466e-06	
56	-2.80000e+00	1.806961e-06	
57	-2.85000e+00	1.816444e-06	
58	-2.90000e+00	1.825916e-06	
59	-2.95000e+00	1.835377e-06	
60	-3.00000e+00	1.844830e-06	
61	-3.05000e+00	1.854275e-06	
62	-3.10000e+00	1.863712e-06	
63	-3.15000e+00	1.873144e-06	
64	-3.20000e+00	1.882569e-06	
65	-3.25000e+00	1.891991e-06	
66	-3.30000e+00	1.901408e-06	
67	-3.35000e+00	1.910823e-06	
68	-3.40000e+00	1.920237e-06	
69	-3.45000e+00	1.929649e-06	
70	-3.50000e+00	1.939062e-06	
71	-3.55000e+00	1.948476e-06	
72	-3.60000e+00	1.957894e-06	
73	-3.65000e+00	1.967315e-06	
74	-3.70000e+00	1.976742e-06	
75	-3.75000e+00	1.986175e-06	
76	-3.80000e+00	1.995618e-06	
77	-3.85000e+00	2.005071e-06	
78	-3.90000e+00	2.014537e-06	
79	-3.95000e+00	2.024019e-06	
80	-4.00000e+00	2.033518e-06	
81	-4.05000e+00	2.043037e-06	
82	-4.10000e+00	2.052580e-06	
83	-4.15000e+00	2.062150e-06	
84	-4.20000e+00	2.071750e-06	
85	-4.25000e+00	2.081386e-06	
86	-4.30000e+00	2.091061e-06	
87	-4.35000e+00	2.100780e-06	
88	-4.40000e+00	2.110549e-06	
89	-4.45000e+00	2.120373e-06	
90	-4.50000e+00	2.130259e-06	
91	-4.55000e+00	2.140215e-06	
92	-4.60000e+00	2.150246e-06	
93	-4.65000e+00	2.160363e-06	
94	-4.70000e+00	2.170572e-06	
95	-4.75000e+00	2.180884e-06	
96	-4.80000e+00	2.191310e-06	
97	-4.85000e+00	2.201859e-06	
98	-4.90000e+00	2.212544e-06	
99	-4.95000e+00	2.223377e-06	
100	-5.00000e+00	2.234371e-06	
101	-5.05000e+00	2.245541e-06	
102	-5.10000e+00	2.256902e-06	
103	-5.15000e+00	2.268470e-06	
104	-5.20000e+00	2.280262e-06	
105	-5.25000e+00	2.292296e-06	
106	-5.30000e+00	2.304590e-06	
107	-5.35000e+00	2.317166e-06	
108	-5.40000e+00	2.330044e-06	
109	-5.45000e+00	2.343247e-06	
110	-5.50000e+00	2.356799e-06	
111	-5.55000e+00	2.370723e-06	
112	-5.60000e+00	2.385046e-06	

Index   v-sweep         i(vds)          
--------------------------------------------------------------------------------
113	-5.65000e+00	2.399794e-06	
114	-5.70000e+00	2.414997e-06	
115	-5.75000e+00	2.430684e-06	
116	-5.80000e+00	2.446885e-06	
117	-5.85000e+00	2.463633e-06	
118	-5.90000e+00	2.480962e-06	
119	-5.95000e+00	2.498906e-06	
120	-6.00000e+00	2.517502e-06	
121	-6.05000e+00	2.536787e-06	
122	-6.10000e+00	2.556801e-06	
123	-6.15000e+00	2.577583e-06	
124	-6.20000e+00	2.599176e-06	
125	-6.25000e+00	2.621624e-06	
126	-6.30000e+00	2.644970e-06	
127	-6.35000e+00	2.669263e-06	
128	-6.40000e+00	2.694548e-06	
129	-6.45000e+00	2.720876e-06	
130	-6.50000e+00	2.748298e-06	
131	-6.55000e+00	2.776865e-06	
132	-6.60000e+00	2.806632e-06	
133	0.000000e+00	0.000000e+00	
134	-5.00000e-02	2.978367e-06	
135	-1.00000e-01	5.778141e-06	
136	-1.50000e-01	8.402053e-06	
137	-2.00000e-01	1.085279e-05	
138	-2.50000e-01	1.313299e-05	
139	-3.00000e-01	1.524525e-05	
140	-3.50000e-01	1.719216e-05	
141	-4.00000e-01	1.897627e-05	
142	-4.50000e-01	2.060014e-05	
143	-5.00000e-01	2.206638e-05	
144	-5.50000e-01	2.337769e-05	
145	-6.00000e-01	2.453700e-05	
146	-6.50000e-01	2.554770e-05	
147	-7.00000e-01	2.641405e-05	
148	-7.50000e-01	2.714214e-05	
149	-8.00000e-01	2.774139e-05	
150	-8.50000e-01	2.822675e-05	
151	-9.00000e-01	2.861953e-05	
152	-9.50000e-01	2.894412e-05	
153	-1.00000e+00	2.922189e-05	
154	-1.05000e+00	2.946772e-05	
155	-1.10000e+00	2.969078e-05	
156	-1.15000e+00	2.989660e-05	
157	-1.20000e+00	3.008868e-05	
158	-1.25000e+00	3.026938e-05	
159	-1.30000e+00	3.044041e-05	
160	-1.35000e+00	3.060307e-05	
161	-1.40000e+00	3.075837e-05	
162	-1.45000e+00	3.090714e-05	
163	-1.50000e+00	3.105008e-05	
164	-1.55000e+00	3.118774e-05	
165	-1.60000e+00	3.132064e-05	
166	-1.65000e+00	3.144919e-05	
167	-1.70000e+00	3.157376e-05	
168	-1.75000e+00	3.169467e-05	
169	-1.80000e+00	3.181221e-05	
170	-1.85000e+00	3.192663e-05	

Index   v-sweep         i(vds)          
--------------------------------------------------------------------------------
171	-1.90000e+00	3.203816e-05	
172	-1.95000e+00	3.214700e-05	
173	-2.00000e+00	3.225333e-05	
174	-2.05000e+00	3.235731e-05	
175	-2.10000e+00	3.245910e-05	
176	-2.15000e+00	3.255882e-05	
177	-2.20000e+00	3.265660e-05	
178	-2.25000e+00	3.275256e-05	
179	-2.30000e+00	3.284679e-05	
180	-2.35000e+00	3.293939e-05	
181	-2.40000e+00	3.303045e-05	
182	-2.45000e+00	3.312005e-05	
183	-2.50000e+00	3.320825e-05	
184	-2.55000e+00	3.329514e-05	
185	-2.60000e+00	3.338078e-05	
186	-2.65000e+00	3.346522e-05	
187	-2.70000e+00	3.354852e-05	
188	-2.75000e+00	3.363074e-05	
189	-2.80000e+00	3.371191e-05	
190	-2.85000e+00	3.379210e-05	
191	-2.90000e+00	3.387133e-05	
192	-2.95000e+00	3.394965e-05	
193	-3.00000e+00	3.402709e-05	
194	-3.05000e+00	3.410370e-05	
195	-3.10000e+00	3.417951e-05	
196	-3.15000e+00	3.425454e-05	
197	-3.20000e+00	3.432882e-05	
198	-3.25000e+00	3.440240e-05	
199	-3.30000e+00	3.447528e-05	
200	-3.35000e+00	3.454750e-05	
201	-3.40000e+00	3.461908e-05	
202	-3.45000e+00	3.469004e-05	
203	-3.50000e+00	3.476041e-05	
204	-3.55000e+00	3.483021e-05	
205	-3.60000e+00	3.489945e-05	
206	-3.65000e+00	3.496816e-05	
207	-3.70000e+00	3.503636e-05	
208	-3.75000e+00	3.510405e-05	
209	-3.80000e+00	3.517127e-05	
210	-3.85000e+00	3.523803e-05	
211	-3.90000e+00	3.530435e-05	
212	-3.95000e+00	3.537024e-05	
213	-4.00000e+00	3.543572e-05	
214	-4.05000e+00	3.550082e-05	
215	-4.10000e+00	3.556554e-05	
216	-4.15000e+00	3.562992e-05	
217	-4.20000e+00	3.569396e-05	
218	-4.25000e+00	3.575770e-05	
219	-4.30000e+00	3.582116e-05	
220	-4.35000e+00	3.588436e-05	
221	-4.40000e+00	3.594732e-05	
222	-4.45000e+00	3.601008e-05	
223	-4.50000e+00	3.607268e-05	
224	-4.55000e+00	3.613514e-05	
225	-4.60000e+00	3.619750e-05	
226	-4.65000e+00	3.625981e-05	
227	-4.70000e+00	3.632211e-05	
228	-4.75000e+00	3.638445e-05	

Index   v-sweep         i(vds)          
--------------------------------------------------------------------------------
229	-4.80000e+00	3.644689e-05	
230	-4.85000e+00	3.650948e-05	
231	-4.90000e+00	3.657230e-05	
232	-4.95000e+00	3.663540e-05	
233	-5.00000e+00	3.669888e-05	
234	-5.05000e+00	3.676281e-05	
235	-5.10000e+00	3.682729e-05	
236	-5.15000e+00	3.689242e-05	
237	-5.20000e+00	3.695829e-05	
238	-5.25000e+00	3.702504e-05	
239	-5.30000e+00	3.709278e-05	
240	-5.35000e+00	3.716165e-05	
241	-5.40000e+00	3.723179e-05	
242	-5.45000e+00	3.730335e-05	
243	-5.50000e+00	3.737651e-05	
244	-5.55000e+00	3.745143e-05	
245	-5.60000e+00	3.752830e-05	
246	-5.65000e+00	3.760733e-05	
247	-5.70000e+00	3.768872e-05	
248	-5.75000e+00	3.777269e-05	
249	-5.80000e+00	3.785949e-05	
250	-5.85000e+00	3.794937e-05	
251	-5.90000e+00	3.804258e-05	
252	-5.95000e+00	3.813940e-05	
253	-6.00000e+00	3.824014e-05	
254	-6.05000e+00	3.834508e-05	
255	-6.10000e+00	3.845456e-05	
256	-6.15000e+00	3.856891e-05	
257	-6.20000e+00	3.868849e-05	
258	-6.25000e+00	3.881365e-05	
259	-6.30000e+00	3.894479e-05	
260	-6.35000e+00	3.908230e-05	
261	-6.40000e+00	3.922660e-05	
262	-6.45000e+00	3.937812e-05	
263	-6.50000e+00	3.953730e-05	
264	-6.55000e+00	3.970462e-05	
265	-6.60000e+00	3.988055e-05	
266	0.000000e+00	0.000000e+00	
267	-5.00000e-02	4.837350e-06	
268	-1.00000e-01	9.499658e-06	
269	-1.50000e-01	1.398924e-05	
270	-2.00000e-01	1.830836e-05	
271	-2.50000e-01	2.245926e-05	
272	-3.00000e-01	2.644413e-05	
273	-3.50000e-01	3.026514e-05	
274	-4.00000e-01	3.392440e-05	
275	-4.50000e-01	3.742402e-05	
276	-5.00000e-01	4.076603e-05	
277	-5.50000e-01	4.395247e-05	
278	-6.00000e-01	4.698534e-05	
279	-6.50000e-01	4.986660e-05	
280	-7.00000e-01	5.259819e-05	
281	-7.50000e-01	5.518203e-05	
282	-8.00000e-01	5.762002e-05	
283	-8.50000e-01	5.991405e-05	
284	-9.00000e-01	6.206600e-05	
285	-9.50000e-01	6.407778e-05	
286	-1.00000e+00	6.595129e-05	

Index   v-sweep         i(vds)          
--------------------------------------------------------------------------------
287	-1.05000e+00	6.768851e-05	
288	-1.10000e+00	6.929152e-05	
289	-1.15000e+00	7.076258e-05	
290	-1.20000e+00	7.210426e-05	
291	-1.25000e+00	7.331969e-05	
292	-1.30000e+00	7.441289e-05	
293	-1.35000e+00	7.538934e-05	
294	-1.40000e+00	7.625672e-05	
295	-1.45000e+00	7.702544e-05	
296	-1.50000e+00	7.770839e-05	
297	-1.55000e+00	7.831955e-05	
298	-1.60000e+00	7.887204e-05	
299	-1.65000e+00	7.937679e-05	
300	-1.70000e+00	7.984235e-05	
301	-1.75000e+00	8.027524e-05	
302	-1.80000e+00	8.068042e-05	
303	-1.85000e+00	8.106181e-05	
304	-1.90000e+00	8.142248e-05	
305	-1.95000e+00	8.176496e-05	
306	-2.00000e+00	8.209130e-05	
307	-2.05000e+00	8.240324e-05	
308	-2.10000e+00	8.270223e-05	
309	-2.15000e+00	8.298954e-05	
310	-2.20000e+00	8.326621e-05	
311	-2.25000e+00	8.353320e-05	
312	-2.30000e+00	8.379132e-05	
313	-2.35000e+00	8.404128e-05	
314	-2.40000e+00	8.428371e-05	
315	-2.45000e+00	8.451918e-05	
316	-2.50000e+00	8.474818e-05	
317	-2.55000e+00	8.497118e-05	
318	-2.60000e+00	8.518857e-05	
319	-2.65000e+00	8.540071e-05	
320	-2.70000e+00	8.560794e-05	
321	-2.75000e+00	8.581057e-05	
322	-2.80000e+00	8.600885e-05	
323	-2.85000e+00	8.620306e-05	
324	-2.90000e+00	8.639340e-05	
325	-2.95000e+00	8.658010e-05	
326	-3.00000e+00	8.676335e-05	
327	-3.05000e+00	8.694333e-05	
328	-3.10000e+00	8.712021e-05	
329	-3.15000e+00	8.729413e-05	
330	-3.20000e+00	8.746525e-05	
331	-3.25000e+00	8.763369e-05	
332	-3.30000e+00	8.779958e-05	
333	-3.35000e+00	8.796303e-05	
334	-3.40000e+00	8.812415e-05	
335	-3.45000e+00	8.828305e-05	
336	-3.50000e+00	8.843981e-05	
337	-3.55000e+00	8.859452e-05	
338	-3.60000e+00	8.874728e-05	
339	-3.65000e+00	8.889815e-05	
340	-3.70000e+00	8.904722e-05	
341	-3.75000e+00	8.919455e-05	
342	-3.80000e+00	8.934020e-05	
343	-3.85000e+00	8.948425e-05	
344	-3.90000e+00	8.962674e-05	

Index   v-sweep         i(vds)          
--------------------------------------------------------------------------------
345	-3.95000e+00	8.976774e-05	
346	-4.00000e+00	8.990730e-05	
347	-4.05000e+00	9.004548e-05	
348	-4.10000e+00	9.018231e-05	
349	-4.15000e+00	9.031784e-05	
350	-4.20000e+00	9.045213e-05	
351	-4.25000e+00	9.058521e-05	
352	-4.30000e+00	9.071713e-05	
353	-4.35000e+00	9.084793e-05	
354	-4.40000e+00	9.097766e-05	
355	-4.45000e+00	9.110634e-05	
356	-4.50000e+00	9.123402e-05	
357	-4.55000e+00	9.136075e-05	
358	-4.60000e+00	9.148656e-05	
359	-4.65000e+00	9.161150e-05	
360	-4.70000e+00	9.173562e-05	
361	-4.75000e+00	9.185896e-05	
362	-4.80000e+00	9.198157e-05	
363	-4.85000e+00	9.210350e-05	
364	-4.90000e+00	9.222483e-05	
365	-4.95000e+00	9.234559e-05	
366	-5.00000e+00	9.246588e-05	
367	-5.05000e+00	9.258575e-05	
368	-5.10000e+00	9.270529e-05	
369	-5.15000e+00	9.282460e-05	
370	-5.20000e+00	9.294376e-05	
371	-5.25000e+00	9.306288e-05	
372	-5.30000e+00	9.318208e-05	
373	-5.35000e+00	9.330150e-05	
374	-5.40000e+00	9.342126e-05	
375	-5.45000e+00	9.354153e-05	
376	-5.50000e+00	9.366247e-05	
377	-5.55000e+00	9.378426e-05	
378	-5.60000e+00	9.390712e-05	
379	-5.65000e+00	9.403124e-05	
380	-5.70000e+00	9.415687e-05	
381	-5.75000e+00	9.428427e-05	
382	-5.80000e+00	9.441371e-05	
383	-5.85000e+00	9.454548e-05	
384	-5.90000e+00	9.467991e-05	
385	-5.95000e+00	9.481734e-05	
386	-6.00000e+00	9.495815e-05	
387	-6.05000e+00	9.510271e-05	
388	-6.10000e+00	9.525146e-05	
389	-6.15000e+00	9.540484e-05	
390	-6.20000e+00	9.556334e-05	
391	-6.25000e+00	9.572746e-05	
392	-6.30000e+00	9.589773e-05	
393	-6.35000e+00	9.607473e-05	
394	-6.40000e+00	9.625906e-05	
395	-6.45000e+00	9.645135e-05	
396	-6.50000e+00	9.665228e-05	
397	-6.55000e+00	9.686255e-05	
398	-6.60000e+00	9.708290e-05	
399	0.000000e+00	0.000000e+00	
400	-5.00000e-02	6.303137e-06	
401	-1.00000e-01	1.243795e-05	
402	-1.50000e-01	1.840643e-05	

Index   v-sweep         i(vds)          
--------------------------------------------------------------------------------
403	-2.00000e-01	2.421050e-05	
404	-2.50000e-01	2.985208e-05	
405	-3.00000e-01	3.533307e-05	
406	-3.50000e-01	4.065530e-05	
407	-4.00000e-01	4.582063e-05	
408	-4.50000e-01	5.083083e-05	
409	-5.00000e-01	5.568770e-05	
410	-5.50000e-01	6.039296e-05	
411	-6.00000e-01	6.494836e-05	
412	-6.50000e-01	6.935558e-05	
413	-7.00000e-01	7.361629e-05	
414	-7.50000e-01	7.773214e-05	
415	-8.00000e-01	8.170476e-05	
416	-8.50000e-01	8.553574e-05	
417	-9.00000e-01	8.922667e-05	
418	-9.50000e-01	9.277911e-05	
419	-1.00000e+00	9.619459e-05	
420	-1.05000e+00	9.947464e-05	
421	-1.10000e+00	1.026207e-04	
422	-1.15000e+00	1.056344e-04	
423	-1.20000e+00	1.085171e-04	
424	-1.25000e+00	1.112703e-04	
425	-1.30000e+00	1.138954e-04	
426	-1.35000e+00	1.163938e-04	
427	-1.40000e+00	1.187671e-04	
428	-1.45000e+00	1.210167e-04	
429	-1.50000e+00	1.231440e-04	
430	-1.55000e+00	1.251506e-04	
431	-1.60000e+00	1.270380e-04	
432	-1.65000e+00	1.288079e-04	
433	-1.70000e+00	1.304621e-04	
434	-1.75000e+00	1.320027e-04	
435	-1.80000e+00	1.334321e-04	
436	-1.85000e+00	1.347535e-04	
437	-1.90000e+00	1.359707e-04	
438	-1.95000e+00	1.370889e-04	
439	-2.00000e+00	1.381145e-04	
440	-2.05000e+00	1.390552e-04	
441	-2.10000e+00	1.399200e-04	
442	-2.15000e+00	1.407175e-04	
443	-2.20000e+00	1.414564e-04	
444	-2.25000e+00	1.421441e-04	
445	-2.30000e+00	1.427873e-04	
446	-2.35000e+00	1.433916e-04	
447	-2.40000e+00	1.439617e-04	
448	-2.45000e+00	1.445015e-04	
449	-2.50000e+00	1.450145e-04	
450	-2.55000e+00	1.455036e-04	
451	-2.60000e+00	1.459710e-04	
452	-2.65000e+00	1.464191e-04	
453	-2.70000e+00	1.468495e-04	
454	-2.75000e+00	1.472639e-04	
455	-2.80000e+00	1.476637e-04	
456	-2.85000e+00	1.480500e-04	
457	-2.90000e+00	1.484239e-04	
458	-2.95000e+00	1.487864e-04	
459	-3.00000e+00	1.491383e-04	
460	-3.05000e+00	1.494803e-04	

Index   v-sweep         i(vds)          
--------------------------------------------------------------------------------
461	-3.10000e+00	1.498132e-04	
462	-3.15000e+00	1.501376e-04	
463	-3.20000e+00	1.504540e-04	
464	-3.25000e+00	1.507629e-04	
465	-3.30000e+00	1.510648e-04	
466	-3.35000e+00	1.513600e-04	
467	-3.40000e+00	1.516490e-04	
468	-3.45000e+00	1.519322e-04	
469	-3.50000e+00	1.522097e-04	
470	-3.55000e+00	1.524820e-04	
471	-3.60000e+00	1.527494e-04	
472	-3.65000e+00	1.530119e-04	
473	-3.70000e+00	1.532700e-04	
474	-3.75000e+00	1.535237e-04	
475	-3.80000e+00	1.537734e-04	
476	-3.85000e+00	1.540192e-04	
477	-3.90000e+00	1.542612e-04	
478	-3.95000e+00	1.544997e-04	
479	-4.00000e+00	1.547347e-04	
480	-4.05000e+00	1.549665e-04	
481	-4.10000e+00	1.551952e-04	
482	-4.15000e+00	1.554209e-04	
483	-4.20000e+00	1.556437e-04	
484	-4.25000e+00	1.558637e-04	
485	-4.30000e+00	1.560810e-04	
486	-4.35000e+00	1.562958e-04	
487	-4.40000e+00	1.565082e-04	
488	-4.45000e+00	1.567181e-04	
489	-4.50000e+00	1.569258e-04	
490	-4.55000e+00	1.571312e-04	
491	-4.60000e+00	1.573346e-04	
492	-4.65000e+00	1.575358e-04	
493	-4.70000e+00	1.577351e-04	
494	-4.75000e+00	1.579325e-04	
495	-4.80000e+00	1.581280e-04	
496	-4.85000e+00	1.583217e-04	
497	-4.90000e+00	1.585138e-04	
498	-4.95000e+00	1.587041e-04	
499	-5.00000e+00	1.588929e-04	
500	-5.05000e+00	1.590802e-04	
501	-5.10000e+00	1.592660e-04	
502	-5.15000e+00	1.594504e-04	
503	-5.20000e+00	1.596336e-04	
504	-5.25000e+00	1.598154e-04	
505	-5.30000e+00	1.599961e-04	
506	-5.35000e+00	1.601757e-04	
507	-5.40000e+00	1.603544e-04	
508	-5.45000e+00	1.605321e-04	
509	-5.50000e+00	1.607091e-04	
510	-5.55000e+00	1.608854e-04	
511	-5.60000e+00	1.610612e-04	
512	-5.65000e+00	1.612365e-04	
513	-5.70000e+00	1.614116e-04	
514	-5.75000e+00	1.615867e-04	
515	-5.80000e+00	1.617618e-04	
516	-5.85000e+00	1.619373e-04	
517	-5.90000e+00	1.621133e-04	
518	-5.95000e+00	1.622901e-04	

Index   v-sweep         i(vds)          
--------------------------------------------------------------------------------
519	-6.00000e+00	1.624680e-04	
520	-6.05000e+00	1.626472e-04	
521	-6.10000e+00	1.628281e-04	
522	-6.15000e+00	1.630110e-04	
523	-6.20000e+00	1.631963e-04	
524	-6.25000e+00	1.633845e-04	
525	-6.30000e+00	1.635759e-04	
526	-6.35000e+00	1.637710e-04	
527	-6.40000e+00	1.639705e-04	
528	-6.45000e+00	1.641747e-04	
529	-6.50000e+00	1.643844e-04	
530	-6.55000e+00	1.646002e-04	
531	-6.60000e+00	1.648228e-04	
532	0.000000e+00	0.000000e+00	
533	-5.00000e-02	7.500801e-06	
534	-1.00000e-01	1.484058e-05	
535	-1.50000e-01	2.202105e-05	
536	-2.00000e-01	2.904388e-05	
537	-2.50000e-01	3.591073e-05	
538	-3.00000e-01	4.262324e-05	
539	-3.50000e-01	4.918303e-05	
540	-4.00000e-01	5.559167e-05	
541	-4.50000e-01	6.185073e-05	
542	-5.00000e-01	6.796177e-05	
543	-5.50000e-01	7.392631e-05	
544	-6.00000e-01	7.974585e-05	
545	-6.50000e-01	8.542187e-05	
546	-7.00000e-01	9.095585e-05	
547	-7.50000e-01	9.634922e-05	
548	-8.00000e-01	1.016034e-04	
549	-8.50000e-01	1.067198e-04	
550	-9.00000e-01	1.116998e-04	
551	-9.50000e-01	1.165449e-04	
552	-1.00000e+00	1.212562e-04	
553	-1.05000e+00	1.258352e-04	
554	-1.10000e+00	1.302832e-04	
555	-1.15000e+00	1.346015e-04	
556	-1.20000e+00	1.387914e-04	
557	-1.25000e+00	1.428541e-04	
558	-1.30000e+00	1.467908e-04	
559	-1.35000e+00	1.506030e-04	
560	-1.40000e+00	1.542917e-04	
561	-1.45000e+00	1.578581e-04	
562	-1.50000e+00	1.613035e-04	
563	-1.55000e+00	1.646291e-04	
564	-1.60000e+00	1.678360e-04	
565	-1.65000e+00	1.709254e-04	
566	-1.70000e+00	1.738985e-04	
567	-1.75000e+00	1.767564e-04	
568	-1.80000e+00	1.795002e-04	
569	-1.85000e+00	1.821311e-04	
570	-1.90000e+00	1.846502e-04	
571	-1.95000e+00	1.870587e-04	
572	-2.00000e+00	1.893577e-04	
573	-2.05000e+00	1.915484e-04	
574	-2.10000e+00	1.936320e-04	
575	-2.15000e+00	1.956097e-04	
576	-2.20000e+00	1.974829e-04	

Index   v-sweep         i(vds)          
--------------------------------------------------------------------------------
577	-2.25000e+00	1.992530e-04	
578	-2.30000e+00	2.009215e-04	
579	-2.35000e+00	2.024902e-04	
580	-2.40000e+00	2.039612e-04	
581	-2.45000e+00	2.053372e-04	
582	-2.50000e+00	2.066215e-04	
583	-2.55000e+00	2.078183e-04	
584	-2.60000e+00	2.089331e-04	
585	-2.65000e+00	2.099720e-04	
586	-2.70000e+00	2.109417e-04	
587	-2.75000e+00	2.118491e-04	
588	-2.80000e+00	2.127008e-04	
589	-2.85000e+00	2.135026e-04	
590	-2.90000e+00	2.142601e-04	
591	-2.95000e+00	2.149780e-04	
592	-3.00000e+00	2.156605e-04	
593	-3.05000e+00	2.163111e-04	
594	-3.10000e+00	2.169331e-04	
595	-3.15000e+00	2.175290e-04	
596	-3.20000e+00	2.181013e-04	
597	-3.25000e+00	2.186522e-04	
598	-3.30000e+00	2.191833e-04	
599	-3.35000e+00	2.196964e-04	
600	-3.40000e+00	2.201928e-04	
601	-3.45000e+00	2.206739e-04	
602	-3.50000e+00	2.211407e-04	
603	-3.55000e+00	2.215943e-04	
604	-3.60000e+00	2.220356e-04	
605	-3.65000e+00	2.224654e-04	
606	-3.70000e+00	2.228845e-04	
607	-3.75000e+00	2.232935e-04	
608	-3.80000e+00	2.236930e-04	
609	-3.85000e+00	2.240837e-04	
610	-3.90000e+00	2.244660e-04	
611	-3.95000e+00	2.248403e-04	
612	-4.00000e+00	2.252072e-04	
613	-4.05000e+00	2.255670e-04	
614	-4.10000e+00	2.259201e-04	
615	-4.15000e+00	2.262668e-04	
616	-4.20000e+00	2.266075e-04	
617	-4.25000e+00	2.269424e-04	
618	-4.30000e+00	2.272718e-04	
619	-4.35000e+00	2.275959e-04	
620	-4.40000e+00	2.279151e-04	
621	-4.45000e+00	2.282295e-04	
622	-4.50000e+00	2.285393e-04	
623	-4.55000e+00	2.288447e-04	
624	-4.60000e+00	2.291459e-04	
625	-4.65000e+00	2.294431e-04	
626	-4.70000e+00	2.297364e-04	
627	-4.75000e+00	2.300260e-04	
628	-4.80000e+00	2.303121e-04	
629	-4.85000e+00	2.305947e-04	
630	-4.90000e+00	2.308740e-04	
631	-4.95000e+00	2.311501e-04	
632	-5.00000e+00	2.314231e-04	
633	-5.05000e+00	2.316932e-04	
634	-5.10000e+00	2.319604e-04	

Index   v-sweep         i(vds)          
--------------------------------------------------------------------------------
635	-5.15000e+00	2.322249e-04	
636	-5.20000e+00	2.324867e-04	
637	-5.25000e+00	2.327460e-04	
638	-5.30000e+00	2.330027e-04	
639	-5.35000e+00	2.332571e-04	
640	-5.40000e+00	2.335092e-04	
641	-5.45000e+00	2.337591e-04	
642	-5.50000e+00	2.340068e-04	
643	-5.55000e+00	2.342525e-04	
644	-5.60000e+00	2.344963e-04	
645	-5.65000e+00	2.347382e-04	
646	-5.70000e+00	2.349784e-04	
647	-5.75000e+00	2.352169e-04	
648	-5.80000e+00	2.354539e-04	
649	-5.85000e+00	2.356894e-04	
650	-5.90000e+00	2.359237e-04	
651	-5.95000e+00	2.361568e-04	
652	-6.00000e+00	2.363889e-04	
653	-6.05000e+00	2.366201e-04	
654	-6.10000e+00	2.368507e-04	
655	-6.15000e+00	2.370808e-04	
656	-6.20000e+00	2.373106e-04	
657	-6.25000e+00	2.375405e-04	
658	-6.30000e+00	2.377706e-04	
659	-6.35000e+00	2.380012e-04	
660	-6.40000e+00	2.382328e-04	
661	-6.45000e+00	2.384655e-04	
662	-6.50000e+00	2.386999e-04	
663	-6.55000e+00	2.389363e-04	
664	-6.60000e+00	2.391752e-04	
665	0.000000e+00	0.000000e+00	
666	-5.00000e-02	8.506504e-06	
667	-1.00000e-01	1.685912e-05	
668	-1.50000e-01	2.505935e-05	
669	-2.00000e-01	3.310864e-05	
670	-2.50000e-01	4.100846e-05	
671	-3.00000e-01	4.876023e-05	
672	-3.50000e-01	5.636537e-05	
673	-4.00000e-01	6.382526e-05	
674	-4.50000e-01	7.114129e-05	
675	-5.00000e-01	7.831482e-05	
676	-5.50000e-01	8.534720e-05	
677	-6.00000e-01	9.223973e-05	
678	-6.50000e-01	9.899375e-05	
679	-7.00000e-01	1.056105e-04	
680	-7.50000e-01	1.120914e-04	
681	-8.00000e-01	1.184375e-04	
682	-8.50000e-01	1.246502e-04	
683	-9.00000e-01	1.307307e-04	
684	-9.50000e-01	1.366802e-04	
685	-1.00000e+00	1.424998e-04	
686	-1.05000e+00	1.481909e-04	
687	-1.10000e+00	1.537545e-04	
688	-1.15000e+00	1.591919e-04	
689	-1.20000e+00	1.645041e-04	
690	-1.25000e+00	1.696923e-04	
691	-1.30000e+00	1.747576e-04	
692	-1.35000e+00	1.797012e-04	

Index   v-sweep         i(vds)          
--------------------------------------------------------------------------------
693	-1.40000e+00	1.845240e-04	
694	-1.45000e+00	1.892273e-04	
695	-1.50000e+00	1.938120e-04	
696	-1.55000e+00	1.982792e-04	
697	-1.60000e+00	2.026300e-04	
698	-1.65000e+00	2.068654e-04	
699	-1.70000e+00	2.109863e-04	
700	-1.75000e+00	2.149939e-04	
701	-1.80000e+00	2.188892e-04	
702	-1.85000e+00	2.226730e-04	
703	-1.90000e+00	2.263464e-04	
704	-1.95000e+00	2.299104e-04	
705	-2.00000e+00	2.333660e-04	
706	-2.05000e+00	2.367140e-04	
707	-2.10000e+00	2.399554e-04	
708	-2.15000e+00	2.430912e-04	
709	-2.20000e+00	2.461223e-04	
710	-2.25000e+00	2.490497e-04	
711	-2.30000e+00	2.518742e-04	
712	-2.35000e+00	2.545967e-04	
713	-2.40000e+00	2.572182e-04	
714	-2.45000e+00	2.597397e-04	
715	-2.50000e+00	2.621619e-04	
716	-2.55000e+00	2.644857e-04	
717	-2.60000e+00	2.667122e-04	
718	-2.65000e+00	2.688421e-04	
719	-2.70000e+00	2.708764e-04	
720	-2.75000e+00	2.728158e-04	
721	-2.80000e+00	2.746611e-04	
722	-2.85000e+00	2.764133e-04	
723	-2.90000e+00	2.780731e-04	
724	-2.95000e+00	2.796416e-04	
725	-3.00000e+00	2.811204e-04	
726	-3.05000e+00	2.825118e-04	
727	-3.10000e+00	2.838191e-04	
728	-3.15000e+00	2.850469e-04	
729	-3.20000e+00	2.862005e-04	
730	-3.25000e+00	2.872859e-04	
731	-3.30000e+00	2.883092e-04	
732	-3.35000e+00	2.892761e-04	
733	-3.40000e+00	2.901922e-04	
734	-3.45000e+00	2.910625e-04	
735	-3.50000e+00	2.918914e-04	
736	-3.55000e+00	2.926829e-04	
737	-3.60000e+00	2.934405e-04	
738	-3.65000e+00	2.941672e-04	
739	-3.70000e+00	2.948659e-04	
740	-3.75000e+00	2.955388e-04	
741	-3.80000e+00	2.961881e-04	
742	-3.85000e+00	2.968157e-04	
743	-3.90000e+00	2.974233e-04	
744	-3.95000e+00	2.980124e-04	
745	-4.00000e+00	2.985842e-04	
746	-4.05000e+00	2.991401e-04	
747	-4.10000e+00	2.996810e-04	
748	-4.15000e+00	3.002081e-04	
749	-4.20000e+00	3.007221e-04	
750	-4.25000e+00	3.012239e-04	

Index   v-sweep         i(vds)          
--------------------------------------------------------------------------------
751	-4.30000e+00	3.017141e-04	
752	-4.35000e+00	3.021936e-04	
753	-4.40000e+00	3.026629e-04	
754	-4.45000e+00	3.031225e-04	
755	-4.50000e+00	3.035730e-04	
756	-4.55000e+00	3.040149e-04	
757	-4.60000e+00	3.044486e-04	
758	-4.65000e+00	3.048746e-04	
759	-4.70000e+00	3.052931e-04	
760	-4.75000e+00	3.057046e-04	
761	-4.80000e+00	3.061094e-04	
762	-4.85000e+00	3.065077e-04	
763	-4.90000e+00	3.069000e-04	
764	-4.95000e+00	3.072864e-04	
765	-5.00000e+00	3.076672e-04	
766	-5.05000e+00	3.080427e-04	
767	-5.10000e+00	3.084130e-04	
768	-5.15000e+00	3.087784e-04	
769	-5.20000e+00	3.091390e-04	
770	-5.25000e+00	3.094951e-04	
771	-5.30000e+00	3.098468e-04	
772	-5.35000e+00	3.101943e-04	
773	-5.40000e+00	3.105377e-04	
774	-5.45000e+00	3.108773e-04	
775	-5.50000e+00	3.112131e-04	
776	-5.55000e+00	3.115452e-04	
777	-5.60000e+00	3.118738e-04	
778	-5.65000e+00	3.121991e-04	
779	-5.70000e+00	3.125211e-04	
780	-5.75000e+00	3.128399e-04	
781	-5.80000e+00	3.131557e-04	
782	-5.85000e+00	3.134686e-04	
783	-5.90000e+00	3.137787e-04	
784	-5.95000e+00	3.140860e-04	
785	-6.00000e+00	3.143908e-04	
786	-6.05000e+00	3.146931e-04	
787	-6.10000e+00	3.149930e-04	
788	-6.15000e+00	3.152907e-04	
789	-6.20000e+00	3.155862e-04	
790	-6.25000e+00	3.158798e-04	
791	-6.30000e+00	3.161715e-04	
792	-6.35000e+00	3.164615e-04	
793	-6.40000e+00	3.167500e-04	
794	-6.45000e+00	3.170372e-04	
795	-6.50000e+00	3.173232e-04	
796	-6.55000e+00	3.176083e-04	
797	-6.60000e+00	3.178927e-04	
Note: No ".plot", ".print", or ".fourier" lines; no simulations run
