
Note: Compatibility modes selected: hs

Warning: m=xx on .subckt line will override multiplier m hierarchy!


Circuit: ***************************

Doing analysis at TEMP = 25.000000 and TNOM = 25.000000


No. of Data Rows : 798
                          ***************************
                          DC transfer characteristic  Mon Jan  9 13:57:53  2023
--------------------------------------------------------------------------------
Index   v-sweep         i(vds)          
--------------------------------------------------------------------------------
0	0.000000e+00	0.000000e+00	
1	-5.00000e-02	3.652496e-09	
2	-1.00000e-01	5.429591e-09	
3	-1.50000e-01	5.957712e-09	
4	-2.00000e-01	6.076927e-09	
5	-2.50000e-01	6.113225e-09	
6	-3.00000e-01	6.129496e-09	
7	-3.50000e-01	6.139109e-09	
8	-4.00000e-01	6.145907e-09	
9	-4.50000e-01	6.151288e-09	
10	-5.00000e-01	6.155861e-09	
11	-5.50000e-01	6.159927e-09	
12	-6.00000e-01	6.163647e-09	
13	-6.50000e-01	6.167120e-09	
14	-7.00000e-01	6.170406e-09	
15	-7.50000e-01	6.173546e-09	
16	-8.00000e-01	6.176567e-09	
17	-8.50000e-01	6.179491e-09	
18	-9.00000e-01	6.182331e-09	
19	-9.50000e-01	6.185101e-09	
20	-1.00000e+00	6.187809e-09	
21	-1.05000e+00	6.190462e-09	
22	-1.10000e+00	6.193067e-09	
23	-1.15000e+00	6.195629e-09	
24	-1.20000e+00	6.198151e-09	
25	-1.25000e+00	6.200638e-09	
26	-1.30000e+00	6.203091e-09	
27	-1.35000e+00	6.205515e-09	
28	-1.40000e+00	6.207911e-09	
29	-1.45000e+00	6.210281e-09	
30	-1.50000e+00	6.212628e-09	
31	-1.55000e+00	6.214952e-09	
32	-1.60000e+00	6.217255e-09	
33	-1.65000e+00	6.219539e-09	
34	-1.70000e+00	6.221804e-09	
35	-1.75000e+00	6.224053e-09	
36	-1.80000e+00	6.226285e-09	
37	-1.85000e+00	6.228501e-09	
38	-1.90000e+00	6.230703e-09	
39	-1.95000e+00	6.232891e-09	
40	-2.00000e+00	6.235066e-09	
41	-2.05000e+00	6.237228e-09	
42	-2.10000e+00	6.239379e-09	
43	-2.15000e+00	6.241518e-09	
44	-2.20000e+00	6.243646e-09	
45	-2.25000e+00	6.245764e-09	
46	-2.30000e+00	6.247872e-09	
47	-2.35000e+00	6.249971e-09	
48	-2.40000e+00	6.252061e-09	
49	-2.45000e+00	6.254141e-09	
50	-2.50000e+00	6.256214e-09	
51	-2.55000e+00	6.258278e-09	
52	-2.60000e+00	6.260335e-09	
53	-2.65000e+00	6.262384e-09	
54	-2.70000e+00	6.264426e-09	

Index   v-sweep         i(vds)          
--------------------------------------------------------------------------------
55	-2.75000e+00	6.266462e-09	
56	-2.80000e+00	6.268491e-09	
57	-2.85000e+00	6.270515e-09	
58	-2.90000e+00	6.272532e-09	
59	-2.95000e+00	6.274545e-09	
60	-3.00000e+00	6.276553e-09	
61	-3.05000e+00	6.278556e-09	
62	-3.10000e+00	6.280556e-09	
63	-3.15000e+00	6.282554e-09	
64	-3.20000e+00	6.284549e-09	
65	-3.25000e+00	6.286543e-09	
66	-3.30000e+00	6.288537e-09	
67	-3.35000e+00	6.290533e-09	
68	-3.40000e+00	6.292531e-09	
69	-3.45000e+00	6.294534e-09	
70	-3.50000e+00	6.296544e-09	
71	-3.55000e+00	6.298562e-09	
72	-3.60000e+00	6.300593e-09	
73	-3.65000e+00	6.302638e-09	
74	-3.70000e+00	6.304701e-09	
75	-3.75000e+00	6.306786e-09	
76	-3.80000e+00	6.308898e-09	
77	-3.85000e+00	6.311042e-09	
78	-3.90000e+00	6.313224e-09	
79	-3.95000e+00	6.315449e-09	
80	-4.00000e+00	6.317726e-09	
81	-4.05000e+00	6.320062e-09	
82	-4.10000e+00	6.322465e-09	
83	-4.15000e+00	6.324947e-09	
84	-4.20000e+00	6.327516e-09	
85	-4.25000e+00	6.330186e-09	
86	-4.30000e+00	6.332969e-09	
87	-4.35000e+00	6.335879e-09	
88	-4.40000e+00	6.338931e-09	
89	-4.45000e+00	6.342141e-09	
90	-4.50000e+00	6.345529e-09	
91	-4.55000e+00	6.349112e-09	
92	-4.60000e+00	6.352913e-09	
93	-4.65000e+00	6.356952e-09	
94	-4.70000e+00	6.361254e-09	
95	-4.75000e+00	6.365845e-09	
96	-4.80000e+00	6.370752e-09	
97	-4.85000e+00	6.376004e-09	
98	-4.90000e+00	6.381631e-09	
99	-4.95000e+00	6.387668e-09	
100	-5.00000e+00	6.394147e-09	
101	-5.05000e+00	6.401106e-09	
102	-5.10000e+00	6.408584e-09	
103	-5.15000e+00	6.416621e-09	
104	-5.20000e+00	6.425261e-09	
105	-5.25000e+00	6.434547e-09	
106	-5.30000e+00	6.444528e-09	
107	-5.35000e+00	6.455251e-09	
108	-5.40000e+00	6.466771e-09	
109	-5.45000e+00	6.479138e-09	
110	-5.50000e+00	6.492411e-09	
111	-5.55000e+00	6.506647e-09	
112	-5.60000e+00	6.521908e-09	

Index   v-sweep         i(vds)          
--------------------------------------------------------------------------------
113	-5.65000e+00	6.538255e-09	
114	-5.70000e+00	6.555755e-09	
115	-5.75000e+00	6.574475e-09	
116	-5.80000e+00	6.594486e-09	
117	-5.85000e+00	6.615860e-09	
118	-5.90000e+00	6.638671e-09	
119	-5.95000e+00	6.662998e-09	
120	-6.00000e+00	6.688919e-09	
121	-6.05000e+00	6.716517e-09	
122	-6.10000e+00	6.745877e-09	
123	-6.15000e+00	6.777084e-09	
124	-6.20000e+00	6.810227e-09	
125	-6.25000e+00	6.845399e-09	
126	-6.30000e+00	6.882693e-09	
127	-6.35000e+00	6.922204e-09	
128	-6.40000e+00	6.964032e-09	
129	-6.45000e+00	7.008275e-09	
130	-6.50000e+00	7.055037e-09	
131	-6.55000e+00	7.104422e-09	
132	-6.60000e+00	7.156538e-09	
133	0.000000e+00	0.000000e+00	
134	-5.00000e-02	4.001294e-08	
135	-1.00000e-01	7.741754e-08	
136	-1.50000e-01	1.122154e-07	
137	-2.00000e-01	1.444084e-07	
138	-2.50000e-01	1.739985e-07	
139	-3.00000e-01	2.009884e-07	
140	-3.50000e-01	2.253815e-07	
141	-4.00000e-01	2.471822e-07	
142	-4.50000e-01	2.663974e-07	
143	-5.00000e-01	2.830379e-07	
144	-5.50000e-01	2.971218e-07	
145	-6.00000e-01	3.086825e-07	
146	-6.50000e-01	3.177834e-07	
147	-7.00000e-01	3.245499e-07	
148	-7.50000e-01	3.292194e-07	
149	-8.00000e-01	3.321866e-07	
150	-8.50000e-01	3.339608e-07	
151	-9.00000e-01	3.350180e-07	
152	-9.50000e-01	3.356855e-07	
153	-1.00000e+00	3.361469e-07	
154	-1.05000e+00	3.364956e-07	
155	-1.10000e+00	3.367791e-07	
156	-1.15000e+00	3.370224e-07	
157	-1.20000e+00	3.372393e-07	
158	-1.25000e+00	3.374378e-07	
159	-1.30000e+00	3.376229e-07	
160	-1.35000e+00	3.377978e-07	
161	-1.40000e+00	3.379647e-07	
162	-1.45000e+00	3.381252e-07	
163	-1.50000e+00	3.382803e-07	
164	-1.55000e+00	3.384309e-07	
165	-1.60000e+00	3.385776e-07	
166	-1.65000e+00	3.387209e-07	
167	-1.70000e+00	3.388612e-07	
168	-1.75000e+00	3.389990e-07	
169	-1.80000e+00	3.391343e-07	
170	-1.85000e+00	3.392675e-07	

Index   v-sweep         i(vds)          
--------------------------------------------------------------------------------
171	-1.90000e+00	3.393988e-07	
172	-1.95000e+00	3.395282e-07	
173	-2.00000e+00	3.396561e-07	
174	-2.05000e+00	3.397824e-07	
175	-2.10000e+00	3.399074e-07	
176	-2.15000e+00	3.400310e-07	
177	-2.20000e+00	3.401534e-07	
178	-2.25000e+00	3.402747e-07	
179	-2.30000e+00	3.403950e-07	
180	-2.35000e+00	3.405142e-07	
181	-2.40000e+00	3.406326e-07	
182	-2.45000e+00	3.407500e-07	
183	-2.50000e+00	3.408666e-07	
184	-2.55000e+00	3.409824e-07	
185	-2.60000e+00	3.410974e-07	
186	-2.65000e+00	3.412118e-07	
187	-2.70000e+00	3.413254e-07	
188	-2.75000e+00	3.414385e-07	
189	-2.80000e+00	3.415509e-07	
190	-2.85000e+00	3.416627e-07	
191	-2.90000e+00	3.417739e-07	
192	-2.95000e+00	3.418846e-07	
193	-3.00000e+00	3.419948e-07	
194	-3.05000e+00	3.421045e-07	
195	-3.10000e+00	3.422138e-07	
196	-3.15000e+00	3.423226e-07	
197	-3.20000e+00	3.424309e-07	
198	-3.25000e+00	3.425388e-07	
199	-3.30000e+00	3.426464e-07	
200	-3.35000e+00	3.427535e-07	
201	-3.40000e+00	3.428603e-07	
202	-3.45000e+00	3.429667e-07	
203	-3.50000e+00	3.430728e-07	
204	-3.55000e+00	3.431786e-07	
205	-3.60000e+00	3.432841e-07	
206	-3.65000e+00	3.433894e-07	
207	-3.70000e+00	3.434944e-07	
208	-3.75000e+00	3.435992e-07	
209	-3.80000e+00	3.437038e-07	
210	-3.85000e+00	3.438083e-07	
211	-3.90000e+00	3.439128e-07	
212	-3.95000e+00	3.440172e-07	
213	-4.00000e+00	3.441216e-07	
214	-4.05000e+00	3.442262e-07	
215	-4.10000e+00	3.443309e-07	
216	-4.15000e+00	3.444360e-07	
217	-4.20000e+00	3.445415e-07	
218	-4.25000e+00	3.446475e-07	
219	-4.30000e+00	3.447543e-07	
220	-4.35000e+00	3.448619e-07	
221	-4.40000e+00	3.449707e-07	
222	-4.45000e+00	3.450808e-07	
223	-4.50000e+00	3.451925e-07	
224	-4.55000e+00	3.453060e-07	
225	-4.60000e+00	3.454218e-07	
226	-4.65000e+00	3.455402e-07	
227	-4.70000e+00	3.456615e-07	
228	-4.75000e+00	3.457864e-07	

Index   v-sweep         i(vds)          
--------------------------------------------------------------------------------
229	-4.80000e+00	3.459151e-07	
230	-4.85000e+00	3.460484e-07	
231	-4.90000e+00	3.461868e-07	
232	-4.95000e+00	3.463310e-07	
233	-5.00000e+00	3.464817e-07	
234	-5.05000e+00	3.466397e-07	
235	-5.10000e+00	3.468060e-07	
236	-5.15000e+00	3.469813e-07	
237	-5.20000e+00	3.471668e-07	
238	-5.25000e+00	3.473635e-07	
239	-5.30000e+00	3.475726e-07	
240	-5.35000e+00	3.477954e-07	
241	-5.40000e+00	3.480332e-07	
242	-5.45000e+00	3.482874e-07	
243	-5.50000e+00	3.485596e-07	
244	-5.55000e+00	3.488515e-07	
245	-5.60000e+00	3.491647e-07	
246	-5.65000e+00	3.495011e-07	
247	-5.70000e+00	3.498626e-07	
248	-5.75000e+00	3.502514e-07	
249	-5.80000e+00	3.506695e-07	
250	-5.85000e+00	3.511192e-07	
251	-5.90000e+00	3.516029e-07	
252	-5.95000e+00	3.521232e-07	
253	-6.00000e+00	3.526827e-07	
254	-6.05000e+00	3.532841e-07	
255	-6.10000e+00	3.539303e-07	
256	-6.15000e+00	3.546243e-07	
257	-6.20000e+00	3.553692e-07	
258	-6.25000e+00	3.561682e-07	
259	-6.30000e+00	3.570249e-07	
260	-6.35000e+00	3.579425e-07	
261	-6.40000e+00	3.589249e-07	
262	-6.45000e+00	3.599757e-07	
263	-6.50000e+00	3.610989e-07	
264	-6.55000e+00	3.622984e-07	
265	-6.60000e+00	3.635785e-07	
266	0.000000e+00	0.000000e+00	
267	-5.00000e-02	7.331564e-08	
268	-1.00000e-01	1.441314e-07	
269	-1.50000e-01	2.124482e-07	
270	-2.00000e-01	2.782673e-07	
271	-2.50000e-01	3.415895e-07	
272	-3.00000e-01	4.024161e-07	
273	-3.50000e-01	4.607481e-07	
274	-4.00000e-01	5.165866e-07	
275	-4.50000e-01	5.699329e-07	
276	-5.00000e-01	6.207881e-07	
277	-5.50000e-01	6.691534e-07	
278	-6.00000e-01	7.150304e-07	
279	-6.50000e-01	7.584204e-07	
280	-7.00000e-01	7.993250e-07	
281	-7.50000e-01	8.377461e-07	
282	-8.00000e-01	8.736859e-07	
283	-8.50000e-01	9.071467e-07	
284	-9.00000e-01	9.381317e-07	
285	-9.50000e-01	9.666447e-07	
286	-1.00000e+00	9.926911e-07	

Index   v-sweep         i(vds)          
--------------------------------------------------------------------------------
287	-1.05000e+00	1.016278e-06	
288	-1.10000e+00	1.037415e-06	
289	-1.15000e+00	1.056118e-06	
290	-1.20000e+00	1.072410e-06	
291	-1.25000e+00	1.086328e-06	
292	-1.30000e+00	1.097932e-06	
293	-1.35000e+00	1.107320e-06	
294	-1.40000e+00	1.114649e-06	
295	-1.45000e+00	1.120154e-06	
296	-1.50000e+00	1.124152e-06	
297	-1.55000e+00	1.127007e-06	
298	-1.60000e+00	1.129062e-06	
299	-1.65000e+00	1.130593e-06	
300	-1.70000e+00	1.131789e-06	
301	-1.75000e+00	1.132771e-06	
302	-1.80000e+00	1.133613e-06	
303	-1.85000e+00	1.134361e-06	
304	-1.90000e+00	1.135042e-06	
305	-1.95000e+00	1.135674e-06	
306	-2.00000e+00	1.136269e-06	
307	-2.05000e+00	1.136836e-06	
308	-2.10000e+00	1.137379e-06	
309	-2.15000e+00	1.137904e-06	
310	-2.20000e+00	1.138412e-06	
311	-2.25000e+00	1.138907e-06	
312	-2.30000e+00	1.139390e-06	
313	-2.35000e+00	1.139863e-06	
314	-2.40000e+00	1.140326e-06	
315	-2.45000e+00	1.140782e-06	
316	-2.50000e+00	1.141230e-06	
317	-2.55000e+00	1.141671e-06	
318	-2.60000e+00	1.142106e-06	
319	-2.65000e+00	1.142536e-06	
320	-2.70000e+00	1.142961e-06	
321	-2.75000e+00	1.143380e-06	
322	-2.80000e+00	1.143796e-06	
323	-2.85000e+00	1.144207e-06	
324	-2.90000e+00	1.144614e-06	
325	-2.95000e+00	1.145018e-06	
326	-3.00000e+00	1.145418e-06	
327	-3.05000e+00	1.145815e-06	
328	-3.10000e+00	1.146210e-06	
329	-3.15000e+00	1.146601e-06	
330	-3.20000e+00	1.146990e-06	
331	-3.25000e+00	1.147376e-06	
332	-3.30000e+00	1.147759e-06	
333	-3.35000e+00	1.148141e-06	
334	-3.40000e+00	1.148520e-06	
335	-3.45000e+00	1.148897e-06	
336	-3.50000e+00	1.149273e-06	
337	-3.55000e+00	1.149646e-06	
338	-3.60000e+00	1.150017e-06	
339	-3.65000e+00	1.150387e-06	
340	-3.70000e+00	1.150755e-06	
341	-3.75000e+00	1.151122e-06	
342	-3.80000e+00	1.151487e-06	
343	-3.85000e+00	1.151850e-06	
344	-3.90000e+00	1.152212e-06	

Index   v-sweep         i(vds)          
--------------------------------------------------------------------------------
345	-3.95000e+00	1.152573e-06	
346	-4.00000e+00	1.152932e-06	
347	-4.05000e+00	1.153290e-06	
348	-4.10000e+00	1.153647e-06	
349	-4.15000e+00	1.154003e-06	
350	-4.20000e+00	1.154358e-06	
351	-4.25000e+00	1.154712e-06	
352	-4.30000e+00	1.155065e-06	
353	-4.35000e+00	1.155417e-06	
354	-4.40000e+00	1.155768e-06	
355	-4.45000e+00	1.156119e-06	
356	-4.50000e+00	1.156469e-06	
357	-4.55000e+00	1.156819e-06	
358	-4.60000e+00	1.157168e-06	
359	-4.65000e+00	1.157517e-06	
360	-4.70000e+00	1.157867e-06	
361	-4.75000e+00	1.158217e-06	
362	-4.80000e+00	1.158568e-06	
363	-4.85000e+00	1.158920e-06	
364	-4.90000e+00	1.159273e-06	
365	-4.95000e+00	1.159628e-06	
366	-5.00000e+00	1.159986e-06	
367	-5.05000e+00	1.160347e-06	
368	-5.10000e+00	1.160712e-06	
369	-5.15000e+00	1.161081e-06	
370	-5.20000e+00	1.161455e-06	
371	-5.25000e+00	1.161836e-06	
372	-5.30000e+00	1.162225e-06	
373	-5.35000e+00	1.162622e-06	
374	-5.40000e+00	1.163030e-06	
375	-5.45000e+00	1.163449e-06	
376	-5.50000e+00	1.163882e-06	
377	-5.55000e+00	1.164330e-06	
378	-5.60000e+00	1.164796e-06	
379	-5.65000e+00	1.165281e-06	
380	-5.70000e+00	1.165789e-06	
381	-5.75000e+00	1.166321e-06	
382	-5.80000e+00	1.166881e-06	
383	-5.85000e+00	1.167472e-06	
384	-5.90000e+00	1.168097e-06	
385	-5.95000e+00	1.168760e-06	
386	-6.00000e+00	1.169466e-06	
387	-6.05000e+00	1.170217e-06	
388	-6.10000e+00	1.171020e-06	
389	-6.15000e+00	1.171878e-06	
390	-6.20000e+00	1.172797e-06	
391	-6.25000e+00	1.173783e-06	
392	-6.30000e+00	1.174841e-06	
393	-6.35000e+00	1.175977e-06	
394	-6.40000e+00	1.177198e-06	
395	-6.45000e+00	1.178511e-06	
396	-6.50000e+00	1.179924e-06	
397	-6.55000e+00	1.181443e-06	
398	-6.60000e+00	1.183078e-06	
399	0.000000e+00	0.000000e+00	
400	-5.00000e-02	1.033993e-07	
401	-1.00000e-01	2.044271e-07	
402	-1.50000e-01	3.030842e-07	

Index   v-sweep         i(vds)          
--------------------------------------------------------------------------------
403	-2.00000e-01	3.993715e-07	
404	-2.50000e-01	4.932898e-07	
405	-3.00000e-01	5.848401e-07	
406	-3.50000e-01	6.740232e-07	
407	-4.00000e-01	7.608400e-07	
408	-4.50000e-01	8.452913e-07	
409	-5.00000e-01	9.273781e-07	
410	-5.50000e-01	1.007101e-06	
411	-6.00000e-01	1.084462e-06	
412	-6.50000e-01	1.159460e-06	
413	-7.00000e-01	1.232098e-06	
414	-7.50000e-01	1.302376e-06	
415	-8.00000e-01	1.370295e-06	
416	-8.50000e-01	1.435856e-06	
417	-9.00000e-01	1.499060e-06	
418	-9.50000e-01	1.559907e-06	
419	-1.00000e+00	1.618400e-06	
420	-1.05000e+00	1.674540e-06	
421	-1.10000e+00	1.728326e-06	
422	-1.15000e+00	1.779762e-06	
423	-1.20000e+00	1.828847e-06	
424	-1.25000e+00	1.875584e-06	
425	-1.30000e+00	1.919974e-06	
426	-1.35000e+00	1.962018e-06	
427	-1.40000e+00	2.001720e-06	
428	-1.45000e+00	2.039081e-06	
429	-1.50000e+00	2.074104e-06	
430	-1.55000e+00	2.106794e-06	
431	-1.60000e+00	2.137153e-06	
432	-1.65000e+00	2.165189e-06	
433	-1.70000e+00	2.190908e-06	
434	-1.75000e+00	2.214323e-06	
435	-1.80000e+00	2.235446e-06	
436	-1.85000e+00	2.254299e-06	
437	-1.90000e+00	2.270913e-06	
438	-1.95000e+00	2.285334e-06	
439	-2.00000e+00	2.297628e-06	
440	-2.05000e+00	2.307897e-06	
441	-2.10000e+00	2.316284e-06	
442	-2.15000e+00	2.322988e-06	
443	-2.20000e+00	2.328258e-06	
444	-2.25000e+00	2.332372e-06	
445	-2.30000e+00	2.335609e-06	
446	-2.35000e+00	2.338209e-06	
447	-2.40000e+00	2.340361e-06	
448	-2.45000e+00	2.342201e-06	
449	-2.50000e+00	2.343821e-06	
450	-2.55000e+00	2.345285e-06	
451	-2.60000e+00	2.346635e-06	
452	-2.65000e+00	2.347897e-06	
453	-2.70000e+00	2.349093e-06	
454	-2.75000e+00	2.350236e-06	
455	-2.80000e+00	2.351335e-06	
456	-2.85000e+00	2.352398e-06	
457	-2.90000e+00	2.353431e-06	
458	-2.95000e+00	2.354437e-06	
459	-3.00000e+00	2.355421e-06	
460	-3.05000e+00	2.356385e-06	

Index   v-sweep         i(vds)          
--------------------------------------------------------------------------------
461	-3.10000e+00	2.357331e-06	
462	-3.15000e+00	2.358261e-06	
463	-3.20000e+00	2.359177e-06	
464	-3.25000e+00	2.360079e-06	
465	-3.30000e+00	2.360970e-06	
466	-3.35000e+00	2.361849e-06	
467	-3.40000e+00	2.362719e-06	
468	-3.45000e+00	2.363579e-06	
469	-3.50000e+00	2.364430e-06	
470	-3.55000e+00	2.365273e-06	
471	-3.60000e+00	2.366109e-06	
472	-3.65000e+00	2.366937e-06	
473	-3.70000e+00	2.367759e-06	
474	-3.75000e+00	2.368574e-06	
475	-3.80000e+00	2.369383e-06	
476	-3.85000e+00	2.370187e-06	
477	-3.90000e+00	2.370985e-06	
478	-3.95000e+00	2.371779e-06	
479	-4.00000e+00	2.372567e-06	
480	-4.05000e+00	2.373351e-06	
481	-4.10000e+00	2.374131e-06	
482	-4.15000e+00	2.374906e-06	
483	-4.20000e+00	2.375677e-06	
484	-4.25000e+00	2.376445e-06	
485	-4.30000e+00	2.377209e-06	
486	-4.35000e+00	2.377970e-06	
487	-4.40000e+00	2.378727e-06	
488	-4.45000e+00	2.379481e-06	
489	-4.50000e+00	2.380231e-06	
490	-4.55000e+00	2.380979e-06	
491	-4.60000e+00	2.381724e-06	
492	-4.65000e+00	2.382467e-06	
493	-4.70000e+00	2.383207e-06	
494	-4.75000e+00	2.383944e-06	
495	-4.80000e+00	2.384679e-06	
496	-4.85000e+00	2.385411e-06	
497	-4.90000e+00	2.386142e-06	
498	-4.95000e+00	2.386870e-06	
499	-5.00000e+00	2.387597e-06	
500	-5.05000e+00	2.388322e-06	
501	-5.10000e+00	2.389045e-06	
502	-5.15000e+00	2.389767e-06	
503	-5.20000e+00	2.390488e-06	
504	-5.25000e+00	2.391208e-06	
505	-5.30000e+00	2.391928e-06	
506	-5.35000e+00	2.392647e-06	
507	-5.40000e+00	2.393367e-06	
508	-5.45000e+00	2.394088e-06	
509	-5.50000e+00	2.394810e-06	
510	-5.55000e+00	2.395534e-06	
511	-5.60000e+00	2.396261e-06	
512	-5.65000e+00	2.396992e-06	
513	-5.70000e+00	2.397728e-06	
514	-5.75000e+00	2.398471e-06	
515	-5.80000e+00	2.399220e-06	
516	-5.85000e+00	2.399979e-06	
517	-5.90000e+00	2.400749e-06	
518	-5.95000e+00	2.401531e-06	

Index   v-sweep         i(vds)          
--------------------------------------------------------------------------------
519	-6.00000e+00	2.402329e-06	
520	-6.05000e+00	2.403145e-06	
521	-6.10000e+00	2.403981e-06	
522	-6.15000e+00	2.404840e-06	
523	-6.20000e+00	2.405727e-06	
524	-6.25000e+00	2.406645e-06	
525	-6.30000e+00	2.407598e-06	
526	-6.35000e+00	2.408590e-06	
527	-6.40000e+00	2.409628e-06	
528	-6.45000e+00	2.410715e-06	
529	-6.50000e+00	2.411859e-06	
530	-6.55000e+00	2.413065e-06	
531	-6.60000e+00	2.414341e-06	
532	0.000000e+00	0.000000e+00	
533	-5.00000e-02	1.307973e-07	
534	-1.00000e-01	2.593464e-07	
535	-1.50000e-01	3.856481e-07	
536	-2.00000e-01	5.097031e-07	
537	-2.50000e-01	6.315121e-07	
538	-3.00000e-01	7.510760e-07	
539	-3.50000e-01	8.683955e-07	
540	-4.00000e-01	9.834714e-07	
541	-4.50000e-01	1.096304e-06	
542	-5.00000e-01	1.206895e-06	
543	-5.50000e-01	1.315245e-06	
544	-6.00000e-01	1.421354e-06	
545	-6.50000e-01	1.525223e-06	
546	-7.00000e-01	1.626853e-06	
547	-7.50000e-01	1.726244e-06	
548	-8.00000e-01	1.823398e-06	
549	-8.50000e-01	1.918316e-06	
550	-9.00000e-01	2.010997e-06	
551	-9.50000e-01	2.101444e-06	
552	-1.00000e+00	2.189656e-06	
553	-1.05000e+00	2.275634e-06	
554	-1.10000e+00	2.359380e-06	
555	-1.15000e+00	2.440894e-06	
556	-1.20000e+00	2.520176e-06	
557	-1.25000e+00	2.597228e-06	
558	-1.30000e+00	2.672051e-06	
559	-1.35000e+00	2.744646e-06	
560	-1.40000e+00	2.815012e-06	
561	-1.45000e+00	2.883152e-06	
562	-1.50000e+00	2.949066e-06	
563	-1.55000e+00	3.012755e-06	
564	-1.60000e+00	3.074221e-06	
565	-1.65000e+00	3.133463e-06	
566	-1.70000e+00	3.190484e-06	
567	-1.75000e+00	3.245284e-06	
568	-1.80000e+00	3.297866e-06	
569	-1.85000e+00	3.348229e-06	
570	-1.90000e+00	3.396375e-06	
571	-1.95000e+00	3.442307e-06	
572	-2.00000e+00	3.486026e-06	
573	-2.05000e+00	3.527535e-06	
574	-2.10000e+00	3.566835e-06	
575	-2.15000e+00	3.603930e-06	
576	-2.20000e+00	3.638823e-06	

Index   v-sweep         i(vds)          
--------------------------------------------------------------------------------
577	-2.25000e+00	3.671519e-06	
578	-2.30000e+00	3.702023e-06	
579	-2.35000e+00	3.730343e-06	
580	-2.40000e+00	3.756487e-06	
581	-2.45000e+00	3.780469e-06	
582	-2.50000e+00	3.802303e-06	
583	-2.55000e+00	3.822014e-06	
584	-2.60000e+00	3.839633e-06	
585	-2.65000e+00	3.855205e-06	
586	-2.70000e+00	3.868792e-06	
587	-2.75000e+00	3.880483e-06	
588	-2.80000e+00	3.890395e-06	
589	-2.85000e+00	3.898687e-06	
590	-2.90000e+00	3.905551e-06	
591	-2.95000e+00	3.911210e-06	
592	-3.00000e+00	3.915894e-06	
593	-3.05000e+00	3.919821e-06	
594	-3.10000e+00	3.923176e-06	
595	-3.15000e+00	3.926107e-06	
596	-3.20000e+00	3.928727e-06	
597	-3.25000e+00	3.931115e-06	
598	-3.30000e+00	3.933328e-06	
599	-3.35000e+00	3.935407e-06	
600	-3.40000e+00	3.937380e-06	
601	-3.45000e+00	3.939269e-06	
602	-3.50000e+00	3.941089e-06	
603	-3.55000e+00	3.942851e-06	
604	-3.60000e+00	3.944564e-06	
605	-3.65000e+00	3.946235e-06	
606	-3.70000e+00	3.947869e-06	
607	-3.75000e+00	3.949471e-06	
608	-3.80000e+00	3.951044e-06	
609	-3.85000e+00	3.952591e-06	
610	-3.90000e+00	3.954115e-06	
611	-3.95000e+00	3.955618e-06	
612	-4.00000e+00	3.957101e-06	
613	-4.05000e+00	3.958566e-06	
614	-4.10000e+00	3.960015e-06	
615	-4.15000e+00	3.961448e-06	
616	-4.20000e+00	3.962868e-06	
617	-4.25000e+00	3.964273e-06	
618	-4.30000e+00	3.965667e-06	
619	-4.35000e+00	3.967049e-06	
620	-4.40000e+00	3.968419e-06	
621	-4.45000e+00	3.969780e-06	
622	-4.50000e+00	3.971130e-06	
623	-4.55000e+00	3.972472e-06	
624	-4.60000e+00	3.973805e-06	
625	-4.65000e+00	3.975129e-06	
626	-4.70000e+00	3.976446e-06	
627	-4.75000e+00	3.977755e-06	
628	-4.80000e+00	3.979056e-06	
629	-4.85000e+00	3.980351e-06	
630	-4.90000e+00	3.981640e-06	
631	-4.95000e+00	3.982922e-06	
632	-5.00000e+00	3.984198e-06	
633	-5.05000e+00	3.985469e-06	
634	-5.10000e+00	3.986734e-06	

Index   v-sweep         i(vds)          
--------------------------------------------------------------------------------
635	-5.15000e+00	3.987994e-06	
636	-5.20000e+00	3.989248e-06	
637	-5.25000e+00	3.990498e-06	
638	-5.30000e+00	3.991743e-06	
639	-5.35000e+00	3.992984e-06	
640	-5.40000e+00	3.994220e-06	
641	-5.45000e+00	3.995453e-06	
642	-5.50000e+00	3.996681e-06	
643	-5.55000e+00	3.997906e-06	
644	-5.60000e+00	3.999127e-06	
645	-5.65000e+00	4.000344e-06	
646	-5.70000e+00	4.001559e-06	
647	-5.75000e+00	4.002770e-06	
648	-5.80000e+00	4.003979e-06	
649	-5.85000e+00	4.005186e-06	
650	-5.90000e+00	4.006391e-06	
651	-5.95000e+00	4.007594e-06	
652	-6.00000e+00	4.008796e-06	
653	-6.05000e+00	4.009998e-06	
654	-6.10000e+00	4.011200e-06	
655	-6.15000e+00	4.012404e-06	
656	-6.20000e+00	4.013609e-06	
657	-6.25000e+00	4.014817e-06	
658	-6.30000e+00	4.016029e-06	
659	-6.35000e+00	4.017248e-06	
660	-6.40000e+00	4.018473e-06	
661	-6.45000e+00	4.019708e-06	
662	-6.50000e+00	4.020955e-06	
663	-6.55000e+00	4.022215e-06	
664	-6.60000e+00	4.023493e-06	
665	0.000000e+00	0.000000e+00	
666	-5.00000e-02	1.559314e-07	
667	-1.00000e-01	3.097293e-07	
668	-1.50000e-01	4.613943e-07	
669	-2.00000e-01	6.109271e-07	
670	-2.50000e-01	7.583283e-07	
671	-3.00000e-01	9.035988e-07	
672	-3.50000e-01	1.046739e-06	
673	-4.00000e-01	1.187750e-06	
674	-4.50000e-01	1.326632e-06	
675	-5.00000e-01	1.463385e-06	
676	-5.50000e-01	1.598012e-06	
677	-6.00000e-01	1.730511e-06	
678	-6.50000e-01	1.860884e-06	
679	-7.00000e-01	1.989132e-06	
680	-7.50000e-01	2.115255e-06	
681	-8.00000e-01	2.239254e-06	
682	-8.50000e-01	2.361129e-06	
683	-9.00000e-01	2.480881e-06	
684	-9.50000e-01	2.598512e-06	
685	-1.00000e+00	2.714021e-06	
686	-1.05000e+00	2.827409e-06	
687	-1.10000e+00	2.938677e-06	
688	-1.15000e+00	3.047826e-06	
689	-1.20000e+00	3.154856e-06	
690	-1.25000e+00	3.259768e-06	
691	-1.30000e+00	3.362563e-06	
692	-1.35000e+00	3.463241e-06	

Index   v-sweep         i(vds)          
--------------------------------------------------------------------------------
693	-1.40000e+00	3.561804e-06	
694	-1.45000e+00	3.658251e-06	
695	-1.50000e+00	3.752584e-06	
696	-1.55000e+00	3.844802e-06	
697	-1.60000e+00	3.934908e-06	
698	-1.65000e+00	4.022902e-06	
699	-1.70000e+00	4.108784e-06	
700	-1.75000e+00	4.192555e-06	
701	-1.80000e+00	4.274216e-06	
702	-1.85000e+00	4.353767e-06	
703	-1.90000e+00	4.431210e-06	
704	-1.95000e+00	4.506546e-06	
705	-2.00000e+00	4.579774e-06	
706	-2.05000e+00	4.650896e-06	
707	-2.10000e+00	4.719914e-06	
708	-2.15000e+00	4.786826e-06	
709	-2.20000e+00	4.851636e-06	
710	-2.25000e+00	4.914343e-06	
711	-2.30000e+00	4.974948e-06	
712	-2.35000e+00	5.033453e-06	
713	-2.40000e+00	5.089859e-06	
714	-2.45000e+00	5.144167e-06	
715	-2.50000e+00	5.196378e-06	
716	-2.55000e+00	5.246495e-06	
717	-2.60000e+00	5.294517e-06	
718	-2.65000e+00	5.340448e-06	
719	-2.70000e+00	5.384290e-06	
720	-2.75000e+00	5.426044e-06	
721	-2.80000e+00	5.465713e-06	
722	-2.85000e+00	5.503301e-06	
723	-2.90000e+00	5.538812e-06	
724	-2.95000e+00	5.572251e-06	
725	-3.00000e+00	5.603623e-06	
726	-3.05000e+00	5.632936e-06	
727	-3.10000e+00	5.660200e-06	
728	-3.15000e+00	5.685426e-06	
729	-3.20000e+00	5.708631e-06	
730	-3.25000e+00	5.729836e-06	
731	-3.30000e+00	5.749071e-06	
732	-3.35000e+00	5.766372e-06	
733	-3.40000e+00	5.781794e-06	
734	-3.45000e+00	5.795404e-06	
735	-3.50000e+00	5.807296e-06	
736	-3.55000e+00	5.817588e-06	
737	-3.60000e+00	5.826429e-06	
738	-3.65000e+00	5.833992e-06	
739	-3.70000e+00	5.840466e-06	
740	-3.75000e+00	5.846043e-06	
741	-3.80000e+00	5.850906e-06	
742	-3.85000e+00	5.855209e-06	
743	-3.90000e+00	5.859083e-06	
744	-3.95000e+00	5.862628e-06	
745	-4.00000e+00	5.865918e-06	
746	-4.05000e+00	5.869010e-06	
747	-4.10000e+00	5.871946e-06	
748	-4.15000e+00	5.874755e-06	
749	-4.20000e+00	5.877462e-06	
750	-4.25000e+00	5.880082e-06	

Index   v-sweep         i(vds)          
--------------------------------------------------------------------------------
751	-4.30000e+00	5.882629e-06	
752	-4.35000e+00	5.885113e-06	
753	-4.40000e+00	5.887543e-06	
754	-4.45000e+00	5.889924e-06	
755	-4.50000e+00	5.892263e-06	
756	-4.55000e+00	5.894564e-06	
757	-4.60000e+00	5.896830e-06	
758	-4.65000e+00	5.899065e-06	
759	-4.70000e+00	5.901270e-06	
760	-4.75000e+00	5.903450e-06	
761	-4.80000e+00	5.905605e-06	
762	-4.85000e+00	5.907737e-06	
763	-4.90000e+00	5.909849e-06	
764	-4.95000e+00	5.911941e-06	
765	-5.00000e+00	5.914014e-06	
766	-5.05000e+00	5.916070e-06	
767	-5.10000e+00	5.918110e-06	
768	-5.15000e+00	5.920135e-06	
769	-5.20000e+00	5.922145e-06	
770	-5.25000e+00	5.924142e-06	
771	-5.30000e+00	5.926126e-06	
772	-5.35000e+00	5.928097e-06	
773	-5.40000e+00	5.930057e-06	
774	-5.45000e+00	5.932006e-06	
775	-5.50000e+00	5.933944e-06	
776	-5.55000e+00	5.935872e-06	
777	-5.60000e+00	5.937790e-06	
778	-5.65000e+00	5.939699e-06	
779	-5.70000e+00	5.941599e-06	
780	-5.75000e+00	5.943491e-06	
781	-5.80000e+00	5.945375e-06	
782	-5.85000e+00	5.947251e-06	
783	-5.90000e+00	5.949119e-06	
784	-5.95000e+00	5.950980e-06	
785	-6.00000e+00	5.952835e-06	
786	-6.05000e+00	5.954682e-06	
787	-6.10000e+00	5.956523e-06	
788	-6.15000e+00	5.958359e-06	
789	-6.20000e+00	5.960188e-06	
790	-6.25000e+00	5.962011e-06	
791	-6.30000e+00	5.963830e-06	
792	-6.35000e+00	5.965643e-06	
793	-6.40000e+00	5.967451e-06	
794	-6.45000e+00	5.969255e-06	
795	-6.50000e+00	5.971055e-06	
796	-6.55000e+00	5.972851e-06	
797	-6.60000e+00	5.974644e-06	
Note: No ".plot", ".print", or ".fourier" lines; no simulations run
