
Note: Compatibility modes selected: hs

Warning: m=xx on .subckt line will override multiplier m hierarchy!


Circuit: ***************************

Doing analysis at TEMP = -40.000000 and TNOM = -40.000000


No. of Data Rows : 133
                          ***************************
                          DC transfer characteristic  Mon Jan  9 13:57:42  2023
--------------------------------------------------------------------------------
Index   v-sweep         rds             
--------------------------------------------------------------------------------
0	0.000000e+00	7.454679e+04	
1	5.000000e-02	1.002081e+05	
2	1.000000e-01	1.493981e+05	
3	1.500000e-01	2.658800e+05	
4	2.000000e-01	5.738156e+05	
5	2.500000e-01	1.150162e+06	
6	3.000000e-01	1.808880e+06	
7	3.500000e-01	2.425168e+06	
8	4.000000e-01	2.990003e+06	
9	4.500000e-01	3.514558e+06	
10	5.000000e-01	4.007520e+06	
11	5.500000e-01	4.474362e+06	
12	6.000000e-01	4.918619e+06	
13	6.500000e-01	5.342741e+06	
14	7.000000e-01	5.748553e+06	
15	7.500000e-01	6.137495e+06	
16	8.000000e-01	6.510761e+06	
17	8.500000e-01	6.869372e+06	
18	9.000000e-01	7.214225e+06	
19	9.500000e-01	7.546120e+06	
20	1.000000e+00	7.865782e+06	
21	1.050000e+00	8.173873e+06	
22	1.100000e+00	8.471000e+06	
23	1.150000e+00	8.757727e+06	
24	1.200000e+00	9.034574e+06	
25	1.250000e+00	9.302028e+06	
26	1.300000e+00	9.560541e+06	
27	1.350000e+00	9.810538e+06	
28	1.400000e+00	1.005242e+07	
29	1.450000e+00	1.028655e+07	
30	1.500000e+00	1.051328e+07	
31	1.550000e+00	1.073295e+07	
32	1.600000e+00	1.094586e+07	
33	1.650000e+00	1.115231e+07	
34	1.700000e+00	1.135257e+07	
35	1.750000e+00	1.154691e+07	
36	1.800000e+00	1.173557e+07	
37	1.850000e+00	1.191878e+07	
38	1.900000e+00	1.209677e+07	
39	1.950000e+00	1.226974e+07	
40	2.000000e+00	1.243790e+07	
41	2.050000e+00	1.260142e+07	
42	2.100000e+00	1.276051e+07	
43	2.150000e+00	1.291531e+07	
44	2.200000e+00	1.306600e+07	
45	2.250000e+00	1.321272e+07	
46	2.300000e+00	1.335563e+07	
47	2.350000e+00	1.349486e+07	
48	2.400000e+00	1.363055e+07	
49	2.450000e+00	1.376282e+07	
50	2.500000e+00	1.389180e+07	
51	2.550000e+00	1.401759e+07	
52	2.600000e+00	1.414032e+07	
53	2.650000e+00	1.426008e+07	
54	2.700000e+00	1.437697e+07	

Index   v-sweep         rds             
--------------------------------------------------------------------------------
55	2.750000e+00	1.449110e+07	
56	2.800000e+00	1.460256e+07	
57	2.850000e+00	1.471142e+07	
58	2.900000e+00	1.481778e+07	
59	2.950000e+00	1.492172e+07	
60	3.000000e+00	1.502332e+07	
61	3.050000e+00	1.512264e+07	
62	3.100000e+00	1.521976e+07	
63	3.150000e+00	1.531476e+07	
64	3.200000e+00	1.540768e+07	
65	3.250000e+00	1.549861e+07	
66	3.300000e+00	1.558759e+07	
67	3.350000e+00	1.567469e+07	
68	3.400000e+00	1.575996e+07	
69	3.450000e+00	1.584346e+07	
70	3.500000e+00	1.592523e+07	
71	3.550000e+00	1.600533e+07	
72	3.600000e+00	1.608381e+07	
73	3.650000e+00	1.616071e+07	
74	3.700000e+00	1.623607e+07	
75	3.750000e+00	1.630995e+07	
76	3.800000e+00	1.638237e+07	
77	3.850000e+00	1.645338e+07	
78	3.900000e+00	1.652302e+07	
79	3.950000e+00	1.659133e+07	
80	4.000000e+00	1.665834e+07	
81	4.050000e+00	1.672408e+07	
82	4.100000e+00	1.678860e+07	
83	4.150000e+00	1.685191e+07	
84	4.200000e+00	1.691406e+07	
85	4.250000e+00	1.697507e+07	
86	4.300000e+00	1.703497e+07	
87	4.350000e+00	1.709379e+07	
88	4.400000e+00	1.715155e+07	
89	4.450000e+00	1.720829e+07	
90	4.500000e+00	1.726403e+07	
91	4.550000e+00	1.731879e+07	
92	4.600000e+00	1.737260e+07	
93	4.650000e+00	1.742548e+07	
94	4.700000e+00	1.747745e+07	
95	4.750000e+00	1.752854e+07	
96	4.800000e+00	1.757876e+07	
97	4.850000e+00	1.762814e+07	
98	4.900000e+00	1.767669e+07	
99	4.950000e+00	1.772444e+07	
100	5.000000e+00	1.777140e+07	
101	5.050000e+00	1.781759e+07	
102	5.100000e+00	1.786303e+07	
103	5.150000e+00	1.790773e+07	
104	5.200000e+00	1.795172e+07	
105	5.250000e+00	1.799501e+07	
106	5.300000e+00	1.803761e+07	
107	5.350000e+00	1.807954e+07	
108	5.400000e+00	1.812081e+07	
109	5.450000e+00	1.816144e+07	
110	5.500000e+00	1.820144e+07	
111	5.550000e+00	1.824082e+07	
112	5.600000e+00	1.827961e+07	

Index   v-sweep         rds             
--------------------------------------------------------------------------------
113	5.650000e+00	1.831780e+07	
114	5.700000e+00	1.835542e+07	
115	5.750000e+00	1.839247e+07	
116	5.800000e+00	1.842897e+07	
117	5.850000e+00	1.846493e+07	
118	5.900000e+00	1.850036e+07	
119	5.950000e+00	1.853527e+07	
120	6.000000e+00	1.856967e+07	
121	6.050000e+00	1.860357e+07	
122	6.100000e+00	1.863698e+07	
123	6.150000e+00	1.866992e+07	
124	6.200000e+00	1.870238e+07	
125	6.250000e+00	1.873438e+07	
126	6.300000e+00	1.876593e+07	
127	6.350000e+00	1.879704e+07	
128	6.400000e+00	1.882772e+07	
129	6.450000e+00	1.885796e+07	
130	6.500000e+00	1.888779e+07	
131	6.550000e+00	1.891722e+07	
132	6.600000e+00	1.894624e+07	
Reset re-loads circuit ***************************

Circuit: ***************************

Doing analysis at TEMP = -40.000000 and TNOM = -40.000000


No. of Data Rows : 133
                          ***************************
                          DC transfer characteristic  Mon Jan  9 13:57:42  2023
--------------------------------------------------------------------------------
Index   v-sweep         rds             
--------------------------------------------------------------------------------
0	0.000000e+00	1.800388e+04	
1	5.000000e-02	1.938619e+04	
2	1.000000e-01	2.095169e+04	
3	1.500000e-01	2.273913e+04	
4	2.000000e-01	2.479902e+04	
5	2.500000e-01	2.719849e+04	
6	3.000000e-01	3.002863e+04	
7	3.500000e-01	3.341627e+04	
8	4.000000e-01	3.754321e+04	
9	4.500000e-01	4.267942e+04	
10	5.000000e-01	4.924249e+04	
11	5.500000e-01	5.790778e+04	
12	6.000000e-01	6.980765e+04	
13	6.500000e-01	8.682286e+04	
14	7.000000e-01	1.116674e+05	
15	7.500000e-01	1.468871e+05	
16	8.000000e-01	1.928660e+05	
17	8.500000e-01	2.474714e+05	
18	9.000000e-01	3.078091e+05	
19	9.500000e-01	3.715627e+05	
20	1.000000e+00	4.372133e+05	
21	1.050000e+00	5.038278e+05	
22	1.100000e+00	5.708372e+05	
23	1.150000e+00	6.378885e+05	
24	1.200000e+00	7.047573e+05	
25	1.250000e+00	7.712981e+05	
26	1.300000e+00	8.374141e+05	
27	1.350000e+00	9.030403e+05	
28	1.400000e+00	9.681327e+05	
29	1.450000e+00	1.032661e+06	
30	1.500000e+00	1.096606e+06	
31	1.550000e+00	1.159954e+06	
32	1.600000e+00	1.222698e+06	
33	1.650000e+00	1.284833e+06	
34	1.700000e+00	1.346357e+06	
35	1.750000e+00	1.407271e+06	
36	1.800000e+00	1.467577e+06	
37	1.850000e+00	1.527279e+06	
38	1.900000e+00	1.586380e+06	
39	1.950000e+00	1.644885e+06	
40	2.000000e+00	1.702800e+06	
41	2.050000e+00	1.760131e+06	
42	2.100000e+00	1.816883e+06	
43	2.150000e+00	1.873063e+06	
44	2.200000e+00	1.928678e+06	
45	2.250000e+00	1.983734e+06	
46	2.300000e+00	2.038237e+06	
47	2.350000e+00	2.092196e+06	
48	2.400000e+00	2.145615e+06	
49	2.450000e+00	2.198502e+06	
50	2.500000e+00	2.250865e+06	
51	2.550000e+00	2.302709e+06	
52	2.600000e+00	2.354041e+06	
53	2.650000e+00	2.404868e+06	
54	2.700000e+00	2.455197e+06	

Index   v-sweep         rds             
--------------------------------------------------------------------------------
55	2.750000e+00	2.505033e+06	
56	2.800000e+00	2.554385e+06	
57	2.850000e+00	2.603257e+06	
58	2.900000e+00	2.651656e+06	
59	2.950000e+00	2.699589e+06	
60	3.000000e+00	2.747061e+06	
61	3.050000e+00	2.794080e+06	
62	3.100000e+00	2.840649e+06	
63	3.150000e+00	2.886777e+06	
64	3.200000e+00	2.932468e+06	
65	3.250000e+00	2.977728e+06	
66	3.300000e+00	3.022562e+06	
67	3.350000e+00	3.066977e+06	
68	3.400000e+00	3.110979e+06	
69	3.450000e+00	3.154571e+06	
70	3.500000e+00	3.197760e+06	
71	3.550000e+00	3.240550e+06	
72	3.600000e+00	3.282948e+06	
73	3.650000e+00	3.324958e+06	
74	3.700000e+00	3.366585e+06	
75	3.750000e+00	3.407834e+06	
76	3.800000e+00	3.448710e+06	
77	3.850000e+00	3.489217e+06	
78	3.900000e+00	3.529361e+06	
79	3.950000e+00	3.569146e+06	
80	4.000000e+00	3.608576e+06	
81	4.050000e+00	3.647657e+06	
82	4.100000e+00	3.686392e+06	
83	4.150000e+00	3.724786e+06	
84	4.200000e+00	3.762842e+06	
85	4.250000e+00	3.800566e+06	
86	4.300000e+00	3.837962e+06	
87	4.350000e+00	3.875033e+06	
88	4.400000e+00	3.911784e+06	
89	4.450000e+00	3.948218e+06	
90	4.500000e+00	3.984339e+06	
91	4.550000e+00	4.020152e+06	
92	4.600000e+00	4.055660e+06	
93	4.650000e+00	4.090866e+06	
94	4.700000e+00	4.125775e+06	
95	4.750000e+00	4.160390e+06	
96	4.800000e+00	4.194714e+06	
97	4.850000e+00	4.228752e+06	
98	4.900000e+00	4.262505e+06	
99	4.950000e+00	4.295979e+06	
100	5.000000e+00	4.329176e+06	
101	5.050000e+00	4.362099e+06	
102	5.100000e+00	4.394752e+06	
103	5.150000e+00	4.427138e+06	
104	5.200000e+00	4.459260e+06	
105	5.250000e+00	4.491121e+06	
106	5.300000e+00	4.522725e+06	
107	5.350000e+00	4.554073e+06	
108	5.400000e+00	4.585170e+06	
109	5.450000e+00	4.616017e+06	
110	5.500000e+00	4.646619e+06	
111	5.550000e+00	4.676977e+06	
112	5.600000e+00	4.707095e+06	

Index   v-sweep         rds             
--------------------------------------------------------------------------------
113	5.650000e+00	4.736975e+06	
114	5.700000e+00	4.766620e+06	
115	5.750000e+00	4.796033e+06	
116	5.800000e+00	4.825216e+06	
117	5.850000e+00	4.854172e+06	
118	5.900000e+00	4.882903e+06	
119	5.950000e+00	4.911412e+06	
120	6.000000e+00	4.939701e+06	
121	6.050000e+00	4.967774e+06	
122	6.100000e+00	4.995631e+06	
123	6.150000e+00	5.023276e+06	
124	6.200000e+00	5.050711e+06	
125	6.250000e+00	5.077938e+06	
126	6.300000e+00	5.104960e+06	
127	6.350000e+00	5.131779e+06	
128	6.400000e+00	5.158396e+06	
129	6.450000e+00	5.184815e+06	
130	6.500000e+00	5.211036e+06	
131	6.550000e+00	5.237064e+06	
132	6.600000e+00	5.262898e+06	
Reset re-loads circuit ***************************

Circuit: ***************************

Doing analysis at TEMP = -40.000000 and TNOM = -40.000000


No. of Data Rows : 133
                          ***************************
                          DC transfer characteristic  Mon Jan  9 13:57:42  2023
--------------------------------------------------------------------------------
Index   v-sweep         rds             
--------------------------------------------------------------------------------
0	0.000000e+00	1.131699e+04	
1	5.000000e-02	1.188539e+04	
2	1.000000e-01	1.249590e+04	
3	1.500000e-01	1.315330e+04	
4	2.000000e-01	1.386314e+04	
5	2.500000e-01	1.463192e+04	
6	3.000000e-01	1.546725e+04	
7	3.500000e-01	1.637816e+04	
8	4.000000e-01	1.737541e+04	
9	4.500000e-01	1.847192e+04	
10	5.000000e-01	1.968334e+04	
11	5.500000e-01	2.102885e+04	
12	6.000000e-01	2.253223e+04	
13	6.500000e-01	2.422346e+04	
14	7.000000e-01	2.614105e+04	
15	7.500000e-01	2.833572e+04	
16	8.000000e-01	3.087639e+04	
17	8.500000e-01	3.386043e+04	
18	9.000000e-01	3.743210e+04	
19	9.500000e-01	4.181627e+04	
20	1.000000e+00	4.737756e+04	
21	1.050000e+00	5.470708e+04	
22	1.100000e+00	6.468670e+04	
23	1.150000e+00	7.837305e+04	
24	1.200000e+00	9.657705e+04	
25	1.250000e+00	1.194213e+05	
26	1.300000e+00	1.463441e+05	
27	1.350000e+00	1.764735e+05	
28	1.400000e+00	2.089623e+05	
29	1.450000e+00	2.431286e+05	
30	1.500000e+00	2.784665e+05	
31	1.550000e+00	3.146127e+05	
32	1.600000e+00	3.513082e+05	
33	1.650000e+00	3.883670e+05	
34	1.700000e+00	4.256545e+05	
35	1.750000e+00	4.630716e+05	
36	1.800000e+00	5.005447e+05	
37	1.850000e+00	5.380179e+05	
38	1.900000e+00	5.754488e+05	
39	1.950000e+00	6.128045e+05	
40	2.000000e+00	6.500594e+05	
41	2.050000e+00	6.871934e+05	
42	2.100000e+00	7.241904e+05	
43	2.150000e+00	7.610378e+05	
44	2.200000e+00	7.977255e+05	
45	2.250000e+00	8.342453e+05	
46	2.300000e+00	8.705908e+05	
47	2.350000e+00	9.067569e+05	
48	2.400000e+00	9.427392e+05	
49	2.450000e+00	9.785347e+05	
50	2.500000e+00	1.014141e+06	
51	2.550000e+00	1.049555e+06	
52	2.600000e+00	1.084777e+06	
53	2.650000e+00	1.119805e+06	
54	2.700000e+00	1.154638e+06	

Index   v-sweep         rds             
--------------------------------------------------------------------------------
55	2.750000e+00	1.189276e+06	
56	2.800000e+00	1.223719e+06	
57	2.850000e+00	1.257966e+06	
58	2.900000e+00	1.292019e+06	
59	2.950000e+00	1.325877e+06	
60	3.000000e+00	1.359541e+06	
61	3.050000e+00	1.393012e+06	
62	3.100000e+00	1.426290e+06	
63	3.150000e+00	1.459376e+06	
64	3.200000e+00	1.492271e+06	
65	3.250000e+00	1.524976e+06	
66	3.300000e+00	1.557492e+06	
67	3.350000e+00	1.589820e+06	
68	3.400000e+00	1.621960e+06	
69	3.450000e+00	1.653915e+06	
70	3.500000e+00	1.685685e+06	
71	3.550000e+00	1.717272e+06	
72	3.600000e+00	1.748676e+06	
73	3.650000e+00	1.779899e+06	
74	3.700000e+00	1.810942e+06	
75	3.750000e+00	1.841807e+06	
76	3.800000e+00	1.872494e+06	
77	3.850000e+00	1.903004e+06	
78	3.900000e+00	1.933340e+06	
79	3.950000e+00	1.963501e+06	
80	4.000000e+00	1.993491e+06	
81	4.050000e+00	2.023309e+06	
82	4.100000e+00	2.052957e+06	
83	4.150000e+00	2.082436e+06	
84	4.200000e+00	2.111748e+06	
85	4.250000e+00	2.140893e+06	
86	4.300000e+00	2.169873e+06	
87	4.350000e+00	2.198690e+06	
88	4.400000e+00	2.227344e+06	
89	4.450000e+00	2.255837e+06	
90	4.500000e+00	2.284169e+06	
91	4.550000e+00	2.312343e+06	
92	4.600000e+00	2.340359e+06	
93	4.650000e+00	2.368218e+06	
94	4.700000e+00	2.395922e+06	
95	4.750000e+00	2.423472e+06	
96	4.800000e+00	2.450869e+06	
97	4.850000e+00	2.478115e+06	
98	4.900000e+00	2.505209e+06	
99	4.950000e+00	2.532154e+06	
100	5.000000e+00	2.558951e+06	
101	5.050000e+00	2.585600e+06	
102	5.100000e+00	2.612104e+06	
103	5.150000e+00	2.638462e+06	
104	5.200000e+00	2.664677e+06	
105	5.250000e+00	2.690749e+06	
106	5.300000e+00	2.716679e+06	
107	5.350000e+00	2.742469e+06	
108	5.400000e+00	2.768119e+06	
109	5.450000e+00	2.793630e+06	
110	5.500000e+00	2.819004e+06	
111	5.550000e+00	2.844242e+06	
112	5.600000e+00	2.869345e+06	

Index   v-sweep         rds             
--------------------------------------------------------------------------------
113	5.650000e+00	2.894313e+06	
114	5.700000e+00	2.919148e+06	
115	5.750000e+00	2.943850e+06	
116	5.800000e+00	2.968422e+06	
117	5.850000e+00	2.992863e+06	
118	5.900000e+00	3.017174e+06	
119	5.950000e+00	3.041358e+06	
120	6.000000e+00	3.065414e+06	
121	6.050000e+00	3.089343e+06	
122	6.100000e+00	3.113148e+06	
123	6.150000e+00	3.136827e+06	
124	6.200000e+00	3.160383e+06	
125	6.250000e+00	3.183817e+06	
126	6.300000e+00	3.207128e+06	
127	6.350000e+00	3.230319e+06	
128	6.400000e+00	3.253390e+06	
129	6.450000e+00	3.276341e+06	
130	6.500000e+00	3.299175e+06	
131	6.550000e+00	3.321891e+06	
132	6.600000e+00	3.344491e+06	
Reset re-loads circuit ***************************

Circuit: ***************************

Doing analysis at TEMP = -40.000000 and TNOM = -40.000000


No. of Data Rows : 133
                          ***************************
                          DC transfer characteristic  Mon Jan  9 13:57:42  2023
--------------------------------------------------------------------------------
Index   v-sweep         rds             
--------------------------------------------------------------------------------
0	0.000000e+00	8.773527e+03	
1	5.000000e-02	9.117173e+03	
2	1.000000e-01	9.478768e+03	
3	1.500000e-01	9.859717e+03	
4	2.000000e-01	1.026158e+04	
5	2.500000e-01	1.068609e+04	
6	3.000000e-01	1.113522e+04	
7	3.500000e-01	1.161115e+04	
8	4.000000e-01	1.211636e+04	
9	4.500000e-01	1.265367e+04	
10	5.000000e-01	1.322626e+04	
11	5.500000e-01	1.383777e+04	
12	6.000000e-01	1.449232e+04	
13	6.500000e-01	1.519469e+04	
14	7.000000e-01	1.595034e+04	
15	7.500000e-01	1.676562e+04	
16	8.000000e-01	1.764796e+04	
17	8.500000e-01	1.860611e+04	
18	9.000000e-01	1.965052e+04	
19	9.500000e-01	2.079383e+04	
20	1.000000e+00	2.205164e+04	
21	1.050000e+00	2.344363e+04	
22	1.100000e+00	2.499539e+04	
23	1.150000e+00	2.674138e+04	
24	1.200000e+00	2.873004e+04	
25	1.250000e+00	3.103269e+04	
26	1.300000e+00	3.375903e+04	
27	1.350000e+00	3.708289e+04	
28	1.400000e+00	4.127980e+04	
29	1.450000e+00	4.676456e+04	
30	1.500000e+00	5.408664e+04	
31	1.550000e+00	6.382115e+04	
32	1.600000e+00	7.636325e+04	
33	1.650000e+00	9.177077e+04	
34	1.700000e+00	1.097858e+05	
35	1.750000e+00	1.299828e+05	
36	1.800000e+00	1.519118e+05	
37	1.850000e+00	1.751759e+05	
38	1.900000e+00	1.994543e+05	
39	1.950000e+00	2.244983e+05	
40	2.000000e+00	2.501185e+05	
41	2.050000e+00	2.761711e+05	
42	2.100000e+00	3.025466e+05	
43	2.150000e+00	3.291610e+05	
44	2.200000e+00	3.559490e+05	
45	2.250000e+00	3.828600e+05	
46	2.300000e+00	4.098537e+05	
47	2.350000e+00	4.368981e+05	
48	2.400000e+00	4.639674e+05	
49	2.450000e+00	4.910409e+05	
50	2.500000e+00	5.181015e+05	
51	2.550000e+00	5.451351e+05	
52	2.600000e+00	5.721301e+05	
53	2.650000e+00	5.990770e+05	
54	2.700000e+00	6.259676e+05	

Index   v-sweep         rds             
--------------------------------------------------------------------------------
55	2.750000e+00	6.527951e+05	
56	2.800000e+00	6.795538e+05	
57	2.850000e+00	7.062388e+05	
58	2.900000e+00	7.328462e+05	
59	2.950000e+00	7.593723e+05	
60	3.000000e+00	7.858142e+05	
61	3.050000e+00	8.121694e+05	
62	3.100000e+00	8.384357e+05	
63	3.150000e+00	8.646113e+05	
64	3.200000e+00	8.906947e+05	
65	3.250000e+00	9.166846e+05	
66	3.300000e+00	9.425797e+05	
67	3.350000e+00	9.683794e+05	
68	3.400000e+00	9.940827e+05	
69	3.450000e+00	1.019689e+06	
70	3.500000e+00	1.045198e+06	
71	3.550000e+00	1.070609e+06	
72	3.600000e+00	1.095922e+06	
73	3.650000e+00	1.121136e+06	
74	3.700000e+00	1.146252e+06	
75	3.750000e+00	1.171269e+06	
76	3.800000e+00	1.196188e+06	
77	3.850000e+00	1.221008e+06	
78	3.900000e+00	1.245730e+06	
79	3.950000e+00	1.270353e+06	
80	4.000000e+00	1.294877e+06	
81	4.050000e+00	1.319304e+06	
82	4.100000e+00	1.343633e+06	
83	4.150000e+00	1.367864e+06	
84	4.200000e+00	1.391997e+06	
85	4.250000e+00	1.416034e+06	
86	4.300000e+00	1.439973e+06	
87	4.350000e+00	1.463817e+06	
88	4.400000e+00	1.487564e+06	
89	4.450000e+00	1.511215e+06	
90	4.500000e+00	1.534771e+06	
91	4.550000e+00	1.558231e+06	
92	4.600000e+00	1.581597e+06	
93	4.650000e+00	1.604869e+06	
94	4.700000e+00	1.628047e+06	
95	4.750000e+00	1.651131e+06	
96	4.800000e+00	1.674122e+06	
97	4.850000e+00	1.697021e+06	
98	4.900000e+00	1.719827e+06	
99	4.950000e+00	1.742541e+06	
100	5.000000e+00	1.765164e+06	
101	5.050000e+00	1.787696e+06	
102	5.100000e+00	1.810137e+06	
103	5.150000e+00	1.832489e+06	
104	5.200000e+00	1.854750e+06	
105	5.250000e+00	1.876923e+06	
106	5.300000e+00	1.899006e+06	
107	5.350000e+00	1.921002e+06	
108	5.400000e+00	1.942909e+06	
109	5.450000e+00	1.964729e+06	
110	5.500000e+00	1.986462e+06	
111	5.550000e+00	2.008109e+06	
112	5.600000e+00	2.029669e+06	

Index   v-sweep         rds             
--------------------------------------------------------------------------------
113	5.650000e+00	2.051144e+06	
114	5.700000e+00	2.072533e+06	
115	5.750000e+00	2.093838e+06	
116	5.800000e+00	2.115058e+06	
117	5.850000e+00	2.136195e+06	
118	5.900000e+00	2.157248e+06	
119	5.950000e+00	2.178218e+06	
120	6.000000e+00	2.199105e+06	
121	6.050000e+00	2.219910e+06	
122	6.100000e+00	2.240634e+06	
123	6.150000e+00	2.261276e+06	
124	6.200000e+00	2.281838e+06	
125	6.250000e+00	2.302319e+06	
126	6.300000e+00	2.322720e+06	
127	6.350000e+00	2.343041e+06	
128	6.400000e+00	2.363284e+06	
129	6.450000e+00	2.383447e+06	
130	6.500000e+00	2.403533e+06	
131	6.550000e+00	2.423540e+06	
132	6.600000e+00	2.443471e+06	
Reset re-loads circuit ***************************

Circuit: ***************************

Doing analysis at TEMP = -40.000000 and TNOM = -40.000000


No. of Data Rows : 133
                          ***************************
                          DC transfer characteristic  Mon Jan  9 13:57:42  2023
--------------------------------------------------------------------------------
Index   v-sweep         rds             
--------------------------------------------------------------------------------
0	0.000000e+00	7.504832e+03	
1	5.000000e-02	7.748813e+03	
2	1.000000e-01	8.002674e+03	
3	1.500000e-01	8.267001e+03	
4	2.000000e-01	8.542434e+03	
5	2.500000e-01	8.829666e+03	
6	3.000000e-01	9.129459e+03	
7	3.500000e-01	9.442650e+03	
8	4.000000e-01	9.770158e+03	
9	4.500000e-01	1.011300e+04	
10	5.000000e-01	1.047229e+04	
11	5.500000e-01	1.084926e+04	
12	6.000000e-01	1.124530e+04	
13	6.500000e-01	1.166190e+04	
14	7.000000e-01	1.210076e+04	
15	7.500000e-01	1.256372e+04	
16	8.000000e-01	1.305287e+04	
17	8.500000e-01	1.357050e+04	
18	9.000000e-01	1.411921e+04	
19	9.500000e-01	1.470188e+04	
20	1.000000e+00	1.532178e+04	
21	1.050000e+00	1.598262e+04	
22	1.100000e+00	1.668865e+04	
23	1.150000e+00	1.744475e+04	
24	1.200000e+00	1.825666e+04	
25	1.250000e+00	1.913113e+04	
26	1.300000e+00	2.007635e+04	
27	1.350000e+00	2.110241e+04	
28	1.400000e+00	2.222207e+04	
29	1.450000e+00	2.345206e+04	
30	1.500000e+00	2.481508e+04	
31	1.550000e+00	2.634319e+04	
32	1.600000e+00	2.808344e+04	
33	1.650000e+00	3.010713e+04	
34	1.700000e+00	3.252432e+04	
35	1.750000e+00	3.550395e+04	
36	1.800000e+00	3.929450e+04	
37	1.850000e+00	4.422861e+04	
38	1.900000e+00	5.068394e+04	
39	1.950000e+00	5.898898e+04	
40	2.000000e+00	6.931629e+04	
41	2.050000e+00	8.163741e+04	
42	2.100000e+00	9.576333e+04	
43	2.150000e+00	1.114254e+05	
44	2.200000e+00	1.283445e+05	
45	2.250000e+00	1.462690e+05	
46	2.300000e+00	1.649885e+05	
47	2.350000e+00	1.843336e+05	
48	2.400000e+00	2.041703e+05	
49	2.450000e+00	2.243935e+05	
50	2.500000e+00	2.449204e+05	
51	2.550000e+00	2.656857e+05	
52	2.600000e+00	2.866376e+05	
53	2.650000e+00	3.077347e+05	
54	2.700000e+00	3.289436e+05	

Index   v-sweep         rds             
--------------------------------------------------------------------------------
55	2.750000e+00	3.502372e+05	
56	2.800000e+00	3.715931e+05	
57	2.850000e+00	3.929932e+05	
58	2.900000e+00	4.144222e+05	
59	2.950000e+00	4.358674e+05	
60	3.000000e+00	4.573181e+05	
61	3.050000e+00	4.787654e+05	
62	3.100000e+00	5.002015e+05	
63	3.150000e+00	5.216199e+05	
64	3.200000e+00	5.430150e+05	
65	3.250000e+00	5.643820e+05	
66	3.300000e+00	5.857167e+05	
67	3.350000e+00	6.070154e+05	
68	3.400000e+00	6.282751e+05	
69	3.450000e+00	6.494930e+05	
70	3.500000e+00	6.706668e+05	
71	3.550000e+00	6.917942e+05	
72	3.600000e+00	7.128736e+05	
73	3.650000e+00	7.339032e+05	
74	3.700000e+00	7.548817e+05	
75	3.750000e+00	7.758078e+05	
76	3.800000e+00	7.966805e+05	
77	3.850000e+00	8.174987e+05	
78	3.900000e+00	8.382618e+05	
79	3.950000e+00	8.589688e+05	
80	4.000000e+00	8.796192e+05	
81	4.050000e+00	9.002124e+05	
82	4.100000e+00	9.207479e+05	
83	4.150000e+00	9.412253e+05	
84	4.200000e+00	9.616442e+05	
85	4.250000e+00	9.820044e+05	
86	4.300000e+00	1.002306e+06	
87	4.350000e+00	1.022547e+06	
88	4.400000e+00	1.042730e+06	
89	4.450000e+00	1.062853e+06	
90	4.500000e+00	1.082916e+06	
91	4.550000e+00	1.102919e+06	
92	4.600000e+00	1.122862e+06	
93	4.650000e+00	1.142746e+06	
94	4.700000e+00	1.162569e+06	
95	4.750000e+00	1.182333e+06	
96	4.800000e+00	1.202037e+06	
97	4.850000e+00	1.221681e+06	
98	4.900000e+00	1.241265e+06	
99	4.950000e+00	1.260789e+06	
100	5.000000e+00	1.280254e+06	
101	5.050000e+00	1.299659e+06	
102	5.100000e+00	1.319005e+06	
103	5.150000e+00	1.338291e+06	
104	5.200000e+00	1.357518e+06	
105	5.250000e+00	1.376686e+06	
106	5.300000e+00	1.395795e+06	
107	5.350000e+00	1.414845e+06	
108	5.400000e+00	1.433836e+06	
109	5.450000e+00	1.452769e+06	
110	5.500000e+00	1.471644e+06	
111	5.550000e+00	1.490460e+06	
112	5.600000e+00	1.509218e+06	

Index   v-sweep         rds             
--------------------------------------------------------------------------------
113	5.650000e+00	1.527919e+06	
114	5.700000e+00	1.546561e+06	
115	5.750000e+00	1.565147e+06	
116	5.800000e+00	1.583674e+06	
117	5.850000e+00	1.602145e+06	
118	5.900000e+00	1.620559e+06	
119	5.950000e+00	1.638916e+06	
120	6.000000e+00	1.657216e+06	
121	6.050000e+00	1.675460e+06	
122	6.100000e+00	1.693648e+06	
123	6.150000e+00	1.711779e+06	
124	6.200000e+00	1.729855e+06	
125	6.250000e+00	1.747876e+06	
126	6.300000e+00	1.765841e+06	
127	6.350000e+00	1.783751e+06	
128	6.400000e+00	1.801606e+06	
129	6.450000e+00	1.819406e+06	
130	6.500000e+00	1.837151e+06	
131	6.550000e+00	1.854842e+06	
132	6.600000e+00	1.872479e+06	
Reset re-loads circuit ***************************

Circuit: ***************************

Doing analysis at TEMP = -40.000000 and TNOM = -40.000000


No. of Data Rows : 133
                          ***************************
                          DC transfer characteristic  Mon Jan  9 13:57:42  2023
--------------------------------------------------------------------------------
Index   v-sweep         rds             
--------------------------------------------------------------------------------
0	0.000000e+00	6.797568e+03	
1	5.000000e-02	6.986413e+03	
2	1.000000e-01	7.181491e+03	
3	1.500000e-01	7.383099e+03	
4	2.000000e-01	7.591554e+03	
5	2.500000e-01	7.807199e+03	
6	3.000000e-01	8.030401e+03	
7	3.500000e-01	8.261557e+03	
8	4.000000e-01	8.501099e+03	
9	4.500000e-01	8.749493e+03	
10	5.000000e-01	9.007248e+03	
11	5.500000e-01	9.274916e+03	
12	6.000000e-01	9.553097e+03	
13	6.500000e-01	9.842446e+03	
14	7.000000e-01	1.014367e+04	
15	7.500000e-01	1.045755e+04	
16	8.000000e-01	1.078492e+04	
17	8.500000e-01	1.112669e+04	
18	9.000000e-01	1.148387e+04	
19	9.500000e-01	1.185753e+04	
20	1.000000e+00	1.224886e+04	
21	1.050000e+00	1.265916e+04	
22	1.100000e+00	1.308982e+04	
23	1.150000e+00	1.354242e+04	
24	1.200000e+00	1.401865e+04	
25	1.250000e+00	1.452042e+04	
26	1.300000e+00	1.504981e+04	
27	1.350000e+00	1.560918e+04	
28	1.400000e+00	1.620118e+04	
29	1.450000e+00	1.682881e+04	
30	1.500000e+00	1.749554e+04	
31	1.550000e+00	1.820538e+04	
32	1.600000e+00	1.896312e+04	
33	1.650000e+00	1.977452e+04	
34	1.700000e+00	2.064671e+04	
35	1.750000e+00	2.158877e+04	
36	1.800000e+00	2.261261e+04	
37	1.850000e+00	2.373439e+04	
38	1.900000e+00	2.497677e+04	
39	1.950000e+00	2.637251e+04	
40	2.000000e+00	2.797016e+04	
41	2.050000e+00	2.984262e+04	
42	2.100000e+00	3.209865e+04	
43	2.150000e+00	3.489561e+04	
44	2.200000e+00	3.844625e+04	
45	2.250000e+00	4.300656e+04	
46	2.300000e+00	4.883345e+04	
47	2.350000e+00	5.612015e+04	
48	2.400000e+00	6.494318e+04	
49	2.450000e+00	7.525323e+04	
50	2.500000e+00	8.690829e+04	
51	2.550000e+00	9.972177e+04	
52	2.600000e+00	1.135014e+05	
53	2.650000e+00	1.280716e+05	
54	2.700000e+00	1.432821e+05	

Index   v-sweep         rds             
--------------------------------------------------------------------------------
55	2.750000e+00	1.590090e+05	
56	2.800000e+00	1.751519e+05	
57	2.850000e+00	1.916302e+05	
58	2.900000e+00	2.083792e+05	
59	2.950000e+00	2.253469e+05	
60	3.000000e+00	2.424915e+05	
61	3.050000e+00	2.597787e+05	
62	3.100000e+00	2.771808e+05	
63	3.150000e+00	2.946750e+05	
64	3.200000e+00	3.122423e+05	
65	3.250000e+00	3.298670e+05	
66	3.300000e+00	3.475358e+05	
67	3.350000e+00	3.652376e+05	
68	3.400000e+00	3.829629e+05	
69	3.450000e+00	4.007038e+05	
70	3.500000e+00	4.184533e+05	
71	3.550000e+00	4.362055e+05	
72	3.600000e+00	4.539553e+05	
73	3.650000e+00	4.716982e+05	
74	3.700000e+00	4.894303e+05	
75	3.750000e+00	5.071483e+05	
76	3.800000e+00	5.248491e+05	
77	3.850000e+00	5.425302e+05	
78	3.900000e+00	5.601893e+05	
79	3.950000e+00	5.778244e+05	
80	4.000000e+00	5.954335e+05	
81	4.050000e+00	6.130152e+05	
82	4.100000e+00	6.305680e+05	
83	4.150000e+00	6.480906e+05	
84	4.200000e+00	6.655819e+05	
85	4.250000e+00	6.830408e+05	
86	4.300000e+00	7.004666e+05	
87	4.350000e+00	7.178583e+05	
88	4.400000e+00	7.352152e+05	
89	4.450000e+00	7.525367e+05	
90	4.500000e+00	7.698223e+05	
91	4.550000e+00	7.870713e+05	
92	4.600000e+00	8.042833e+05	
93	4.650000e+00	8.214579e+05	
94	4.700000e+00	8.385947e+05	
95	4.750000e+00	8.556935e+05	
96	4.800000e+00	8.727538e+05	
97	4.850000e+00	8.897755e+05	
98	4.900000e+00	9.067582e+05	
99	4.950000e+00	9.237018e+05	
100	5.000000e+00	9.406062e+05	
101	5.050000e+00	9.574711e+05	
102	5.100000e+00	9.742964e+05	
103	5.150000e+00	9.910820e+05	
104	5.200000e+00	1.007828e+06	
105	5.250000e+00	1.024534e+06	
106	5.300000e+00	1.041200e+06	
107	5.350000e+00	1.057826e+06	
108	5.400000e+00	1.074412e+06	
109	5.450000e+00	1.090957e+06	
110	5.500000e+00	1.107463e+06	
111	5.550000e+00	1.123929e+06	
112	5.600000e+00	1.140354e+06	

Index   v-sweep         rds             
--------------------------------------------------------------------------------
113	5.650000e+00	1.156739e+06	
114	5.700000e+00	1.173085e+06	
115	5.750000e+00	1.189390e+06	
116	5.800000e+00	1.205655e+06	
117	5.850000e+00	1.221880e+06	
118	5.900000e+00	1.238065e+06	
119	5.950000e+00	1.254210e+06	
120	6.000000e+00	1.270315e+06	
121	6.050000e+00	1.286381e+06	
122	6.100000e+00	1.302407e+06	
123	6.150000e+00	1.318392e+06	
124	6.200000e+00	1.334339e+06	
125	6.250000e+00	1.350246e+06	
126	6.300000e+00	1.366113e+06	
127	6.350000e+00	1.381941e+06	
128	6.400000e+00	1.397729e+06	
129	6.450000e+00	1.413479e+06	
130	6.500000e+00	1.429189e+06	
131	6.550000e+00	1.444860e+06	
132	6.600000e+00	1.460492e+06	
Reset re-loads circuit ***************************

Circuit: ***************************

Note: No ".plot", ".print", or ".fourier" lines; no simulations run
