
Note: Compatibility modes selected: hs

Warning: m=xx on .subckt line will override multiplier m hierarchy!


Circuit: ***************************

Doing analysis at TEMP = 25.000000 and TNOM = 25.000000


No. of Data Rows : 133
                          ***************************
                          DC transfer characteristic  Mon Jan  9 13:57:42  2023
--------------------------------------------------------------------------------
Index   v-sweep         rds             
--------------------------------------------------------------------------------
0	0.000000e+00	3.822747e+03	
1	5.000000e-02	5.153159e+03	
2	1.000000e-01	7.659682e+03	
3	1.500000e-01	1.332148e+04	
4	2.000000e-01	2.629448e+04	
5	2.500000e-01	4.483164e+04	
6	3.000000e-01	6.121982e+04	
7	3.500000e-01	7.450186e+04	
8	4.000000e-01	8.581148e+04	
9	4.500000e-01	9.582037e+04	
10	5.000000e-01	1.048621e+05	
11	5.500000e-01	1.131220e+05	
12	6.000000e-01	1.207191e+05	
13	6.500000e-01	1.277386e+05	
14	7.000000e-01	1.342469e+05	
15	7.500000e-01	1.402978e+05	
16	8.000000e-01	1.459367e+05	
17	8.500000e-01	1.512028e+05	
18	9.000000e-01	1.561298e+05	
19	9.500000e-01	1.607477e+05	
20	1.000000e+00	1.650827e+05	
21	1.050000e+00	1.691584e+05	
22	1.100000e+00	1.729957e+05	
23	1.150000e+00	1.766134e+05	
24	1.200000e+00	1.800284e+05	
25	1.250000e+00	1.832560e+05	
26	1.300000e+00	1.863101e+05	
27	1.350000e+00	1.892031e+05	
28	1.400000e+00	1.919464e+05	
29	1.450000e+00	1.945504e+05	
30	1.500000e+00	1.970247e+05	
31	1.550000e+00	1.993777e+05	
32	1.600000e+00	2.016175e+05	
33	1.650000e+00	2.037514e+05	
34	1.700000e+00	2.057860e+05	
35	1.750000e+00	2.077274e+05	
36	1.800000e+00	2.095814e+05	
37	1.850000e+00	2.113532e+05	
38	1.900000e+00	2.130477e+05	
39	1.950000e+00	2.146692e+05	
40	2.000000e+00	2.162221e+05	
41	2.050000e+00	2.177100e+05	
42	2.100000e+00	2.191367e+05	
43	2.150000e+00	2.205054e+05	
44	2.200000e+00	2.218193e+05	
45	2.250000e+00	2.230812e+05	
46	2.300000e+00	2.242939e+05	
47	2.350000e+00	2.254599e+05	
48	2.400000e+00	2.265815e+05	
49	2.450000e+00	2.276610e+05	
50	2.500000e+00	2.287003e+05	
51	2.550000e+00	2.297016e+05	
52	2.600000e+00	2.306666e+05	
53	2.650000e+00	2.315969e+05	
54	2.700000e+00	2.324943e+05	

Index   v-sweep         rds             
--------------------------------------------------------------------------------
55	2.750000e+00	2.333602e+05	
56	2.800000e+00	2.341961e+05	
57	2.850000e+00	2.350034e+05	
58	2.900000e+00	2.357832e+05	
59	2.950000e+00	2.365368e+05	
60	3.000000e+00	2.372653e+05	
61	3.050000e+00	2.379699e+05	
62	3.100000e+00	2.386514e+05	
63	3.150000e+00	2.393109e+05	
64	3.200000e+00	2.399493e+05	
65	3.250000e+00	2.405675e+05	
66	3.300000e+00	2.411662e+05	
67	3.350000e+00	2.417463e+05	
68	3.400000e+00	2.423085e+05	
69	3.450000e+00	2.428534e+05	
70	3.500000e+00	2.433818e+05	
71	3.550000e+00	2.438943e+05	
72	3.600000e+00	2.443914e+05	
73	3.650000e+00	2.448738e+05	
74	3.700000e+00	2.453421e+05	
75	3.750000e+00	2.457966e+05	
76	3.800000e+00	2.462380e+05	
77	3.850000e+00	2.466667e+05	
78	3.900000e+00	2.470832e+05	
79	3.950000e+00	2.474879e+05	
80	4.000000e+00	2.478811e+05	
81	4.050000e+00	2.482634e+05	
82	4.100000e+00	2.486351e+05	
83	4.150000e+00	2.489965e+05	
84	4.200000e+00	2.493480e+05	
85	4.250000e+00	2.496899e+05	
86	4.300000e+00	2.500225e+05	
87	4.350000e+00	2.503463e+05	
88	4.400000e+00	2.506613e+05	
89	4.450000e+00	2.509680e+05	
90	4.500000e+00	2.512665e+05	
91	4.550000e+00	2.515573e+05	
92	4.600000e+00	2.518404e+05	
93	4.650000e+00	2.521161e+05	
94	4.700000e+00	2.523847e+05	
95	4.750000e+00	2.526464e+05	
96	4.800000e+00	2.529014e+05	
97	4.850000e+00	2.531499e+05	
98	4.900000e+00	2.533921e+05	
99	4.950000e+00	2.536282e+05	
100	5.000000e+00	2.538583e+05	
101	5.050000e+00	2.540827e+05	
102	5.100000e+00	2.543015e+05	
103	5.150000e+00	2.545149e+05	
104	5.200000e+00	2.547230e+05	
105	5.250000e+00	2.549260e+05	
106	5.300000e+00	2.551240e+05	
107	5.350000e+00	2.553172e+05	
108	5.400000e+00	2.555057e+05	
109	5.450000e+00	2.556896e+05	
110	5.500000e+00	2.558690e+05	
111	5.550000e+00	2.560442e+05	
112	5.600000e+00	2.562151e+05	

Index   v-sweep         rds             
--------------------------------------------------------------------------------
113	5.650000e+00	2.563820e+05	
114	5.700000e+00	2.565449e+05	
115	5.750000e+00	2.567039e+05	
116	5.800000e+00	2.568592e+05	
117	5.850000e+00	2.570107e+05	
118	5.900000e+00	2.571588e+05	
119	5.950000e+00	2.573033e+05	
120	6.000000e+00	2.574444e+05	
121	6.050000e+00	2.575823e+05	
122	6.100000e+00	2.577169e+05	
123	6.150000e+00	2.578484e+05	
124	6.200000e+00	2.579768e+05	
125	6.250000e+00	2.581023e+05	
126	6.300000e+00	2.582249e+05	
127	6.350000e+00	2.583446e+05	
128	6.400000e+00	2.584616e+05	
129	6.450000e+00	2.585758e+05	
130	6.500000e+00	2.586875e+05	
131	6.550000e+00	2.587966e+05	
132	6.600000e+00	2.589032e+05	
Reset re-loads circuit ***************************

Circuit: ***************************

Doing analysis at TEMP = 25.000000 and TNOM = 25.000000


No. of Data Rows : 133
                          ***************************
                          DC transfer characteristic  Mon Jan  9 13:57:42  2023
--------------------------------------------------------------------------------
Index   v-sweep         rds             
--------------------------------------------------------------------------------
0	0.000000e+00	9.732205e+02	
1	5.000000e-02	1.059533e+03	
2	1.000000e-01	1.158235e+03	
3	1.500000e-01	1.272158e+03	
4	2.000000e-01	1.405073e+03	
5	2.500000e-01	1.562095e+03	
6	3.000000e-01	1.750343e+03	
7	3.500000e-01	1.980001e+03	
8	4.000000e-01	2.266111e+03	
9	4.500000e-01	2.631692e+03	
10	5.000000e-01	3.113145e+03	
11	5.500000e-01	3.768571e+03	
12	6.000000e-01	4.683778e+03	
13	6.500000e-01	5.950548e+03	
14	7.000000e-01	7.594854e+03	
15	7.500000e-01	9.536785e+03	
16	8.000000e-01	1.165539e+04	
17	8.500000e-01	1.385633e+04	
18	9.000000e-01	1.608286e+04	
19	9.500000e-01	1.830373e+04	
20	1.000000e+00	2.050198e+04	
21	1.050000e+00	2.266836e+04	
22	1.100000e+00	2.479783e+04	
23	1.150000e+00	2.688774e+04	
24	1.200000e+00	2.893682e+04	
25	1.250000e+00	3.094463e+04	
26	1.300000e+00	3.291126e+04	
27	1.350000e+00	3.483713e+04	
28	1.400000e+00	3.672283e+04	
29	1.450000e+00	3.856912e+04	
30	1.500000e+00	4.037683e+04	
31	1.550000e+00	4.214684e+04	
32	1.600000e+00	4.388004e+04	
33	1.650000e+00	4.557735e+04	
34	1.700000e+00	4.723968e+04	
35	1.750000e+00	4.886793e+04	
36	1.800000e+00	5.046301e+04	
37	1.850000e+00	5.202579e+04	
38	1.900000e+00	5.355712e+04	
39	1.950000e+00	5.505784e+04	
40	2.000000e+00	5.652878e+04	
41	2.050000e+00	5.797072e+04	
42	2.100000e+00	5.938443e+04	
43	2.150000e+00	6.077068e+04	
44	2.200000e+00	6.213017e+04	
45	2.250000e+00	6.346363e+04	
46	2.300000e+00	6.477174e+04	
47	2.350000e+00	6.605515e+04	
48	2.400000e+00	6.731452e+04	
49	2.450000e+00	6.855047e+04	
50	2.500000e+00	6.976359e+04	
51	2.550000e+00	7.095448e+04	
52	2.600000e+00	7.212370e+04	
53	2.650000e+00	7.327181e+04	
54	2.700000e+00	7.439932e+04	

Index   v-sweep         rds             
--------------------------------------------------------------------------------
55	2.750000e+00	7.550677e+04	
56	2.800000e+00	7.659465e+04	
57	2.850000e+00	7.766344e+04	
58	2.900000e+00	7.871361e+04	
59	2.950000e+00	7.974563e+04	
60	3.000000e+00	8.075992e+04	
61	3.050000e+00	8.175691e+04	
62	3.100000e+00	8.273703e+04	
63	3.150000e+00	8.370067e+04	
64	3.200000e+00	8.464822e+04	
65	3.250000e+00	8.558007e+04	
66	3.300000e+00	8.649657e+04	
67	3.350000e+00	8.739809e+04	
68	3.400000e+00	8.828496e+04	
69	3.450000e+00	8.915754e+04	
70	3.500000e+00	9.001613e+04	
71	3.550000e+00	9.086107e+04	
72	3.600000e+00	9.169264e+04	
73	3.650000e+00	9.251117e+04	
74	3.700000e+00	9.331692e+04	
75	3.750000e+00	9.411019e+04	
76	3.800000e+00	9.489125e+04	
77	3.850000e+00	9.566037e+04	
78	3.900000e+00	9.641780e+04	
79	3.950000e+00	9.716379e+04	
80	4.000000e+00	9.789860e+04	
81	4.050000e+00	9.862245e+04	
82	4.100000e+00	9.933558e+04	
83	4.150000e+00	1.000382e+05	
84	4.200000e+00	1.007306e+05	
85	4.250000e+00	1.014129e+05	
86	4.300000e+00	1.020853e+05	
87	4.350000e+00	1.027481e+05	
88	4.400000e+00	1.034014e+05	
89	4.450000e+00	1.040455e+05	
90	4.500000e+00	1.046805e+05	
91	4.550000e+00	1.053066e+05	
92	4.600000e+00	1.059239e+05	
93	4.650000e+00	1.065327e+05	
94	4.700000e+00	1.071332e+05	
95	4.750000e+00	1.077254e+05	
96	4.800000e+00	1.083096e+05	
97	4.850000e+00	1.088858e+05	
98	4.900000e+00	1.094544e+05	
99	4.950000e+00	1.100153e+05	
100	5.000000e+00	1.105687e+05	
101	5.050000e+00	1.111149e+05	
102	5.100000e+00	1.116538e+05	
103	5.150000e+00	1.121858e+05	
104	5.200000e+00	1.127108e+05	
105	5.250000e+00	1.132290e+05	
106	5.300000e+00	1.137405e+05	
107	5.350000e+00	1.142456e+05	
108	5.400000e+00	1.147442e+05	
109	5.450000e+00	1.152365e+05	
110	5.500000e+00	1.157226e+05	
111	5.550000e+00	1.162026e+05	
112	5.600000e+00	1.166767e+05	

Index   v-sweep         rds             
--------------------------------------------------------------------------------
113	5.650000e+00	1.171449e+05	
114	5.700000e+00	1.176073e+05	
115	5.750000e+00	1.180640e+05	
116	5.800000e+00	1.185153e+05	
117	5.850000e+00	1.189610e+05	
118	5.900000e+00	1.194013e+05	
119	5.950000e+00	1.198364e+05	
120	6.000000e+00	1.202663e+05	
121	6.050000e+00	1.206911e+05	
122	6.100000e+00	1.211109e+05	
123	6.150000e+00	1.215257e+05	
124	6.200000e+00	1.219357e+05	
125	6.250000e+00	1.223409e+05	
126	6.300000e+00	1.227415e+05	
127	6.350000e+00	1.231374e+05	
128	6.400000e+00	1.235288e+05	
129	6.450000e+00	1.239157e+05	
130	6.500000e+00	1.242982e+05	
131	6.550000e+00	1.246764e+05	
132	6.600000e+00	1.250504e+05	
Reset re-loads circuit ***************************

Circuit: ***************************

Doing analysis at TEMP = 25.000000 and TNOM = 25.000000


No. of Data Rows : 133
                          ***************************
                          DC transfer characteristic  Mon Jan  9 13:57:42  2023
--------------------------------------------------------------------------------
Index   v-sweep         rds             
--------------------------------------------------------------------------------
0	0.000000e+00	6.248222e+02	
1	5.000000e-02	6.624184e+02	
2	1.000000e-01	7.031195e+02	
3	1.500000e-01	7.473160e+02	
4	2.000000e-01	7.954676e+02	
5	2.500000e-01	8.481200e+02	
6	3.000000e-01	9.059261e+02	
7	3.500000e-01	9.696729e+02	
8	4.000000e-01	1.040319e+03	
9	4.500000e-01	1.119042e+03	
10	5.000000e-01	1.207312e+03	
11	5.500000e-01	1.306989e+03	
12	6.000000e-01	1.420480e+03	
13	6.500000e-01	1.550975e+03	
14	7.000000e-01	1.702867e+03	
15	7.500000e-01	1.882477e+03	
16	8.000000e-01	2.099431e+03	
17	8.500000e-01	2.369187e+03	
18	9.000000e-01	2.716996e+03	
19	9.500000e-01	3.181016e+03	
20	1.000000e+00	3.805964e+03	
21	1.050000e+00	4.620445e+03	
22	1.100000e+00	5.616456e+03	
23	1.150000e+00	6.756607e+03	
24	1.200000e+00	7.996824e+03	
25	1.250000e+00	9.300640e+03	
26	1.300000e+00	1.064210e+04	
27	1.350000e+00	1.200379e+04	
28	1.400000e+00	1.337423e+04	
29	1.450000e+00	1.474580e+04	
30	1.500000e+00	1.611341e+04	
31	1.550000e+00	1.747359e+04	
32	1.600000e+00	1.882398e+04	
33	1.650000e+00	2.016293e+04	
34	1.700000e+00	2.148930e+04	
35	1.750000e+00	2.280232e+04	
36	1.800000e+00	2.410144e+04	
37	1.850000e+00	2.538632e+04	
38	1.900000e+00	2.665674e+04	
39	1.950000e+00	2.791259e+04	
40	2.000000e+00	2.915382e+04	
41	2.050000e+00	3.038046e+04	
42	2.100000e+00	3.159256e+04	
43	2.150000e+00	3.279022e+04	
44	2.200000e+00	3.397355e+04	
45	2.250000e+00	3.514268e+04	
46	2.300000e+00	3.629778e+04	
47	2.350000e+00	3.743900e+04	
48	2.400000e+00	3.856651e+04	
49	2.450000e+00	3.968049e+04	
50	2.500000e+00	4.078113e+04	
51	2.550000e+00	4.186861e+04	
52	2.600000e+00	4.294311e+04	
53	2.650000e+00	4.400483e+04	
54	2.700000e+00	4.505395e+04	

Index   v-sweep         rds             
--------------------------------------------------------------------------------
55	2.750000e+00	4.609066e+04	
56	2.800000e+00	4.711514e+04	
57	2.850000e+00	4.812759e+04	
58	2.900000e+00	4.912818e+04	
59	2.950000e+00	5.011711e+04	
60	3.000000e+00	5.109454e+04	
61	3.050000e+00	5.206066e+04	
62	3.100000e+00	5.301564e+04	
63	3.150000e+00	5.395966e+04	
64	3.200000e+00	5.489288e+04	
65	3.250000e+00	5.581548e+04	
66	3.300000e+00	5.672761e+04	
67	3.350000e+00	5.762945e+04	
68	3.400000e+00	5.852115e+04	
69	3.450000e+00	5.940287e+04	
70	3.500000e+00	6.027476e+04	
71	3.550000e+00	6.113698e+04	
72	3.600000e+00	6.198968e+04	
73	3.650000e+00	6.283299e+04	
74	3.700000e+00	6.366708e+04	
75	3.750000e+00	6.449207e+04	
76	3.800000e+00	6.530810e+04	
77	3.850000e+00	6.611532e+04	
78	3.900000e+00	6.691386e+04	
79	3.950000e+00	6.770384e+04	
80	4.000000e+00	6.848540e+04	
81	4.050000e+00	6.925867e+04	
82	4.100000e+00	7.002377e+04	
83	4.150000e+00	7.078081e+04	
84	4.200000e+00	7.152993e+04	
85	4.250000e+00	7.227124e+04	
86	4.300000e+00	7.300485e+04	
87	4.350000e+00	7.373088e+04	
88	4.400000e+00	7.444944e+04	
89	4.450000e+00	7.516063e+04	
90	4.500000e+00	7.586458e+04	
91	4.550000e+00	7.656137e+04	
92	4.600000e+00	7.725112e+04	
93	4.650000e+00	7.793393e+04	
94	4.700000e+00	7.860989e+04	
95	4.750000e+00	7.927911e+04	
96	4.800000e+00	7.994168e+04	
97	4.850000e+00	8.059769e+04	
98	4.900000e+00	8.124724e+04	
99	4.950000e+00	8.189042e+04	
100	5.000000e+00	8.252732e+04	
101	5.050000e+00	8.315803e+04	
102	5.100000e+00	8.378263e+04	
103	5.150000e+00	8.440121e+04	
104	5.200000e+00	8.501385e+04	
105	5.250000e+00	8.562063e+04	
106	5.300000e+00	8.622163e+04	
107	5.350000e+00	8.681694e+04	
108	5.400000e+00	8.740663e+04	
109	5.450000e+00	8.799077e+04	
110	5.500000e+00	8.856944e+04	
111	5.550000e+00	8.914272e+04	
112	5.600000e+00	8.971068e+04	

Index   v-sweep         rds             
--------------------------------------------------------------------------------
113	5.650000e+00	9.027339e+04	
114	5.700000e+00	9.083091e+04	
115	5.750000e+00	9.138332e+04	
116	5.800000e+00	9.193069e+04	
117	5.850000e+00	9.247307e+04	
118	5.900000e+00	9.301055e+04	
119	5.950000e+00	9.354317e+04	
120	6.000000e+00	9.407101e+04	
121	6.050000e+00	9.459412e+04	
122	6.100000e+00	9.511257e+04	
123	6.150000e+00	9.562642e+04	
124	6.200000e+00	9.613572e+04	
125	6.250000e+00	9.664053e+04	
126	6.300000e+00	9.714092e+04	
127	6.350000e+00	9.763693e+04	
128	6.400000e+00	9.812863e+04	
129	6.450000e+00	9.861606e+04	
130	6.500000e+00	9.909929e+04	
131	6.550000e+00	9.957835e+04	
132	6.600000e+00	1.000533e+05	
Reset re-loads circuit ***************************

Circuit: ***************************

Doing analysis at TEMP = 25.000000 and TNOM = 25.000000


No. of Data Rows : 133
                          ***************************
                          DC transfer characteristic  Mon Jan  9 13:57:42  2023
--------------------------------------------------------------------------------
Index   v-sweep         rds             
--------------------------------------------------------------------------------
0	0.000000e+00	4.937820e+02	
1	5.000000e-02	5.172963e+02	
2	1.000000e-01	5.422045e+02	
3	1.500000e-01	5.686288e+02	
4	2.000000e-01	5.967066e+02	
5	2.500000e-01	6.265930e+02	
6	3.000000e-01	6.584640e+02	
7	3.500000e-01	6.925203e+02	
8	4.000000e-01	7.289910e+02	
9	4.500000e-01	7.681396e+02	
10	5.000000e-01	8.102697e+02	
11	5.500000e-01	8.557334e+02	
12	6.000000e-01	9.049417e+02	
13	6.500000e-01	9.583779e+02	
14	7.000000e-01	1.016616e+03	
15	7.500000e-01	1.080346e+03	
16	8.000000e-01	1.150412e+03	
17	8.500000e-01	1.227868e+03	
18	9.000000e-01	1.314066e+03	
19	9.500000e-01	1.410810e+03	
20	1.000000e+00	1.520620e+03	
21	1.050000e+00	1.647216e+03	
22	1.100000e+00	1.796397e+03	
23	1.150000e+00	1.977557e+03	
24	1.200000e+00	2.205836e+03	
25	1.250000e+00	2.503727e+03	
26	1.300000e+00	2.898604e+03	
27	1.350000e+00	3.413026e+03	
28	1.400000e+00	4.053059e+03	
29	1.450000e+00	4.806061e+03	
30	1.500000e+00	5.649014e+03	
31	1.550000e+00	6.558002e+03	
32	1.600000e+00	7.513073e+03	
33	1.650000e+00	8.499201e+03	
34	1.700000e+00	9.505559e+03	
35	1.750000e+00	1.052446e+04	
36	1.800000e+00	1.155045e+04	
37	1.850000e+00	1.257962e+04	
38	1.900000e+00	1.360914e+04	
39	1.950000e+00	1.463694e+04	
40	2.000000e+00	1.566150e+04	
41	2.050000e+00	1.668166e+04	
42	2.100000e+00	1.769658e+04	
43	2.150000e+00	1.870560e+04	
44	2.200000e+00	1.970822e+04	
45	2.250000e+00	2.070407e+04	
46	2.300000e+00	2.169287e+04	
47	2.350000e+00	2.267440e+04	
48	2.400000e+00	2.364850e+04	
49	2.450000e+00	2.461507e+04	
50	2.500000e+00	2.557403e+04	
51	2.550000e+00	2.652531e+04	
52	2.600000e+00	2.746890e+04	
53	2.650000e+00	2.840479e+04	
54	2.700000e+00	2.933298e+04	

Index   v-sweep         rds             
--------------------------------------------------------------------------------
55	2.750000e+00	3.025350e+04	
56	2.800000e+00	3.116635e+04	
57	2.850000e+00	3.207160e+04	
58	2.900000e+00	3.296927e+04	
59	2.950000e+00	3.385941e+04	
60	3.000000e+00	3.474209e+04	
61	3.050000e+00	3.561735e+04	
62	3.100000e+00	3.648526e+04	
63	3.150000e+00	3.734587e+04	
64	3.200000e+00	3.819926e+04	
65	3.250000e+00	3.904548e+04	
66	3.300000e+00	3.988461e+04	
67	3.350000e+00	4.071672e+04	
68	3.400000e+00	4.154187e+04	
69	3.450000e+00	4.236014e+04	
70	3.500000e+00	4.317159e+04	
71	3.550000e+00	4.397629e+04	
72	3.600000e+00	4.477431e+04	
73	3.650000e+00	4.556574e+04	
74	3.700000e+00	4.635062e+04	
75	3.750000e+00	4.712904e+04	
76	3.800000e+00	4.790106e+04	
77	3.850000e+00	4.866675e+04	
78	3.900000e+00	4.942618e+04	
79	3.950000e+00	5.017943e+04	
80	4.000000e+00	5.092654e+04	
81	4.050000e+00	5.166760e+04	
82	4.100000e+00	5.240267e+04	
83	4.150000e+00	5.313182e+04	
84	4.200000e+00	5.385510e+04	
85	4.250000e+00	5.457259e+04	
86	4.300000e+00	5.528434e+04	
87	4.350000e+00	5.599042e+04	
88	4.400000e+00	5.669090e+04	
89	4.450000e+00	5.738583e+04	
90	4.500000e+00	5.807528e+04	
91	4.550000e+00	5.875930e+04	
92	4.600000e+00	5.943796e+04	
93	4.650000e+00	6.011131e+04	
94	4.700000e+00	6.077941e+04	
95	4.750000e+00	6.144232e+04	
96	4.800000e+00	6.210009e+04	
97	4.850000e+00	6.275279e+04	
98	4.900000e+00	6.340046e+04	
99	4.950000e+00	6.404316e+04	
100	5.000000e+00	6.468095e+04	
101	5.050000e+00	6.531387e+04	
102	5.100000e+00	6.594199e+04	
103	5.150000e+00	6.656535e+04	
104	5.200000e+00	6.718400e+04	
105	5.250000e+00	6.779799e+04	
106	5.300000e+00	6.840738e+04	
107	5.350000e+00	6.901221e+04	
108	5.400000e+00	6.961253e+04	
109	5.450000e+00	7.020840e+04	
110	5.500000e+00	7.079984e+04	
111	5.550000e+00	7.138692e+04	
112	5.600000e+00	7.196968e+04	

Index   v-sweep         rds             
--------------------------------------------------------------------------------
113	5.650000e+00	7.254817e+04	
114	5.700000e+00	7.312242e+04	
115	5.750000e+00	7.369249e+04	
116	5.800000e+00	7.425842e+04	
117	5.850000e+00	7.482024e+04	
118	5.900000e+00	7.537801e+04	
119	5.950000e+00	7.593177e+04	
120	6.000000e+00	7.648155e+04	
121	6.050000e+00	7.702740e+04	
122	6.100000e+00	7.756936e+04	
123	6.150000e+00	7.810747e+04	
124	6.200000e+00	7.864177e+04	
125	6.250000e+00	7.917229e+04	
126	6.300000e+00	7.969908e+04	
127	6.350000e+00	8.022217e+04	
128	6.400000e+00	8.074160e+04	
129	6.450000e+00	8.125740e+04	
130	6.500000e+00	8.176963e+04	
131	6.550000e+00	8.227830e+04	
132	6.600000e+00	8.278346e+04	
Reset re-loads circuit ***************************

Circuit: ***************************

Doing analysis at TEMP = 25.000000 and TNOM = 25.000000


No. of Data Rows : 133
                          ***************************
                          DC transfer characteristic  Mon Jan  9 13:57:42  2023
--------------------------------------------------------------------------------
Index   v-sweep         rds             
--------------------------------------------------------------------------------
0	0.000000e+00	4.305278e+02	
1	5.000000e-02	4.476295e+02	
2	1.000000e-01	4.655269e+02	
3	1.500000e-01	4.842734e+02	
4	2.000000e-01	5.039279e+02	
5	2.500000e-01	5.245548e+02	
6	3.000000e-01	5.462254e+02	
7	3.500000e-01	5.690184e+02	
8	4.000000e-01	5.930214e+02	
9	4.500000e-01	6.183315e+02	
10	5.000000e-01	6.450570e+02	
11	5.500000e-01	6.733185e+02	
12	6.000000e-01	7.032515e+02	
13	6.500000e-01	7.350074e+02	
14	7.000000e-01	7.687572e+02	
15	7.500000e-01	8.046939e+02	
16	8.000000e-01	8.430370e+02	
17	8.500000e-01	8.840374e+02	
18	9.000000e-01	9.279844e+02	
19	9.500000e-01	9.752149e+02	
20	1.000000e+00	1.026127e+03	
21	1.050000e+00	1.081196e+03	
22	1.100000e+00	1.141009e+03	
23	1.150000e+00	1.206303e+03	
24	1.200000e+00	1.278044e+03	
25	1.250000e+00	1.357549e+03	
26	1.300000e+00	1.446709e+03	
27	1.350000e+00	1.548364e+03	
28	1.400000e+00	1.666956e+03	
29	1.450000e+00	1.809537e+03	
30	1.500000e+00	1.987018e+03	
31	1.550000e+00	2.214856e+03	
32	1.600000e+00	2.511377e+03	
33	1.650000e+00	2.892396e+03	
34	1.700000e+00	3.364584e+03	
35	1.750000e+00	3.923037e+03	
36	1.800000e+00	4.554722e+03	
37	1.850000e+00	5.243964e+03	
38	1.900000e+00	5.976273e+03	
39	1.950000e+00	6.739846e+03	
40	2.000000e+00	7.525648e+03	
41	2.050000e+00	8.326960e+03	
42	2.100000e+00	9.138826e+03	
43	2.150000e+00	9.957588e+03	
44	2.200000e+00	1.078053e+04	
45	2.250000e+00	1.160561e+04	
46	2.300000e+00	1.243130e+04	
47	2.350000e+00	1.325641e+04	
48	2.400000e+00	1.408002e+04	
49	2.450000e+00	1.490144e+04	
50	2.500000e+00	1.572011e+04	
51	2.550000e+00	1.653558e+04	
52	2.600000e+00	1.734751e+04	
53	2.650000e+00	1.815563e+04	
54	2.700000e+00	1.895971e+04	

Index   v-sweep         rds             
--------------------------------------------------------------------------------
55	2.750000e+00	1.975958e+04	
56	2.800000e+00	2.055510e+04	
57	2.850000e+00	2.134616e+04	
58	2.900000e+00	2.213266e+04	
59	2.950000e+00	2.291456e+04	
60	3.000000e+00	2.369178e+04	
61	3.050000e+00	2.446431e+04	
62	3.100000e+00	2.523210e+04	
63	3.150000e+00	2.599514e+04	
64	3.200000e+00	2.675343e+04	
65	3.250000e+00	2.750696e+04	
66	3.300000e+00	2.825573e+04	
67	3.350000e+00	2.899975e+04	
68	3.400000e+00	2.973904e+04	
69	3.450000e+00	3.047360e+04	
70	3.500000e+00	3.120346e+04	
71	3.550000e+00	3.192864e+04	
72	3.600000e+00	3.264915e+04	
73	3.650000e+00	3.336504e+04	
74	3.700000e+00	3.407631e+04	
75	3.750000e+00	3.478300e+04	
76	3.800000e+00	3.548514e+04	
77	3.850000e+00	3.618275e+04	
78	3.900000e+00	3.687587e+04	
79	3.950000e+00	3.756453e+04	
80	4.000000e+00	3.824877e+04	
81	4.050000e+00	3.892860e+04	
82	4.100000e+00	3.960407e+04	
83	4.150000e+00	4.027521e+04	
84	4.200000e+00	4.094205e+04	
85	4.250000e+00	4.160463e+04	
86	4.300000e+00	4.226297e+04	
87	4.350000e+00	4.291712e+04	
88	4.400000e+00	4.356710e+04	
89	4.450000e+00	4.421295e+04	
90	4.500000e+00	4.485471e+04	
91	4.550000e+00	4.549240e+04	
92	4.600000e+00	4.612606e+04	
93	4.650000e+00	4.675572e+04	
94	4.700000e+00	4.738142e+04	
95	4.750000e+00	4.800319e+04	
96	4.800000e+00	4.862106e+04	
97	4.850000e+00	4.923506e+04	
98	4.900000e+00	4.984524e+04	
99	4.950000e+00	5.045161e+04	
100	5.000000e+00	5.105421e+04	
101	5.050000e+00	5.165307e+04	
102	5.100000e+00	5.224823e+04	
103	5.150000e+00	5.283972e+04	
104	5.200000e+00	5.342756e+04	
105	5.250000e+00	5.401179e+04	
106	5.300000e+00	5.459244e+04	
107	5.350000e+00	5.516954e+04	
108	5.400000e+00	5.574311e+04	
109	5.450000e+00	5.631320e+04	
110	5.500000e+00	5.687982e+04	
111	5.550000e+00	5.744301e+04	
112	5.600000e+00	5.800280e+04	

Index   v-sweep         rds             
--------------------------------------------------------------------------------
113	5.650000e+00	5.855921e+04	
114	5.700000e+00	5.911228e+04	
115	5.750000e+00	5.966203e+04	
116	5.800000e+00	6.020848e+04	
117	5.850000e+00	6.075168e+04	
118	5.900000e+00	6.129164e+04	
119	5.950000e+00	6.182839e+04	
120	6.000000e+00	6.236196e+04	
121	6.050000e+00	6.289238e+04	
122	6.100000e+00	6.341967e+04	
123	6.150000e+00	6.394386e+04	
124	6.200000e+00	6.446498e+04	
125	6.250000e+00	6.498304e+04	
126	6.300000e+00	6.549808e+04	
127	6.350000e+00	6.601012e+04	
128	6.400000e+00	6.651918e+04	
129	6.450000e+00	6.702530e+04	
130	6.500000e+00	6.752849e+04	
131	6.550000e+00	6.802878e+04	
132	6.600000e+00	6.852619e+04	
Reset re-loads circuit ***************************

Circuit: ***************************

Doing analysis at TEMP = 25.000000 and TNOM = 25.000000


No. of Data Rows : 133
                          ***************************
                          DC transfer characteristic  Mon Jan  9 13:57:42  2023
--------------------------------------------------------------------------------
Index   v-sweep         rds             
--------------------------------------------------------------------------------
0	0.000000e+00	3.973712e+02	
1	5.000000e-02	4.108629e+02	
2	1.000000e-01	4.248708e+02	
3	1.500000e-01	4.394230e+02	
4	2.000000e-01	4.545500e+02	
5	2.500000e-01	4.702844e+02	
6	3.000000e-01	4.866619e+02	
7	3.500000e-01	5.037209e+02	
8	4.000000e-01	5.215035e+02	
9	4.500000e-01	5.400554e+02	
10	5.000000e-01	5.594265e+02	
11	5.500000e-01	5.796714e+02	
12	6.000000e-01	6.008499e+02	
13	6.500000e-01	6.230272e+02	
14	7.000000e-01	6.462752e+02	
15	7.500000e-01	6.706725e+02	
16	8.000000e-01	6.963059e+02	
17	8.500000e-01	7.232709e+02	
18	9.000000e-01	7.516734e+02	
19	9.500000e-01	7.816306e+02	
20	1.000000e+00	8.132733e+02	
21	1.050000e+00	8.467481e+02	
22	1.100000e+00	8.822202e+02	
23	1.150000e+00	9.198772e+02	
24	1.200000e+00	9.599345e+02	
25	1.250000e+00	1.002642e+03	
26	1.300000e+00	1.048297e+03	
27	1.350000e+00	1.097254e+03	
28	1.400000e+00	1.149955e+03	
29	1.450000e+00	1.206962e+03	
30	1.500000e+00	1.269022e+03	
31	1.550000e+00	1.337166e+03	
32	1.600000e+00	1.412878e+03	
33	1.650000e+00	1.498381e+03	
34	1.700000e+00	1.597085e+03	
35	1.750000e+00	1.714245e+03	
36	1.800000e+00	1.857712e+03	
37	1.850000e+00	2.038314e+03	
38	1.900000e+00	2.268925e+03	
39	1.950000e+00	2.561440e+03	
40	2.000000e+00	2.922657e+03	
41	2.050000e+00	3.351873e+03	
42	2.100000e+00	3.841927e+03	
43	2.150000e+00	4.382368e+03	
44	2.200000e+00	4.962398e+03	
45	2.250000e+00	5.572516e+03	
46	2.300000e+00	6.205041e+03	
47	2.350000e+00	6.854017e+03	
48	2.400000e+00	7.514923e+03	
49	2.450000e+00	8.184348e+03	
50	2.500000e+00	8.859710e+03	
51	2.550000e+00	9.539049e+03	
52	2.600000e+00	1.022086e+04	
53	2.650000e+00	1.090399e+04	
54	2.700000e+00	1.158753e+04	

Index   v-sweep         rds             
--------------------------------------------------------------------------------
55	2.750000e+00	1.227077e+04	
56	2.800000e+00	1.295314e+04	
57	2.850000e+00	1.363420e+04	
58	2.900000e+00	1.431357e+04	
59	2.950000e+00	1.499097e+04	
60	3.000000e+00	1.566616e+04	
61	3.050000e+00	1.633894e+04	
62	3.100000e+00	1.700916e+04	
63	3.150000e+00	1.767668e+04	
64	3.200000e+00	1.834140e+04	
65	3.250000e+00	1.900323e+04	
66	3.300000e+00	1.966209e+04	
67	3.350000e+00	2.031794e+04	
68	3.400000e+00	2.097071e+04	
69	3.450000e+00	2.162038e+04	
70	3.500000e+00	2.226692e+04	
71	3.550000e+00	2.291029e+04	
72	3.600000e+00	2.355048e+04	
73	3.650000e+00	2.418748e+04	
74	3.700000e+00	2.482129e+04	
75	3.750000e+00	2.545188e+04	
76	3.800000e+00	2.607928e+04	
77	3.850000e+00	2.670346e+04	
78	3.900000e+00	2.732445e+04	
79	3.950000e+00	2.794224e+04	
80	4.000000e+00	2.855683e+04	
81	4.050000e+00	2.916825e+04	
82	4.100000e+00	2.977650e+04	
83	4.150000e+00	3.038158e+04	
84	4.200000e+00	3.098352e+04	
85	4.250000e+00	3.158232e+04	
86	4.300000e+00	3.217801e+04	
87	4.350000e+00	3.277058e+04	
88	4.400000e+00	3.336007e+04	
89	4.450000e+00	3.394648e+04	
90	4.500000e+00	3.452984e+04	
91	4.550000e+00	3.511015e+04	
92	4.600000e+00	3.568743e+04	
93	4.650000e+00	3.626171e+04	
94	4.700000e+00	3.683300e+04	
95	4.750000e+00	3.740131e+04	
96	4.800000e+00	3.796667e+04	
97	4.850000e+00	3.852910e+04	
98	4.900000e+00	3.908861e+04	
99	4.950000e+00	3.964521e+04	
100	5.000000e+00	4.019894e+04	
101	5.050000e+00	4.074980e+04	
102	5.100000e+00	4.129781e+04	
103	5.150000e+00	4.184300e+04	
104	5.200000e+00	4.238538e+04	
105	5.250000e+00	4.292498e+04	
106	5.300000e+00	4.346180e+04	
107	5.350000e+00	4.399587e+04	
108	5.400000e+00	4.452720e+04	
109	5.450000e+00	4.505582e+04	
110	5.500000e+00	4.558174e+04	
111	5.550000e+00	4.610498e+04	
112	5.600000e+00	4.662556e+04	

Index   v-sweep         rds             
--------------------------------------------------------------------------------
113	5.650000e+00	4.714350e+04	
114	5.700000e+00	4.765881e+04	
115	5.750000e+00	4.817152e+04	
116	5.800000e+00	4.868163e+04	
117	5.850000e+00	4.918918e+04	
118	5.900000e+00	4.969417e+04	
119	5.950000e+00	5.019662e+04	
120	6.000000e+00	5.069656e+04	
121	6.050000e+00	5.119399e+04	
122	6.100000e+00	5.168894e+04	
123	6.150000e+00	5.218142e+04	
124	6.200000e+00	5.267144e+04	
125	6.250000e+00	5.315904e+04	
126	6.300000e+00	5.364422e+04	
127	6.350000e+00	5.412700e+04	
128	6.400000e+00	5.460739e+04	
129	6.450000e+00	5.508542e+04	
130	6.500000e+00	5.556109e+04	
131	6.550000e+00	5.603443e+04	
132	6.600000e+00	5.650546e+04	
Reset re-loads circuit ***************************

Circuit: ***************************

Note: No ".plot", ".print", or ".fourier" lines; no simulations run
