
Note: Compatibility modes selected: hs

Warning: m=xx on .subckt line will override multiplier m hierarchy!


Circuit: ***************************

Doing analysis at TEMP = -40.000000 and TNOM = -40.000000


No. of Data Rows : 133
                          ***************************
                          DC transfer characteristic  Mon Jan  9 13:57:42  2023
--------------------------------------------------------------------------------
Index   v-sweep         rds             
--------------------------------------------------------------------------------
0	0.000000e+00	5.939439e+03	
1	5.000000e-02	9.024547e+03	
2	1.000000e-01	1.698968e+04	
3	1.500000e-01	4.282028e+04	
4	2.000000e-01	1.001373e+05	
5	2.500000e-01	1.671146e+05	
6	3.000000e-01	2.282215e+05	
7	3.500000e-01	2.830437e+05	
8	4.000000e-01	3.331491e+05	
9	4.500000e-01	3.796140e+05	
10	5.000000e-01	4.230949e+05	
11	5.500000e-01	4.640164e+05	
12	6.000000e-01	5.026767e+05	
13	6.500000e-01	5.393013e+05	
14	7.000000e-01	5.740706e+05	
15	7.500000e-01	6.071350e+05	
16	8.000000e-01	6.386234e+05	
17	8.500000e-01	6.686488e+05	
18	9.000000e-01	6.973116e+05	
19	9.500000e-01	7.247019e+05	
20	1.000000e+00	7.509012e+05	
21	1.050000e+00	7.759838e+05	
22	1.100000e+00	8.000175e+05	
23	1.150000e+00	8.230647e+05	
24	1.200000e+00	8.451826e+05	
25	1.250000e+00	8.664242e+05	
26	1.300000e+00	8.868385e+05	
27	1.350000e+00	9.064708e+05	
28	1.400000e+00	9.253634e+05	
29	1.450000e+00	9.435553e+05	
30	1.500000e+00	9.610832e+05	
31	1.550000e+00	9.779810e+05	
32	1.600000e+00	9.942805e+05	
33	1.650000e+00	1.010011e+06	
34	1.700000e+00	1.025202e+06	
35	1.750000e+00	1.039877e+06	
36	1.800000e+00	1.054062e+06	
37	1.850000e+00	1.067780e+06	
38	1.900000e+00	1.081053e+06	
39	1.950000e+00	1.093900e+06	
40	2.000000e+00	1.106340e+06	
41	2.050000e+00	1.118392e+06	
42	2.100000e+00	1.130073e+06	
43	2.150000e+00	1.141399e+06	
44	2.200000e+00	1.152384e+06	
45	2.250000e+00	1.163043e+06	
46	2.300000e+00	1.173390e+06	
47	2.350000e+00	1.183437e+06	
48	2.400000e+00	1.193197e+06	
49	2.450000e+00	1.202681e+06	
50	2.500000e+00	1.211900e+06	
51	2.550000e+00	1.220864e+06	
52	2.600000e+00	1.229583e+06	
53	2.650000e+00	1.238067e+06	
54	2.700000e+00	1.246324e+06	

Index   v-sweep         rds             
--------------------------------------------------------------------------------
55	2.750000e+00	1.254363e+06	
56	2.800000e+00	1.262191e+06	
57	2.850000e+00	1.269817e+06	
58	2.900000e+00	1.277248e+06	
59	2.950000e+00	1.284491e+06	
60	3.000000e+00	1.291552e+06	
61	3.050000e+00	1.298438e+06	
62	3.100000e+00	1.305155e+06	
63	3.150000e+00	1.311708e+06	
64	3.200000e+00	1.318104e+06	
65	3.250000e+00	1.324347e+06	
66	3.300000e+00	1.330442e+06	
67	3.350000e+00	1.336395e+06	
68	3.400000e+00	1.342209e+06	
69	3.450000e+00	1.347891e+06	
70	3.500000e+00	1.353442e+06	
71	3.550000e+00	1.358869e+06	
72	3.600000e+00	1.364174e+06	
73	3.650000e+00	1.369362e+06	
74	3.700000e+00	1.374436e+06	
75	3.750000e+00	1.379399e+06	
76	3.800000e+00	1.384255e+06	
77	3.850000e+00	1.389008e+06	
78	3.900000e+00	1.393659e+06	
79	3.950000e+00	1.398213e+06	
80	4.000000e+00	1.402671e+06	
81	4.050000e+00	1.407037e+06	
82	4.100000e+00	1.411314e+06	
83	4.150000e+00	1.415503e+06	
84	4.200000e+00	1.419608e+06	
85	4.250000e+00	1.423631e+06	
86	4.300000e+00	1.427573e+06	
87	4.350000e+00	1.431438e+06	
88	4.400000e+00	1.435227e+06	
89	4.450000e+00	1.438942e+06	
90	4.500000e+00	1.442586e+06	
91	4.550000e+00	1.446159e+06	
92	4.600000e+00	1.449665e+06	
93	4.650000e+00	1.453105e+06	
94	4.700000e+00	1.456480e+06	
95	4.750000e+00	1.459792e+06	
96	4.800000e+00	1.463044e+06	
97	4.850000e+00	1.466235e+06	
98	4.900000e+00	1.469369e+06	
99	4.950000e+00	1.472445e+06	
100	5.000000e+00	1.475467e+06	
101	5.050000e+00	1.478434e+06	
102	5.100000e+00	1.481349e+06	
103	5.150000e+00	1.484213e+06	
104	5.200000e+00	1.487026e+06	
105	5.250000e+00	1.489791e+06	
106	5.300000e+00	1.492508e+06	
107	5.350000e+00	1.495178e+06	
108	5.400000e+00	1.497803e+06	
109	5.450000e+00	1.500383e+06	
110	5.500000e+00	1.502920e+06	
111	5.550000e+00	1.505414e+06	
112	5.600000e+00	1.507867e+06	

Index   v-sweep         rds             
--------------------------------------------------------------------------------
113	5.650000e+00	1.510280e+06	
114	5.700000e+00	1.512652e+06	
115	5.750000e+00	1.514987e+06	
116	5.800000e+00	1.517283e+06	
117	5.850000e+00	1.519542e+06	
118	5.900000e+00	1.521765e+06	
119	5.950000e+00	1.523952e+06	
120	6.000000e+00	1.526105e+06	
121	6.050000e+00	1.528224e+06	
122	6.100000e+00	1.530309e+06	
123	6.150000e+00	1.532362e+06	
124	6.200000e+00	1.534384e+06	
125	6.250000e+00	1.536374e+06	
126	6.300000e+00	1.538334e+06	
127	6.350000e+00	1.540263e+06	
128	6.400000e+00	1.542164e+06	
129	6.450000e+00	1.544036e+06	
130	6.500000e+00	1.545879e+06	
131	6.550000e+00	1.547696e+06	
132	6.600000e+00	1.549485e+06	
Reset re-loads circuit ***************************

Circuit: ***************************

Doing analysis at TEMP = -40.000000 and TNOM = -40.000000


No. of Data Rows : 133
                          ***************************
                          DC transfer characteristic  Mon Jan  9 13:57:42  2023
--------------------------------------------------------------------------------
Index   v-sweep         rds             
--------------------------------------------------------------------------------
0	0.000000e+00	1.108436e+03	
1	5.000000e-02	1.204680e+03	
2	1.000000e-01	1.315126e+03	
3	1.500000e-01	1.443141e+03	
4	2.000000e-01	1.593255e+03	
5	2.500000e-01	1.771699e+03	
6	3.000000e-01	1.987300e+03	
7	3.500000e-01	2.252990e+03	
8	4.000000e-01	2.588505e+03	
9	4.500000e-01	3.025496e+03	
10	5.000000e-01	3.617571e+03	
11	5.500000e-01	4.459441e+03	
12	6.000000e-01	5.714085e+03	
13	6.500000e-01	7.608271e+03	
14	7.000000e-01	1.031309e+04	
15	7.500000e-01	1.379210e+04	
16	8.000000e-01	1.784706e+04	
17	8.500000e-01	2.226852e+04	
18	9.000000e-01	2.690450e+04	
19	9.500000e-01	3.165848e+04	
20	1.000000e+00	3.647119e+04	
21	1.050000e+00	4.130596e+04	
22	1.100000e+00	4.613962e+04	
23	1.150000e+00	5.095716e+04	
24	1.200000e+00	5.574866e+04	
25	1.250000e+00	6.050744e+04	
26	1.300000e+00	6.522893e+04	
27	1.350000e+00	6.991002e+04	
28	1.400000e+00	7.454857e+04	
29	1.450000e+00	7.914316e+04	
30	1.500000e+00	8.369284e+04	
31	1.550000e+00	8.819706e+04	
32	1.600000e+00	9.265551e+04	
33	1.650000e+00	9.706810e+04	
34	1.700000e+00	1.014349e+05	
35	1.750000e+00	1.057560e+05	
36	1.800000e+00	1.100318e+05	
37	1.850000e+00	1.142626e+05	
38	1.900000e+00	1.184487e+05	
39	1.950000e+00	1.225906e+05	
40	2.000000e+00	1.266887e+05	
41	2.050000e+00	1.307435e+05	
42	2.100000e+00	1.347556e+05	
43	2.150000e+00	1.387253e+05	
44	2.200000e+00	1.426533e+05	
45	2.250000e+00	1.465401e+05	
46	2.300000e+00	1.503862e+05	
47	2.350000e+00	1.541920e+05	
48	2.400000e+00	1.579583e+05	
49	2.450000e+00	1.616854e+05	
50	2.500000e+00	1.653739e+05	
51	2.550000e+00	1.690243e+05	
52	2.600000e+00	1.726372e+05	
53	2.650000e+00	1.762131e+05	
54	2.700000e+00	1.797524e+05	

Index   v-sweep         rds             
--------------------------------------------------------------------------------
55	2.750000e+00	1.832557e+05	
56	2.800000e+00	1.867234e+05	
57	2.850000e+00	1.901561e+05	
58	2.900000e+00	1.935543e+05	
59	2.950000e+00	1.969184e+05	
60	3.000000e+00	2.002488e+05	
61	3.050000e+00	2.035461e+05	
62	3.100000e+00	2.068107e+05	
63	3.150000e+00	2.100431e+05	
64	3.200000e+00	2.132437e+05	
65	3.250000e+00	2.164129e+05	
66	3.300000e+00	2.195512e+05	
67	3.350000e+00	2.226590e+05	
68	3.400000e+00	2.257367e+05	
69	3.450000e+00	2.287847e+05	
70	3.500000e+00	2.318034e+05	
71	3.550000e+00	2.347932e+05	
72	3.600000e+00	2.377545e+05	
73	3.650000e+00	2.406878e+05	
74	3.700000e+00	2.435933e+05	
75	3.750000e+00	2.464714e+05	
76	3.800000e+00	2.493226e+05	
77	3.850000e+00	2.521471e+05	
78	3.900000e+00	2.549453e+05	
79	3.950000e+00	2.577176e+05	
80	4.000000e+00	2.604643e+05	
81	4.050000e+00	2.631857e+05	
82	4.100000e+00	2.658823e+05	
83	4.150000e+00	2.685542e+05	
84	4.200000e+00	2.712018e+05	
85	4.250000e+00	2.738255e+05	
86	4.300000e+00	2.764255e+05	
87	4.350000e+00	2.790022e+05	
88	4.400000e+00	2.815559e+05	
89	4.450000e+00	2.840867e+05	
90	4.500000e+00	2.865951e+05	
91	4.550000e+00	2.890814e+05	
92	4.600000e+00	2.915457e+05	
93	4.650000e+00	2.939885e+05	
94	4.700000e+00	2.964098e+05	
95	4.750000e+00	2.988101e+05	
96	4.800000e+00	3.011896e+05	
97	4.850000e+00	3.035485e+05	
98	4.900000e+00	3.058872e+05	
99	4.950000e+00	3.082057e+05	
100	5.000000e+00	3.105045e+05	
101	5.050000e+00	3.127837e+05	
102	5.100000e+00	3.150436e+05	
103	5.150000e+00	3.172844e+05	
104	5.200000e+00	3.195064e+05	
105	5.250000e+00	3.217097e+05	
106	5.300000e+00	3.238947e+05	
107	5.350000e+00	3.260614e+05	
108	5.400000e+00	3.282102e+05	
109	5.450000e+00	3.303413e+05	
110	5.500000e+00	3.324548e+05	
111	5.550000e+00	3.345510e+05	
112	5.600000e+00	3.366300e+05	

Index   v-sweep         rds             
--------------------------------------------------------------------------------
113	5.650000e+00	3.386922e+05	
114	5.700000e+00	3.407376e+05	
115	5.750000e+00	3.427665e+05	
116	5.800000e+00	3.447791e+05	
117	5.850000e+00	3.467755e+05	
118	5.900000e+00	3.487560e+05	
119	5.950000e+00	3.507207e+05	
120	6.000000e+00	3.526698e+05	
121	6.050000e+00	3.546035e+05	
122	6.100000e+00	3.565220e+05	
123	6.150000e+00	3.584254e+05	
124	6.200000e+00	3.603139e+05	
125	6.250000e+00	3.621877e+05	
126	6.300000e+00	3.640469e+05	
127	6.350000e+00	3.658917e+05	
128	6.400000e+00	3.677223e+05	
129	6.450000e+00	3.695389e+05	
130	6.500000e+00	3.713415e+05	
131	6.550000e+00	3.731304e+05	
132	6.600000e+00	3.749056e+05	
Reset re-loads circuit ***************************

Circuit: ***************************

Doing analysis at TEMP = -40.000000 and TNOM = -40.000000


No. of Data Rows : 133
                          ***************************
                          DC transfer characteristic  Mon Jan  9 13:57:42  2023
--------------------------------------------------------------------------------
Index   v-sweep         rds             
--------------------------------------------------------------------------------
0	0.000000e+00	6.826316e+02	
1	5.000000e-02	7.212154e+02	
2	1.000000e-01	7.629205e+02	
3	1.500000e-01	8.081341e+02	
4	2.000000e-01	8.573116e+02	
5	2.500000e-01	9.109920e+02	
6	3.000000e-01	9.698191e+02	
7	3.500000e-01	1.034568e+03	
8	4.000000e-01	1.106182e+03	
9	4.500000e-01	1.185819e+03	
10	5.000000e-01	1.274924e+03	
11	5.500000e-01	1.375327e+03	
12	6.000000e-01	1.489395e+03	
13	6.500000e-01	1.620277e+03	
14	7.000000e-01	1.772302e+03	
15	7.500000e-01	1.951698e+03	
16	8.000000e-01	2.167920e+03	
17	8.500000e-01	2.436198e+03	
18	9.000000e-01	2.782253e+03	
19	9.500000e-01	3.249699e+03	
20	1.000000e+00	3.906304e+03	
21	1.050000e+00	4.835416e+03	
22	1.100000e+00	6.101254e+03	
23	1.150000e+00	7.713294e+03	
24	1.200000e+00	9.628700e+03	
25	1.250000e+00	1.178260e+04	
26	1.300000e+00	1.411293e+04	
27	1.350000e+00	1.656996e+04	
28	1.400000e+00	1.911672e+04	
29	1.450000e+00	2.172645e+04	
30	1.500000e+00	2.437987e+04	
31	1.550000e+00	2.706299e+04	
32	1.600000e+00	2.976556e+04	
33	1.650000e+00	3.247994e+04	
34	1.700000e+00	3.520039e+04	
35	1.750000e+00	3.792254e+04	
36	1.800000e+00	4.064298e+04	
37	1.850000e+00	4.335910e+04	
38	1.900000e+00	4.606881e+04	
39	1.950000e+00	4.877047e+04	
40	2.000000e+00	5.146276e+04	
41	2.050000e+00	5.414462e+04	
42	2.100000e+00	5.681521e+04	
43	2.150000e+00	5.947383e+04	
44	2.200000e+00	6.211994e+04	
45	2.250000e+00	6.475308e+04	
46	2.300000e+00	6.737289e+04	
47	2.350000e+00	6.997909e+04	
48	2.400000e+00	7.257143e+04	
49	2.450000e+00	7.514974e+04	
50	2.500000e+00	7.771388e+04	
51	2.550000e+00	8.026374e+04	
52	2.600000e+00	8.279925e+04	
53	2.650000e+00	8.532035e+04	
54	2.700000e+00	8.782701e+04	

Index   v-sweep         rds             
--------------------------------------------------------------------------------
55	2.750000e+00	9.031923e+04	
56	2.800000e+00	9.279700e+04	
57	2.850000e+00	9.526034e+04	
58	2.900000e+00	9.770928e+04	
59	2.950000e+00	1.001439e+05	
60	3.000000e+00	1.025641e+05	
61	3.050000e+00	1.049701e+05	
62	3.100000e+00	1.073619e+05	
63	3.150000e+00	1.097395e+05	
64	3.200000e+00	1.121031e+05	
65	3.250000e+00	1.144527e+05	
66	3.300000e+00	1.167884e+05	
67	3.350000e+00	1.191102e+05	
68	3.400000e+00	1.214183e+05	
69	3.450000e+00	1.237127e+05	
70	3.500000e+00	1.259935e+05	
71	3.550000e+00	1.282609e+05	
72	3.600000e+00	1.305148e+05	
73	3.650000e+00	1.327554e+05	
74	3.700000e+00	1.349828e+05	
75	3.750000e+00	1.371971e+05	
76	3.800000e+00	1.393983e+05	
77	3.850000e+00	1.415866e+05	
78	3.900000e+00	1.437621e+05	
79	3.950000e+00	1.459248e+05	
80	4.000000e+00	1.480749e+05	
81	4.050000e+00	1.502124e+05	
82	4.100000e+00	1.523374e+05	
83	4.150000e+00	1.544500e+05	
84	4.200000e+00	1.565504e+05	
85	4.250000e+00	1.586386e+05	
86	4.300000e+00	1.607147e+05	
87	4.350000e+00	1.627788e+05	
88	4.400000e+00	1.648310e+05	
89	4.450000e+00	1.668713e+05	
90	4.500000e+00	1.689000e+05	
91	4.550000e+00	1.709170e+05	
92	4.600000e+00	1.729224e+05	
93	4.650000e+00	1.749165e+05	
94	4.700000e+00	1.768991e+05	
95	4.750000e+00	1.788705e+05	
96	4.800000e+00	1.808307e+05	
97	4.850000e+00	1.827797e+05	
98	4.900000e+00	1.847178e+05	
99	4.950000e+00	1.866450e+05	
100	5.000000e+00	1.885613e+05	
101	5.050000e+00	1.904668e+05	
102	5.100000e+00	1.923617e+05	
103	5.150000e+00	1.942460e+05	
104	5.200000e+00	1.961197e+05	
105	5.250000e+00	1.979831e+05	
106	5.300000e+00	1.998361e+05	
107	5.350000e+00	2.016788e+05	
108	5.400000e+00	2.035114e+05	
109	5.450000e+00	2.053338e+05	
110	5.500000e+00	2.071463e+05	
111	5.550000e+00	2.089488e+05	
112	5.600000e+00	2.107414e+05	

Index   v-sweep         rds             
--------------------------------------------------------------------------------
113	5.650000e+00	2.125242e+05	
114	5.700000e+00	2.142973e+05	
115	5.750000e+00	2.160607e+05	
116	5.800000e+00	2.178146e+05	
117	5.850000e+00	2.195590e+05	
118	5.900000e+00	2.212940e+05	
119	5.950000e+00	2.230196e+05	
120	6.000000e+00	2.247360e+05	
121	6.050000e+00	2.264431e+05	
122	6.100000e+00	2.281411e+05	
123	6.150000e+00	2.298300e+05	
124	6.200000e+00	2.315100e+05	
125	6.250000e+00	2.331810e+05	
126	6.300000e+00	2.348432e+05	
127	6.350000e+00	2.364965e+05	
128	6.400000e+00	2.381412e+05	
129	6.450000e+00	2.397771e+05	
130	6.500000e+00	2.414045e+05	
131	6.550000e+00	2.430234e+05	
132	6.600000e+00	2.446338e+05	
Reset re-loads circuit ***************************

Circuit: ***************************

Doing analysis at TEMP = -40.000000 and TNOM = -40.000000


No. of Data Rows : 133
                          ***************************
                          DC transfer characteristic  Mon Jan  9 13:57:42  2023
--------------------------------------------------------------------------------
Index   v-sweep         rds             
--------------------------------------------------------------------------------
0	0.000000e+00	5.281707e+02	
1	5.000000e-02	5.514935e+02	
2	1.000000e-01	5.761434e+02	
3	1.500000e-01	6.022327e+02	
4	2.000000e-01	6.298876e+02	
5	2.500000e-01	6.592500e+02	
6	3.000000e-01	6.904800e+02	
7	3.500000e-01	7.237598e+02	
8	4.000000e-01	7.592965e+02	
9	4.500000e-01	7.973271e+02	
10	5.000000e-01	8.381241e+02	
11	5.500000e-01	8.820019e+02	
12	6.000000e-01	9.293259e+02	
13	6.500000e-01	9.805238e+02	
14	7.000000e-01	1.036101e+03	
15	7.500000e-01	1.096661e+03	
16	8.000000e-01	1.162935e+03	
17	8.500000e-01	1.235827e+03	
18	9.000000e-01	1.316477e+03	
19	9.500000e-01	1.406372e+03	
20	1.000000e+00	1.507518e+03	
21	1.050000e+00	1.622750e+03	
22	1.100000e+00	1.756281e+03	
23	1.150000e+00	1.914691e+03	
24	1.200000e+00	2.108680e+03	
25	1.250000e+00	2.355872e+03	
26	1.300000e+00	2.684286e+03	
27	1.350000e+00	3.133811e+03	
28	1.400000e+00	3.750253e+03	
29	1.450000e+00	4.569867e+03	
30	1.500000e+00	5.604362e+03	
31	1.550000e+00	6.839474e+03	
32	1.600000e+00	8.245575e+03	
33	1.650000e+00	9.789367e+03	
34	1.700000e+00	1.144065e+04	
35	1.750000e+00	1.317464e+04	
36	1.800000e+00	1.497186e+04	
37	1.850000e+00	1.681737e+04	
38	1.900000e+00	1.869968e+04	
39	1.950000e+00	2.060999e+04	
40	2.000000e+00	2.254148e+04	
41	2.050000e+00	2.448884e+04	
42	2.100000e+00	2.644787e+04	
43	2.150000e+00	2.841524e+04	
44	2.200000e+00	3.038829e+04	
45	2.250000e+00	3.236485e+04	
46	2.300000e+00	3.434316e+04	
47	2.350000e+00	3.632178e+04	
48	2.400000e+00	3.829949e+04	
49	2.450000e+00	4.027531e+04	
50	2.500000e+00	4.224840e+04	
51	2.550000e+00	4.421806e+04	
52	2.600000e+00	4.618369e+04	
53	2.650000e+00	4.814480e+04	
54	2.700000e+00	5.010095e+04	

Index   v-sweep         rds             
--------------------------------------------------------------------------------
55	2.750000e+00	5.205178e+04	
56	2.800000e+00	5.399698e+04	
57	2.850000e+00	5.593629e+04	
58	2.900000e+00	5.786946e+04	
59	2.950000e+00	5.979631e+04	
60	3.000000e+00	6.171667e+04	
61	3.050000e+00	6.363039e+04	
62	3.100000e+00	6.553735e+04	
63	3.150000e+00	6.743745e+04	
64	3.200000e+00	6.933059e+04	
65	3.250000e+00	7.121671e+04	
66	3.300000e+00	7.309573e+04	
67	3.350000e+00	7.496761e+04	
68	3.400000e+00	7.683230e+04	
69	3.450000e+00	7.868976e+04	
70	3.500000e+00	8.053998e+04	
71	3.550000e+00	8.238292e+04	
72	3.600000e+00	8.421858e+04	
73	3.650000e+00	8.604694e+04	
74	3.700000e+00	8.786800e+04	
75	3.750000e+00	8.968175e+04	
76	3.800000e+00	9.148820e+04	
77	3.850000e+00	9.328735e+04	
78	3.900000e+00	9.507922e+04	
79	3.950000e+00	9.686381e+04	
80	4.000000e+00	9.864114e+04	
81	4.050000e+00	1.004112e+05	
82	4.100000e+00	1.021741e+05	
83	4.150000e+00	1.039297e+05	
84	4.200000e+00	1.056782e+05	
85	4.250000e+00	1.074195e+05	
86	4.300000e+00	1.091536e+05	
87	4.350000e+00	1.108806e+05	
88	4.400000e+00	1.126006e+05	
89	4.450000e+00	1.143135e+05	
90	4.500000e+00	1.160193e+05	
91	4.550000e+00	1.177181e+05	
92	4.600000e+00	1.194100e+05	
93	4.650000e+00	1.210949e+05	
94	4.700000e+00	1.227728e+05	
95	4.750000e+00	1.244439e+05	
96	4.800000e+00	1.261082e+05	
97	4.850000e+00	1.277656e+05	
98	4.900000e+00	1.294162e+05	
99	4.950000e+00	1.310601e+05	
100	5.000000e+00	1.326972e+05	
101	5.050000e+00	1.343276e+05	
102	5.100000e+00	1.359514e+05	
103	5.150000e+00	1.375685e+05	
104	5.200000e+00	1.391790e+05	
105	5.250000e+00	1.407830e+05	
106	5.300000e+00	1.423805e+05	
107	5.350000e+00	1.439714e+05	
108	5.400000e+00	1.455559e+05	
109	5.450000e+00	1.471339e+05	
110	5.500000e+00	1.487056e+05	
111	5.550000e+00	1.502708e+05	
112	5.600000e+00	1.518298e+05	

Index   v-sweep         rds             
--------------------------------------------------------------------------------
113	5.650000e+00	1.533824e+05	
114	5.700000e+00	1.549288e+05	
115	5.750000e+00	1.564690e+05	
116	5.800000e+00	1.580029e+05	
117	5.850000e+00	1.595307e+05	
118	5.900000e+00	1.610524e+05	
119	5.950000e+00	1.625680e+05	
120	6.000000e+00	1.640774e+05	
121	6.050000e+00	1.655809e+05	
122	6.100000e+00	1.670784e+05	
123	6.150000e+00	1.685698e+05	
124	6.200000e+00	1.700554e+05	
125	6.250000e+00	1.715350e+05	
126	6.300000e+00	1.730088e+05	
127	6.350000e+00	1.744767e+05	
128	6.400000e+00	1.759389e+05	
129	6.450000e+00	1.773952e+05	
130	6.500000e+00	1.788458e+05	
131	6.550000e+00	1.802907e+05	
132	6.600000e+00	1.817299e+05	
Reset re-loads circuit ***************************

Circuit: ***************************

Doing analysis at TEMP = -40.000000 and TNOM = -40.000000


No. of Data Rows : 133
                          ***************************
                          DC transfer characteristic  Mon Jan  9 13:57:42  2023
--------------------------------------------------------------------------------
Index   v-sweep         rds             
--------------------------------------------------------------------------------
0	0.000000e+00	4.541031e+02	
1	5.000000e-02	4.707468e+02	
2	1.000000e-01	4.881248e+02	
3	1.500000e-01	5.062843e+02	
4	2.000000e-01	5.252770e+02	
5	2.500000e-01	5.451593e+02	
6	3.000000e-01	5.659934e+02	
7	3.500000e-01	5.878476e+02	
8	4.000000e-01	6.107978e+02	
9	4.500000e-01	6.349276e+02	
10	5.000000e-01	6.603301e+02	
11	5.500000e-01	6.871086e+02	
12	6.000000e-01	7.153783e+02	
13	6.500000e-01	7.452677e+02	
14	7.000000e-01	7.769211e+02	
15	7.500000e-01	8.105005e+02	
16	8.000000e-01	8.461890e+02	
17	8.500000e-01	8.841944e+02	
18	9.000000e-01	9.247546e+02	
19	9.500000e-01	9.681437e+02	
20	1.000000e+00	1.014681e+03	
21	1.050000e+00	1.064745e+03	
22	1.100000e+00	1.118788e+03	
23	1.150000e+00	1.177366e+03	
24	1.200000e+00	1.241178e+03	
25	1.250000e+00	1.311131e+03	
26	1.300000e+00	1.388445e+03	
27	1.350000e+00	1.474832e+03	
28	1.400000e+00	1.572799e+03	
29	1.450000e+00	1.686163e+03	
30	1.500000e+00	1.820922e+03	
31	1.550000e+00	1.986610e+03	
32	1.600000e+00	2.198091e+03	
33	1.650000e+00	2.477069e+03	
34	1.700000e+00	2.851383e+03	
35	1.750000e+00	3.349797e+03	
36	1.800000e+00	3.993149e+03	
37	1.850000e+00	4.787543e+03	
38	1.900000e+00	5.724472e+03	
39	1.950000e+00	6.786327e+03	
40	2.000000e+00	7.952507e+03	
41	2.050000e+00	9.203389e+03	
42	2.100000e+00	1.052205e+04	
43	2.150000e+00	1.189460e+04	
44	2.200000e+00	1.330995e+04	
45	2.250000e+00	1.475928e+04	
46	2.300000e+00	1.623564e+04	
47	2.350000e+00	1.773349e+04	
48	2.400000e+00	1.924842e+04	
49	2.450000e+00	2.077691e+04	
50	2.500000e+00	2.231607e+04	
51	2.550000e+00	2.386356e+04	
52	2.600000e+00	2.541748e+04	
53	2.650000e+00	2.697623e+04	
54	2.700000e+00	2.853849e+04	

Index   v-sweep         rds             
--------------------------------------------------------------------------------
55	2.750000e+00	3.010316e+04	
56	2.800000e+00	3.166928e+04	
57	2.850000e+00	3.323608e+04	
58	2.900000e+00	3.480288e+04	
59	2.950000e+00	3.636911e+04	
60	3.000000e+00	3.793425e+04	
61	3.050000e+00	3.949790e+04	
62	3.100000e+00	4.105967e+04	
63	3.150000e+00	4.261924e+04	
64	3.200000e+00	4.417633e+04	
65	3.250000e+00	4.573070e+04	
66	3.300000e+00	4.728212e+04	
67	3.350000e+00	4.883042e+04	
68	3.400000e+00	5.037542e+04	
69	3.450000e+00	5.191698e+04	
70	3.500000e+00	5.345497e+04	
71	3.550000e+00	5.498927e+04	
72	3.600000e+00	5.651979e+04	
73	3.650000e+00	5.804643e+04	
74	3.700000e+00	5.956912e+04	
75	3.750000e+00	6.108779e+04	
76	3.800000e+00	6.260237e+04	
77	3.850000e+00	6.411282e+04	
78	3.900000e+00	6.561908e+04	
79	3.950000e+00	6.712111e+04	
80	4.000000e+00	6.861889e+04	
81	4.050000e+00	7.011237e+04	
82	4.100000e+00	7.160153e+04	
83	4.150000e+00	7.308634e+04	
84	4.200000e+00	7.456679e+04	
85	4.250000e+00	7.604286e+04	
86	4.300000e+00	7.751454e+04	
87	4.350000e+00	7.898181e+04	
88	4.400000e+00	8.044466e+04	
89	4.450000e+00	8.190309e+04	
90	4.500000e+00	8.335710e+04	
91	4.550000e+00	8.480667e+04	
92	4.600000e+00	8.625181e+04	
93	4.650000e+00	8.769252e+04	
94	4.700000e+00	8.912880e+04	
95	4.750000e+00	9.056064e+04	
96	4.800000e+00	9.198807e+04	
97	4.850000e+00	9.341107e+04	
98	4.900000e+00	9.482966e+04	
99	4.950000e+00	9.624384e+04	
100	5.000000e+00	9.765361e+04	
101	5.050000e+00	9.905900e+04	
102	5.100000e+00	1.004600e+05	
103	5.150000e+00	1.018566e+05	
104	5.200000e+00	1.032489e+05	
105	5.250000e+00	1.046368e+05	
106	5.300000e+00	1.060203e+05	
107	5.350000e+00	1.073996e+05	
108	5.400000e+00	1.087745e+05	
109	5.450000e+00	1.101451e+05	
110	5.500000e+00	1.115114e+05	
111	5.550000e+00	1.128734e+05	
112	5.600000e+00	1.142311e+05	

Index   v-sweep         rds             
--------------------------------------------------------------------------------
113	5.650000e+00	1.155846e+05	
114	5.700000e+00	1.169338e+05	
115	5.750000e+00	1.182788e+05	
116	5.800000e+00	1.196196e+05	
117	5.850000e+00	1.209562e+05	
118	5.900000e+00	1.222886e+05	
119	5.950000e+00	1.236169e+05	
120	6.000000e+00	1.249409e+05	
121	6.050000e+00	1.262609e+05	
122	6.100000e+00	1.275767e+05	
123	6.150000e+00	1.288883e+05	
124	6.200000e+00	1.301959e+05	
125	6.250000e+00	1.314994e+05	
126	6.300000e+00	1.327989e+05	
127	6.350000e+00	1.340942e+05	
128	6.400000e+00	1.353856e+05	
129	6.450000e+00	1.366729e+05	
130	6.500000e+00	1.379562e+05	
131	6.550000e+00	1.392356e+05	
132	6.600000e+00	1.405109e+05	
Reset re-loads circuit ***************************

Circuit: ***************************

Doing analysis at TEMP = -40.000000 and TNOM = -40.000000


No. of Data Rows : 133
                          ***************************
                          DC transfer characteristic  Mon Jan  9 13:57:42  2023
--------------------------------------------------------------------------------
Index   v-sweep         rds             
--------------------------------------------------------------------------------
0	0.000000e+00	4.149082e+02	
1	5.000000e-02	4.278774e+02	
2	1.000000e-01	4.413132e+02	
3	1.500000e-01	4.552396e+02	
4	2.000000e-01	4.696826e+02	
5	2.500000e-01	4.846699e+02	
6	3.000000e-01	5.002316e+02	
7	3.500000e-01	5.164003e+02	
8	4.000000e-01	5.332112e+02	
9	4.500000e-01	5.507028e+02	
10	5.000000e-01	5.689166e+02	
11	5.500000e-01	5.878982e+02	
12	6.000000e-01	6.076970e+02	
13	6.500000e-01	6.283672e+02	
14	7.000000e-01	6.499677e+02	
15	7.500000e-01	6.725632e+02	
16	8.000000e-01	6.962243e+02	
17	8.500000e-01	7.210286e+02	
18	9.000000e-01	7.470616e+02	
19	9.500000e-01	7.744173e+02	
20	1.000000e+00	8.031999e+02	
21	1.050000e+00	8.335251e+02	
22	1.100000e+00	8.655223e+02	
23	1.150000e+00	8.993368e+02	
24	1.200000e+00	9.351331e+02	
25	1.250000e+00	9.730996e+02	
26	1.300000e+00	1.013454e+03	
27	1.350000e+00	1.056451e+03	
28	1.400000e+00	1.102396e+03	
29	1.450000e+00	1.151661e+03	
30	1.500000e+00	1.204711e+03	
31	1.550000e+00	1.262143e+03	
32	1.600000e+00	1.324756e+03	
33	1.650000e+00	1.393649e+03	
34	1.700000e+00	1.470395e+03	
35	1.750000e+00	1.557315e+03	
36	1.800000e+00	1.657934e+03	
37	1.850000e+00	1.777667e+03	
38	1.900000e+00	1.924781e+03	
39	1.950000e+00	2.111467e+03	
40	2.000000e+00	2.354380e+03	
41	2.050000e+00	2.673484e+03	
42	2.100000e+00	3.088309e+03	
43	2.150000e+00	3.612633e+03	
44	2.200000e+00	4.250730e+03	
45	2.250000e+00	4.997466e+03	
46	2.300000e+00	5.841423e+03	
47	2.350000e+00	6.768590e+03	
48	2.400000e+00	7.765030e+03	
49	2.450000e+00	8.818258e+03	
50	2.500000e+00	9.917689e+03	
51	2.550000e+00	1.105461e+04	
52	2.600000e+00	1.222197e+04	
53	2.650000e+00	1.341407e+04	
54	2.700000e+00	1.462630e+04	

Index   v-sweep         rds             
--------------------------------------------------------------------------------
55	2.750000e+00	1.585495e+04	
56	2.800000e+00	1.709700e+04	
57	2.850000e+00	1.834997e+04	
58	2.900000e+00	1.961183e+04	
59	2.950000e+00	2.088090e+04	
60	3.000000e+00	2.215576e+04	
61	3.050000e+00	2.343524e+04	
62	3.100000e+00	2.471835e+04	
63	3.150000e+00	2.600425e+04	
64	3.200000e+00	2.729221e+04	
65	3.250000e+00	2.858162e+04	
66	3.300000e+00	2.987195e+04	
67	3.350000e+00	3.116275e+04	
68	3.400000e+00	3.245360e+04	
69	3.450000e+00	3.374418e+04	
70	3.500000e+00	3.503417e+04	
71	3.550000e+00	3.632330e+04	
72	3.600000e+00	3.761135e+04	
73	3.650000e+00	3.889810e+04	
74	3.700000e+00	4.018338e+04	
75	3.750000e+00	4.146701e+04	
76	3.800000e+00	4.274887e+04	
77	3.850000e+00	4.402880e+04	
78	3.900000e+00	4.530672e+04	
79	3.950000e+00	4.658250e+04	
80	4.000000e+00	4.785606e+04	
81	4.050000e+00	4.912731e+04	
82	4.100000e+00	5.039619e+04	
83	4.150000e+00	5.166262e+04	
84	4.200000e+00	5.292654e+04	
85	4.250000e+00	5.418792e+04	
86	4.300000e+00	5.544668e+04	
87	4.350000e+00	5.670280e+04	
88	4.400000e+00	5.795623e+04	
89	4.450000e+00	5.920694e+04	
90	4.500000e+00	6.045489e+04	
91	4.550000e+00	6.170007e+04	
92	4.600000e+00	6.294243e+04	
93	4.650000e+00	6.418197e+04	
94	4.700000e+00	6.541867e+04	
95	4.750000e+00	6.665249e+04	
96	4.800000e+00	6.788344e+04	
97	4.850000e+00	6.911149e+04	
98	4.900000e+00	7.033663e+04	
99	4.950000e+00	7.155885e+04	
100	5.000000e+00	7.277815e+04	
101	5.050000e+00	7.399451e+04	
102	5.100000e+00	7.520793e+04	
103	5.150000e+00	7.641841e+04	
104	5.200000e+00	7.762593e+04	
105	5.250000e+00	7.883050e+04	
106	5.300000e+00	8.003211e+04	
107	5.350000e+00	8.123076e+04	
108	5.400000e+00	8.242646e+04	
109	5.450000e+00	8.361919e+04	
110	5.500000e+00	8.480896e+04	
111	5.550000e+00	8.599578e+04	
112	5.600000e+00	8.717963e+04	

Index   v-sweep         rds             
--------------------------------------------------------------------------------
113	5.650000e+00	8.836053e+04	
114	5.700000e+00	8.953848e+04	
115	5.750000e+00	9.071347e+04	
116	5.800000e+00	9.188552e+04	
117	5.850000e+00	9.305463e+04	
118	5.900000e+00	9.422080e+04	
119	5.950000e+00	9.538403e+04	
120	6.000000e+00	9.654433e+04	
121	6.050000e+00	9.770171e+04	
122	6.100000e+00	9.885617e+04	
123	6.150000e+00	1.000077e+05	
124	6.200000e+00	1.011563e+05	
125	6.250000e+00	1.023021e+05	
126	6.300000e+00	1.034449e+05	
127	6.350000e+00	1.045849e+05	
128	6.400000e+00	1.057219e+05	
129	6.450000e+00	1.068561e+05	
130	6.500000e+00	1.079874e+05	
131	6.550000e+00	1.091159e+05	
132	6.600000e+00	1.102415e+05	
Reset re-loads circuit ***************************

Circuit: ***************************

Note: No ".plot", ".print", or ".fourier" lines; no simulations run
