
Note: Compatibility modes selected: hs

Warning: m=xx on .subckt line will override multiplier m hierarchy!


Circuit: ***************************

Doing analysis at TEMP = 25.000000 and TNOM = 25.000000


No. of Data Rows : 133
                          ***************************
                          DC transfer characteristic  Mon Jan  9 13:57:42  2023
--------------------------------------------------------------------------------
Index   v-sweep         rds             
--------------------------------------------------------------------------------
0	0.000000e+00	4.301562e+04	
1	5.000000e-02	5.237546e+04	
2	1.000000e-01	6.635859e+04	
3	1.500000e-01	8.918222e+04	
4	2.000000e-01	1.308193e+05	
5	2.500000e-01	2.122412e+05	
6	3.000000e-01	3.468959e+05	
7	3.500000e-01	4.973949e+05	
8	4.000000e-01	6.303801e+05	
9	4.500000e-01	7.456671e+05	
10	5.000000e-01	8.488115e+05	
11	5.500000e-01	9.432423e+05	
12	6.000000e-01	1.030817e+06	
13	6.500000e-01	1.112627e+06	
14	7.000000e-01	1.189394e+06	
15	7.500000e-01	1.261649e+06	
16	8.000000e-01	1.329808e+06	
17	8.500000e-01	1.394219e+06	
18	9.000000e-01	1.455180e+06	
19	9.500000e-01	1.512952e+06	
20	1.000000e+00	1.567770e+06	
21	1.050000e+00	1.619841e+06	
22	1.100000e+00	1.669354e+06	
23	1.150000e+00	1.716483e+06	
24	1.200000e+00	1.761383e+06	
25	1.250000e+00	1.804197e+06	
26	1.300000e+00	1.845059e+06	
27	1.350000e+00	1.884089e+06	
28	1.400000e+00	1.921398e+06	
29	1.450000e+00	1.957089e+06	
30	1.500000e+00	1.991258e+06	
31	1.550000e+00	2.023992e+06	
32	1.600000e+00	2.055374e+06	
33	1.650000e+00	2.085479e+06	
34	1.700000e+00	2.114377e+06	
35	1.750000e+00	2.142134e+06	
36	1.800000e+00	2.168811e+06	
37	1.850000e+00	2.194465e+06	
38	1.900000e+00	2.219148e+06	
39	1.950000e+00	2.242912e+06	
40	2.000000e+00	2.265801e+06	
41	2.050000e+00	2.287859e+06	
42	2.100000e+00	2.309128e+06	
43	2.150000e+00	2.329645e+06	
44	2.200000e+00	2.349447e+06	
45	2.250000e+00	2.368566e+06	
46	2.300000e+00	2.387035e+06	
47	2.350000e+00	2.404883e+06	
48	2.400000e+00	2.422139e+06	
49	2.450000e+00	2.438828e+06	
50	2.500000e+00	2.454977e+06	
51	2.550000e+00	2.470608e+06	
52	2.600000e+00	2.485745e+06	
53	2.650000e+00	2.500407e+06	
54	2.700000e+00	2.514614e+06	

Index   v-sweep         rds             
--------------------------------------------------------------------------------
55	2.750000e+00	2.528387e+06	
56	2.800000e+00	2.541742e+06	
57	2.850000e+00	2.554697e+06	
58	2.900000e+00	2.567267e+06	
59	2.950000e+00	2.579468e+06	
60	3.000000e+00	2.591315e+06	
61	3.050000e+00	2.602820e+06	
62	3.100000e+00	2.613998e+06	
63	3.150000e+00	2.624861e+06	
64	3.200000e+00	2.635419e+06	
65	3.250000e+00	2.645686e+06	
66	3.300000e+00	2.655671e+06	
67	3.350000e+00	2.665386e+06	
68	3.400000e+00	2.674838e+06	
69	3.450000e+00	2.684039e+06	
70	3.500000e+00	2.692996e+06	
71	3.550000e+00	2.701719e+06	
72	3.600000e+00	2.710215e+06	
73	3.650000e+00	2.718492e+06	
74	3.700000e+00	2.726558e+06	
75	3.750000e+00	2.734420e+06	
76	3.800000e+00	2.742085e+06	
77	3.850000e+00	2.749558e+06	
78	3.900000e+00	2.756847e+06	
79	3.950000e+00	2.763958e+06	
80	4.000000e+00	2.770895e+06	
81	4.050000e+00	2.777665e+06	
82	4.100000e+00	2.784273e+06	
83	4.150000e+00	2.790725e+06	
84	4.200000e+00	2.797024e+06	
85	4.250000e+00	2.803175e+06	
86	4.300000e+00	2.809184e+06	
87	4.350000e+00	2.815054e+06	
88	4.400000e+00	2.820789e+06	
89	4.450000e+00	2.826394e+06	
90	4.500000e+00	2.831873e+06	
91	4.550000e+00	2.837229e+06	
92	4.600000e+00	2.842465e+06	
93	4.650000e+00	2.847586e+06	
94	4.700000e+00	2.852594e+06	
95	4.750000e+00	2.857493e+06	
96	4.800000e+00	2.862285e+06	
97	4.850000e+00	2.866974e+06	
98	4.900000e+00	2.871563e+06	
99	4.950000e+00	2.876054e+06	
100	5.000000e+00	2.880450e+06	
101	5.050000e+00	2.884754e+06	
102	5.100000e+00	2.888968e+06	
103	5.150000e+00	2.893094e+06	
104	5.200000e+00	2.897135e+06	
105	5.250000e+00	2.901094e+06	
106	5.300000e+00	2.904971e+06	
107	5.350000e+00	2.908770e+06	
108	5.400000e+00	2.912492e+06	
109	5.450000e+00	2.916140e+06	
110	5.500000e+00	2.919715e+06	
111	5.550000e+00	2.923219e+06	
112	5.600000e+00	2.926654e+06	

Index   v-sweep         rds             
--------------------------------------------------------------------------------
113	5.650000e+00	2.930021e+06	
114	5.700000e+00	2.933323e+06	
115	5.750000e+00	2.936560e+06	
116	5.800000e+00	2.939736e+06	
117	5.850000e+00	2.942850e+06	
118	5.900000e+00	2.945904e+06	
119	5.950000e+00	2.948901e+06	
120	6.000000e+00	2.951840e+06	
121	6.050000e+00	2.954725e+06	
122	6.100000e+00	2.957555e+06	
123	6.150000e+00	2.960333e+06	
124	6.200000e+00	2.963059e+06	
125	6.250000e+00	2.965734e+06	
126	6.300000e+00	2.968361e+06	
127	6.350000e+00	2.970939e+06	
128	6.400000e+00	2.973471e+06	
129	6.450000e+00	2.975956e+06	
130	6.500000e+00	2.978397e+06	
131	6.550000e+00	2.980794e+06	
132	6.600000e+00	2.983147e+06	
Reset re-loads circuit ***************************

Circuit: ***************************

Doing analysis at TEMP = 25.000000 and TNOM = 25.000000


No. of Data Rows : 133
                          ***************************
                          DC transfer characteristic  Mon Jan  9 13:57:42  2023
--------------------------------------------------------------------------------
Index   v-sweep         rds             
--------------------------------------------------------------------------------
0	0.000000e+00	1.471154e+04	
1	5.000000e-02	1.579727e+04	
2	1.000000e-01	1.701580e+04	
3	1.500000e-01	1.839280e+04	
4	2.000000e-01	1.996107e+04	
5	2.500000e-01	2.176305e+04	
6	3.000000e-01	2.385469e+04	
7	3.500000e-01	2.631106e+04	
8	4.000000e-01	2.923510e+04	
9	4.500000e-01	3.277133e+04	
10	5.000000e-01	3.712805e+04	
11	5.500000e-01	4.261314e+04	
12	6.000000e-01	4.968948e+04	
13	6.500000e-01	5.904280e+04	
14	7.000000e-01	7.158597e+04	
15	7.500000e-01	8.817194e+04	
16	8.000000e-01	1.089251e+05	
17	8.500000e-01	1.329457e+05	
18	9.000000e-01	1.589372e+05	
19	9.500000e-01	1.858674e+05	
20	1.000000e+00	2.130998e+05	
21	1.050000e+00	2.402783e+05	
22	1.100000e+00	2.672079e+05	
23	1.150000e+00	2.937813e+05	
24	1.200000e+00	3.199397e+05	
25	1.250000e+00	3.456515e+05	
26	1.300000e+00	3.709009e+05	
27	1.350000e+00	3.956819e+05	
28	1.400000e+00	4.199942e+05	
29	1.450000e+00	4.438413e+05	
30	1.500000e+00	4.672292e+05	
31	1.550000e+00	4.901655e+05	
32	1.600000e+00	5.126584e+05	
33	1.650000e+00	5.347172e+05	
34	1.700000e+00	5.563512e+05	
35	1.750000e+00	5.775701e+05	
36	1.800000e+00	5.983834e+05	
37	1.850000e+00	6.188009e+05	
38	1.900000e+00	6.388321e+05	
39	1.950000e+00	6.584863e+05	
40	2.000000e+00	6.777729e+05	
41	2.050000e+00	6.967008e+05	
42	2.100000e+00	7.152790e+05	
43	2.150000e+00	7.335160e+05	
44	2.200000e+00	7.514202e+05	
45	2.250000e+00	7.690000e+05	
46	2.300000e+00	7.862633e+05	
47	2.350000e+00	8.032177e+05	
48	2.400000e+00	8.198710e+05	
49	2.450000e+00	8.362305e+05	
50	2.500000e+00	8.523032e+05	
51	2.550000e+00	8.680962e+05	
52	2.600000e+00	8.836161e+05	
53	2.650000e+00	8.988696e+05	
54	2.700000e+00	9.138629e+05	

Index   v-sweep         rds             
--------------------------------------------------------------------------------
55	2.750000e+00	9.286022e+05	
56	2.800000e+00	9.430936e+05	
57	2.850000e+00	9.573428e+05	
58	2.900000e+00	9.713556e+05	
59	2.950000e+00	9.851373e+05	
60	3.000000e+00	9.986933e+05	
61	3.050000e+00	1.012029e+06	
62	3.100000e+00	1.025149e+06	
63	3.150000e+00	1.038059e+06	
64	3.200000e+00	1.050762e+06	
65	3.250000e+00	1.063265e+06	
66	3.300000e+00	1.075571e+06	
67	3.350000e+00	1.087684e+06	
68	3.400000e+00	1.099610e+06	
69	3.450000e+00	1.111351e+06	
70	3.500000e+00	1.122913e+06	
71	3.550000e+00	1.134298e+06	
72	3.600000e+00	1.145511e+06	
73	3.650000e+00	1.156556e+06	
74	3.700000e+00	1.167435e+06	
75	3.750000e+00	1.178153e+06	
76	3.800000e+00	1.188713e+06	
77	3.850000e+00	1.199118e+06	
78	3.900000e+00	1.209372e+06	
79	3.950000e+00	1.219477e+06	
80	4.000000e+00	1.229436e+06	
81	4.050000e+00	1.239253e+06	
82	4.100000e+00	1.248931e+06	
83	4.150000e+00	1.258472e+06	
84	4.200000e+00	1.267879e+06	
85	4.250000e+00	1.277155e+06	
86	4.300000e+00	1.286302e+06	
87	4.350000e+00	1.295323e+06	
88	4.400000e+00	1.304220e+06	
89	4.450000e+00	1.312996e+06	
90	4.500000e+00	1.321653e+06	
91	4.550000e+00	1.330193e+06	
92	4.600000e+00	1.338619e+06	
93	4.650000e+00	1.346933e+06	
94	4.700000e+00	1.355137e+06	
95	4.750000e+00	1.363233e+06	
96	4.800000e+00	1.371223e+06	
97	4.850000e+00	1.379108e+06	
98	4.900000e+00	1.386892e+06	
99	4.950000e+00	1.394576e+06	
100	5.000000e+00	1.402162e+06	
101	5.050000e+00	1.409650e+06	
102	5.100000e+00	1.417045e+06	
103	5.150000e+00	1.424346e+06	
104	5.200000e+00	1.431556e+06	
105	5.250000e+00	1.438676e+06	
106	5.300000e+00	1.445707e+06	
107	5.350000e+00	1.452653e+06	
108	5.400000e+00	1.459513e+06	
109	5.450000e+00	1.466290e+06	
110	5.500000e+00	1.472984e+06	
111	5.550000e+00	1.479598e+06	
112	5.600000e+00	1.486133e+06	

Index   v-sweep         rds             
--------------------------------------------------------------------------------
113	5.650000e+00	1.492590e+06	
114	5.700000e+00	1.498970e+06	
115	5.750000e+00	1.505275e+06	
116	5.800000e+00	1.511506e+06	
117	5.850000e+00	1.517664e+06	
118	5.900000e+00	1.523751e+06	
119	5.950000e+00	1.529767e+06	
120	6.000000e+00	1.535714e+06	
121	6.050000e+00	1.541593e+06	
122	6.100000e+00	1.547405e+06	
123	6.150000e+00	1.553152e+06	
124	6.200000e+00	1.558833e+06	
125	6.250000e+00	1.564451e+06	
126	6.300000e+00	1.570006e+06	
127	6.350000e+00	1.575500e+06	
128	6.400000e+00	1.580932e+06	
129	6.450000e+00	1.586305e+06	
130	6.500000e+00	1.591620e+06	
131	6.550000e+00	1.596876e+06	
132	6.600000e+00	1.602076e+06	
Reset re-loads circuit ***************************

Circuit: ***************************

Doing analysis at TEMP = 25.000000 and TNOM = 25.000000


No. of Data Rows : 133
                          ***************************
                          DC transfer characteristic  Mon Jan  9 13:57:42  2023
--------------------------------------------------------------------------------
Index   v-sweep         rds             
--------------------------------------------------------------------------------
0	0.000000e+00	9.782714e+03	
1	5.000000e-02	1.027920e+04	
2	1.000000e-01	1.081175e+04	
3	1.500000e-01	1.138438e+04	
4	2.000000e-01	1.200172e+04	
5	2.500000e-01	1.266915e+04	
6	3.000000e-01	1.339301e+04	
7	3.500000e-01	1.418077e+04	
8	4.000000e-01	1.504127e+04	
9	4.500000e-01	1.598508e+04	
10	5.000000e-01	1.702488e+04	
11	5.500000e-01	1.817607e+04	
12	6.000000e-01	1.945745e+04	
13	6.500000e-01	2.089235e+04	
14	7.000000e-01	2.251010e+04	
15	7.500000e-01	2.434832e+04	
16	8.000000e-01	2.645640e+04	
17	8.500000e-01	2.890124e+04	
18	9.000000e-01	3.177705e+04	
19	9.500000e-01	3.522224e+04	
20	1.000000e+00	3.944734e+04	
21	1.050000e+00	4.476972e+04	
22	1.100000e+00	5.161933e+04	
23	1.150000e+00	6.043131e+04	
24	1.200000e+00	7.140973e+04	
25	1.250000e+00	8.437603e+04	
26	1.300000e+00	9.888530e+04	
27	1.350000e+00	1.144527e+05	
28	1.400000e+00	1.306847e+05	
29	1.450000e+00	1.473025e+05	
30	1.500000e+00	1.641189e+05	
31	1.550000e+00	1.810106e+05	
32	1.600000e+00	1.978960e+05	
33	1.650000e+00	2.147206e+05	
34	1.700000e+00	2.314476e+05	
35	1.750000e+00	2.480518e+05	
36	1.800000e+00	2.645159e+05	
37	1.850000e+00	2.808280e+05	
38	1.900000e+00	2.969800e+05	
39	1.950000e+00	3.129663e+05	
40	2.000000e+00	3.287836e+05	
41	2.050000e+00	3.444296e+05	
42	2.100000e+00	3.599034e+05	
43	2.150000e+00	3.752047e+05	
44	2.200000e+00	3.903338e+05	
45	2.250000e+00	4.052915e+05	
46	2.300000e+00	4.200790e+05	
47	2.350000e+00	4.346975e+05	
48	2.400000e+00	4.491489e+05	
49	2.450000e+00	4.634347e+05	
50	2.500000e+00	4.775569e+05	
51	2.550000e+00	4.915175e+05	
52	2.600000e+00	5.053184e+05	
53	2.650000e+00	5.189618e+05	
54	2.700000e+00	5.324497e+05	

Index   v-sweep         rds             
--------------------------------------------------------------------------------
55	2.750000e+00	5.457843e+05	
56	2.800000e+00	5.589677e+05	
57	2.850000e+00	5.720020e+05	
58	2.900000e+00	5.848894e+05	
59	2.950000e+00	5.976319e+05	
60	3.000000e+00	6.102318e+05	
61	3.050000e+00	6.226911e+05	
62	3.100000e+00	6.350118e+05	
63	3.150000e+00	6.471960e+05	
64	3.200000e+00	6.592458e+05	
65	3.250000e+00	6.711631e+05	
66	3.300000e+00	6.829498e+05	
67	3.350000e+00	6.946080e+05	
68	3.400000e+00	7.061396e+05	
69	3.450000e+00	7.175464e+05	
70	3.500000e+00	7.288304e+05	
71	3.550000e+00	7.399932e+05	
72	3.600000e+00	7.510368e+05	
73	3.650000e+00	7.619629e+05	
74	3.700000e+00	7.727732e+05	
75	3.750000e+00	7.834695e+05	
76	3.800000e+00	7.940534e+05	
77	3.850000e+00	8.045266e+05	
78	3.900000e+00	8.148908e+05	
79	3.950000e+00	8.251475e+05	
80	4.000000e+00	8.352982e+05	
81	4.050000e+00	8.453447e+05	
82	4.100000e+00	8.552882e+05	
83	4.150000e+00	8.651305e+05	
84	4.200000e+00	8.748728e+05	
85	4.250000e+00	8.845168e+05	
86	4.300000e+00	8.940636e+05	
87	4.350000e+00	9.035149e+05	
88	4.400000e+00	9.128719e+05	
89	4.450000e+00	9.221360e+05	
90	4.500000e+00	9.313084e+05	
91	4.550000e+00	9.403906e+05	
92	4.600000e+00	9.493837e+05	
93	4.650000e+00	9.582890e+05	
94	4.700000e+00	9.671078e+05	
95	4.750000e+00	9.758412e+05	
96	4.800000e+00	9.844904e+05	
97	4.850000e+00	9.930567e+05	
98	4.900000e+00	1.001541e+06	
99	4.950000e+00	1.009945e+06	
100	5.000000e+00	1.018269e+06	
101	5.050000e+00	1.026514e+06	
102	5.100000e+00	1.034683e+06	
103	5.150000e+00	1.042774e+06	
104	5.200000e+00	1.050791e+06	
105	5.250000e+00	1.058732e+06	
106	5.300000e+00	1.066601e+06	
107	5.350000e+00	1.074397e+06	
108	5.400000e+00	1.082122e+06	
109	5.450000e+00	1.089776e+06	
110	5.500000e+00	1.097361e+06	
111	5.550000e+00	1.104877e+06	
112	5.600000e+00	1.112326e+06	

Index   v-sweep         rds             
--------------------------------------------------------------------------------
113	5.650000e+00	1.119707e+06	
114	5.700000e+00	1.127023e+06	
115	5.750000e+00	1.134273e+06	
116	5.800000e+00	1.141460e+06	
117	5.850000e+00	1.148583e+06	
118	5.900000e+00	1.155643e+06	
119	5.950000e+00	1.162641e+06	
120	6.000000e+00	1.169579e+06	
121	6.050000e+00	1.176456e+06	
122	6.100000e+00	1.183273e+06	
123	6.150000e+00	1.190032e+06	
124	6.200000e+00	1.196733e+06	
125	6.250000e+00	1.203377e+06	
126	6.300000e+00	1.209964e+06	
127	6.350000e+00	1.216495e+06	
128	6.400000e+00	1.222971e+06	
129	6.450000e+00	1.229392e+06	
130	6.500000e+00	1.235760e+06	
131	6.550000e+00	1.242075e+06	
132	6.600000e+00	1.248337e+06	
Reset re-loads circuit ***************************

Circuit: ***************************

Doing analysis at TEMP = 25.000000 and TNOM = 25.000000


No. of Data Rows : 133
                          ***************************
                          DC transfer characteristic  Mon Jan  9 13:57:42  2023
--------------------------------------------------------------------------------
Index   v-sweep         rds             
--------------------------------------------------------------------------------
0	0.000000e+00	7.782917e+03	
1	5.000000e-02	8.096229e+03	
2	1.000000e-01	8.425994e+03	
3	1.500000e-01	8.773502e+03	
4	2.000000e-01	9.140185e+03	
5	2.500000e-01	9.527648e+03	
6	3.000000e-01	9.937696e+03	
7	3.500000e-01	1.037237e+04	
8	4.000000e-01	1.083396e+04	
9	4.500000e-01	1.132510e+04	
10	5.000000e-01	1.184874e+04	
11	5.500000e-01	1.240828e+04	
12	6.000000e-01	1.300755e+04	
13	6.500000e-01	1.365098e+04	
14	7.000000e-01	1.434363e+04	
15	7.500000e-01	1.509136e+04	
16	8.000000e-01	1.590096e+04	
17	8.500000e-01	1.678039e+04	
18	9.000000e-01	1.773908e+04	
19	9.500000e-01	1.878830e+04	
20	1.000000e+00	1.994180e+04	
21	1.050000e+00	2.121667e+04	
22	1.100000e+00	2.263478e+04	
23	1.150000e+00	2.422510e+04	
24	1.200000e+00	2.602774e+04	
25	1.250000e+00	2.810090e+04	
26	1.300000e+00	3.053270e+04	
27	1.350000e+00	3.345902e+04	
28	1.400000e+00	3.708295e+04	
29	1.450000e+00	4.167521e+04	
30	1.500000e+00	4.751909e+04	
31	1.550000e+00	5.479504e+04	
32	1.600000e+00	6.348708e+04	
33	1.650000e+00	7.340092e+04	
34	1.700000e+00	8.426325e+04	
35	1.750000e+00	9.581075e+04	
36	1.800000e+00	1.078300e+05	
37	1.850000e+00	1.201622e+05	
38	1.900000e+00	1.326934e+05	
39	1.950000e+00	1.453428e+05	
40	2.000000e+00	1.580535e+05	
41	2.050000e+00	1.707844e+05	
42	2.100000e+00	1.835062e+05	
43	2.150000e+00	1.961973e+05	
44	2.200000e+00	2.088418e+05	
45	2.250000e+00	2.214279e+05	
46	2.300000e+00	2.339467e+05	
47	2.350000e+00	2.463917e+05	
48	2.400000e+00	2.587576e+05	
49	2.450000e+00	2.710408e+05	
50	2.500000e+00	2.832384e+05	
51	2.550000e+00	2.953482e+05	
52	2.600000e+00	3.073687e+05	
53	2.650000e+00	3.192989e+05	
54	2.700000e+00	3.311380e+05	

Index   v-sweep         rds             
--------------------------------------------------------------------------------
55	2.750000e+00	3.428856e+05	
56	2.800000e+00	3.545415e+05	
57	2.850000e+00	3.661057e+05	
58	2.900000e+00	3.775782e+05	
59	2.950000e+00	3.889595e+05	
60	3.000000e+00	4.002498e+05	
61	3.050000e+00	4.114497e+05	
62	3.100000e+00	4.225596e+05	
63	3.150000e+00	4.335802e+05	
64	3.200000e+00	4.445120e+05	
65	3.250000e+00	4.553558e+05	
66	3.300000e+00	4.661123e+05	
67	3.350000e+00	4.767821e+05	
68	3.400000e+00	4.873661e+05	
69	3.450000e+00	4.978650e+05	
70	3.500000e+00	5.082795e+05	
71	3.550000e+00	5.186106e+05	
72	3.600000e+00	5.288589e+05	
73	3.650000e+00	5.390254e+05	
74	3.700000e+00	5.491107e+05	
75	3.750000e+00	5.591157e+05	
76	3.800000e+00	5.690412e+05	
77	3.850000e+00	5.788880e+05	
78	3.900000e+00	5.886570e+05	
79	3.950000e+00	5.983488e+05	
80	4.000000e+00	6.079644e+05	
81	4.050000e+00	6.175045e+05	
82	4.100000e+00	6.269699e+05	
83	4.150000e+00	6.363614e+05	
84	4.200000e+00	6.456798e+05	
85	4.250000e+00	6.549257e+05	
86	4.300000e+00	6.641001e+05	
87	4.350000e+00	6.732037e+05	
88	4.400000e+00	6.822371e+05	
89	4.450000e+00	6.912012e+05	
90	4.500000e+00	7.000966e+05	
91	4.550000e+00	7.089242e+05	
92	4.600000e+00	7.176846e+05	
93	4.650000e+00	7.263785e+05	
94	4.700000e+00	7.350067e+05	
95	4.750000e+00	7.435699e+05	
96	4.800000e+00	7.520686e+05	
97	4.850000e+00	7.605037e+05	
98	4.900000e+00	7.688757e+05	
99	4.950000e+00	7.771855e+05	
100	5.000000e+00	7.854335e+05	
101	5.050000e+00	7.936204e+05	
102	5.100000e+00	8.017470e+05	
103	5.150000e+00	8.098138e+05	
104	5.200000e+00	8.178215e+05	
105	5.250000e+00	8.257706e+05	
106	5.300000e+00	8.336619e+05	
107	5.350000e+00	8.414958e+05	
108	5.400000e+00	8.492730e+05	
109	5.450000e+00	8.569941e+05	
110	5.500000e+00	8.646597e+05	
111	5.550000e+00	8.722703e+05	
112	5.600000e+00	8.798265e+05	

Index   v-sweep         rds             
--------------------------------------------------------------------------------
113	5.650000e+00	8.873288e+05	
114	5.700000e+00	8.947779e+05	
115	5.750000e+00	9.021742e+05	
116	5.800000e+00	9.095184e+05	
117	5.850000e+00	9.168109e+05	
118	5.900000e+00	9.240522e+05	
119	5.950000e+00	9.312430e+05	
120	6.000000e+00	9.383836e+05	
121	6.050000e+00	9.454746e+05	
122	6.100000e+00	9.525166e+05	
123	6.150000e+00	9.595099e+05	
124	6.200000e+00	9.664551e+05	
125	6.250000e+00	9.733527e+05	
126	6.300000e+00	9.802032e+05	
127	6.350000e+00	9.870069e+05	
128	6.400000e+00	9.937645e+05	
129	6.450000e+00	1.000476e+06	
130	6.500000e+00	1.007143e+06	
131	6.550000e+00	1.013764e+06	
132	6.600000e+00	1.020342e+06	
Reset re-loads circuit ***************************

Circuit: ***************************

Doing analysis at TEMP = 25.000000 and TNOM = 25.000000


No. of Data Rows : 133
                          ***************************
                          DC transfer characteristic  Mon Jan  9 13:57:42  2023
--------------------------------------------------------------------------------
Index   v-sweep         rds             
--------------------------------------------------------------------------------
0	0.000000e+00	6.757900e+03	
1	5.000000e-02	6.985546e+03	
2	1.000000e-01	7.222596e+03	
3	1.500000e-01	7.469615e+03	
4	2.000000e-01	7.727224e+03	
5	2.500000e-01	7.996099e+03	
6	3.000000e-01	8.276983e+03	
7	3.500000e-01	8.570699e+03	
8	4.000000e-01	8.878155e+03	
9	4.500000e-01	9.200354e+03	
10	5.000000e-01	9.538413e+03	
11	5.500000e-01	9.893565e+03	
12	6.000000e-01	1.026718e+04	
13	6.500000e-01	1.066078e+04	
14	7.000000e-01	1.107605e+04	
15	7.500000e-01	1.151486e+04	
16	8.000000e-01	1.197929e+04	
17	8.500000e-01	1.247165e+04	
18	9.000000e-01	1.299455e+04	
19	9.500000e-01	1.355087e+04	
20	1.000000e+00	1.414389e+04	
21	1.050000e+00	1.477729e+04	
22	1.100000e+00	1.545529e+04	
23	1.150000e+00	1.618273e+04	
24	1.200000e+00	1.696524e+04	
25	1.250000e+00	1.780945e+04	
26	1.300000e+00	1.872332e+04	
27	1.350000e+00	1.971665e+04	
28	1.400000e+00	2.080183e+04	
29	1.450000e+00	2.199513e+04	
30	1.500000e+00	2.331879e+04	
31	1.550000e+00	2.480459e+04	
32	1.600000e+00	2.649972e+04	
33	1.650000e+00	2.847579e+04	
34	1.700000e+00	3.084059e+04	
35	1.750000e+00	3.374741e+04	
36	1.800000e+00	3.738822e+04	
37	1.850000e+00	4.195396e+04	
38	1.900000e+00	4.756713e+04	
39	1.950000e+00	5.423078e+04	
40	2.000000e+00	6.183521e+04	
41	2.050000e+00	7.020973e+04	
42	2.100000e+00	7.917606e+04	
43	2.150000e+00	8.857883e+04	
44	2.200000e+00	9.829482e+04	
45	2.250000e+00	1.082308e+05	
46	2.300000e+00	1.183177e+05	
47	2.350000e+00	1.285047e+05	
48	2.400000e+00	1.387542e+05	
49	2.450000e+00	1.490384e+05	
50	2.500000e+00	1.593364e+05	
51	2.550000e+00	1.696322e+05	
52	2.600000e+00	1.799137e+05	
53	2.650000e+00	1.901716e+05	
54	2.700000e+00	2.003987e+05	

Index   v-sweep         rds             
--------------------------------------------------------------------------------
55	2.750000e+00	2.105891e+05	
56	2.800000e+00	2.207384e+05	
57	2.850000e+00	2.308430e+05	
58	2.900000e+00	2.409000e+05	
59	2.950000e+00	2.509073e+05	
60	3.000000e+00	2.608631e+05	
61	3.050000e+00	2.707658e+05	
62	3.100000e+00	2.806145e+05	
63	3.150000e+00	2.904081e+05	
64	3.200000e+00	3.001462e+05	
65	3.250000e+00	3.098280e+05	
66	3.300000e+00	3.194534e+05	
67	3.350000e+00	3.290221e+05	
68	3.400000e+00	3.385338e+05	
69	3.450000e+00	3.479885e+05	
70	3.500000e+00	3.573863e+05	
71	3.550000e+00	3.667272e+05	
72	3.600000e+00	3.760113e+05	
73	3.650000e+00	3.852388e+05	
74	3.700000e+00	3.944098e+05	
75	3.750000e+00	4.035245e+05	
76	3.800000e+00	4.125833e+05	
77	3.850000e+00	4.215864e+05	
78	3.900000e+00	4.305341e+05	
79	3.950000e+00	4.394266e+05	
80	4.000000e+00	4.482644e+05	
81	4.050000e+00	4.570477e+05	
82	4.100000e+00	4.657769e+05	
83	4.150000e+00	4.744524e+05	
84	4.200000e+00	4.830745e+05	
85	4.250000e+00	4.916435e+05	
86	4.300000e+00	5.001599e+05	
87	4.350000e+00	5.086240e+05	
88	4.400000e+00	5.170362e+05	
89	4.450000e+00	5.253969e+05	
90	4.500000e+00	5.337065e+05	
91	4.550000e+00	5.419653e+05	
92	4.600000e+00	5.501737e+05	
93	4.650000e+00	5.583322e+05	
94	4.700000e+00	5.664412e+05	
95	4.750000e+00	5.745009e+05	
96	4.800000e+00	5.825118e+05	
97	4.850000e+00	5.904743e+05	
98	4.900000e+00	5.983887e+05	
99	4.950000e+00	6.062555e+05	
100	5.000000e+00	6.140751e+05	
101	5.050000e+00	6.218477e+05	
102	5.100000e+00	6.295738e+05	
103	5.150000e+00	6.372538e+05	
104	5.200000e+00	6.448880e+05	
105	5.250000e+00	6.524768e+05	
106	5.300000e+00	6.600206e+05	
107	5.350000e+00	6.675198e+05	
108	5.400000e+00	6.749746e+05	
109	5.450000e+00	6.823855e+05	
110	5.500000e+00	6.897529e+05	
111	5.550000e+00	6.970770e+05	
112	5.600000e+00	7.043582e+05	

Index   v-sweep         rds             
--------------------------------------------------------------------------------
113	5.650000e+00	7.115970e+05	
114	5.700000e+00	7.187936e+05	
115	5.750000e+00	7.259483e+05	
116	5.800000e+00	7.330616e+05	
117	5.850000e+00	7.401337e+05	
118	5.900000e+00	7.471650e+05	
119	5.950000e+00	7.541559e+05	
120	6.000000e+00	7.611066e+05	
121	6.050000e+00	7.680175e+05	
122	6.100000e+00	7.748889e+05	
123	6.150000e+00	7.817211e+05	
124	6.200000e+00	7.885145e+05	
125	6.250000e+00	7.952694e+05	
126	6.300000e+00	8.019860e+05	
127	6.350000e+00	8.086648e+05	
128	6.400000e+00	8.153059e+05	
129	6.450000e+00	8.219097e+05	
130	6.500000e+00	8.284766e+05	
131	6.550000e+00	8.350067e+05	
132	6.600000e+00	8.415004e+05	
Reset re-loads circuit ***************************

Circuit: ***************************

Doing analysis at TEMP = 25.000000 and TNOM = 25.000000


No. of Data Rows : 133
                          ***************************
                          DC transfer characteristic  Mon Jan  9 13:57:42  2023
--------------------------------------------------------------------------------
Index   v-sweep         rds             
--------------------------------------------------------------------------------
0	0.000000e+00	6.178381e+03	
1	5.000000e-02	6.357152e+03	
2	1.000000e-01	6.542003e+03	
3	1.500000e-01	6.733231e+03	
4	2.000000e-01	6.931157e+03	
5	2.500000e-01	7.136124e+03	
6	3.000000e-01	7.348507e+03	
7	3.500000e-01	7.568709e+03	
8	4.000000e-01	7.797172e+03	
9	4.500000e-01	8.034378e+03	
10	5.000000e-01	8.280851e+03	
11	5.500000e-01	8.537166e+03	
12	6.000000e-01	8.803951e+03	
13	6.500000e-01	9.081889e+03	
14	7.000000e-01	9.371727e+03	
15	7.500000e-01	9.674280e+03	
16	8.000000e-01	9.990434e+03	
17	8.500000e-01	1.032116e+04	
18	9.000000e-01	1.066751e+04	
19	9.500000e-01	1.103063e+04	
20	1.000000e+00	1.141177e+04	
21	1.050000e+00	1.181232e+04	
22	1.100000e+00	1.223377e+04	
23	1.150000e+00	1.267776e+04	
24	1.200000e+00	1.314611e+04	
25	1.250000e+00	1.364083e+04	
26	1.300000e+00	1.416415e+04	
27	1.350000e+00	1.471853e+04	
28	1.400000e+00	1.530680e+04	
29	1.450000e+00	1.593212e+04	
30	1.500000e+00	1.659815e+04	
31	1.550000e+00	1.730914e+04	
32	1.600000e+00	1.807016e+04	
33	1.650000e+00	1.888735e+04	
34	1.700000e+00	1.976842e+04	
35	1.750000e+00	2.072330e+04	
36	1.800000e+00	2.176534e+04	
37	1.850000e+00	2.291314e+04	
38	1.900000e+00	2.419357e+04	
39	1.950000e+00	2.564634e+04	
40	2.000000e+00	2.733051e+04	
41	2.050000e+00	2.933189e+04	
42	2.100000e+00	3.176712e+04	
43	2.150000e+00	3.477631e+04	
44	2.200000e+00	3.849587e+04	
45	2.250000e+00	4.301686e+04	
46	2.300000e+00	4.835289e+04	
47	2.350000e+00	5.444027e+04	
48	2.400000e+00	6.116660e+04	
49	2.450000e+00	6.840512e+04	
50	2.500000e+00	7.603824e+04	
51	2.550000e+00	8.396772e+04	
52	2.600000e+00	9.211599e+04	
53	2.650000e+00	1.004236e+05	
54	2.700000e+00	1.088454e+05	

Index   v-sweep         rds             
--------------------------------------------------------------------------------
55	2.750000e+00	1.173475e+05	
56	2.800000e+00	1.259040e+05	
57	2.850000e+00	1.344953e+05	
58	2.900000e+00	1.431062e+05	
59	2.950000e+00	1.517250e+05	
60	3.000000e+00	1.603426e+05	
61	3.050000e+00	1.689515e+05	
62	3.100000e+00	1.775461e+05	
63	3.150000e+00	1.861218e+05	
64	3.200000e+00	1.946748e+05	
65	3.250000e+00	2.032020e+05	
66	3.300000e+00	2.117011e+05	
67	3.350000e+00	2.201700e+05	
68	3.400000e+00	2.286071e+05	
69	3.450000e+00	2.370109e+05	
70	3.500000e+00	2.453804e+05	
71	3.550000e+00	2.537146e+05	
72	3.600000e+00	2.620129e+05	
73	3.650000e+00	2.702745e+05	
74	3.700000e+00	2.784990e+05	
75	3.750000e+00	2.866860e+05	
76	3.800000e+00	2.948352e+05	
77	3.850000e+00	3.029463e+05	
78	3.900000e+00	3.110191e+05	
79	3.950000e+00	3.190535e+05	
80	4.000000e+00	3.270495e+05	
81	4.050000e+00	3.350069e+05	
82	4.100000e+00	3.429258e+05	
83	4.150000e+00	3.508061e+05	
84	4.200000e+00	3.586480e+05	
85	4.250000e+00	3.664514e+05	
86	4.300000e+00	3.742165e+05	
87	4.350000e+00	3.819433e+05	
88	4.400000e+00	3.896320e+05	
89	4.450000e+00	3.972827e+05	
90	4.500000e+00	4.048955e+05	
91	4.550000e+00	4.124706e+05	
92	4.600000e+00	4.200081e+05	
93	4.650000e+00	4.275083e+05	
94	4.700000e+00	4.349712e+05	
95	4.750000e+00	4.423971e+05	
96	4.800000e+00	4.497861e+05	
97	4.850000e+00	4.571384e+05	
98	4.900000e+00	4.644543e+05	
99	4.950000e+00	4.717339e+05	
100	5.000000e+00	4.789774e+05	
101	5.050000e+00	4.861850e+05	
102	5.100000e+00	4.933570e+05	
103	5.150000e+00	5.004934e+05	
104	5.200000e+00	5.075946e+05	
105	5.250000e+00	5.146608e+05	
106	5.300000e+00	5.216921e+05	
107	5.350000e+00	5.286888e+05	
108	5.400000e+00	5.356511e+05	
109	5.450000e+00	5.425791e+05	
110	5.500000e+00	5.494732e+05	
111	5.550000e+00	5.563335e+05	
112	5.600000e+00	5.631602e+05	

Index   v-sweep         rds             
--------------------------------------------------------------------------------
113	5.650000e+00	5.699536e+05	
114	5.700000e+00	5.767138e+05	
115	5.750000e+00	5.834411e+05	
116	5.800000e+00	5.901356e+05	
117	5.850000e+00	5.967977e+05	
118	5.900000e+00	6.034274e+05	
119	5.950000e+00	6.100251e+05	
120	6.000000e+00	6.165908e+05	
121	6.050000e+00	6.231249e+05	
122	6.100000e+00	6.296275e+05	
123	6.150000e+00	6.360989e+05	
124	6.200000e+00	6.425392e+05	
125	6.250000e+00	6.489486e+05	
126	6.300000e+00	6.553274e+05	
127	6.350000e+00	6.616758e+05	
128	6.400000e+00	6.679939e+05	
129	6.450000e+00	6.742819e+05	
130	6.500000e+00	6.805401e+05	
131	6.550000e+00	6.867687e+05	
132	6.600000e+00	6.929678e+05	
Reset re-loads circuit ***************************

Circuit: ***************************

Note: No ".plot", ".print", or ".fourier" lines; no simulations run
