
Note: Compatibility modes selected: hs

Warning: m=xx on .subckt line will override multiplier m hierarchy!


Circuit: ***************************

Doing analysis at TEMP = 125.000000 and TNOM = 125.000000


No. of Data Rows : 133
                          ***************************
                          DC transfer characteristic  Mon Jan  9 13:57:43  2023
--------------------------------------------------------------------------------
Index   v-sweep         rds             
--------------------------------------------------------------------------------
0	0.000000e+00	1.575855e+05	
1	5.000000e-02	1.820733e+05	
2	1.000000e-01	2.152915e+05	
3	1.500000e-01	2.628101e+05	
4	2.000000e-01	3.359454e+05	
5	2.500000e-01	4.607503e+05	
6	3.000000e-01	7.062133e+05	
7	3.500000e-01	1.272012e+06	
8	4.000000e-01	2.666342e+06	
9	4.500000e-01	5.661900e+06	
10	5.000000e-01	1.059949e+07	
11	5.500000e-01	1.693739e+07	
12	6.000000e-01	2.374481e+07	
13	6.500000e-01	3.029728e+07	
14	7.000000e-01	3.623288e+07	
15	7.500000e-01	4.145029e+07	
16	8.000000e-01	4.598023e+07	
17	8.500000e-01	4.990328e+07	
18	9.000000e-01	5.330955e+07	
19	9.500000e-01	5.628223e+07	
20	1.000000e+00	5.889256e+07	
21	1.050000e+00	6.119957e+07	
22	1.100000e+00	6.325150e+07	
23	1.150000e+00	6.508760e+07	
24	1.200000e+00	6.673989e+07	
25	1.250000e+00	6.823455e+07	
26	1.300000e+00	6.959314e+07	
27	1.350000e+00	7.083353e+07	
28	1.400000e+00	7.197062e+07	
29	1.450000e+00	7.301690e+07	
30	1.500000e+00	7.398294e+07	
31	1.550000e+00	7.487775e+07	
32	1.600000e+00	7.570900e+07	
33	1.650000e+00	7.648331e+07	
34	1.700000e+00	7.720640e+07	
35	1.750000e+00	7.788325e+07	
36	1.800000e+00	7.851820e+07	
37	1.850000e+00	7.911508e+07	
38	1.900000e+00	7.967722e+07	
39	1.950000e+00	8.020762e+07	
40	2.000000e+00	8.070891e+07	
41	2.050000e+00	8.118344e+07	
42	2.100000e+00	8.163332e+07	
43	2.150000e+00	8.206043e+07	
44	2.200000e+00	8.246646e+07	
45	2.250000e+00	8.285296e+07	
46	2.300000e+00	8.322131e+07	
47	2.350000e+00	8.357275e+07	
48	2.400000e+00	8.390845e+07	
49	2.450000e+00	8.422942e+07	
50	2.500000e+00	8.453663e+07	
51	2.550000e+00	8.483095e+07	
52	2.600000e+00	8.511317e+07	
53	2.650000e+00	8.538402e+07	
54	2.700000e+00	8.564418e+07	

Index   v-sweep         rds             
--------------------------------------------------------------------------------
55	2.750000e+00	8.589428e+07	
56	2.800000e+00	8.613487e+07	
57	2.850000e+00	8.636651e+07	
58	2.900000e+00	8.658967e+07	
59	2.950000e+00	8.680481e+07	
60	3.000000e+00	8.701236e+07	
61	3.050000e+00	8.721271e+07	
62	3.100000e+00	8.740624e+07	
63	3.150000e+00	8.759328e+07	
64	3.200000e+00	8.777414e+07	
65	3.250000e+00	8.794915e+07	
66	3.300000e+00	8.811856e+07	
67	3.350000e+00	8.828265e+07	
68	3.400000e+00	8.844166e+07	
69	3.450000e+00	8.859582e+07	
70	3.500000e+00	8.874535e+07	
71	3.550000e+00	8.889046e+07	
72	3.600000e+00	8.903134e+07	
73	3.650000e+00	8.916816e+07	
74	3.700000e+00	8.930111e+07	
75	3.750000e+00	8.943033e+07	
76	3.800000e+00	8.955599e+07	
77	3.850000e+00	8.967824e+07	
78	3.900000e+00	8.979719e+07	
79	3.950000e+00	8.991300e+07	
80	4.000000e+00	9.002577e+07	
81	4.050000e+00	9.013563e+07	
82	4.100000e+00	9.024269e+07	
83	4.150000e+00	9.034705e+07	
84	4.200000e+00	9.044881e+07	
85	4.250000e+00	9.054807e+07	
86	4.300000e+00	9.064491e+07	
87	4.350000e+00	9.073943e+07	
88	4.400000e+00	9.083170e+07	
89	4.450000e+00	9.092181e+07	
90	4.500000e+00	9.100982e+07	
91	4.550000e+00	9.109582e+07	
92	4.600000e+00	9.117987e+07	
93	4.650000e+00	9.126202e+07	
94	4.700000e+00	9.134236e+07	
95	4.750000e+00	9.142092e+07	
96	4.800000e+00	9.149778e+07	
97	4.850000e+00	9.157299e+07	
98	4.900000e+00	9.164659e+07	
99	4.950000e+00	9.171865e+07	
100	5.000000e+00	9.178920e+07	
101	5.050000e+00	9.185829e+07	
102	5.100000e+00	9.192597e+07	
103	5.150000e+00	9.199228e+07	
104	5.200000e+00	9.205726e+07	
105	5.250000e+00	9.212095e+07	
106	5.300000e+00	9.218338e+07	
107	5.350000e+00	9.224460e+07	
108	5.400000e+00	9.230463e+07	
109	5.450000e+00	9.236352e+07	
110	5.500000e+00	9.242129e+07	
111	5.550000e+00	9.247798e+07	
112	5.600000e+00	9.253361e+07	

Index   v-sweep         rds             
--------------------------------------------------------------------------------
113	5.650000e+00	9.258821e+07	
114	5.700000e+00	9.264181e+07	
115	5.750000e+00	9.269444e+07	
116	5.800000e+00	9.274613e+07	
117	5.850000e+00	9.279689e+07	
118	5.900000e+00	9.284676e+07	
119	5.950000e+00	9.289575e+07	
120	6.000000e+00	9.294389e+07	
121	6.050000e+00	9.299120e+07	
122	6.100000e+00	9.303771e+07	
123	6.150000e+00	9.308342e+07	
124	6.200000e+00	9.312836e+07	
125	6.250000e+00	9.317256e+07	
126	6.300000e+00	9.321602e+07	
127	6.350000e+00	9.325877e+07	
128	6.400000e+00	9.330082e+07	
129	6.450000e+00	9.334219e+07	
130	6.500000e+00	9.338290e+07	
131	6.550000e+00	9.342295e+07	
132	6.600000e+00	9.346238e+07	
Reset re-loads circuit ***************************

Circuit: ***************************

Doing analysis at TEMP = 125.000000 and TNOM = 125.000000


No. of Data Rows : 133
                          ***************************
                          DC transfer characteristic  Mon Jan  9 13:57:43  2023
--------------------------------------------------------------------------------
Index   v-sweep         rds             
--------------------------------------------------------------------------------
0	0.000000e+00	5.228357e+04	
1	5.000000e-02	5.485445e+04	
2	1.000000e-01	5.767453e+04	
3	1.500000e-01	6.078185e+04	
4	2.000000e-01	6.422259e+04	
5	2.500000e-01	6.805337e+04	
6	3.000000e-01	7.234436e+04	
7	3.500000e-01	7.718363e+04	
8	4.000000e-01	8.268315e+04	
9	4.500000e-01	8.898746e+04	
10	5.000000e-01	9.628640e+04	
11	5.500000e-01	1.048341e+05	
12	6.000000e-01	1.149786e+05	
13	6.500000e-01	1.272081e+05	
14	7.000000e-01	1.422287e+05	
15	7.500000e-01	1.610952e+05	
16	8.000000e-01	1.854450e+05	
17	8.500000e-01	2.179276e+05	
18	9.000000e-01	2.630190e+05	
19	9.500000e-01	3.285651e+05	
20	1.000000e+00	4.285245e+05	
21	1.050000e+00	5.868409e+05	
22	1.100000e+00	8.396055e+05	
23	1.150000e+00	1.228371e+06	
24	1.200000e+00	1.781717e+06	
25	1.250000e+00	2.498777e+06	
26	1.300000e+00	3.350417e+06	
27	1.350000e+00	4.293835e+06	
28	1.400000e+00	5.286783e+06	
29	1.450000e+00	6.294979e+06	
30	1.500000e+00	7.293767e+06	
31	1.550000e+00	8.266930e+06	
32	1.600000e+00	9.204668e+06	
33	1.650000e+00	1.010170e+07	
34	1.700000e+00	1.095578e+07	
35	1.750000e+00	1.176658e+07	
36	1.800000e+00	1.253503e+07	
37	1.850000e+00	1.326273e+07	
38	1.900000e+00	1.395168e+07	
39	1.950000e+00	1.460406e+07	
40	2.000000e+00	1.522210e+07	
41	2.050000e+00	1.580799e+07	
42	2.100000e+00	1.636383e+07	
43	2.150000e+00	1.689162e+07	
44	2.200000e+00	1.739325e+07	
45	2.250000e+00	1.787046e+07	
46	2.300000e+00	1.832487e+07	
47	2.350000e+00	1.875799e+07	
48	2.400000e+00	1.917121e+07	
49	2.450000e+00	1.956581e+07	
50	2.500000e+00	1.994298e+07	
51	2.550000e+00	2.030380e+07	
52	2.600000e+00	2.064930e+07	
53	2.650000e+00	2.098040e+07	
54	2.700000e+00	2.129796e+07	

Index   v-sweep         rds             
--------------------------------------------------------------------------------
55	2.750000e+00	2.160278e+07	
56	2.800000e+00	2.189560e+07	
57	2.850000e+00	2.217710e+07	
58	2.900000e+00	2.244791e+07	
59	2.950000e+00	2.270862e+07	
60	3.000000e+00	2.295979e+07	
61	3.050000e+00	2.320191e+07	
62	3.100000e+00	2.343547e+07	
63	3.150000e+00	2.366090e+07	
64	3.200000e+00	2.387862e+07	
65	3.250000e+00	2.408901e+07	
66	3.300000e+00	2.429243e+07	
67	3.350000e+00	2.448923e+07	
68	3.400000e+00	2.467971e+07	
69	3.450000e+00	2.486418e+07	
70	3.500000e+00	2.504291e+07	
71	3.550000e+00	2.521616e+07	
72	3.600000e+00	2.538419e+07	
73	3.650000e+00	2.554722e+07	
74	3.700000e+00	2.570547e+07	
75	3.750000e+00	2.585914e+07	
76	3.800000e+00	2.600844e+07	
77	3.850000e+00	2.615354e+07	
78	3.900000e+00	2.629461e+07	
79	3.950000e+00	2.643183e+07	
80	4.000000e+00	2.656535e+07	
81	4.050000e+00	2.669531e+07	
82	4.100000e+00	2.682185e+07	
83	4.150000e+00	2.694511e+07	
84	4.200000e+00	2.706521e+07	
85	4.250000e+00	2.718227e+07	
86	4.300000e+00	2.729641e+07	
87	4.350000e+00	2.740773e+07	
88	4.400000e+00	2.751633e+07	
89	4.450000e+00	2.762231e+07	
90	4.500000e+00	2.772577e+07	
91	4.550000e+00	2.782679e+07	
92	4.600000e+00	2.792546e+07	
93	4.650000e+00	2.802187e+07	
94	4.700000e+00	2.811607e+07	
95	4.750000e+00	2.820816e+07	
96	4.800000e+00	2.829820e+07	
97	4.850000e+00	2.838625e+07	
98	4.900000e+00	2.847239e+07	
99	4.950000e+00	2.855667e+07	
100	5.000000e+00	2.863915e+07	
101	5.050000e+00	2.871990e+07	
102	5.100000e+00	2.879895e+07	
103	5.150000e+00	2.887638e+07	
104	5.200000e+00	2.895222e+07	
105	5.250000e+00	2.902652e+07	
106	5.300000e+00	2.909933e+07	
107	5.350000e+00	2.917070e+07	
108	5.400000e+00	2.924066e+07	
109	5.450000e+00	2.930926e+07	
110	5.500000e+00	2.937653e+07	
111	5.550000e+00	2.944252e+07	
112	5.600000e+00	2.950726e+07	

Index   v-sweep         rds             
--------------------------------------------------------------------------------
113	5.650000e+00	2.957078e+07	
114	5.700000e+00	2.963313e+07	
115	5.750000e+00	2.969432e+07	
116	5.800000e+00	2.975440e+07	
117	5.850000e+00	2.981339e+07	
118	5.900000e+00	2.987132e+07	
119	5.950000e+00	2.992822e+07	
120	6.000000e+00	2.998412e+07	
121	6.050000e+00	3.003904e+07	
122	6.100000e+00	3.009301e+07	
123	6.150000e+00	3.014606e+07	
124	6.200000e+00	3.019820e+07	
125	6.250000e+00	3.024946e+07	
126	6.300000e+00	3.029986e+07	
127	6.350000e+00	3.034942e+07	
128	6.400000e+00	3.039817e+07	
129	6.450000e+00	3.044611e+07	
130	6.500000e+00	3.049328e+07	
131	6.550000e+00	3.053970e+07	
132	6.600000e+00	3.058537e+07	
Reset re-loads circuit ***************************

Circuit: ***************************

Doing analysis at TEMP = 125.000000 and TNOM = 125.000000


No. of Data Rows : 133
                          ***************************
                          DC transfer characteristic  Mon Jan  9 13:57:43  2023
--------------------------------------------------------------------------------
Index   v-sweep         rds             
--------------------------------------------------------------------------------
0	0.000000e+00	3.363785e+04	
1	5.000000e-02	3.463666e+04	
2	1.000000e-01	3.569070e+04	
3	1.500000e-01	3.680466e+04	
4	2.000000e-01	3.798381e+04	
5	2.500000e-01	3.923401e+04	
6	3.000000e-01	4.056190e+04	
7	3.500000e-01	4.197493e+04	
8	4.000000e-01	4.348156e+04	
9	4.500000e-01	4.509140e+04	
10	5.000000e-01	4.681541e+04	
11	5.500000e-01	4.866619e+04	
12	6.000000e-01	5.065823e+04	
13	6.500000e-01	5.280834e+04	
14	7.000000e-01	5.513609e+04	
15	7.500000e-01	5.766443e+04	
16	8.000000e-01	6.042042e+04	
17	8.500000e-01	6.343625e+04	
18	9.000000e-01	6.675044e+04	
19	9.500000e-01	7.040951e+04	
20	1.000000e+00	7.447020e+04	
21	1.050000e+00	7.900236e+04	
22	1.100000e+00	8.409300e+04	
23	1.150000e+00	8.985184e+04	
24	1.200000e+00	9.641921e+04	
25	1.250000e+00	1.039774e+05	
26	1.300000e+00	1.127671e+05	
27	1.350000e+00	1.231128e+05	
28	1.400000e+00	1.354608e+05	
29	1.450000e+00	1.504395e+05	
30	1.500000e+00	1.689556e+05	
31	1.550000e+00	1.923493e+05	
32	1.600000e+00	2.226435e+05	
33	1.650000e+00	2.629267e+05	
34	1.700000e+00	3.178782e+05	
35	1.750000e+00	3.942981e+05	
36	1.800000e+00	5.011773e+05	
37	1.850000e+00	6.485550e+05	
38	1.900000e+00	8.448893e+05	
39	1.950000e+00	1.094130e+06	
40	2.000000e+00	1.394443e+06	
41	2.050000e+00	1.739217e+06	
42	2.100000e+00	2.119275e+06	
43	2.150000e+00	2.524937e+06	
44	2.200000e+00	2.947331e+06	
45	2.250000e+00	3.378982e+06	
46	2.300000e+00	3.813923e+06	
47	2.350000e+00	4.247571e+06	
48	2.400000e+00	4.676511e+06	
49	2.450000e+00	5.098268e+06	
50	2.500000e+00	5.511100e+06	
51	2.550000e+00	5.913831e+06	
52	2.600000e+00	6.305710e+06	
53	2.650000e+00	6.686304e+06	
54	2.700000e+00	7.055422e+06	

Index   v-sweep         rds             
--------------------------------------------------------------------------------
55	2.750000e+00	7.413042e+06	
56	2.800000e+00	7.759274e+06	
57	2.850000e+00	8.094316e+06	
58	2.900000e+00	8.418431e+06	
59	2.950000e+00	8.731924e+06	
60	3.000000e+00	9.035129e+06	
61	3.050000e+00	9.328398e+06	
62	3.100000e+00	9.612087e+06	
63	3.150000e+00	9.886558e+06	
64	3.200000e+00	1.015217e+07	
65	3.250000e+00	1.040927e+07	
66	3.300000e+00	1.065819e+07	
67	3.350000e+00	1.089929e+07	
68	3.400000e+00	1.113286e+07	
69	3.450000e+00	1.135923e+07	
70	3.500000e+00	1.157869e+07	
71	3.550000e+00	1.179152e+07	
72	3.600000e+00	1.199800e+07	
73	3.650000e+00	1.219838e+07	
74	3.700000e+00	1.239291e+07	
75	3.750000e+00	1.258182e+07	
76	3.800000e+00	1.276536e+07	
77	3.850000e+00	1.294372e+07	
78	3.900000e+00	1.311711e+07	
79	3.950000e+00	1.328573e+07	
80	4.000000e+00	1.344976e+07	
81	4.050000e+00	1.360939e+07	
82	4.100000e+00	1.376477e+07	
83	4.150000e+00	1.391607e+07	
84	4.200000e+00	1.406345e+07	
85	4.250000e+00	1.420704e+07	
86	4.300000e+00	1.434699e+07	
87	4.350000e+00	1.448343e+07	
88	4.400000e+00	1.461649e+07	
89	4.450000e+00	1.474629e+07	
90	4.500000e+00	1.487294e+07	
91	4.550000e+00	1.499656e+07	
92	4.600000e+00	1.511724e+07	
93	4.650000e+00	1.523510e+07	
94	4.700000e+00	1.535022e+07	
95	4.750000e+00	1.546270e+07	
96	4.800000e+00	1.557263e+07	
97	4.850000e+00	1.568008e+07	
98	4.900000e+00	1.578515e+07	
99	4.950000e+00	1.588791e+07	
100	5.000000e+00	1.598843e+07	
101	5.050000e+00	1.608679e+07	
102	5.100000e+00	1.618304e+07	
103	5.150000e+00	1.627727e+07	
104	5.200000e+00	1.636952e+07	
105	5.250000e+00	1.645987e+07	
106	5.300000e+00	1.654837e+07	
107	5.350000e+00	1.663506e+07	
108	5.400000e+00	1.672002e+07	
109	5.450000e+00	1.680329e+07	
110	5.500000e+00	1.688491e+07	
111	5.550000e+00	1.696494e+07	
112	5.600000e+00	1.704342e+07	

Index   v-sweep         rds             
--------------------------------------------------------------------------------
113	5.650000e+00	1.712039e+07	
114	5.700000e+00	1.719591e+07	
115	5.750000e+00	1.727000e+07	
116	5.800000e+00	1.734271e+07	
117	5.850000e+00	1.741408e+07	
118	5.900000e+00	1.748413e+07	
119	5.950000e+00	1.755292e+07	
120	6.000000e+00	1.762047e+07	
121	6.050000e+00	1.768681e+07	
122	6.100000e+00	1.775198e+07	
123	6.150000e+00	1.781600e+07	
124	6.200000e+00	1.787891e+07	
125	6.250000e+00	1.794073e+07	
126	6.300000e+00	1.800150e+07	
127	6.350000e+00	1.806124e+07	
128	6.400000e+00	1.811997e+07	
129	6.450000e+00	1.817772e+07	
130	6.500000e+00	1.823451e+07	
131	6.550000e+00	1.829038e+07	
132	6.600000e+00	1.834533e+07	
Reset re-loads circuit ***************************

Circuit: ***************************

Doing analysis at TEMP = 125.000000 and TNOM = 125.000000


No. of Data Rows : 133
                          ***************************
                          DC transfer characteristic  Mon Jan  9 13:57:43  2023
--------------------------------------------------------------------------------
Index   v-sweep         rds             
--------------------------------------------------------------------------------
0	0.000000e+00	2.622218e+04	
1	5.000000e-02	2.678122e+04	
2	1.000000e-01	2.736159e+04	
3	1.500000e-01	2.796453e+04	
4	2.000000e-01	2.859138e+04	
5	2.500000e-01	2.924359e+04	
6	3.000000e-01	2.992274e+04	
7	3.500000e-01	3.063051e+04	
8	4.000000e-01	3.136876e+04	
9	4.500000e-01	3.213949e+04	
10	5.000000e-01	3.294490e+04	
11	5.500000e-01	3.378737e+04	
12	6.000000e-01	3.466952e+04	
13	6.500000e-01	3.559422e+04	
14	7.000000e-01	3.656462e+04	
15	7.500000e-01	3.758418e+04	
16	8.000000e-01	3.865674e+04	
17	8.500000e-01	3.978654e+04	
18	9.000000e-01	4.097829e+04	
19	9.500000e-01	4.223721e+04	
20	1.000000e+00	4.356915e+04	
21	1.050000e+00	4.498065e+04	
22	1.100000e+00	4.647906e+04	
23	1.150000e+00	4.807266e+04	
24	1.200000e+00	4.977081e+04	
25	1.250000e+00	5.158416e+04	
26	1.300000e+00	5.352484e+04	
27	1.350000e+00	5.560677e+04	
28	1.400000e+00	5.784596e+04	
29	1.450000e+00	6.026094e+04	
30	1.500000e+00	6.287330e+04	
31	1.550000e+00	6.570829e+04	
32	1.600000e+00	6.879570e+04	
33	1.650000e+00	7.217088e+04	
34	1.700000e+00	7.587614e+04	
35	1.750000e+00	7.996253e+04	
36	1.800000e+00	8.449223e+04	
37	1.850000e+00	8.954176e+04	
38	1.900000e+00	9.520636e+04	
39	1.950000e+00	1.016060e+05	
40	2.000000e+00	1.088941e+05	
41	2.050000e+00	1.172695e+05	
42	2.100000e+00	1.269942e+05	
43	2.150000e+00	1.384198e+05	
44	2.200000e+00	1.520259e+05	
45	2.250000e+00	1.684782e+05	
46	2.300000e+00	1.887133e+05	
47	2.350000e+00	2.140580e+05	
48	2.400000e+00	2.463809e+05	
49	2.450000e+00	2.882468e+05	
50	2.500000e+00	3.429829e+05	
51	2.550000e+00	4.145052e+05	
52	2.600000e+00	5.067715e+05	
53	2.650000e+00	6.229355e+05	
54	2.700000e+00	7.645618e+05	

Index   v-sweep         rds             
--------------------------------------------------------------------------------
55	2.750000e+00	9.313004e+05	
56	2.800000e+00	1.121124e+06	
57	2.850000e+00	1.330903e+06	
58	2.900000e+00	1.557022e+06	
59	2.950000e+00	1.795852e+06	
60	3.000000e+00	2.044036e+06	
61	3.050000e+00	2.298635e+06	
62	3.100000e+00	2.557159e+06	
63	3.150000e+00	2.817552e+06	
64	3.200000e+00	3.078147e+06	
65	3.250000e+00	3.337611e+06	
66	3.300000e+00	3.594895e+06	
67	3.350000e+00	3.849181e+06	
68	3.400000e+00	4.099840e+06	
69	3.450000e+00	4.346400e+06	
70	3.500000e+00	4.588513e+06	
71	3.550000e+00	4.825929e+06	
72	3.600000e+00	5.058483e+06	
73	3.650000e+00	5.286070e+06	
74	3.700000e+00	5.508640e+06	
75	3.750000e+00	5.726180e+06	
76	3.800000e+00	5.938713e+06	
77	3.850000e+00	6.146283e+06	
78	3.900000e+00	6.348956e+06	
79	3.950000e+00	6.546813e+06	
80	4.000000e+00	6.739945e+06	
81	4.050000e+00	6.928454e+06	
82	4.100000e+00	7.112444e+06	
83	4.150000e+00	7.292027e+06	
84	4.200000e+00	7.467315e+06	
85	4.250000e+00	7.638423e+06	
86	4.300000e+00	7.805465e+06	
87	4.350000e+00	7.968554e+06	
88	4.400000e+00	8.127803e+06	
89	4.450000e+00	8.283325e+06	
90	4.500000e+00	8.435227e+06	
91	4.550000e+00	8.583617e+06	
92	4.600000e+00	8.728599e+06	
93	4.650000e+00	8.870275e+06	
94	4.700000e+00	9.008744e+06	
95	4.750000e+00	9.144102e+06	
96	4.800000e+00	9.276443e+06	
97	4.850000e+00	9.405858e+06	
98	4.900000e+00	9.532432e+06	
99	4.950000e+00	9.656253e+06	
100	5.000000e+00	9.777401e+06	
101	5.050000e+00	9.895957e+06	
102	5.100000e+00	1.001200e+07	
103	5.150000e+00	1.012559e+07	
104	5.200000e+00	1.023682e+07	
105	5.250000e+00	1.034575e+07	
106	5.300000e+00	1.045244e+07	
107	5.350000e+00	1.055696e+07	
108	5.400000e+00	1.065937e+07	
109	5.450000e+00	1.075974e+07	
110	5.500000e+00	1.085811e+07	
111	5.550000e+00	1.095456e+07	
112	5.600000e+00	1.104912e+07	

Index   v-sweep         rds             
--------------------------------------------------------------------------------
113	5.650000e+00	1.114186e+07	
114	5.700000e+00	1.123282e+07	
115	5.750000e+00	1.132205e+07	
116	5.800000e+00	1.140960e+07	
117	5.850000e+00	1.149551e+07	
118	5.900000e+00	1.157983e+07	
119	5.950000e+00	1.166261e+07	
120	6.000000e+00	1.174387e+07	
121	6.050000e+00	1.182367e+07	
122	6.100000e+00	1.190204e+07	
123	6.150000e+00	1.197901e+07	
124	6.200000e+00	1.205463e+07	
125	6.250000e+00	1.212892e+07	
126	6.300000e+00	1.220192e+07	
127	6.350000e+00	1.227367e+07	
128	6.400000e+00	1.234419e+07	
129	6.450000e+00	1.241352e+07	
130	6.500000e+00	1.248168e+07	
131	6.550000e+00	1.254871e+07	
132	6.600000e+00	1.261462e+07	
Reset re-loads circuit ***************************

Circuit: ***************************

Doing analysis at TEMP = 125.000000 and TNOM = 125.000000


No. of Data Rows : 133
                          ***************************
                          DC transfer characteristic  Mon Jan  9 13:57:43  2023
--------------------------------------------------------------------------------
Index   v-sweep         rds             
--------------------------------------------------------------------------------
0	0.000000e+00	2.247637e+04	
1	5.000000e-02	2.284862e+04	
2	1.000000e-01	2.323159e+04	
3	1.500000e-01	2.362573e+04	
4	2.000000e-01	2.403154e+04	
5	2.500000e-01	2.444954e+04	
6	3.000000e-01	2.488030e+04	
7	3.500000e-01	2.532440e+04	
8	4.000000e-01	2.578247e+04	
9	4.500000e-01	2.625518e+04	
10	5.000000e-01	2.674324e+04	
11	5.500000e-01	2.724741e+04	
12	6.000000e-01	2.776850e+04	
13	6.500000e-01	2.830738e+04	
14	7.000000e-01	2.886496e+04	
15	7.500000e-01	2.944224e+04	
16	8.000000e-01	3.004027e+04	
17	8.500000e-01	3.066021e+04	
18	9.000000e-01	3.130326e+04	
19	9.500000e-01	3.197074e+04	
20	1.000000e+00	3.266408e+04	
21	1.050000e+00	3.338480e+04	
22	1.100000e+00	3.413456e+04	
23	1.150000e+00	3.491514e+04	
24	1.200000e+00	3.572849e+04	
25	1.250000e+00	3.657671e+04	
26	1.300000e+00	3.746208e+04	
27	1.350000e+00	3.838711e+04	
28	1.400000e+00	3.935452e+04	
29	1.450000e+00	4.036729e+04	
30	1.500000e+00	4.142869e+04	
31	1.550000e+00	4.254230e+04	
32	1.600000e+00	4.371207e+04	
33	1.650000e+00	4.494238e+04	
34	1.700000e+00	4.623804e+04	
35	1.750000e+00	4.760440e+04	
36	1.800000e+00	4.904744e+04	
37	1.850000e+00	5.057379e+04	
38	1.900000e+00	5.219090e+04	
39	1.950000e+00	5.390714e+04	
40	2.000000e+00	5.573193e+04	
41	2.050000e+00	5.767594e+04	
42	2.100000e+00	5.975129e+04	
43	2.150000e+00	6.197181e+04	
44	2.200000e+00	6.435338e+04	
45	2.250000e+00	6.691428e+04	
46	2.300000e+00	6.967568e+04	
47	2.350000e+00	7.266229e+04	
48	2.400000e+00	7.590308e+04	
49	2.450000e+00	7.943227e+04	
50	2.500000e+00	8.329061e+04	
51	2.550000e+00	8.752701e+04	
52	2.600000e+00	9.220076e+04	
53	2.650000e+00	9.738436e+04	
54	2.700000e+00	1.031676e+05	

Index   v-sweep         rds             
--------------------------------------------------------------------------------
55	2.750000e+00	1.096629e+05	
56	2.800000e+00	1.170128e+05	
57	2.850000e+00	1.254008e+05	
58	2.900000e+00	1.350662e+05	
59	2.950000e+00	1.463256e+05	
60	3.000000e+00	1.596029e+05	
61	3.050000e+00	1.754713e+05	
62	3.100000e+00	1.947070e+05	
63	3.150000e+00	2.183534e+05	
64	3.200000e+00	2.477808e+05	
65	3.250000e+00	2.847087e+05	
66	3.300000e+00	3.311424e+05	
67	3.350000e+00	3.891777e+05	
68	3.400000e+00	4.606829e+05	
69	3.450000e+00	5.469521e+05	
70	3.500000e+00	6.484672e+05	
71	3.550000e+00	7.648591e+05	
72	3.600000e+00	8.950497e+05	
73	3.650000e+00	1.037488e+06	
74	3.700000e+00	1.190390e+06	
75	3.750000e+00	1.351924e+06	
76	3.800000e+00	1.520344e+06	
77	3.850000e+00	1.694055e+06	
78	3.900000e+00	1.871647e+06	
79	3.950000e+00	2.051900e+06	
80	4.000000e+00	2.233774e+06	
81	4.050000e+00	2.416394e+06	
82	4.100000e+00	2.599031e+06	
83	4.150000e+00	2.781080e+06	
84	4.200000e+00	2.962046e+06	
85	4.250000e+00	3.141524e+06	
86	4.300000e+00	3.319188e+06	
87	4.350000e+00	3.494775e+06	
88	4.400000e+00	3.668078e+06	
89	4.450000e+00	3.838936e+06	
90	4.500000e+00	4.007224e+06	
91	4.550000e+00	4.172851e+06	
92	4.600000e+00	4.335752e+06	
93	4.650000e+00	4.495883e+06	
94	4.700000e+00	4.653220e+06	
95	4.750000e+00	4.807753e+06	
96	4.800000e+00	4.959484e+06	
97	4.850000e+00	5.108427e+06	
98	4.900000e+00	5.254603e+06	
99	4.950000e+00	5.398040e+06	
100	5.000000e+00	5.538774e+06	
101	5.050000e+00	5.676841e+06	
102	5.100000e+00	5.812285e+06	
103	5.150000e+00	5.945150e+06	
104	5.200000e+00	6.075483e+06	
105	5.250000e+00	6.203332e+06	
106	5.300000e+00	6.328748e+06	
107	5.350000e+00	6.451780e+06	
108	5.400000e+00	6.572479e+06	
109	5.450000e+00	6.690896e+06	
110	5.500000e+00	6.807081e+06	
111	5.550000e+00	6.921084e+06	
112	5.600000e+00	7.032956e+06	

Index   v-sweep         rds             
--------------------------------------------------------------------------------
113	5.650000e+00	7.142746e+06	
114	5.700000e+00	7.250502e+06	
115	5.750000e+00	7.356271e+06	
116	5.800000e+00	7.460102e+06	
117	5.850000e+00	7.562039e+06	
118	5.900000e+00	7.662128e+06	
119	5.950000e+00	7.760412e+06	
120	6.000000e+00	7.856936e+06	
121	6.050000e+00	7.951740e+06	
122	6.100000e+00	8.044867e+06	
123	6.150000e+00	8.136356e+06	
124	6.200000e+00	8.226246e+06	
125	6.250000e+00	8.314575e+06	
126	6.300000e+00	8.401380e+06	
127	6.350000e+00	8.486699e+06	
128	6.400000e+00	8.570564e+06	
129	6.450000e+00	8.653012e+06	
130	6.500000e+00	8.734075e+06	
131	6.550000e+00	8.813785e+06	
132	6.600000e+00	8.892174e+06	
Reset re-loads circuit ***************************

Circuit: ***************************

Doing analysis at TEMP = 125.000000 and TNOM = 125.000000


No. of Data Rows : 133
                          ***************************
                          DC transfer characteristic  Mon Jan  9 13:57:43  2023
--------------------------------------------------------------------------------
Index   v-sweep         rds             
--------------------------------------------------------------------------------
0	0.000000e+00	2.038153e+04	
1	5.000000e-02	2.065552e+04	
2	1.000000e-01	2.093576e+04	
3	1.500000e-01	2.122246e+04	
4	2.000000e-01	2.151586e+04	
5	2.500000e-01	2.181618e+04	
6	3.000000e-01	2.212368e+04	
7	3.500000e-01	2.243861e+04	
8	4.000000e-01	2.276125e+04	
9	4.500000e-01	2.309188e+04	
10	5.000000e-01	2.343080e+04	
11	5.500000e-01	2.377833e+04	
12	6.000000e-01	2.413479e+04	
13	6.500000e-01	2.450053e+04	
14	7.000000e-01	2.487593e+04	
15	7.500000e-01	2.526137e+04	
16	8.000000e-01	2.565725e+04	
17	8.500000e-01	2.606400e+04	
18	9.000000e-01	2.648208e+04	
19	9.500000e-01	2.691196e+04	
20	1.000000e+00	2.735416e+04	
21	1.050000e+00	2.780920e+04	
22	1.100000e+00	2.827766e+04	
23	1.150000e+00	2.876013e+04	
24	1.200000e+00	2.925725e+04	
25	1.250000e+00	2.976970e+04	
26	1.300000e+00	3.029819e+04	
27	1.350000e+00	3.084350e+04	
28	1.400000e+00	3.140643e+04	
29	1.450000e+00	3.198786e+04	
30	1.500000e+00	3.258870e+04	
31	1.550000e+00	3.320995e+04	
32	1.600000e+00	3.385266e+04	
33	1.650000e+00	3.451797e+04	
34	1.700000e+00	3.520708e+04	
35	1.750000e+00	3.592130e+04	
36	1.800000e+00	3.666201e+04	
37	1.850000e+00	3.743074e+04	
38	1.900000e+00	3.822908e+04	
39	1.950000e+00	3.905880e+04	
40	2.000000e+00	3.992177e+04	
41	2.050000e+00	4.082004e+04	
42	2.100000e+00	4.175581e+04	
43	2.150000e+00	4.273150e+04	
44	2.200000e+00	4.374971e+04	
45	2.250000e+00	4.481329e+04	
46	2.300000e+00	4.592534e+04	
47	2.350000e+00	4.708926e+04	
48	2.400000e+00	4.830877e+04	
49	2.450000e+00	4.958798e+04	
50	2.500000e+00	5.093137e+04	
51	2.550000e+00	5.234394e+04	
52	2.600000e+00	5.383118e+04	
53	2.650000e+00	5.539920e+04	
54	2.700000e+00	5.705481e+04	

Index   v-sweep         rds             
--------------------------------------------------------------------------------
55	2.750000e+00	5.880560e+04	
56	2.800000e+00	6.066009e+04	
57	2.850000e+00	6.262784e+04	
58	2.900000e+00	6.471966e+04	
59	2.950000e+00	6.694778e+04	
60	3.000000e+00	6.932613e+04	
61	3.050000e+00	7.187067e+04	
62	3.100000e+00	7.459971e+04	
63	3.150000e+00	7.753443e+04	
64	3.200000e+00	8.069948e+04	
65	3.250000e+00	8.412371e+04	
66	3.300000e+00	8.784115e+04	
67	3.350000e+00	9.189228e+04	
68	3.400000e+00	9.632561e+04	
69	3.450000e+00	1.011999e+05	
70	3.500000e+00	1.065871e+05	
71	3.550000e+00	1.125760e+05	
72	3.600000e+00	1.192780e+05	
73	3.650000e+00	1.268340e+05	
74	3.700000e+00	1.354247e+05	
75	3.750000e+00	1.452844e+05	
76	3.800000e+00	1.567194e+05	
77	3.850000e+00	1.701323e+05	
78	3.900000e+00	1.860515e+05	
79	3.950000e+00	2.051635e+05	
80	4.000000e+00	2.283389e+05	
81	4.050000e+00	2.566384e+05	
82	4.100000e+00	2.912757e+05	
83	4.150000e+00	3.335225e+05	
84	4.200000e+00	3.845571e+05	
85	4.250000e+00	4.452910e+05	
86	4.300000e+00	5.162313e+05	
87	4.350000e+00	5.974215e+05	
88	4.400000e+00	6.884725e+05	
89	4.450000e+00	7.886569e+05	
90	4.500000e+00	8.970273e+05	
91	4.550000e+00	1.012527e+06	
92	4.600000e+00	1.134079e+06	
93	4.650000e+00	1.260644e+06	
94	4.700000e+00	1.391257e+06	
95	4.750000e+00	1.525045e+06	
96	4.800000e+00	1.661235e+06	
97	4.850000e+00	1.799149e+06	
98	4.900000e+00	1.938201e+06	
99	4.950000e+00	2.077885e+06	
100	5.000000e+00	2.217771e+06	
101	5.050000e+00	2.357493e+06	
102	5.100000e+00	2.496742e+06	
103	5.150000e+00	2.635256e+06	
104	5.200000e+00	2.772817e+06	
105	5.250000e+00	2.909244e+06	
106	5.300000e+00	3.044387e+06	
107	5.350000e+00	3.178121e+06	
108	5.400000e+00	3.310347e+06	
109	5.450000e+00	3.440983e+06	
110	5.500000e+00	3.569966e+06	
111	5.550000e+00	3.697246e+06	
112	5.600000e+00	3.822786e+06	

Index   v-sweep         rds             
--------------------------------------------------------------------------------
113	5.650000e+00	3.946559e+06	
114	5.700000e+00	4.068547e+06	
115	5.750000e+00	4.188741e+06	
116	5.800000e+00	4.307137e+06	
117	5.850000e+00	4.423737e+06	
118	5.900000e+00	4.538548e+06	
119	5.950000e+00	4.651580e+06	
120	6.000000e+00	4.762848e+06	
121	6.050000e+00	4.872367e+06	
122	6.100000e+00	4.980158e+06	
123	6.150000e+00	5.086242e+06	
124	6.200000e+00	5.190640e+06	
125	6.250000e+00	5.293377e+06	
126	6.300000e+00	5.394477e+06	
127	6.350000e+00	5.493968e+06	
128	6.400000e+00	5.591873e+06	
129	6.450000e+00	5.688221e+06	
130	6.500000e+00	5.783039e+06	
131	6.550000e+00	5.876353e+06	
132	6.600000e+00	5.968191e+06	
Reset re-loads circuit ***************************

Circuit: ***************************

Note: No ".plot", ".print", or ".fourier" lines; no simulations run
