
Note: Compatibility modes selected: hs

Warning: m=xx on .subckt line will override multiplier m hierarchy!


Circuit: ***************************

Doing analysis at TEMP = 25.000000 and TNOM = 25.000000


No. of Data Rows : 133
                          ***************************
                          DC transfer characteristic  Mon Jan  9 13:57:42  2023
--------------------------------------------------------------------------------
Index   v-sweep         rds             
--------------------------------------------------------------------------------
0	0.000000e+00	1.447452e+04	
1	5.000000e-02	1.907175e+04	
2	1.000000e-01	2.725195e+04	
3	1.500000e-01	4.415827e+04	
4	2.000000e-01	7.980518e+04	
5	2.500000e-01	1.287538e+05	
6	3.000000e-01	1.692428e+05	
7	3.500000e-01	1.998491e+05	
8	4.000000e-01	2.247762e+05	
9	4.500000e-01	2.461717e+05	
10	5.000000e-01	2.650209e+05	
11	5.500000e-01	2.818554e+05	
12	6.000000e-01	2.970149e+05	
13	6.500000e-01	3.107437e+05	
14	7.000000e-01	3.232313e+05	
15	7.500000e-01	3.346308e+05	
16	8.000000e-01	3.450696e+05	
17	8.500000e-01	3.546554e+05	
18	9.000000e-01	3.634802e+05	
19	9.500000e-01	3.716234e+05	
20	1.000000e+00	3.791541e+05	
21	1.050000e+00	3.861323e+05	
22	1.100000e+00	3.926109e+05	
23	1.150000e+00	3.986364e+05	
24	1.200000e+00	4.042500e+05	
25	1.250000e+00	4.094881e+05	
26	1.300000e+00	4.143832e+05	
27	1.350000e+00	4.189642e+05	
28	1.400000e+00	4.232572e+05	
29	1.450000e+00	4.272854e+05	
30	1.500000e+00	4.310697e+05	
31	1.550000e+00	4.346290e+05	
32	1.600000e+00	4.379804e+05	
33	1.650000e+00	4.411393e+05	
34	1.700000e+00	4.441199e+05	
35	1.750000e+00	4.469348e+05	
36	1.800000e+00	4.495957e+05	
37	1.850000e+00	4.521132e+05	
38	1.900000e+00	4.544970e+05	
39	1.950000e+00	4.567561e+05	
40	2.000000e+00	4.588985e+05	
41	2.050000e+00	4.609319e+05	
42	2.100000e+00	4.628630e+05	
43	2.150000e+00	4.646982e+05	
44	2.200000e+00	4.664435e+05	
45	2.250000e+00	4.681043e+05	
46	2.300000e+00	4.696855e+05	
47	2.350000e+00	4.711919e+05	
48	2.400000e+00	4.726277e+05	
49	2.450000e+00	4.739969e+05	
50	2.500000e+00	4.753034e+05	
51	2.550000e+00	4.765506e+05	
52	2.600000e+00	4.777416e+05	
53	2.650000e+00	4.788796e+05	
54	2.700000e+00	4.799673e+05	

Index   v-sweep         rds             
--------------------------------------------------------------------------------
55	2.750000e+00	4.810074e+05	
56	2.800000e+00	4.820024e+05	
57	2.850000e+00	4.829545e+05	
58	2.900000e+00	4.838660e+05	
59	2.950000e+00	4.847388e+05	
60	3.000000e+00	4.855750e+05	
61	3.050000e+00	4.863761e+05	
62	3.100000e+00	4.871441e+05	
63	3.150000e+00	4.878804e+05	
64	3.200000e+00	4.885865e+05	
65	3.250000e+00	4.892639e+05	
66	3.300000e+00	4.899139e+05	
67	3.350000e+00	4.905377e+05	
68	3.400000e+00	4.911365e+05	
69	3.450000e+00	4.917116e+05	
70	3.500000e+00	4.922638e+05	
71	3.550000e+00	4.927943e+05	
72	3.600000e+00	4.933039e+05	
73	3.650000e+00	4.937937e+05	
74	3.700000e+00	4.942644e+05	
75	3.750000e+00	4.947168e+05	
76	3.800000e+00	4.951518e+05	
77	3.850000e+00	4.955700e+05	
78	3.900000e+00	4.959723e+05	
79	3.950000e+00	4.963591e+05	
80	4.000000e+00	4.967312e+05	
81	4.050000e+00	4.970892e+05	
82	4.100000e+00	4.974336e+05	
83	4.150000e+00	4.977651e+05	
84	4.200000e+00	4.980840e+05	
85	4.250000e+00	4.983909e+05	
86	4.300000e+00	4.986864e+05	
87	4.350000e+00	4.989707e+05	
88	4.400000e+00	4.992445e+05	
89	4.450000e+00	4.995080e+05	
90	4.500000e+00	4.997618e+05	
91	4.550000e+00	5.000061e+05	
92	4.600000e+00	5.002413e+05	
93	4.650000e+00	5.004679e+05	
94	4.700000e+00	5.006860e+05	
95	4.750000e+00	5.008961e+05	
96	4.800000e+00	5.010985e+05	
97	4.850000e+00	5.012934e+05	
98	4.900000e+00	5.014811e+05	
99	4.950000e+00	5.016620e+05	
100	5.000000e+00	5.018362e+05	
101	5.050000e+00	5.020040e+05	
102	5.100000e+00	5.021657e+05	
103	5.150000e+00	5.023215e+05	
104	5.200000e+00	5.024716e+05	
105	5.250000e+00	5.026162e+05	
106	5.300000e+00	5.027556e+05	
107	5.350000e+00	5.028900e+05	
108	5.400000e+00	5.030194e+05	
109	5.450000e+00	5.031442e+05	
110	5.500000e+00	5.032646e+05	
111	5.550000e+00	5.033806e+05	
112	5.600000e+00	5.034924e+05	

Index   v-sweep         rds             
--------------------------------------------------------------------------------
113	5.650000e+00	5.036003e+05	
114	5.700000e+00	5.037043e+05	
115	5.750000e+00	5.038047e+05	
116	5.800000e+00	5.039015e+05	
117	5.850000e+00	5.039950e+05	
118	5.900000e+00	5.040852e+05	
119	5.950000e+00	5.041723e+05	
120	6.000000e+00	5.042564e+05	
121	6.050000e+00	5.043376e+05	
122	6.100000e+00	5.044161e+05	
123	6.150000e+00	5.044920e+05	
124	6.200000e+00	5.045654e+05	
125	6.250000e+00	5.046364e+05	
126	6.300000e+00	5.047052e+05	
127	6.350000e+00	5.047717e+05	
128	6.400000e+00	5.048362e+05	
129	6.450000e+00	5.048987e+05	
130	6.500000e+00	5.049593e+05	
131	6.550000e+00	5.050182e+05	
132	6.600000e+00	5.050753e+05	
Reset re-loads circuit ***************************

Circuit: ***************************

Doing analysis at TEMP = 25.000000 and TNOM = 25.000000


No. of Data Rows : 133
                          ***************************
                          DC transfer characteristic  Mon Jan  9 13:57:42  2023
--------------------------------------------------------------------------------
Index   v-sweep         rds             
--------------------------------------------------------------------------------
0	0.000000e+00	4.063546e+03	
1	5.000000e-02	4.419010e+03	
2	1.000000e-01	4.824802e+03	
3	1.500000e-01	5.292263e+03	
4	2.000000e-01	5.836409e+03	
5	2.500000e-01	6.477517e+03	
6	3.000000e-01	7.243574e+03	
7	3.500000e-01	8.174159e+03	
8	4.000000e-01	9.326784e+03	
9	4.500000e-01	1.078732e+04	
10	5.000000e-01	1.268643e+04	
11	5.500000e-01	1.522010e+04	
12	6.000000e-01	1.864809e+04	
13	6.500000e-01	2.319016e+04	
14	7.000000e-01	2.880896e+04	
15	7.500000e-01	3.517498e+04	
16	8.000000e-01	4.190973e+04	
17	8.500000e-01	4.875210e+04	
18	9.000000e-01	5.555697e+04	
19	9.500000e-01	6.224976e+04	
20	1.000000e+00	6.879331e+04	
21	1.050000e+00	7.517001e+04	
22	1.100000e+00	8.137258e+04	
23	1.150000e+00	8.739943e+04	
24	1.200000e+00	9.325216e+04	
25	1.250000e+00	9.893416e+04	
26	1.300000e+00	1.044499e+05	
27	1.350000e+00	1.098042e+05	
28	1.400000e+00	1.150025e+05	
29	1.450000e+00	1.200500e+05	
30	1.500000e+00	1.249521e+05	
31	1.550000e+00	1.297141e+05	
32	1.600000e+00	1.343410e+05	
33	1.650000e+00	1.388378e+05	
34	1.700000e+00	1.432094e+05	
35	1.750000e+00	1.474604e+05	
36	1.800000e+00	1.515952e+05	
37	1.850000e+00	1.556181e+05	
38	1.900000e+00	1.595333e+05	
39	1.950000e+00	1.633446e+05	
40	2.000000e+00	1.670558e+05	
41	2.050000e+00	1.706705e+05	
42	2.100000e+00	1.741922e+05	
43	2.150000e+00	1.776241e+05	
44	2.200000e+00	1.809695e+05	
45	2.250000e+00	1.842313e+05	
46	2.300000e+00	1.874125e+05	
47	2.350000e+00	1.905158e+05	
48	2.400000e+00	1.935439e+05	
49	2.450000e+00	1.964993e+05	
50	2.500000e+00	1.993845e+05	
51	2.550000e+00	2.022018e+05	
52	2.600000e+00	2.049534e+05	
53	2.650000e+00	2.076414e+05	
54	2.700000e+00	2.102681e+05	

Index   v-sweep         rds             
--------------------------------------------------------------------------------
55	2.750000e+00	2.128352e+05	
56	2.800000e+00	2.153447e+05	
57	2.850000e+00	2.177984e+05	
58	2.900000e+00	2.201981e+05	
59	2.950000e+00	2.225455e+05	
60	3.000000e+00	2.248421e+05	
61	3.050000e+00	2.270895e+05	
62	3.100000e+00	2.292892e+05	
63	3.150000e+00	2.314427e+05	
64	3.200000e+00	2.335512e+05	
65	3.250000e+00	2.356162e+05	
66	3.300000e+00	2.376388e+05	
67	3.350000e+00	2.396204e+05	
68	3.400000e+00	2.415622e+05	
69	3.450000e+00	2.434651e+05	
70	3.500000e+00	2.453304e+05	
71	3.550000e+00	2.471592e+05	
72	3.600000e+00	2.489523e+05	
73	3.650000e+00	2.507109e+05	
74	3.700000e+00	2.524359e+05	
75	3.750000e+00	2.541281e+05	
76	3.800000e+00	2.557885e+05	
77	3.850000e+00	2.574179e+05	
78	3.900000e+00	2.590171e+05	
79	3.950000e+00	2.605870e+05	
80	4.000000e+00	2.621283e+05	
81	4.050000e+00	2.636418e+05	
82	4.100000e+00	2.651281e+05	
83	4.150000e+00	2.665880e+05	
84	4.200000e+00	2.680222e+05	
85	4.250000e+00	2.694312e+05	
86	4.300000e+00	2.708158e+05	
87	4.350000e+00	2.721765e+05	
88	4.400000e+00	2.735140e+05	
89	4.450000e+00	2.748287e+05	
90	4.500000e+00	2.761213e+05	
91	4.550000e+00	2.773923e+05	
92	4.600000e+00	2.786422e+05	
93	4.650000e+00	2.798715e+05	
94	4.700000e+00	2.810807e+05	
95	4.750000e+00	2.822703e+05	
96	4.800000e+00	2.834407e+05	
97	4.850000e+00	2.845924e+05	
98	4.900000e+00	2.857258e+05	
99	4.950000e+00	2.868414e+05	
100	5.000000e+00	2.879395e+05	
101	5.050000e+00	2.890205e+05	
102	5.100000e+00	2.900849e+05	
103	5.150000e+00	2.911330e+05	
104	5.200000e+00	2.921651e+05	
105	5.250000e+00	2.931817e+05	
106	5.300000e+00	2.941830e+05	
107	5.350000e+00	2.951693e+05	
108	5.400000e+00	2.961411e+05	
109	5.450000e+00	2.970987e+05	
110	5.500000e+00	2.980422e+05	
111	5.550000e+00	2.989721e+05	
112	5.600000e+00	2.998887e+05	

Index   v-sweep         rds             
--------------------------------------------------------------------------------
113	5.650000e+00	3.007921e+05	
114	5.700000e+00	3.016827e+05	
115	5.750000e+00	3.025607e+05	
116	5.800000e+00	3.034265e+05	
117	5.850000e+00	3.042802e+05	
118	5.900000e+00	3.051221e+05	
119	5.950000e+00	3.059525e+05	
120	6.000000e+00	3.067715e+05	
121	6.050000e+00	3.075795e+05	
122	6.100000e+00	3.083766e+05	
123	6.150000e+00	3.091630e+05	
124	6.200000e+00	3.099390e+05	
125	6.250000e+00	3.107047e+05	
126	6.300000e+00	3.114604e+05	
127	6.350000e+00	3.122063e+05	
128	6.400000e+00	3.129426e+05	
129	6.450000e+00	3.136693e+05	
130	6.500000e+00	3.143868e+05	
131	6.550000e+00	3.150952e+05	
132	6.600000e+00	3.157947e+05	
Reset re-loads circuit ***************************

Circuit: ***************************

Doing analysis at TEMP = 25.000000 and TNOM = 25.000000


No. of Data Rows : 133
                          ***************************
                          DC transfer characteristic  Mon Jan  9 13:57:42  2023
--------------------------------------------------------------------------------
Index   v-sweep         rds             
--------------------------------------------------------------------------------
0	0.000000e+00	2.652247e+03	
1	5.000000e-02	2.811189e+03	
2	1.000000e-01	2.983227e+03	
3	1.500000e-01	3.170006e+03	
4	2.000000e-01	3.373466e+03	
5	2.500000e-01	3.595920e+03	
6	3.000000e-01	3.840138e+03	
7	3.500000e-01	4.109468e+03	
8	4.000000e-01	4.407980e+03	
9	4.500000e-01	4.740674e+03	
10	5.000000e-01	5.113758e+03	
11	5.500000e-01	5.535050e+03	
12	6.000000e-01	6.014589e+03	
13	6.500000e-01	6.565582e+03	
14	7.000000e-01	7.206009e+03	
15	7.500000e-01	7.961462e+03	
16	8.000000e-01	8.870402e+03	
17	8.500000e-01	9.993486e+03	
18	9.000000e-01	1.142644e+04	
19	9.500000e-01	1.330313e+04	
20	1.000000e+00	1.575514e+04	
21	1.050000e+00	1.882597e+04	
22	1.100000e+00	2.243183e+04	
23	1.150000e+00	2.642038e+04	
24	1.200000e+00	3.064607e+04	
25	1.250000e+00	3.500091e+04	
26	1.300000e+00	3.941310e+04	
27	1.350000e+00	4.383675e+04	
28	1.400000e+00	4.824282e+04	
29	1.450000e+00	5.261285e+04	
30	1.500000e+00	5.693502e+04	
31	1.550000e+00	6.120183e+04	
32	1.600000e+00	6.540851e+04	
33	1.650000e+00	6.955217e+04	
34	1.700000e+00	7.363115e+04	
35	1.750000e+00	7.764465e+04	
36	1.800000e+00	8.159248e+04	
37	1.850000e+00	8.547486e+04	
38	1.900000e+00	8.929232e+04	
39	1.950000e+00	9.304559e+04	
40	2.000000e+00	9.673557e+04	
41	2.050000e+00	1.003633e+05	
42	2.100000e+00	1.039297e+05	
43	2.150000e+00	1.074360e+05	
44	2.200000e+00	1.108834e+05	
45	2.250000e+00	1.142730e+05	
46	2.300000e+00	1.176060e+05	
47	2.350000e+00	1.208835e+05	
48	2.400000e+00	1.241068e+05	
49	2.450000e+00	1.272769e+05	
50	2.500000e+00	1.303951e+05	
51	2.550000e+00	1.334623e+05	
52	2.600000e+00	1.364799e+05	
53	2.650000e+00	1.394488e+05	
54	2.700000e+00	1.423700e+05	

Index   v-sweep         rds             
--------------------------------------------------------------------------------
55	2.750000e+00	1.452447e+05	
56	2.800000e+00	1.480738e+05	
57	2.850000e+00	1.508584e+05	
58	2.900000e+00	1.535994e+05	
59	2.950000e+00	1.562977e+05	
60	3.000000e+00	1.589543e+05	
61	3.050000e+00	1.615700e+05	
62	3.100000e+00	1.641459e+05	
63	3.150000e+00	1.666826e+05	
64	3.200000e+00	1.691811e+05	
65	3.250000e+00	1.716421e+05	
66	3.300000e+00	1.740665e+05	
67	3.350000e+00	1.764550e+05	
68	3.400000e+00	1.788084e+05	
69	3.450000e+00	1.811274e+05	
70	3.500000e+00	1.834128e+05	
71	3.550000e+00	1.856651e+05	
72	3.600000e+00	1.878852e+05	
73	3.650000e+00	1.900737e+05	
74	3.700000e+00	1.922311e+05	
75	3.750000e+00	1.943582e+05	
76	3.800000e+00	1.964556e+05	
77	3.850000e+00	1.985238e+05	
78	3.900000e+00	2.005635e+05	
79	3.950000e+00	2.025751e+05	
80	4.000000e+00	2.045594e+05	
81	4.050000e+00	2.065167e+05	
82	4.100000e+00	2.084477e+05	
83	4.150000e+00	2.103528e+05	
84	4.200000e+00	2.122326e+05	
85	4.250000e+00	2.140874e+05	
86	4.300000e+00	2.159180e+05	
87	4.350000e+00	2.177245e+05	
88	4.400000e+00	2.195077e+05	
89	4.450000e+00	2.212678e+05	
90	4.500000e+00	2.230053e+05	
91	4.550000e+00	2.247206e+05	
92	4.600000e+00	2.264142e+05	
93	4.650000e+00	2.280864e+05	
94	4.700000e+00	2.297377e+05	
95	4.750000e+00	2.313684e+05	
96	4.800000e+00	2.329789e+05	
97	4.850000e+00	2.345695e+05	
98	4.900000e+00	2.361407e+05	
99	4.950000e+00	2.376928e+05	
100	5.000000e+00	2.392261e+05	
101	5.050000e+00	2.407409e+05	
102	5.100000e+00	2.422376e+05	
103	5.150000e+00	2.437165e+05	
104	5.200000e+00	2.451779e+05	
105	5.250000e+00	2.466221e+05	
106	5.300000e+00	2.480494e+05	
107	5.350000e+00	2.494601e+05	
108	5.400000e+00	2.508545e+05	
109	5.450000e+00	2.522329e+05	
110	5.500000e+00	2.535955e+05	
111	5.550000e+00	2.549426e+05	
112	5.600000e+00	2.562744e+05	

Index   v-sweep         rds             
--------------------------------------------------------------------------------
113	5.650000e+00	2.575913e+05	
114	5.700000e+00	2.588935e+05	
115	5.750000e+00	2.601811e+05	
116	5.800000e+00	2.614546e+05	
117	5.850000e+00	2.627140e+05	
118	5.900000e+00	2.639596e+05	
119	5.950000e+00	2.651917e+05	
120	6.000000e+00	2.664104e+05	
121	6.050000e+00	2.676160e+05	
122	6.100000e+00	2.688086e+05	
123	6.150000e+00	2.699886e+05	
124	6.200000e+00	2.711561e+05	
125	6.250000e+00	2.723112e+05	
126	6.300000e+00	2.734543e+05	
127	6.350000e+00	2.745854e+05	
128	6.400000e+00	2.757048e+05	
129	6.450000e+00	2.768126e+05	
130	6.500000e+00	2.779090e+05	
131	6.550000e+00	2.789943e+05	
132	6.600000e+00	2.800685e+05	
Reset re-loads circuit ***************************

Circuit: ***************************

Doing analysis at TEMP = 25.000000 and TNOM = 25.000000


No. of Data Rows : 133
                          ***************************
                          DC transfer characteristic  Mon Jan  9 13:57:42  2023
--------------------------------------------------------------------------------
Index   v-sweep         rds             
--------------------------------------------------------------------------------
0	0.000000e+00	2.107650e+03	
1	5.000000e-02	2.208110e+03	
2	1.000000e-01	2.314544e+03	
3	1.500000e-01	2.427477e+03	
4	2.000000e-01	2.547504e+03	
5	2.500000e-01	2.675300e+03	
6	3.000000e-01	2.811636e+03	
7	3.500000e-01	2.957397e+03	
8	4.000000e-01	3.113601e+03	
9	4.500000e-01	3.281418e+03	
10	5.000000e-01	3.462206e+03	
11	5.500000e-01	3.657535e+03	
12	6.000000e-01	3.869239e+03	
13	6.500000e-01	4.099467e+03	
14	7.000000e-01	4.350763e+03	
15	7.500000e-01	4.626171e+03	
16	8.000000e-01	4.929396e+03	
17	8.500000e-01	5.265037e+03	
18	9.000000e-01	5.638978e+03	
19	9.500000e-01	6.059036e+03	
20	1.000000e+00	6.536138e+03	
21	1.050000e+00	7.086453e+03	
22	1.100000e+00	7.735254e+03	
23	1.150000e+00	8.523184e+03	
24	1.200000e+00	9.513614e+03	
25	1.250000e+00	1.079307e+04	
26	1.300000e+00	1.244973e+04	
27	1.350000e+00	1.453029e+04	
28	1.400000e+00	1.701204e+04	
29	1.450000e+00	1.981983e+04	
30	1.500000e+00	2.286417e+04	
31	1.550000e+00	2.606702e+04	
32	1.600000e+00	2.936947e+04	
33	1.650000e+00	3.272985e+04	
34	1.700000e+00	3.611939e+04	
35	1.750000e+00	3.951834e+04	
36	1.800000e+00	4.291304e+04	
37	1.850000e+00	4.629401e+04	
38	1.900000e+00	4.965455e+04	
39	1.950000e+00	5.298995e+04	
40	2.000000e+00	5.629684e+04	
41	2.050000e+00	5.957286e+04	
42	2.100000e+00	6.281632e+04	
43	2.150000e+00	6.602607e+04	
44	2.200000e+00	6.920134e+04	
45	2.250000e+00	7.234164e+04	
46	2.300000e+00	7.544672e+04	
47	2.350000e+00	7.851646e+04	
48	2.400000e+00	8.155091e+04	
49	2.450000e+00	8.455019e+04	
50	2.500000e+00	8.751450e+04	
51	2.550000e+00	9.044413e+04	
52	2.600000e+00	9.333937e+04	
53	2.650000e+00	9.620058e+04	
54	2.700000e+00	9.902814e+04	

Index   v-sweep         rds             
--------------------------------------------------------------------------------
55	2.750000e+00	1.018224e+05	
56	2.800000e+00	1.045839e+05	
57	2.850000e+00	1.073130e+05	
58	2.900000e+00	1.100101e+05	
59	2.950000e+00	1.126757e+05	
60	3.000000e+00	1.153101e+05	
61	3.050000e+00	1.179140e+05	
62	3.100000e+00	1.204876e+05	
63	3.150000e+00	1.230316e+05	
64	3.200000e+00	1.255462e+05	
65	3.250000e+00	1.280319e+05	
66	3.300000e+00	1.304892e+05	
67	3.350000e+00	1.329186e+05	
68	3.400000e+00	1.353204e+05	
69	3.450000e+00	1.376950e+05	
70	3.500000e+00	1.400429e+05	
71	3.550000e+00	1.423645e+05	
72	3.600000e+00	1.446602e+05	
73	3.650000e+00	1.469303e+05	
74	3.700000e+00	1.491754e+05	
75	3.750000e+00	1.513957e+05	
76	3.800000e+00	1.535917e+05	
77	3.850000e+00	1.557637e+05	
78	3.900000e+00	1.579121e+05	
79	3.950000e+00	1.600372e+05	
80	4.000000e+00	1.621394e+05	
81	4.050000e+00	1.642192e+05	
82	4.100000e+00	1.662767e+05	
83	4.150000e+00	1.683123e+05	
84	4.200000e+00	1.703264e+05	
85	4.250000e+00	1.723193e+05	
86	4.300000e+00	1.742914e+05	
87	4.350000e+00	1.762428e+05	
88	4.400000e+00	1.781740e+05	
89	4.450000e+00	1.800852e+05	
90	4.500000e+00	1.819768e+05	
91	4.550000e+00	1.838490e+05	
92	4.600000e+00	1.857021e+05	
93	4.650000e+00	1.875364e+05	
94	4.700000e+00	1.893522e+05	
95	4.750000e+00	1.911498e+05	
96	4.800000e+00	1.929293e+05	
97	4.850000e+00	1.946912e+05	
98	4.900000e+00	1.964355e+05	
99	4.950000e+00	1.981627e+05	
100	5.000000e+00	1.998728e+05	
101	5.050000e+00	2.015663e+05	
102	5.100000e+00	2.032433e+05	
103	5.150000e+00	2.049040e+05	
104	5.200000e+00	2.065487e+05	
105	5.250000e+00	2.081776e+05	
106	5.300000e+00	2.097910e+05	
107	5.350000e+00	2.113889e+05	
108	5.400000e+00	2.129718e+05	
109	5.450000e+00	2.145397e+05	
110	5.500000e+00	2.160930e+05	
111	5.550000e+00	2.176317e+05	
112	5.600000e+00	2.191561e+05	

Index   v-sweep         rds             
--------------------------------------------------------------------------------
113	5.650000e+00	2.206663e+05	
114	5.700000e+00	2.221627e+05	
115	5.750000e+00	2.236453e+05	
116	5.800000e+00	2.251144e+05	
117	5.850000e+00	2.265701e+05	
118	5.900000e+00	2.280126e+05	
119	5.950000e+00	2.294421e+05	
120	6.000000e+00	2.308588e+05	
121	6.050000e+00	2.322628e+05	
122	6.100000e+00	2.336544e+05	
123	6.150000e+00	2.350336e+05	
124	6.200000e+00	2.364006e+05	
125	6.250000e+00	2.377556e+05	
126	6.300000e+00	2.390988e+05	
127	6.350000e+00	2.404303e+05	
128	6.400000e+00	2.417503e+05	
129	6.450000e+00	2.430588e+05	
130	6.500000e+00	2.443562e+05	
131	6.550000e+00	2.456424e+05	
132	6.600000e+00	2.469176e+05	
Reset re-loads circuit ***************************

Circuit: ***************************

Doing analysis at TEMP = 25.000000 and TNOM = 25.000000


No. of Data Rows : 133
                          ***************************
                          DC transfer characteristic  Mon Jan  9 13:57:42  2023
--------------------------------------------------------------------------------
Index   v-sweep         rds             
--------------------------------------------------------------------------------
0	0.000000e+00	1.839759e+03	
1	5.000000e-02	1.913199e+03	
2	1.000000e-01	1.990080e+03	
3	1.500000e-01	2.070635e+03	
4	2.000000e-01	2.155121e+03	
5	2.500000e-01	2.243824e+03	
6	3.000000e-01	2.337060e+03	
7	3.500000e-01	2.435184e+03	
8	4.000000e-01	2.538593e+03	
9	4.500000e-01	2.647730e+03	
10	5.000000e-01	2.763094e+03	
11	5.500000e-01	2.885244e+03	
12	6.000000e-01	3.014805e+03	
13	6.500000e-01	3.152484e+03	
14	7.000000e-01	3.299073e+03	
15	7.500000e-01	3.455469e+03	
16	8.000000e-01	3.622688e+03	
17	8.500000e-01	3.801888e+03	
18	9.000000e-01	3.994399e+03	
19	9.500000e-01	4.201766e+03	
20	1.000000e+00	4.425800e+03	
21	1.050000e+00	4.668670e+03	
22	1.100000e+00	4.933029e+03	
23	1.150000e+00	5.222224e+03	
24	1.200000e+00	5.540647e+03	
25	1.250000e+00	5.894340e+03	
26	1.300000e+00	6.292058e+03	
27	1.350000e+00	6.747130e+03	
28	1.400000e+00	7.280497e+03	
29	1.450000e+00	7.924963e+03	
30	1.500000e+00	8.728853e+03	
31	1.550000e+00	9.753580e+03	
32	1.600000e+00	1.105823e+04	
33	1.650000e+00	1.267456e+04	
34	1.700000e+00	1.459196e+04	
35	1.750000e+00	1.676562e+04	
36	1.800000e+00	1.913747e+04	
37	1.850000e+00	2.165282e+04	
38	1.900000e+00	2.426737e+04	
39	1.950000e+00	2.694785e+04	
40	2.000000e+00	2.967008e+04	
41	2.050000e+00	3.241674e+04	
42	2.100000e+00	3.517537e+04	
43	2.150000e+00	3.793698e+04	
44	2.200000e+00	4.069501e+04	
45	2.250000e+00	4.344465e+04	
46	2.300000e+00	4.618232e+04	
47	2.350000e+00	4.890535e+04	
48	2.400000e+00	5.161173e+04	
49	2.450000e+00	5.429995e+04	
50	2.500000e+00	5.696888e+04	
51	2.550000e+00	5.961767e+04	
52	2.600000e+00	6.224567e+04	
53	2.650000e+00	6.485243e+04	
54	2.700000e+00	6.743763e+04	

Index   v-sweep         rds             
--------------------------------------------------------------------------------
55	2.750000e+00	7.000104e+04	
56	2.800000e+00	7.254252e+04	
57	2.850000e+00	7.506202e+04	
58	2.900000e+00	7.755951e+04	
59	2.950000e+00	8.003502e+04	
60	3.000000e+00	8.248863e+04	
61	3.050000e+00	8.492044e+04	
62	3.100000e+00	8.733055e+04	
63	3.150000e+00	8.971912e+04	
64	3.200000e+00	9.208630e+04	
65	3.250000e+00	9.443226e+04	
66	3.300000e+00	9.675718e+04	
67	3.350000e+00	9.906125e+04	
68	3.400000e+00	1.013447e+05	
69	3.450000e+00	1.036076e+05	
70	3.500000e+00	1.058503e+05	
71	3.550000e+00	1.080730e+05	
72	3.600000e+00	1.102759e+05	
73	3.650000e+00	1.124591e+05	
74	3.700000e+00	1.146229e+05	
75	3.750000e+00	1.167676e+05	
76	3.800000e+00	1.188933e+05	
77	3.850000e+00	1.210002e+05	
78	3.900000e+00	1.230886e+05	
79	3.950000e+00	1.251587e+05	
80	4.000000e+00	1.272106e+05	
81	4.050000e+00	1.292446e+05	
82	4.100000e+00	1.312610e+05	
83	4.150000e+00	1.332598e+05	
84	4.200000e+00	1.352414e+05	
85	4.250000e+00	1.372059e+05	
86	4.300000e+00	1.391535e+05	
87	4.350000e+00	1.410844e+05	
88	4.400000e+00	1.429989e+05	
89	4.450000e+00	1.448970e+05	
90	4.500000e+00	1.467791e+05	
91	4.550000e+00	1.486453e+05	
92	4.600000e+00	1.504957e+05	
93	4.650000e+00	1.523306e+05	
94	4.700000e+00	1.541502e+05	
95	4.750000e+00	1.559546e+05	
96	4.800000e+00	1.577440e+05	
97	4.850000e+00	1.595186e+05	
98	4.900000e+00	1.612786e+05	
99	4.950000e+00	1.630241e+05	
100	5.000000e+00	1.647554e+05	
101	5.050000e+00	1.664725e+05	
102	5.100000e+00	1.681756e+05	
103	5.150000e+00	1.698650e+05	
104	5.200000e+00	1.715407e+05	
105	5.250000e+00	1.732029e+05	
106	5.300000e+00	1.748518e+05	
107	5.350000e+00	1.764876e+05	
108	5.400000e+00	1.781103e+05	
109	5.450000e+00	1.797202e+05	
110	5.500000e+00	1.813174e+05	
111	5.550000e+00	1.829020e+05	
112	5.600000e+00	1.844741e+05	

Index   v-sweep         rds             
--------------------------------------------------------------------------------
113	5.650000e+00	1.860340e+05	
114	5.700000e+00	1.875818e+05	
115	5.750000e+00	1.891175e+05	
116	5.800000e+00	1.906414e+05	
117	5.850000e+00	1.921536e+05	
118	5.900000e+00	1.936541e+05	
119	5.950000e+00	1.951432e+05	
120	6.000000e+00	1.966210e+05	
121	6.050000e+00	1.980875e+05	
122	6.100000e+00	1.995429e+05	
123	6.150000e+00	2.009874e+05	
124	6.200000e+00	2.024210e+05	
125	6.250000e+00	2.038440e+05	
126	6.300000e+00	2.052563e+05	
127	6.350000e+00	2.066581e+05	
128	6.400000e+00	2.080495e+05	
129	6.450000e+00	2.094307e+05	
130	6.500000e+00	2.108018e+05	
131	6.550000e+00	2.121628e+05	
132	6.600000e+00	2.135139e+05	
Reset re-loads circuit ***************************

Circuit: ***************************

Doing analysis at TEMP = 25.000000 and TNOM = 25.000000


No. of Data Rows : 133
                          ***************************
                          DC transfer characteristic  Mon Jan  9 13:57:42  2023
--------------------------------------------------------------------------------
Index   v-sweep         rds             
--------------------------------------------------------------------------------
0	0.000000e+00	1.696200e+03	
1	5.000000e-02	1.754291e+03	
2	1.000000e-01	1.814628e+03	
3	1.500000e-01	1.877334e+03	
4	2.000000e-01	1.942545e+03	
5	2.500000e-01	2.010405e+03	
6	3.000000e-01	2.081075e+03	
7	3.500000e-01	2.154729e+03	
8	4.000000e-01	2.231559e+03	
9	4.500000e-01	2.311778e+03	
10	5.000000e-01	2.395619e+03	
11	5.500000e-01	2.483338e+03	
12	6.000000e-01	2.575219e+03	
13	6.500000e-01	2.671572e+03	
14	7.000000e-01	2.772741e+03	
15	7.500000e-01	2.879103e+03	
16	8.000000e-01	2.991073e+03	
17	8.500000e-01	3.109109e+03	
18	9.000000e-01	3.233719e+03	
19	9.500000e-01	3.365462e+03	
20	1.000000e+00	3.504963e+03	
21	1.050000e+00	3.652918e+03	
22	1.100000e+00	3.810109e+03	
23	1.150000e+00	3.977422e+03	
24	1.200000e+00	4.155870e+03	
25	1.250000e+00	4.346629e+03	
26	1.300000e+00	4.551085e+03	
27	1.350000e+00	4.770911e+03	
28	1.400000e+00	5.008183e+03	
29	1.450000e+00	5.265577e+03	
30	1.500000e+00	5.546681e+03	
31	1.550000e+00	5.856536e+03	
32	1.600000e+00	6.202543e+03	
33	1.650000e+00	6.595935e+03	
34	1.700000e+00	7.054003e+03	
35	1.750000e+00	7.602798e+03	
36	1.800000e+00	8.278865e+03	
37	1.850000e+00	9.126615e+03	
38	1.900000e+00	1.018800e+04	
39	1.950000e+00	1.148717e+04	
40	2.000000e+00	1.302066e+04	
41	2.050000e+00	1.476088e+04	
42	2.100000e+00	1.666829e+04	
43	2.150000e+00	1.870287e+04	
44	2.200000e+00	2.083022e+04	
45	2.250000e+00	2.302323e+04	
46	2.300000e+00	2.526145e+04	
47	2.350000e+00	2.752973e+04	
48	2.400000e+00	2.981692e+04	
49	2.450000e+00	3.211479e+04	
50	2.500000e+00	3.441722e+04	
51	2.550000e+00	3.671963e+04	
52	2.600000e+00	3.901855e+04	
53	2.650000e+00	4.131134e+04	
54	2.700000e+00	4.359597e+04	

Index   v-sweep         rds             
--------------------------------------------------------------------------------
55	2.750000e+00	4.587088e+04	
56	2.800000e+00	4.813483e+04	
57	2.850000e+00	5.038687e+04	
58	2.900000e+00	5.262627e+04	
59	2.950000e+00	5.485244e+04	
60	3.000000e+00	5.706492e+04	
61	3.050000e+00	5.926337e+04	
62	3.100000e+00	6.144752e+04	
63	3.150000e+00	6.361717e+04	
64	3.200000e+00	6.577217e+04	
65	3.250000e+00	6.791243e+04	
66	3.300000e+00	7.003787e+04	
67	3.350000e+00	7.214847e+04	
68	3.400000e+00	7.424422e+04	
69	3.450000e+00	7.632513e+04	
70	3.500000e+00	7.839122e+04	
71	3.550000e+00	8.044255e+04	
72	3.600000e+00	8.247918e+04	
73	3.650000e+00	8.450116e+04	
74	3.700000e+00	8.650858e+04	
75	3.750000e+00	8.850153e+04	
76	3.800000e+00	9.048009e+04	
77	3.850000e+00	9.244435e+04	
78	3.900000e+00	9.439443e+04	
79	3.950000e+00	9.633043e+04	
80	4.000000e+00	9.825245e+04	
81	4.050000e+00	1.001606e+05	
82	4.100000e+00	1.020550e+05	
83	4.150000e+00	1.039357e+05	
84	4.200000e+00	1.058030e+05	
85	4.250000e+00	1.076568e+05	
86	4.300000e+00	1.094973e+05	
87	4.350000e+00	1.113247e+05	
88	4.400000e+00	1.131390e+05	
89	4.450000e+00	1.149403e+05	
90	4.500000e+00	1.167288e+05	
91	4.550000e+00	1.185047e+05	
92	4.600000e+00	1.202679e+05	
93	4.650000e+00	1.220187e+05	
94	4.700000e+00	1.237571e+05	
95	4.750000e+00	1.254832e+05	
96	4.800000e+00	1.271973e+05	
97	4.850000e+00	1.288993e+05	
98	4.900000e+00	1.305895e+05	
99	4.950000e+00	1.322678e+05	
100	5.000000e+00	1.339345e+05	
101	5.050000e+00	1.355897e+05	
102	5.100000e+00	1.372334e+05	
103	5.150000e+00	1.388657e+05	
104	5.200000e+00	1.404868e+05	
105	5.250000e+00	1.420968e+05	
106	5.300000e+00	1.436958e+05	
107	5.350000e+00	1.452839e+05	
108	5.400000e+00	1.468612e+05	
109	5.450000e+00	1.484278e+05	
110	5.500000e+00	1.499837e+05	
111	5.550000e+00	1.515292e+05	
112	5.600000e+00	1.530643e+05	

Index   v-sweep         rds             
--------------------------------------------------------------------------------
113	5.650000e+00	1.545891e+05	
114	5.700000e+00	1.561037e+05	
115	5.750000e+00	1.576081e+05	
116	5.800000e+00	1.591026e+05	
117	5.850000e+00	1.605872e+05	
118	5.900000e+00	1.620620e+05	
119	5.950000e+00	1.635270e+05	
120	6.000000e+00	1.649824e+05	
121	6.050000e+00	1.664283e+05	
122	6.100000e+00	1.678647e+05	
123	6.150000e+00	1.692918e+05	
124	6.200000e+00	1.707096e+05	
125	6.250000e+00	1.721182e+05	
126	6.300000e+00	1.735177e+05	
127	6.350000e+00	1.749082e+05	
128	6.400000e+00	1.762898e+05	
129	6.450000e+00	1.776626e+05	
130	6.500000e+00	1.790265e+05	
131	6.550000e+00	1.803818e+05	
132	6.600000e+00	1.817286e+05	
Reset re-loads circuit ***************************

Circuit: ***************************

Note: No ".plot", ".print", or ".fourier" lines; no simulations run
