
Note: Compatibility modes selected: hs

Warning: m=xx on .subckt line will override multiplier m hierarchy!


Circuit: ***************************

Doing analysis at TEMP = -40.000000 and TNOM = -40.000000


No. of Data Rows : 133
                          ***************************
                          DC transfer characteristic  Mon Jan  9 13:57:42  2023
--------------------------------------------------------------------------------
Index   v-sweep         rds             
--------------------------------------------------------------------------------
0	0.000000e+00	2.849371e+04	
1	5.000000e-02	3.860857e+04	
2	1.000000e-01	5.904924e+04	
3	1.500000e-01	1.135566e+05	
4	2.000000e-01	3.094120e+05	
5	2.500000e-01	9.785143e+05	
6	3.000000e-01	2.496041e+06	
7	3.500000e-01	4.737089e+06	
8	4.000000e-01	7.138443e+06	
9	4.500000e-01	9.236794e+06	
10	5.000000e-01	1.087959e+07	
11	5.500000e-01	1.210599e+07	
12	6.000000e-01	1.301062e+07	
13	6.500000e-01	1.368210e+07	
14	7.000000e-01	1.418786e+07	
15	7.500000e-01	1.457567e+07	
16	8.000000e-01	1.487859e+07	
17	8.500000e-01	1.511944e+07	
18	9.000000e-01	1.531415e+07	
19	9.500000e-01	1.547397e+07	
20	1.000000e+00	1.560698e+07	
21	1.050000e+00	1.571906e+07	
22	1.100000e+00	1.581457e+07	
23	1.150000e+00	1.589679e+07	
24	1.200000e+00	1.596821e+07	
25	1.250000e+00	1.603077e+07	
26	1.300000e+00	1.608598e+07	
27	1.350000e+00	1.613504e+07	
28	1.400000e+00	1.617889e+07	
29	1.450000e+00	1.621831e+07	
30	1.500000e+00	1.625394e+07	
31	1.550000e+00	1.628628e+07	
32	1.600000e+00	1.631577e+07	
33	1.650000e+00	1.634276e+07	
34	1.700000e+00	1.636757e+07	
35	1.750000e+00	1.639043e+07	
36	1.800000e+00	1.641158e+07	
37	1.850000e+00	1.643120e+07	
38	1.900000e+00	1.644944e+07	
39	1.950000e+00	1.646645e+07	
40	2.000000e+00	1.648235e+07	
41	2.050000e+00	1.649724e+07	
42	2.100000e+00	1.651122e+07	
43	2.150000e+00	1.652436e+07	
44	2.200000e+00	1.653675e+07	
45	2.250000e+00	1.654844e+07	
46	2.300000e+00	1.655949e+07	
47	2.350000e+00	1.656995e+07	
48	2.400000e+00	1.657988e+07	
49	2.450000e+00	1.658930e+07	
50	2.500000e+00	1.659826e+07	
51	2.550000e+00	1.660678e+07	
52	2.600000e+00	1.661491e+07	
53	2.650000e+00	1.662267e+07	
54	2.700000e+00	1.663008e+07	

Index   v-sweep         rds             
--------------------------------------------------------------------------------
55	2.750000e+00	1.663716e+07	
56	2.800000e+00	1.664394e+07	
57	2.850000e+00	1.665043e+07	
58	2.900000e+00	1.665666e+07	
59	2.950000e+00	1.666264e+07	
60	3.000000e+00	1.666838e+07	
61	3.050000e+00	1.667390e+07	
62	3.100000e+00	1.667921e+07	
63	3.150000e+00	1.668432e+07	
64	3.200000e+00	1.668924e+07	
65	3.250000e+00	1.669399e+07	
66	3.300000e+00	1.669857e+07	
67	3.350000e+00	1.670299e+07	
68	3.400000e+00	1.670726e+07	
69	3.450000e+00	1.671138e+07	
70	3.500000e+00	1.671537e+07	
71	3.550000e+00	1.671923e+07	
72	3.600000e+00	1.672297e+07	
73	3.650000e+00	1.672658e+07	
74	3.700000e+00	1.673009e+07	
75	3.750000e+00	1.673349e+07	
76	3.800000e+00	1.673678e+07	
77	3.850000e+00	1.673998e+07	
78	3.900000e+00	1.674309e+07	
79	3.950000e+00	1.674610e+07	
80	4.000000e+00	1.674903e+07	
81	4.050000e+00	1.675188e+07	
82	4.100000e+00	1.675465e+07	
83	4.150000e+00	1.675734e+07	
84	4.200000e+00	1.675996e+07	
85	4.250000e+00	1.676251e+07	
86	4.300000e+00	1.676499e+07	
87	4.350000e+00	1.676741e+07	
88	4.400000e+00	1.676977e+07	
89	4.450000e+00	1.677206e+07	
90	4.500000e+00	1.677430e+07	
91	4.550000e+00	1.677649e+07	
92	4.600000e+00	1.677862e+07	
93	4.650000e+00	1.678070e+07	
94	4.700000e+00	1.678273e+07	
95	4.750000e+00	1.678471e+07	
96	4.800000e+00	1.678664e+07	
97	4.850000e+00	1.678853e+07	
98	4.900000e+00	1.679038e+07	
99	4.950000e+00	1.679218e+07	
100	5.000000e+00	1.679395e+07	
101	5.050000e+00	1.679567e+07	
102	5.100000e+00	1.679736e+07	
103	5.150000e+00	1.679901e+07	
104	5.200000e+00	1.680063e+07	
105	5.250000e+00	1.680221e+07	
106	5.300000e+00	1.680376e+07	
107	5.350000e+00	1.680527e+07	
108	5.400000e+00	1.680676e+07	
109	5.450000e+00	1.680821e+07	
110	5.500000e+00	1.680964e+07	
111	5.550000e+00	1.681103e+07	
112	5.600000e+00	1.681240e+07	

Index   v-sweep         rds             
--------------------------------------------------------------------------------
113	5.650000e+00	1.681374e+07	
114	5.700000e+00	1.681506e+07	
115	5.750000e+00	1.681635e+07	
116	5.800000e+00	1.681761e+07	
117	5.850000e+00	1.681885e+07	
118	5.900000e+00	1.682007e+07	
119	5.950000e+00	1.682127e+07	
120	6.000000e+00	1.682244e+07	
121	6.050000e+00	1.682359e+07	
122	6.100000e+00	1.682472e+07	
123	6.150000e+00	1.682583e+07	
124	6.200000e+00	1.682692e+07	
125	6.250000e+00	1.682799e+07	
126	6.300000e+00	1.682904e+07	
127	6.350000e+00	1.683008e+07	
128	6.400000e+00	1.683109e+07	
129	6.450000e+00	1.683209e+07	
130	6.500000e+00	1.683307e+07	
131	6.550000e+00	1.683403e+07	
132	6.600000e+00	1.683498e+07	
Reset re-loads circuit ***************************

Circuit: ***************************

Doing analysis at TEMP = -40.000000 and TNOM = -40.000000


No. of Data Rows : 133
                          ***************************
                          DC transfer characteristic  Mon Jan  9 13:57:42  2023
--------------------------------------------------------------------------------
Index   v-sweep         rds             
--------------------------------------------------------------------------------
0	0.000000e+00	5.440339e+03	
1	5.000000e-02	5.751995e+03	
2	1.000000e-01	6.100461e+03	
3	1.500000e-01	6.492661e+03	
4	2.000000e-01	6.937367e+03	
5	2.500000e-01	7.445856e+03	
6	3.000000e-01	8.032876e+03	
7	3.500000e-01	8.718076e+03	
8	4.000000e-01	9.528212e+03	
9	4.500000e-01	1.050064e+04	
10	5.000000e-01	1.168906e+04	
11	5.500000e-01	1.317329e+04	
12	6.000000e-01	1.507684e+04	
13	6.500000e-01	1.759977e+04	
14	7.000000e-01	2.108363e+04	
15	7.500000e-01	2.614568e+04	
16	8.000000e-01	3.396249e+04	
17	8.500000e-01	4.684728e+04	
18	9.000000e-01	6.922973e+04	
19	9.500000e-01	1.085673e+05	
20	1.000000e+00	1.744790e+05	
21	1.050000e+00	2.748465e+05	
22	1.100000e+00	4.113319e+05	
23	1.150000e+00	5.781975e+05	
24	1.200000e+00	7.648445e+05	
25	1.250000e+00	9.595986e+05	
26	1.300000e+00	1.152526e+06	
27	1.350000e+00	1.336621e+06	
28	1.400000e+00	1.507764e+06	
29	1.450000e+00	1.664105e+06	
30	1.500000e+00	1.805332e+06	
31	1.550000e+00	1.932061e+06	
32	1.600000e+00	2.045395e+06	
33	1.650000e+00	2.146634e+06	
34	1.700000e+00	2.237109e+06	
35	1.750000e+00	2.318084e+06	
36	1.800000e+00	2.390716e+06	
37	1.850000e+00	2.456037e+06	
38	1.900000e+00	2.514954e+06	
39	1.950000e+00	2.568256e+06	
40	2.000000e+00	2.616627e+06	
41	2.050000e+00	2.660659e+06	
42	2.100000e+00	2.700862e+06	
43	2.150000e+00	2.737677e+06	
44	2.200000e+00	2.771487e+06	
45	2.250000e+00	2.802621e+06	
46	2.300000e+00	2.831367e+06	
47	2.350000e+00	2.857974e+06	
48	2.400000e+00	2.882661e+06	
49	2.450000e+00	2.905618e+06	
50	2.500000e+00	2.927014e+06	
51	2.550000e+00	2.946996e+06	
52	2.600000e+00	2.965695e+06	
53	2.650000e+00	2.983225e+06	
54	2.700000e+00	2.999690e+06	

Index   v-sweep         rds             
--------------------------------------------------------------------------------
55	2.750000e+00	3.015181e+06	
56	2.800000e+00	3.029778e+06	
57	2.850000e+00	3.043556e+06	
58	2.900000e+00	3.056578e+06	
59	2.950000e+00	3.068905e+06	
60	3.000000e+00	3.080589e+06	
61	3.050000e+00	3.091678e+06	
62	3.100000e+00	3.102215e+06	
63	3.150000e+00	3.112240e+06	
64	3.200000e+00	3.121788e+06	
65	3.250000e+00	3.130892e+06	
66	3.300000e+00	3.139582e+06	
67	3.350000e+00	3.147884e+06	
68	3.400000e+00	3.155824e+06	
69	3.450000e+00	3.163425e+06	
70	3.500000e+00	3.170707e+06	
71	3.550000e+00	3.177689e+06	
72	3.600000e+00	3.184391e+06	
73	3.650000e+00	3.190827e+06	
74	3.700000e+00	3.197014e+06	
75	3.750000e+00	3.202965e+06	
76	3.800000e+00	3.208694e+06	
77	3.850000e+00	3.214211e+06	
78	3.900000e+00	3.219530e+06	
79	3.950000e+00	3.224660e+06	
80	4.000000e+00	3.229610e+06	
81	4.050000e+00	3.234391e+06	
82	4.100000e+00	3.239011e+06	
83	4.150000e+00	3.243477e+06	
84	4.200000e+00	3.247797e+06	
85	4.250000e+00	3.251977e+06	
86	4.300000e+00	3.256026e+06	
87	4.350000e+00	3.259948e+06	
88	4.400000e+00	3.263749e+06	
89	4.450000e+00	3.267435e+06	
90	4.500000e+00	3.271012e+06	
91	4.550000e+00	3.274483e+06	
92	4.600000e+00	3.277853e+06	
93	4.650000e+00	3.281127e+06	
94	4.700000e+00	3.284308e+06	
95	4.750000e+00	3.287401e+06	
96	4.800000e+00	3.290409e+06	
97	4.850000e+00	3.293335e+06	
98	4.900000e+00	3.296183e+06	
99	4.950000e+00	3.298956e+06	
100	5.000000e+00	3.301657e+06	
101	5.050000e+00	3.304288e+06	
102	5.100000e+00	3.306852e+06	
103	5.150000e+00	3.309352e+06	
104	5.200000e+00	3.311790e+06	
105	5.250000e+00	3.314168e+06	
106	5.300000e+00	3.316489e+06	
107	5.350000e+00	3.318754e+06	
108	5.400000e+00	3.320965e+06	
109	5.450000e+00	3.323125e+06	
110	5.500000e+00	3.325234e+06	
111	5.550000e+00	3.327296e+06	
112	5.600000e+00	3.329311e+06	

Index   v-sweep         rds             
--------------------------------------------------------------------------------
113	5.650000e+00	3.331280e+06	
114	5.700000e+00	3.333207e+06	
115	5.750000e+00	3.335091e+06	
116	5.800000e+00	3.336934e+06	
117	5.850000e+00	3.338738e+06	
118	5.900000e+00	3.340503e+06	
119	5.950000e+00	3.342232e+06	
120	6.000000e+00	3.343924e+06	
121	6.050000e+00	3.345582e+06	
122	6.100000e+00	3.347206e+06	
123	6.150000e+00	3.348797e+06	
124	6.200000e+00	3.350356e+06	
125	6.250000e+00	3.351885e+06	
126	6.300000e+00	3.353384e+06	
127	6.350000e+00	3.354853e+06	
128	6.400000e+00	3.356294e+06	
129	6.450000e+00	3.357708e+06	
130	6.500000e+00	3.359096e+06	
131	6.550000e+00	3.360457e+06	
132	6.600000e+00	3.361793e+06	
Reset re-loads circuit ***************************

Circuit: ***************************

Doing analysis at TEMP = -40.000000 and TNOM = -40.000000


No. of Data Rows : 133
                          ***************************
                          DC transfer characteristic  Mon Jan  9 13:57:42  2023
--------------------------------------------------------------------------------
Index   v-sweep         rds             
--------------------------------------------------------------------------------
0	0.000000e+00	3.213481e+03	
1	5.000000e-02	3.313548e+03	
2	1.000000e-01	3.419713e+03	
3	1.500000e-01	3.532551e+03	
4	2.000000e-01	3.652712e+03	
5	2.500000e-01	3.780931e+03	
6	3.000000e-01	3.918048e+03	
7	3.500000e-01	4.065021e+03	
8	4.000000e-01	4.222953e+03	
9	4.500000e-01	4.393117e+03	
10	5.000000e-01	4.576991e+03	
11	5.500000e-01	4.776300e+03	
12	6.000000e-01	4.993073e+03	
13	6.500000e-01	5.229709e+03	
14	7.000000e-01	5.489069e+03	
15	7.500000e-01	5.774588e+03	
16	8.000000e-01	6.090432e+03	
17	8.500000e-01	6.441699e+03	
18	9.000000e-01	6.834691e+03	
19	9.500000e-01	7.277301e+03	
20	1.000000e+00	7.779532e+03	
21	1.050000e+00	8.354256e+03	
22	1.100000e+00	9.018305e+03	
23	1.150000e+00	9.794095e+03	
24	1.200000e+00	1.071210e+04	
25	1.250000e+00	1.181471e+04	
26	1.300000e+00	1.316240e+04	
27	1.350000e+00	1.484395e+04	
28	1.400000e+00	1.699352e+04	
29	1.450000e+00	1.981996e+04	
30	1.500000e+00	2.365654e+04	
31	1.550000e+00	2.904207e+04	
32	1.600000e+00	3.683815e+04	
33	1.650000e+00	4.835367e+04	
34	1.700000e+00	6.537221e+04	
35	1.750000e+00	8.992115e+04	
36	1.800000e+00	1.237416e+05	
37	1.850000e+00	1.677025e+05	
38	1.900000e+00	2.215077e+05	
39	1.950000e+00	2.838160e+05	
40	2.000000e+00	3.526234e+05	
41	2.050000e+00	4.256914e+05	
42	2.100000e+00	5.008826e+05	
43	2.150000e+00	5.763616e+05	
44	2.200000e+00	6.506770e+05	
45	2.250000e+00	7.227624e+05	
46	2.300000e+00	7.918928e+05	
47	2.350000e+00	8.576227e+05	
48	2.400000e+00	9.197228e+05	
49	2.450000e+00	9.781225e+05	
50	2.500000e+00	1.032863e+06	
51	2.550000e+00	1.084061e+06	
52	2.600000e+00	1.131880e+06	
53	2.650000e+00	1.176510e+06	
54	2.700000e+00	1.218155e+06	

Index   v-sweep         rds             
--------------------------------------------------------------------------------
55	2.750000e+00	1.257020e+06	
56	2.800000e+00	1.293306e+06	
57	2.850000e+00	1.327208e+06	
58	2.900000e+00	1.358909e+06	
59	2.950000e+00	1.388580e+06	
60	3.000000e+00	1.416380e+06	
61	3.050000e+00	1.442457e+06	
62	3.100000e+00	1.466945e+06	
63	3.150000e+00	1.489968e+06	
64	3.200000e+00	1.511640e+06	
65	3.250000e+00	1.532064e+06	
66	3.300000e+00	1.551335e+06	
67	3.350000e+00	1.569539e+06	
68	3.400000e+00	1.586755e+06	
69	3.450000e+00	1.603055e+06	
70	3.500000e+00	1.618505e+06	
71	3.550000e+00	1.633165e+06	
72	3.600000e+00	1.647090e+06	
73	3.650000e+00	1.660331e+06	
74	3.700000e+00	1.672933e+06	
75	3.750000e+00	1.684939e+06	
76	3.800000e+00	1.696389e+06	
77	3.850000e+00	1.707317e+06	
78	3.900000e+00	1.717757e+06	
79	3.950000e+00	1.727740e+06	
80	4.000000e+00	1.737293e+06	
81	4.050000e+00	1.746442e+06	
82	4.100000e+00	1.755211e+06	
83	4.150000e+00	1.763623e+06	
84	4.200000e+00	1.771698e+06	
85	4.250000e+00	1.779454e+06	
86	4.300000e+00	1.786911e+06	
87	4.350000e+00	1.794083e+06	
88	4.400000e+00	1.800988e+06	
89	4.450000e+00	1.807638e+06	
90	4.500000e+00	1.814047e+06	
91	4.550000e+00	1.820228e+06	
92	4.600000e+00	1.826191e+06	
93	4.650000e+00	1.831949e+06	
94	4.700000e+00	1.837512e+06	
95	4.750000e+00	1.842888e+06	
96	4.800000e+00	1.848086e+06	
97	4.850000e+00	1.853116e+06	
98	4.900000e+00	1.857985e+06	
99	4.950000e+00	1.862700e+06	
100	5.000000e+00	1.867268e+06	
101	5.050000e+00	1.871696e+06	
102	5.100000e+00	1.875991e+06	
103	5.150000e+00	1.880157e+06	
104	5.200000e+00	1.884201e+06	
105	5.250000e+00	1.888127e+06	
106	5.300000e+00	1.891941e+06	
107	5.350000e+00	1.895648e+06	
108	5.400000e+00	1.899250e+06	
109	5.450000e+00	1.902754e+06	
110	5.500000e+00	1.906163e+06	
111	5.550000e+00	1.909480e+06	
112	5.600000e+00	1.912709e+06	

Index   v-sweep         rds             
--------------------------------------------------------------------------------
113	5.650000e+00	1.915853e+06	
114	5.700000e+00	1.918917e+06	
115	5.750000e+00	1.921902e+06	
116	5.800000e+00	1.924811e+06	
117	5.850000e+00	1.927648e+06	
118	5.900000e+00	1.930416e+06	
119	5.950000e+00	1.933115e+06	
120	6.000000e+00	1.935750e+06	
121	6.050000e+00	1.938322e+06	
122	6.100000e+00	1.940833e+06	
123	6.150000e+00	1.943286e+06	
124	6.200000e+00	1.945682e+06	
125	6.250000e+00	1.948024e+06	
126	6.300000e+00	1.950312e+06	
127	6.350000e+00	1.952550e+06	
128	6.400000e+00	1.954739e+06	
129	6.450000e+00	1.956879e+06	
130	6.500000e+00	1.958973e+06	
131	6.550000e+00	1.961023e+06	
132	6.600000e+00	1.963029e+06	
Reset re-loads circuit ***************************

Circuit: ***************************

Doing analysis at TEMP = -40.000000 and TNOM = -40.000000


No. of Data Rows : 133
                          ***************************
                          DC transfer characteristic  Mon Jan  9 13:57:42  2023
--------------------------------------------------------------------------------
Index   v-sweep         rds             
--------------------------------------------------------------------------------
0	0.000000e+00	2.419477e+03	
1	5.000000e-02	2.470986e+03	
2	1.000000e-01	2.524571e+03	
3	1.500000e-01	2.580362e+03	
4	2.000000e-01	2.638496e+03	
5	2.500000e-01	2.699125e+03	
6	3.000000e-01	2.762413e+03	
7	3.500000e-01	2.828538e+03	
8	4.000000e-01	2.897696e+03	
9	4.500000e-01	2.970100e+03	
10	5.000000e-01	3.045984e+03	
11	5.500000e-01	3.125604e+03	
12	6.000000e-01	3.209245e+03	
13	6.500000e-01	3.297219e+03	
14	7.000000e-01	3.389870e+03	
15	7.500000e-01	3.487582e+03	
16	8.000000e-01	3.590783e+03	
17	8.500000e-01	3.699946e+03	
18	9.000000e-01	3.815606e+03	
19	9.500000e-01	3.938360e+03	
20	1.000000e+00	4.068880e+03	
21	1.050000e+00	4.207930e+03	
22	1.100000e+00	4.356373e+03	
23	1.150000e+00	4.515195e+03	
24	1.200000e+00	4.685526e+03	
25	1.250000e+00	4.868664e+03	
26	1.300000e+00	5.066111e+03	
27	1.350000e+00	5.279614e+03	
28	1.400000e+00	5.511217e+03	
29	1.450000e+00	5.763327e+03	
30	1.500000e+00	6.038795e+03	
31	1.550000e+00	6.341031e+03	
32	1.600000e+00	6.674139e+03	
33	1.650000e+00	7.043110e+03	
34	1.700000e+00	7.454068e+03	
35	1.750000e+00	7.914614e+03	
36	1.800000e+00	8.434294e+03	
37	1.850000e+00	9.025256e+03	
38	1.900000e+00	9.703183e+03	
39	1.950000e+00	1.048865e+04	
40	2.000000e+00	1.140913e+04	
41	2.050000e+00	1.250196e+04	
42	2.100000e+00	1.381897e+04	
43	2.150000e+00	1.543345e+04	
44	2.200000e+00	1.745100e+04	
45	2.250000e+00	2.002588e+04	
46	2.300000e+00	2.338475e+04	
47	2.350000e+00	2.785736e+04	
48	2.400000e+00	3.390801e+04	
49	2.450000e+00	4.214930e+04	
50	2.500000e+00	5.330843e+04	
51	2.550000e+00	6.812427e+04	
52	2.600000e+00	8.719378e+04	
53	2.650000e+00	1.108306e+05	
54	2.700000e+00	1.389981e+05	

Index   v-sweep         rds             
--------------------------------------------------------------------------------
55	2.750000e+00	1.713338e+05	
56	2.800000e+00	2.072343e+05	
57	2.850000e+00	2.459618e+05	
58	2.900000e+00	2.867386e+05	
59	2.950000e+00	3.288181e+05	
60	3.000000e+00	3.715290e+05	
61	3.050000e+00	4.142975e+05	
62	3.100000e+00	4.566541e+05	
63	3.150000e+00	4.982291e+05	
64	3.200000e+00	5.387428e+05	
65	3.250000e+00	5.779935e+05	
66	3.300000e+00	6.158441e+05	
67	3.350000e+00	6.522101e+05	
68	3.400000e+00	6.870484e+05	
69	3.450000e+00	7.203481e+05	
70	3.500000e+00	7.521225e+05	
71	3.550000e+00	7.824026e+05	
72	3.600000e+00	8.112324e+05	
73	3.650000e+00	8.386645e+05	
74	3.700000e+00	8.647570e+05	
75	3.750000e+00	8.895710e+05	
76	3.800000e+00	9.131692e+05	
77	3.850000e+00	9.356142e+05	
78	3.900000e+00	9.569675e+05	
79	3.950000e+00	9.772891e+05	
80	4.000000e+00	9.966365e+05	
81	4.050000e+00	1.015065e+06	
82	4.100000e+00	1.032628e+06	
83	4.150000e+00	1.049374e+06	
84	4.200000e+00	1.065351e+06	
85	4.250000e+00	1.080603e+06	
86	4.300000e+00	1.095172e+06	
87	4.350000e+00	1.109097e+06	
88	4.400000e+00	1.122416e+06	
89	4.450000e+00	1.135162e+06	
90	4.500000e+00	1.147368e+06	
91	4.550000e+00	1.159064e+06	
92	4.600000e+00	1.170278e+06	
93	4.650000e+00	1.181037e+06	
94	4.700000e+00	1.191365e+06	
95	4.750000e+00	1.201287e+06	
96	4.800000e+00	1.210823e+06	
97	4.850000e+00	1.219993e+06	
98	4.900000e+00	1.228818e+06	
99	4.950000e+00	1.237315e+06	
100	5.000000e+00	1.245500e+06	
101	5.050000e+00	1.253389e+06	
102	5.100000e+00	1.260997e+06	
103	5.150000e+00	1.268338e+06	
104	5.200000e+00	1.275425e+06	
105	5.250000e+00	1.282270e+06	
106	5.300000e+00	1.288884e+06	
107	5.350000e+00	1.295279e+06	
108	5.400000e+00	1.301465e+06	
109	5.450000e+00	1.307450e+06	
110	5.500000e+00	1.313245e+06	
111	5.550000e+00	1.318857e+06	
112	5.600000e+00	1.324296e+06	

Index   v-sweep         rds             
--------------------------------------------------------------------------------
113	5.650000e+00	1.329568e+06	
114	5.700000e+00	1.334680e+06	
115	5.750000e+00	1.339640e+06	
116	5.800000e+00	1.344454e+06	
117	5.850000e+00	1.349128e+06	
118	5.900000e+00	1.353667e+06	
119	5.950000e+00	1.358078e+06	
120	6.000000e+00	1.362365e+06	
121	6.050000e+00	1.366534e+06	
122	6.100000e+00	1.370589e+06	
123	6.150000e+00	1.374534e+06	
124	6.200000e+00	1.378374e+06	
125	6.250000e+00	1.382113e+06	
126	6.300000e+00	1.385754e+06	
127	6.350000e+00	1.389301e+06	
128	6.400000e+00	1.392758e+06	
129	6.450000e+00	1.396128e+06	
130	6.500000e+00	1.399414e+06	
131	6.550000e+00	1.402619e+06	
132	6.600000e+00	1.405747e+06	
Reset re-loads circuit ***************************

Circuit: ***************************

Doing analysis at TEMP = -40.000000 and TNOM = -40.000000


No. of Data Rows : 133
                          ***************************
                          DC transfer characteristic  Mon Jan  9 13:57:42  2023
--------------------------------------------------------------------------------
Index   v-sweep         rds             
--------------------------------------------------------------------------------
0	0.000000e+00	2.040613e+03	
1	5.000000e-02	2.073352e+03	
2	1.000000e-01	2.107062e+03	
3	1.500000e-01	2.141786e+03	
4	2.000000e-01	2.177571e+03	
5	2.500000e-01	2.214467e+03	
6	3.000000e-01	2.252525e+03	
7	3.500000e-01	2.291802e+03	
8	4.000000e-01	2.332357e+03	
9	4.500000e-01	2.374254e+03	
10	5.000000e-01	2.417559e+03	
11	5.500000e-01	2.462347e+03	
12	6.000000e-01	2.508692e+03	
13	6.500000e-01	2.556679e+03	
14	7.000000e-01	2.606397e+03	
15	7.500000e-01	2.657940e+03	
16	8.000000e-01	2.711410e+03	
17	8.500000e-01	2.766919e+03	
18	9.000000e-01	2.824585e+03	
19	9.500000e-01	2.884535e+03	
20	1.000000e+00	2.946909e+03	
21	1.050000e+00	3.011857e+03	
22	1.100000e+00	3.079541e+03	
23	1.150000e+00	3.150138e+03	
24	1.200000e+00	3.223840e+03	
25	1.250000e+00	3.300856e+03	
26	1.300000e+00	3.381416e+03	
27	1.350000e+00	3.465770e+03	
28	1.400000e+00	3.554193e+03	
29	1.450000e+00	3.646986e+03	
30	1.500000e+00	3.744482e+03	
31	1.550000e+00	3.847049e+03	
32	1.600000e+00	3.955092e+03	
33	1.650000e+00	4.069063e+03	
34	1.700000e+00	4.189464e+03	
35	1.750000e+00	4.316856e+03	
36	1.800000e+00	4.451868e+03	
37	1.850000e+00	4.595206e+03	
38	1.900000e+00	4.747665e+03	
39	1.950000e+00	4.910148e+03	
40	2.000000e+00	5.083679e+03	
41	2.050000e+00	5.269429e+03	
42	2.100000e+00	5.468739e+03	
43	2.150000e+00	5.683155e+03	
44	2.200000e+00	5.914472e+03	
45	2.250000e+00	6.164776e+03	
46	2.300000e+00	6.436518e+03	
47	2.350000e+00	6.732590e+03	
48	2.400000e+00	7.056430e+03	
49	2.450000e+00	7.412161e+03	
50	2.500000e+00	7.804767e+03	
51	2.550000e+00	8.240330e+03	
52	2.600000e+00	8.726348e+03	
53	2.650000e+00	9.272173e+03	
54	2.700000e+00	9.889603e+03	

Index   v-sweep         rds             
--------------------------------------------------------------------------------
55	2.750000e+00	1.059373e+04	
56	2.800000e+00	1.140410e+04	
57	2.850000e+00	1.234646e+04	
58	2.900000e+00	1.345518e+04	
59	2.950000e+00	1.477678e+04	
60	3.000000e+00	1.637510e+04	
61	3.050000e+00	1.833842e+04	
62	3.100000e+00	2.078908e+04	
63	3.150000e+00	2.389509e+04	
64	3.200000e+00	2.788154e+04	
65	3.250000e+00	3.303665e+04	
66	3.300000e+00	3.970379e+04	
67	3.350000e+00	4.825212e+04	
68	3.400000e+00	5.902584e+04	
69	3.450000e+00	7.228557e+04	
70	3.500000e+00	8.816240e+04	
71	3.550000e+00	1.066398e+05	
72	3.600000e+00	1.275644e+05	
73	3.650000e+00	1.506768e+05	
74	3.700000e+00	1.756488e+05	
75	3.750000e+00	2.021199e+05	
76	3.800000e+00	2.297256e+05	
77	3.850000e+00	2.581186e+05	
78	3.900000e+00	2.869820e+05	
79	3.950000e+00	3.160360e+05	
80	4.000000e+00	3.450412e+05	
81	4.050000e+00	3.737974e+05	
82	4.100000e+00	4.021415e+05	
83	4.150000e+00	4.299440e+05	
84	4.200000e+00	4.571047e+05	
85	4.250000e+00	4.835491e+05	
86	4.300000e+00	5.092240e+05	
87	4.350000e+00	5.340943e+05	
88	4.400000e+00	5.581395e+05	
89	4.450000e+00	5.813511e+05	
90	4.500000e+00	6.037300e+05	
91	4.550000e+00	6.252848e+05	
92	4.600000e+00	6.460298e+05	
93	4.650000e+00	6.659837e+05	
94	4.700000e+00	6.851683e+05	
95	4.750000e+00	7.036079e+05	
96	4.800000e+00	7.213282e+05	
97	4.850000e+00	7.383559e+05	
98	4.900000e+00	7.547180e+05	
99	4.950000e+00	7.704416e+05	
100	5.000000e+00	7.855536e+05	
101	5.050000e+00	8.000805e+05	
102	5.100000e+00	8.140480e+05	
103	5.150000e+00	8.274811e+05	
104	5.200000e+00	8.404040e+05	
105	5.250000e+00	8.528401e+05	
106	5.300000e+00	8.648116e+05	
107	5.350000e+00	8.763400e+05	
108	5.400000e+00	8.874457e+05	
109	5.450000e+00	8.981482e+05	
110	5.500000e+00	9.084662e+05	
111	5.550000e+00	9.184174e+05	
112	5.600000e+00	9.280185e+05	

Index   v-sweep         rds             
--------------------------------------------------------------------------------
113	5.650000e+00	9.372856e+05	
114	5.700000e+00	9.462339e+05	
115	5.750000e+00	9.548777e+05	
116	5.800000e+00	9.632308e+05	
117	5.850000e+00	9.713062e+05	
118	5.900000e+00	9.791161e+05	
119	5.950000e+00	9.866723e+05	
120	6.000000e+00	9.939858e+05	
121	6.050000e+00	1.001067e+06	
122	6.100000e+00	1.007926e+06	
123	6.150000e+00	1.014573e+06	
124	6.200000e+00	1.021016e+06	
125	6.250000e+00	1.027263e+06	
126	6.300000e+00	1.033324e+06	
127	6.350000e+00	1.039205e+06	
128	6.400000e+00	1.044914e+06	
129	6.450000e+00	1.050458e+06	
130	6.500000e+00	1.055843e+06	
131	6.550000e+00	1.061077e+06	
132	6.600000e+00	1.066163e+06	
Reset re-loads circuit ***************************

Circuit: ***************************

Doing analysis at TEMP = -40.000000 and TNOM = -40.000000


No. of Data Rows : 133
                          ***************************
                          DC transfer characteristic  Mon Jan  9 13:57:42  2023
--------------------------------------------------------------------------------
Index   v-sweep         rds             
--------------------------------------------------------------------------------
0	0.000000e+00	1.838439e+03	
1	5.000000e-02	1.861866e+03	
2	1.000000e-01	1.885833e+03	
3	1.500000e-01	1.910361e+03	
4	2.000000e-01	1.935469e+03	
5	2.500000e-01	1.961178e+03	
6	3.000000e-01	1.987510e+03	
7	3.500000e-01	2.014488e+03	
8	4.000000e-01	2.042136e+03	
9	4.500000e-01	2.070478e+03	
10	5.000000e-01	2.099542e+03	
11	5.500000e-01	2.129355e+03	
12	6.000000e-01	2.159947e+03	
13	6.500000e-01	2.191349e+03	
14	7.000000e-01	2.223593e+03	
15	7.500000e-01	2.256713e+03	
16	8.000000e-01	2.290746e+03	
17	8.500000e-01	2.325729e+03	
18	9.000000e-01	2.361704e+03	
19	9.500000e-01	2.398713e+03	
20	1.000000e+00	2.436801e+03	
21	1.050000e+00	2.476016e+03	
22	1.100000e+00	2.516409e+03	
23	1.150000e+00	2.558033e+03	
24	1.200000e+00	2.600946e+03	
25	1.250000e+00	2.645209e+03	
26	1.300000e+00	2.690886e+03	
27	1.350000e+00	2.738047e+03	
28	1.400000e+00	2.786763e+03	
29	1.450000e+00	2.837115e+03	
30	1.500000e+00	2.889186e+03	
31	1.550000e+00	2.943064e+03	
32	1.600000e+00	2.998847e+03	
33	1.650000e+00	3.056637e+03	
34	1.700000e+00	3.116543e+03	
35	1.750000e+00	3.178686e+03	
36	1.800000e+00	3.243192e+03	
37	1.850000e+00	3.310198e+03	
38	1.900000e+00	3.379854e+03	
39	1.950000e+00	3.452320e+03	
40	2.000000e+00	3.527769e+03	
41	2.050000e+00	3.606390e+03	
42	2.100000e+00	3.688388e+03	
43	2.150000e+00	3.773984e+03	
44	2.200000e+00	3.863422e+03	
45	2.250000e+00	3.956967e+03	
46	2.300000e+00	4.054908e+03	
47	2.350000e+00	4.157564e+03	
48	2.400000e+00	4.265285e+03	
49	2.450000e+00	4.378456e+03	
50	2.500000e+00	4.497502e+03	
51	2.550000e+00	4.622895e+03	
52	2.600000e+00	4.755158e+03	
53	2.650000e+00	4.894874e+03	
54	2.700000e+00	5.042695e+03	

Index   v-sweep         rds             
--------------------------------------------------------------------------------
55	2.750000e+00	5.199349e+03	
56	2.800000e+00	5.365657e+03	
57	2.850000e+00	5.542546e+03	
58	2.900000e+00	5.731065e+03	
59	2.950000e+00	5.932408e+03	
60	3.000000e+00	6.147941e+03	
61	3.050000e+00	6.379231e+03	
62	3.100000e+00	6.628089e+03	
63	3.150000e+00	6.896617e+03	
64	3.200000e+00	7.187268e+03	
65	3.250000e+00	7.502928e+03	
66	3.300000e+00	7.847014e+03	
67	3.350000e+00	8.223600e+03	
68	3.400000e+00	8.637588e+03	
69	3.450000e+00	9.094927e+03	
70	3.500000e+00	9.602906e+03	
71	3.550000e+00	1.017055e+04	
72	3.600000e+00	1.080915e+04	
73	3.650000e+00	1.153303e+04	
74	3.700000e+00	1.236049e+04	
75	3.750000e+00	1.331533e+04	
76	3.800000e+00	1.442868e+04	
77	3.850000e+00	1.574178e+04	
78	3.900000e+00	1.730947e+04	
79	3.950000e+00	1.920483e+04	
80	4.000000e+00	2.152450e+04	
81	4.050000e+00	2.439403e+04	
82	4.100000e+00	2.797133e+04	
83	4.150000e+00	3.244529e+04	
84	4.200000e+00	3.802640e+04	
85	4.250000e+00	4.492771e+04	
86	4.300000e+00	5.333886e+04	
87	4.350000e+00	6.339961e+04	
88	4.400000e+00	7.518080e+04	
89	4.450000e+00	8.867738e+04	
90	4.500000e+00	1.038135e+05	
91	4.550000e+00	1.204559e+05	
92	4.600000e+00	1.384309e+05	
93	4.650000e+00	1.575411e+05	
94	4.700000e+00	1.775800e+05	
95	4.750000e+00	1.983431e+05	
96	4.800000e+00	2.196360e+05	
97	4.850000e+00	2.412797e+05	
98	4.900000e+00	2.631132e+05	
99	4.950000e+00	2.849948e+05	
100	5.000000e+00	3.068024e+05	
101	5.050000e+00	3.284322e+05	
102	5.100000e+00	3.497977e+05	
103	5.150000e+00	3.708282e+05	
104	5.200000e+00	3.914668e+05	
105	5.250000e+00	4.116689e+05	
106	5.300000e+00	4.314006e+05	
107	5.350000e+00	4.506371e+05	
108	5.400000e+00	4.693614e+05	
109	5.450000e+00	4.875629e+05	
110	5.500000e+00	5.052367e+05	
111	5.550000e+00	5.223821e+05	
112	5.600000e+00	5.390023e+05	

Index   v-sweep         rds             
--------------------------------------------------------------------------------
113	5.650000e+00	5.551033e+05	
114	5.700000e+00	5.706935e+05	
115	5.750000e+00	5.857834e+05	
116	5.800000e+00	6.003844e+05	
117	5.850000e+00	6.145095e+05	
118	5.900000e+00	6.281721e+05	
119	5.950000e+00	6.413862e+05	
120	6.000000e+00	6.541662e+05	
121	6.050000e+00	6.665265e+05	
122	6.100000e+00	6.784816e+05	
123	6.150000e+00	6.900458e+05	
124	6.200000e+00	7.012333e+05	
125	6.250000e+00	7.120580e+05	
126	6.300000e+00	7.225335e+05	
127	6.350000e+00	7.326729e+05	
128	6.400000e+00	7.424892e+05	
129	6.450000e+00	7.519946e+05	
130	6.500000e+00	7.612013e+05	
131	6.550000e+00	7.701209e+05	
132	6.600000e+00	7.787644e+05	
Reset re-loads circuit ***************************

Circuit: ***************************

Note: No ".plot", ".print", or ".fourier" lines; no simulations run
