
Note: Compatibility modes selected: hs

Warning: m=xx on .subckt line will override multiplier m hierarchy!


Circuit: ***************************

Doing analysis at TEMP = 25.000000 and TNOM = 25.000000


No. of Data Rows : 133
                          ***************************
                          DC transfer characteristic  Mon Jan  9 13:57:42  2023
--------------------------------------------------------------------------------
Index   v-sweep         rds             
--------------------------------------------------------------------------------
0	0.000000e+00	7.799726e+04	
1	5.000000e-02	9.707081e+04	
2	1.000000e-01	1.273883e+05	
3	1.500000e-01	1.818038e+05	
4	2.000000e-01	2.963355e+05	
5	2.500000e-01	5.603870e+05	
6	3.000000e-01	1.044332e+06	
7	3.500000e-01	1.621097e+06	
8	4.000000e-01	2.164263e+06	
9	4.500000e-01	2.657096e+06	
10	5.000000e-01	3.111916e+06	
11	5.500000e-01	3.539135e+06	
12	6.000000e-01	3.945058e+06	
13	6.500000e-01	4.333452e+06	
14	7.000000e-01	4.706690e+06	
15	7.500000e-01	5.066375e+06	
16	8.000000e-01	5.413669e+06	
17	8.500000e-01	5.749469e+06	
18	9.000000e-01	6.074499e+06	
19	9.500000e-01	6.389371e+06	
20	1.000000e+00	6.694618e+06	
21	1.050000e+00	6.990710e+06	
22	1.100000e+00	7.278076e+06	
23	1.150000e+00	7.557106e+06	
24	1.200000e+00	7.828161e+06	
25	1.250000e+00	8.091577e+06	
26	1.300000e+00	8.347667e+06	
27	1.350000e+00	8.596727e+06	
28	1.400000e+00	8.839033e+06	
29	1.450000e+00	9.074849e+06	
30	1.500000e+00	9.304421e+06	
31	1.550000e+00	9.527986e+06	
32	1.600000e+00	9.745766e+06	
33	1.650000e+00	9.957973e+06	
34	1.700000e+00	1.016481e+07	
35	1.750000e+00	1.036647e+07	
36	1.800000e+00	1.056313e+07	
37	1.850000e+00	1.075497e+07	
38	1.900000e+00	1.094216e+07	
39	1.950000e+00	1.112485e+07	
40	2.000000e+00	1.130319e+07	
41	2.050000e+00	1.147735e+07	
42	2.100000e+00	1.164744e+07	
43	2.150000e+00	1.181361e+07	
44	2.200000e+00	1.197598e+07	
45	2.250000e+00	1.213467e+07	
46	2.300000e+00	1.228981e+07	
47	2.350000e+00	1.244150e+07	
48	2.400000e+00	1.258985e+07	
49	2.450000e+00	1.273497e+07	
50	2.500000e+00	1.287695e+07	
51	2.550000e+00	1.301590e+07	
52	2.600000e+00	1.315189e+07	
53	2.650000e+00	1.328503e+07	
54	2.700000e+00	1.341539e+07	

Index   v-sweep         rds             
--------------------------------------------------------------------------------
55	2.750000e+00	1.354305e+07	
56	2.800000e+00	1.366810e+07	
57	2.850000e+00	1.379061e+07	
58	2.900000e+00	1.391066e+07	
59	2.950000e+00	1.402830e+07	
60	3.000000e+00	1.414362e+07	
61	3.050000e+00	1.425667e+07	
62	3.100000e+00	1.436752e+07	
63	3.150000e+00	1.447622e+07	
64	3.200000e+00	1.458285e+07	
65	3.250000e+00	1.468744e+07	
66	3.300000e+00	1.479006e+07	
67	3.350000e+00	1.489077e+07	
68	3.400000e+00	1.498960e+07	
69	3.450000e+00	1.508661e+07	
70	3.500000e+00	1.518184e+07	
71	3.550000e+00	1.527535e+07	
72	3.600000e+00	1.536717e+07	
73	3.650000e+00	1.545735e+07	
74	3.700000e+00	1.554593e+07	
75	3.750000e+00	1.563296e+07	
76	3.800000e+00	1.571845e+07	
77	3.850000e+00	1.580247e+07	
78	3.900000e+00	1.588504e+07	
79	3.950000e+00	1.596619e+07	
80	4.000000e+00	1.604596e+07	
81	4.050000e+00	1.612439e+07	
82	4.100000e+00	1.620151e+07	
83	4.150000e+00	1.627734e+07	
84	4.200000e+00	1.635192e+07	
85	4.250000e+00	1.642527e+07	
86	4.300000e+00	1.649743e+07	
87	4.350000e+00	1.656842e+07	
88	4.400000e+00	1.663827e+07	
89	4.450000e+00	1.670700e+07	
90	4.500000e+00	1.677464e+07	
91	4.550000e+00	1.684121e+07	
92	4.600000e+00	1.690675e+07	
93	4.650000e+00	1.697126e+07	
94	4.700000e+00	1.703477e+07	
95	4.750000e+00	1.709731e+07	
96	4.800000e+00	1.715889e+07	
97	4.850000e+00	1.721953e+07	
98	4.900000e+00	1.727927e+07	
99	4.950000e+00	1.733810e+07	
100	5.000000e+00	1.739606e+07	
101	5.050000e+00	1.745316e+07	
102	5.100000e+00	1.750942e+07	
103	5.150000e+00	1.756486e+07	
104	5.200000e+00	1.761949e+07	
105	5.250000e+00	1.767333e+07	
106	5.300000e+00	1.772640e+07	
107	5.350000e+00	1.777871e+07	
108	5.400000e+00	1.783027e+07	
109	5.450000e+00	1.788111e+07	
110	5.500000e+00	1.793124e+07	
111	5.550000e+00	1.798066e+07	
112	5.600000e+00	1.802939e+07	

Index   v-sweep         rds             
--------------------------------------------------------------------------------
113	5.650000e+00	1.807746e+07	
114	5.700000e+00	1.812486e+07	
115	5.750000e+00	1.817162e+07	
116	5.800000e+00	1.821774e+07	
117	5.850000e+00	1.826324e+07	
118	5.900000e+00	1.830812e+07	
119	5.950000e+00	1.835241e+07	
120	6.000000e+00	1.839611e+07	
121	6.050000e+00	1.843923e+07	
122	6.100000e+00	1.848179e+07	
123	6.150000e+00	1.852378e+07	
124	6.200000e+00	1.856523e+07	
125	6.250000e+00	1.860615e+07	
126	6.300000e+00	1.864654e+07	
127	6.350000e+00	1.868641e+07	
128	6.400000e+00	1.872577e+07	
129	6.450000e+00	1.876463e+07	
130	6.500000e+00	1.880300e+07	
131	6.550000e+00	1.884089e+07	
132	6.600000e+00	1.887831e+07	
Reset re-loads circuit ***************************

Circuit: ***************************

Doing analysis at TEMP = 25.000000 and TNOM = 25.000000


No. of Data Rows : 133
                          ***************************
                          DC transfer characteristic  Mon Jan  9 13:57:42  2023
--------------------------------------------------------------------------------
Index   v-sweep         rds             
--------------------------------------------------------------------------------
0	0.000000e+00	2.263486e+04	
1	5.000000e-02	2.420198e+04	
2	1.000000e-01	2.595892e+04	
3	1.500000e-01	2.794215e+04	
4	2.000000e-01	3.019811e+04	
5	2.500000e-01	3.278685e+04	
6	3.000000e-01	3.578730e+04	
7	3.500000e-01	3.930537e+04	
8	4.000000e-01	4.348623e+04	
9	4.500000e-01	4.853405e+04	
10	5.000000e-01	5.474419e+04	
11	5.500000e-01	6.255749e+04	
12	6.000000e-01	7.265255e+04	
13	6.500000e-01	8.609755e+04	
14	7.000000e-01	1.045580e+05	
15	7.500000e-01	1.303929e+05	
16	8.000000e-01	1.660717e+05	
17	8.500000e-01	2.125340e+05	
18	9.000000e-01	2.681316e+05	
19	9.500000e-01	3.298590e+05	
20	1.000000e+00	3.950859e+05	
21	1.050000e+00	4.620985e+05	
22	1.100000e+00	5.299009e+05	
23	1.150000e+00	5.979296e+05	
24	1.200000e+00	6.658610e+05	
25	1.250000e+00	7.335042e+05	
26	1.300000e+00	8.007434e+05	
27	1.350000e+00	8.675067e+05	
28	1.400000e+00	9.337487e+05	
29	1.450000e+00	9.994408e+05	
30	1.500000e+00	1.064565e+06	
31	1.550000e+00	1.129110e+06	
32	1.600000e+00	1.193071e+06	
33	1.650000e+00	1.256444e+06	
34	1.700000e+00	1.319230e+06	
35	1.750000e+00	1.381429e+06	
36	1.800000e+00	1.443046e+06	
37	1.850000e+00	1.504083e+06	
38	1.900000e+00	1.564546e+06	
39	1.950000e+00	1.624438e+06	
40	2.000000e+00	1.683766e+06	
41	2.050000e+00	1.742535e+06	
42	2.100000e+00	1.800751e+06	
43	2.150000e+00	1.858420e+06	
44	2.200000e+00	1.915547e+06	
45	2.250000e+00	1.972140e+06	
46	2.300000e+00	2.028204e+06	
47	2.350000e+00	2.083745e+06	
48	2.400000e+00	2.138770e+06	
49	2.450000e+00	2.193285e+06	
50	2.500000e+00	2.247295e+06	
51	2.550000e+00	2.300808e+06	
52	2.600000e+00	2.353829e+06	
53	2.650000e+00	2.406364e+06	
54	2.700000e+00	2.458419e+06	

Index   v-sweep         rds             
--------------------------------------------------------------------------------
55	2.750000e+00	2.510000e+06	
56	2.800000e+00	2.561113e+06	
57	2.850000e+00	2.611763e+06	
58	2.900000e+00	2.661957e+06	
59	2.950000e+00	2.711700e+06	
60	3.000000e+00	2.760997e+06	
61	3.050000e+00	2.809854e+06	
62	3.100000e+00	2.858276e+06	
63	3.150000e+00	2.906269e+06	
64	3.200000e+00	2.953839e+06	
65	3.250000e+00	3.000989e+06	
66	3.300000e+00	3.047725e+06	
67	3.350000e+00	3.094053e+06	
68	3.400000e+00	3.139978e+06	
69	3.450000e+00	3.185503e+06	
70	3.500000e+00	3.230635e+06	
71	3.550000e+00	3.275377e+06	
72	3.600000e+00	3.319735e+06	
73	3.650000e+00	3.363713e+06	
74	3.700000e+00	3.407316e+06	
75	3.750000e+00	3.450548e+06	
76	3.800000e+00	3.493414e+06	
77	3.850000e+00	3.535918e+06	
78	3.900000e+00	3.578065e+06	
79	3.950000e+00	3.619858e+06	
80	4.000000e+00	3.661302e+06	
81	4.050000e+00	3.702400e+06	
82	4.100000e+00	3.743158e+06	
83	4.150000e+00	3.783579e+06	
84	4.200000e+00	3.823667e+06	
85	4.250000e+00	3.863426e+06	
86	4.300000e+00	3.902859e+06	
87	4.350000e+00	3.941971e+06	
88	4.400000e+00	3.980765e+06	
89	4.450000e+00	4.019245e+06	
90	4.500000e+00	4.057415e+06	
91	4.550000e+00	4.095277e+06	
92	4.600000e+00	4.132836e+06	
93	4.650000e+00	4.170095e+06	
94	4.700000e+00	4.207058e+06	
95	4.750000e+00	4.243727e+06	
96	4.800000e+00	4.280106e+06	
97	4.850000e+00	4.316199e+06	
98	4.900000e+00	4.352009e+06	
99	4.950000e+00	4.387538e+06	
100	5.000000e+00	4.422790e+06	
101	5.050000e+00	4.457768e+06	
102	5.100000e+00	4.492475e+06	
103	5.150000e+00	4.526914e+06	
104	5.200000e+00	4.561088e+06	
105	5.250000e+00	4.595000e+06	
106	5.300000e+00	4.628653e+06	
107	5.350000e+00	4.662050e+06	
108	5.400000e+00	4.695192e+06	
109	5.450000e+00	4.728084e+06	
110	5.500000e+00	4.760728e+06	
111	5.550000e+00	4.793127e+06	
112	5.600000e+00	4.825282e+06	

Index   v-sweep         rds             
--------------------------------------------------------------------------------
113	5.650000e+00	4.857198e+06	
114	5.700000e+00	4.888875e+06	
115	5.750000e+00	4.920318e+06	
116	5.800000e+00	4.951528e+06	
117	5.850000e+00	4.982508e+06	
118	5.900000e+00	5.013260e+06	
119	5.950000e+00	5.043787e+06	
120	6.000000e+00	5.074091e+06	
121	6.050000e+00	5.104175e+06	
122	6.100000e+00	5.134040e+06	
123	6.150000e+00	5.163689e+06	
124	6.200000e+00	5.193125e+06	
125	6.250000e+00	5.222349e+06	
126	6.300000e+00	5.251363e+06	
127	6.350000e+00	5.280170e+06	
128	6.400000e+00	5.308772e+06	
129	6.450000e+00	5.337172e+06	
130	6.500000e+00	5.365370e+06	
131	6.550000e+00	5.393369e+06	
132	6.600000e+00	5.421172e+06	
Reset re-loads circuit ***************************

Circuit: ***************************

Doing analysis at TEMP = 25.000000 and TNOM = 25.000000


No. of Data Rows : 133
                          ***************************
                          DC transfer characteristic  Mon Jan  9 13:57:42  2023
--------------------------------------------------------------------------------
Index   v-sweep         rds             
--------------------------------------------------------------------------------
0	0.000000e+00	1.454050e+04	
1	5.000000e-02	1.520012e+04	
2	1.000000e-01	1.590549e+04	
3	1.500000e-01	1.666148e+04	
4	2.000000e-01	1.747368e+04	
5	2.500000e-01	1.834853e+04	
6	3.000000e-01	1.929350e+04	
7	3.500000e-01	2.031731e+04	
8	4.000000e-01	2.143021e+04	
9	4.500000e-01	2.264428e+04	
10	5.000000e-01	2.397390e+04	
11	5.500000e-01	2.543633e+04	
12	6.000000e-01	2.705246e+04	
13	6.500000e-01	2.884779e+04	
14	7.000000e-01	3.085389e+04	
15	7.500000e-01	3.311028e+04	
16	8.000000e-01	3.566726e+04	
17	8.500000e-01	3.858998e+04	
18	9.000000e-01	4.196469e+04	
19	9.500000e-01	4.590860e+04	
20	1.000000e+00	5.058592e+04	
21	1.050000e+00	5.623439e+04	
22	1.100000e+00	6.320793e+04	
23	1.150000e+00	7.203502e+04	
24	1.200000e+00	8.346156e+04	
25	1.250000e+00	9.837585e+04	
26	1.300000e+00	1.175022e+05	
27	1.350000e+00	1.410027e+05	
28	1.400000e+00	1.683864e+05	
29	1.450000e+00	1.988081e+05	
30	1.500000e+00	2.314162e+05	
31	1.550000e+00	2.655235e+05	
32	1.600000e+00	3.006305e+05	
33	1.650000e+00	3.363895e+05	
34	1.700000e+00	3.725613e+05	
35	1.750000e+00	4.089806e+05	
36	1.800000e+00	4.455318e+05	
37	1.850000e+00	4.821331e+05	
38	1.900000e+00	5.187252e+05	
39	1.950000e+00	5.552650e+05	
40	2.000000e+00	5.917204e+05	
41	2.050000e+00	6.280673e+05	
42	2.100000e+00	6.642874e+05	
43	2.150000e+00	7.003667e+05	
44	2.200000e+00	7.362944e+05	
45	2.250000e+00	7.720622e+05	
46	2.300000e+00	8.076636e+05	
47	2.350000e+00	8.430936e+05	
48	2.400000e+00	8.783483e+05	
49	2.450000e+00	9.134248e+05	
50	2.500000e+00	9.483209e+05	
51	2.550000e+00	9.830348e+05	
52	2.600000e+00	1.017565e+06	
53	2.650000e+00	1.051912e+06	
54	2.700000e+00	1.086074e+06	

Index   v-sweep         rds             
--------------------------------------------------------------------------------
55	2.750000e+00	1.120052e+06	
56	2.800000e+00	1.153844e+06	
57	2.850000e+00	1.187452e+06	
58	2.900000e+00	1.220876e+06	
59	2.950000e+00	1.254117e+06	
60	3.000000e+00	1.287174e+06	
61	3.050000e+00	1.320049e+06	
62	3.100000e+00	1.352742e+06	
63	3.150000e+00	1.385255e+06	
64	3.200000e+00	1.417587e+06	
65	3.250000e+00	1.449741e+06	
66	3.300000e+00	1.481717e+06	
67	3.350000e+00	1.513516e+06	
68	3.400000e+00	1.545139e+06	
69	3.450000e+00	1.576587e+06	
70	3.500000e+00	1.607861e+06	
71	3.550000e+00	1.638963e+06	
72	3.600000e+00	1.669893e+06	
73	3.650000e+00	1.700652e+06	
74	3.700000e+00	1.731243e+06	
75	3.750000e+00	1.761665e+06	
76	3.800000e+00	1.791920e+06	
77	3.850000e+00	1.822009e+06	
78	3.900000e+00	1.851934e+06	
79	3.950000e+00	1.881695e+06	
80	4.000000e+00	1.911293e+06	
81	4.050000e+00	1.940731e+06	
82	4.100000e+00	1.970008e+06	
83	4.150000e+00	1.999126e+06	
84	4.200000e+00	2.028086e+06	
85	4.250000e+00	2.056890e+06	
86	4.300000e+00	2.085538e+06	
87	4.350000e+00	2.114031e+06	
88	4.400000e+00	2.142371e+06	
89	4.450000e+00	2.170559e+06	
90	4.500000e+00	2.198596e+06	
91	4.550000e+00	2.226483e+06	
92	4.600000e+00	2.254221e+06	
93	4.650000e+00	2.281810e+06	
94	4.700000e+00	2.309254e+06	
95	4.750000e+00	2.336551e+06	
96	4.800000e+00	2.363704e+06	
97	4.850000e+00	2.390713e+06	
98	4.900000e+00	2.417579e+06	
99	4.950000e+00	2.444305e+06	
100	5.000000e+00	2.470889e+06	
101	5.050000e+00	2.497334e+06	
102	5.100000e+00	2.523641e+06	
103	5.150000e+00	2.549811e+06	
104	5.200000e+00	2.575843e+06	
105	5.250000e+00	2.601741e+06	
106	5.300000e+00	2.627504e+06	
107	5.350000e+00	2.653134e+06	
108	5.400000e+00	2.678631e+06	
109	5.450000e+00	2.703996e+06	
110	5.500000e+00	2.729231e+06	
111	5.550000e+00	2.754337e+06	
112	5.600000e+00	2.779313e+06	

Index   v-sweep         rds             
--------------------------------------------------------------------------------
113	5.650000e+00	2.804162e+06	
114	5.700000e+00	2.828884e+06	
115	5.750000e+00	2.853481e+06	
116	5.800000e+00	2.877952e+06	
117	5.850000e+00	2.902299e+06	
118	5.900000e+00	2.926523e+06	
119	5.950000e+00	2.950624e+06	
120	6.000000e+00	2.974604e+06	
121	6.050000e+00	2.998463e+06	
122	6.100000e+00	3.022203e+06	
123	6.150000e+00	3.045824e+06	
124	6.200000e+00	3.069327e+06	
125	6.250000e+00	3.092712e+06	
126	6.300000e+00	3.115982e+06	
127	6.350000e+00	3.139135e+06	
128	6.400000e+00	3.162174e+06	
129	6.450000e+00	3.185099e+06	
130	6.500000e+00	3.207911e+06	
131	6.550000e+00	3.230611e+06	
132	6.600000e+00	3.253199e+06	
Reset re-loads circuit ***************************

Circuit: ***************************

Doing analysis at TEMP = 25.000000 and TNOM = 25.000000


No. of Data Rows : 133
                          ***************************
                          DC transfer characteristic  Mon Jan  9 13:57:42  2023
--------------------------------------------------------------------------------
Index   v-sweep         rds             
--------------------------------------------------------------------------------
0	0.000000e+00	1.138937e+04	
1	5.000000e-02	1.178878e+04	
2	1.000000e-01	1.220780e+04	
3	1.500000e-01	1.264787e+04	
4	2.000000e-01	1.311059e+04	
5	2.500000e-01	1.359772e+04	
6	3.000000e-01	1.411123e+04	
7	3.500000e-01	1.465326e+04	
8	4.000000e-01	1.522626e+04	
9	4.500000e-01	1.583293e+04	
10	5.000000e-01	1.647630e+04	
11	5.500000e-01	1.715979e+04	
12	6.000000e-01	1.788724e+04	
13	6.500000e-01	1.866303e+04	
14	7.000000e-01	1.949211e+04	
15	7.500000e-01	2.038014e+04	
16	8.000000e-01	2.133363e+04	
17	8.500000e-01	2.236007e+04	
18	9.000000e-01	2.346816e+04	
19	9.500000e-01	2.466807e+04	
20	1.000000e+00	2.597179e+04	
21	1.050000e+00	2.739358e+04	
22	1.100000e+00	2.895060e+04	
23	1.150000e+00	3.066377e+04	
24	1.200000e+00	3.255906e+04	
25	1.250000e+00	3.466932e+04	
26	1.300000e+00	3.703727e+04	
27	1.350000e+00	3.972011e+04	
28	1.400000e+00	4.279729e+04	
29	1.450000e+00	4.638310e+04	
30	1.500000e+00	5.064683e+04	
31	1.550000e+00	5.584074e+04	
32	1.600000e+00	6.232725e+04	
33	1.650000e+00	7.057474e+04	
34	1.700000e+00	8.107399e+04	
35	1.750000e+00	9.417028e+04	
36	1.800000e+00	1.099153e+05	
37	1.850000e+00	1.280642e+05	
38	1.900000e+00	1.482026e+05	
39	1.950000e+00	1.698878e+05	
40	2.000000e+00	1.927317e+05	
41	2.050000e+00	2.164259e+05	
42	2.100000e+00	2.407372e+05	
43	2.150000e+00	2.654931e+05	
44	2.200000e+00	2.905666e+05	
45	2.250000e+00	3.158637e+05	
46	2.300000e+00	3.413145e+05	
47	2.350000e+00	3.668664e+05	
48	2.400000e+00	3.924794e+05	
49	2.450000e+00	4.181227e+05	
50	2.500000e+00	4.437723e+05	
51	2.550000e+00	4.694093e+05	
52	2.600000e+00	4.950190e+05	
53	2.650000e+00	5.205892e+05	
54	2.700000e+00	5.461104e+05	

Index   v-sweep         rds             
--------------------------------------------------------------------------------
55	2.750000e+00	5.715748e+05	
56	2.800000e+00	5.969759e+05	
57	2.850000e+00	6.223086e+05	
58	2.900000e+00	6.475686e+05	
59	2.950000e+00	6.727522e+05	
60	3.000000e+00	6.978566e+05	
61	3.050000e+00	7.228792e+05	
62	3.100000e+00	7.478181e+05	
63	3.150000e+00	7.726716e+05	
64	3.200000e+00	7.974382e+05	
65	3.250000e+00	8.221169e+05	
66	3.300000e+00	8.467066e+05	
67	3.350000e+00	8.712067e+05	
68	3.400000e+00	8.956164e+05	
69	3.450000e+00	9.199354e+05	
70	3.500000e+00	9.441633e+05	
71	3.550000e+00	9.682997e+05	
72	3.600000e+00	9.923446e+05	
73	3.650000e+00	1.016298e+06	
74	3.700000e+00	1.040159e+06	
75	3.750000e+00	1.063929e+06	
76	3.800000e+00	1.087606e+06	
77	3.850000e+00	1.111193e+06	
78	3.900000e+00	1.134687e+06	
79	3.950000e+00	1.158091e+06	
80	4.000000e+00	1.181403e+06	
81	4.050000e+00	1.204625e+06	
82	4.100000e+00	1.227755e+06	
83	4.150000e+00	1.250796e+06	
84	4.200000e+00	1.273746e+06	
85	4.250000e+00	1.296606e+06	
86	4.300000e+00	1.319377e+06	
87	4.350000e+00	1.342059e+06	
88	4.400000e+00	1.364652e+06	
89	4.450000e+00	1.387156e+06	
90	4.500000e+00	1.409572e+06	
91	4.550000e+00	1.431901e+06	
92	4.600000e+00	1.454142e+06	
93	4.650000e+00	1.476296e+06	
94	4.700000e+00	1.498363e+06	
95	4.750000e+00	1.520345e+06	
96	4.800000e+00	1.542240e+06	
97	4.850000e+00	1.564050e+06	
98	4.900000e+00	1.585775e+06	
99	4.950000e+00	1.607415e+06	
100	5.000000e+00	1.628970e+06	
101	5.050000e+00	1.650442e+06	
102	5.100000e+00	1.671831e+06	
103	5.150000e+00	1.693136e+06	
104	5.200000e+00	1.714359e+06	
105	5.250000e+00	1.735499e+06	
106	5.300000e+00	1.756558e+06	
107	5.350000e+00	1.777535e+06	
108	5.400000e+00	1.798431e+06	
109	5.450000e+00	1.819247e+06	
110	5.500000e+00	1.839982e+06	
111	5.550000e+00	1.860638e+06	
112	5.600000e+00	1.881214e+06	

Index   v-sweep         rds             
--------------------------------------------------------------------------------
113	5.650000e+00	1.901711e+06	
114	5.700000e+00	1.922129e+06	
115	5.750000e+00	1.942470e+06	
116	5.800000e+00	1.962732e+06	
117	5.850000e+00	1.982917e+06	
118	5.900000e+00	2.003025e+06	
119	5.950000e+00	2.023057e+06	
120	6.000000e+00	2.043012e+06	
121	6.050000e+00	2.062891e+06	
122	6.100000e+00	2.082695e+06	
123	6.150000e+00	2.102424e+06	
124	6.200000e+00	2.122078e+06	
125	6.250000e+00	2.141658e+06	
126	6.300000e+00	2.161165e+06	
127	6.350000e+00	2.180597e+06	
128	6.400000e+00	2.199957e+06	
129	6.450000e+00	2.219244e+06	
130	6.500000e+00	2.238458e+06	
131	6.550000e+00	2.257601e+06	
132	6.600000e+00	2.276671e+06	
Reset re-loads circuit ***************************

Circuit: ***************************

Doing analysis at TEMP = 25.000000 and TNOM = 25.000000


No. of Data Rows : 133
                          ***************************
                          DC transfer characteristic  Mon Jan  9 13:57:42  2023
--------------------------------------------------------------------------------
Index   v-sweep         rds             
--------------------------------------------------------------------------------
0	0.000000e+00	9.806990e+03	
1	5.000000e-02	1.009011e+04	
2	1.000000e-01	1.038401e+04	
3	1.500000e-01	1.068928e+04	
4	2.000000e-01	1.100658e+04	
5	2.500000e-01	1.133661e+04	
6	3.000000e-01	1.168015e+04	
7	3.500000e-01	1.203802e+04	
8	4.000000e-01	1.241112e+04	
9	4.500000e-01	1.280042e+04	
10	5.000000e-01	1.320701e+04	
11	5.500000e-01	1.363205e+04	
12	6.000000e-01	1.407681e+04	
13	6.500000e-01	1.454268e+04	
14	7.000000e-01	1.503122e+04	
15	7.500000e-01	1.554409e+04	
16	8.000000e-01	1.608316e+04	
17	8.500000e-01	1.665048e+04	
18	9.000000e-01	1.724831e+04	
19	9.500000e-01	1.787918e+04	
20	1.000000e+00	1.854587e+04	
21	1.050000e+00	1.925152e+04	
22	1.100000e+00	1.999963e+04	
23	1.150000e+00	2.079414e+04	
24	1.200000e+00	2.163951e+04	
25	1.250000e+00	2.254080e+04	
26	1.300000e+00	2.350381e+04	
27	1.350000e+00	2.453522e+04	
28	1.400000e+00	2.564281e+04	
29	1.450000e+00	2.683573e+04	
30	1.500000e+00	2.812486e+04	
31	1.550000e+00	2.952340e+04	
32	1.600000e+00	3.104767e+04	
33	1.650000e+00	3.271830e+04	
34	1.700000e+00	3.456220e+04	
35	1.750000e+00	3.661559e+04	
36	1.800000e+00	3.892889e+04	
37	1.850000e+00	4.157449e+04	
38	1.900000e+00	4.465848e+04	
39	1.950000e+00	4.833619e+04	
40	2.000000e+00	5.282765e+04	
41	2.050000e+00	5.841978e+04	
42	2.100000e+00	6.543450e+04	
43	2.150000e+00	7.415186e+04	
44	2.200000e+00	8.471798e+04	
45	2.250000e+00	9.709903e+04	
46	2.300000e+00	1.111107e+05	
47	2.350000e+00	1.264913e+05	
48	2.400000e+00	1.429697e+05	
49	2.450000e+00	1.603038e+05	
50	2.500000e+00	1.782946e+05	
51	2.550000e+00	1.967855e+05	
52	2.600000e+00	2.156558e+05	
53	2.650000e+00	2.348130e+05	
54	2.700000e+00	2.541865e+05	

Index   v-sweep         rds             
--------------------------------------------------------------------------------
55	2.750000e+00	2.737221e+05	
56	2.800000e+00	2.933776e+05	
57	2.850000e+00	3.131203e+05	
58	2.900000e+00	3.329244e+05	
59	2.950000e+00	3.527693e+05	
60	3.000000e+00	3.726388e+05	
61	3.050000e+00	3.925194e+05	
62	3.100000e+00	4.124003e+05	
63	3.150000e+00	4.322728e+05	
64	3.200000e+00	4.521295e+05	
65	3.250000e+00	4.719643e+05	
66	3.300000e+00	4.917722e+05	
67	3.350000e+00	5.115488e+05	
68	3.400000e+00	5.312906e+05	
69	3.450000e+00	5.509945e+05	
70	3.500000e+00	5.706579e+05	
71	3.550000e+00	5.902786e+05	
72	3.600000e+00	6.098547e+05	
73	3.650000e+00	6.293846e+05	
74	3.700000e+00	6.488670e+05	
75	3.750000e+00	6.683005e+05	
76	3.800000e+00	6.876842e+05	
77	3.850000e+00	7.070172e+05	
78	3.900000e+00	7.262987e+05	
79	3.950000e+00	7.455281e+05	
80	4.000000e+00	7.647049e+05	
81	4.050000e+00	7.838285e+05	
82	4.100000e+00	8.028985e+05	
83	4.150000e+00	8.219146e+05	
84	4.200000e+00	8.408765e+05	
85	4.250000e+00	8.597841e+05	
86	4.300000e+00	8.786370e+05	
87	4.350000e+00	8.974352e+05	
88	4.400000e+00	9.161784e+05	
89	4.450000e+00	9.348668e+05	
90	4.500000e+00	9.535001e+05	
91	4.550000e+00	9.720783e+05	
92	4.600000e+00	9.906015e+05	
93	4.650000e+00	1.009070e+06	
94	4.700000e+00	1.027483e+06	
95	4.750000e+00	1.045841e+06	
96	4.800000e+00	1.064144e+06	
97	4.850000e+00	1.082392e+06	
98	4.900000e+00	1.100586e+06	
99	4.950000e+00	1.118724e+06	
100	5.000000e+00	1.136809e+06	
101	5.050000e+00	1.154838e+06	
102	5.100000e+00	1.172814e+06	
103	5.150000e+00	1.190735e+06	
104	5.200000e+00	1.208602e+06	
105	5.250000e+00	1.226415e+06	
106	5.300000e+00	1.244174e+06	
107	5.350000e+00	1.261879e+06	
108	5.400000e+00	1.279531e+06	
109	5.450000e+00	1.297130e+06	
110	5.500000e+00	1.314675e+06	
111	5.550000e+00	1.332167e+06	
112	5.600000e+00	1.349607e+06	

Index   v-sweep         rds             
--------------------------------------------------------------------------------
113	5.650000e+00	1.366993e+06	
114	5.700000e+00	1.384328e+06	
115	5.750000e+00	1.401609e+06	
116	5.800000e+00	1.418839e+06	
117	5.850000e+00	1.436017e+06	
118	5.900000e+00	1.453142e+06	
119	5.950000e+00	1.470216e+06	
120	6.000000e+00	1.487239e+06	
121	6.050000e+00	1.504211e+06	
122	6.100000e+00	1.521131e+06	
123	6.150000e+00	1.538000e+06	
124	6.200000e+00	1.554819e+06	
125	6.250000e+00	1.571587e+06	
126	6.300000e+00	1.588305e+06	
127	6.350000e+00	1.604972e+06	
128	6.400000e+00	1.621590e+06	
129	6.450000e+00	1.638158e+06	
130	6.500000e+00	1.654676e+06	
131	6.550000e+00	1.671145e+06	
132	6.600000e+00	1.687564e+06	
Reset re-loads circuit ***************************

Circuit: ***************************

Doing analysis at TEMP = 25.000000 and TNOM = 25.000000


No. of Data Rows : 133
                          ***************************
                          DC transfer characteristic  Mon Jan  9 13:57:42  2023
--------------------------------------------------------------------------------
Index   v-sweep         rds             
--------------------------------------------------------------------------------
0	0.000000e+00	8.923781e+03	
1	5.000000e-02	9.142540e+03	
2	1.000000e-01	9.368070e+03	
3	1.500000e-01	9.600679e+03	
4	2.000000e-01	9.840693e+03	
5	2.500000e-01	1.008846e+04	
6	3.000000e-01	1.034435e+04	
7	3.500000e-01	1.060875e+04	
8	4.000000e-01	1.088209e+04	
9	4.500000e-01	1.116483e+04	
10	5.000000e-01	1.145744e+04	
11	5.500000e-01	1.176045e+04	
12	6.000000e-01	1.207441e+04	
13	6.500000e-01	1.239993e+04	
14	7.000000e-01	1.273765e+04	
15	7.500000e-01	1.308828e+04	
16	8.000000e-01	1.345256e+04	
17	8.500000e-01	1.383129e+04	
18	9.000000e-01	1.422537e+04	
19	9.500000e-01	1.463574e+04	
20	1.000000e+00	1.506341e+04	
21	1.050000e+00	1.550951e+04	
22	1.100000e+00	1.597524e+04	
23	1.150000e+00	1.646192e+04	
24	1.200000e+00	1.697099e+04	
25	1.250000e+00	1.750400e+04	
26	1.300000e+00	1.806267e+04	
27	1.350000e+00	1.864889e+04	
28	1.400000e+00	1.926474e+04	
29	1.450000e+00	1.991250e+04	
30	1.500000e+00	2.059472e+04	
31	1.550000e+00	2.131423e+04	
32	1.600000e+00	2.207420e+04	
33	1.650000e+00	2.287821e+04	
34	1.700000e+00	2.373031e+04	
35	1.750000e+00	2.463515e+04	
36	1.800000e+00	2.559808e+04	
37	1.850000e+00	2.662537e+04	
38	1.900000e+00	2.772448e+04	
39	1.950000e+00	2.890441e+04	
40	2.000000e+00	3.017629e+04	
41	2.050000e+00	3.155421e+04	
42	2.100000e+00	3.305655e+04	
43	2.150000e+00	3.470797e+04	
44	2.200000e+00	3.654255e+04	
45	2.250000e+00	3.860858e+04	
46	2.300000e+00	4.097550e+04	
47	2.350000e+00	4.374301e+04	
48	2.400000e+00	4.705067e+04	
49	2.450000e+00	5.108243e+04	
50	2.500000e+00	5.605633e+04	
51	2.550000e+00	6.219022e+04	
52	2.600000e+00	6.964826e+04	
53	2.650000e+00	7.849379e+04	
54	2.700000e+00	8.867703e+04	

Index   v-sweep         rds             
--------------------------------------------------------------------------------
55	2.750000e+00	1.000615e+05	
56	2.800000e+00	1.124675e+05	
57	2.850000e+00	1.257105e+05	
58	2.900000e+00	1.396232e+05	
59	2.950000e+00	1.540644e+05	
60	3.000000e+00	1.689200e+05	
61	3.050000e+00	1.840994e+05	
62	3.100000e+00	1.995316e+05	
63	3.150000e+00	2.151610e+05	
64	3.200000e+00	2.309439e+05	
65	3.250000e+00	2.468459e+05	
66	3.300000e+00	2.628399e+05	
67	3.350000e+00	2.789039e+05	
68	3.400000e+00	2.950204e+05	
69	3.450000e+00	3.111752e+05	
70	3.500000e+00	3.273566e+05	
71	3.550000e+00	3.435552e+05	
72	3.600000e+00	3.597629e+05	
73	3.650000e+00	3.759732e+05	
74	3.700000e+00	3.921805e+05	
75	3.750000e+00	4.083801e+05	
76	3.800000e+00	4.245682e+05	
77	3.850000e+00	4.407412e+05	
78	3.900000e+00	4.568964e+05	
79	3.950000e+00	4.730313e+05	
80	4.000000e+00	4.891437e+05	
81	4.050000e+00	5.052317e+05	
82	4.100000e+00	5.212938e+05	
83	4.150000e+00	5.373286e+05	
84	4.200000e+00	5.533348e+05	
85	4.250000e+00	5.693115e+05	
86	4.300000e+00	5.852575e+05	
87	4.350000e+00	6.011723e+05	
88	4.400000e+00	6.170549e+05	
89	4.450000e+00	6.329048e+05	
90	4.500000e+00	6.487215e+05	
91	4.550000e+00	6.645044e+05	
92	4.600000e+00	6.802532e+05	
93	4.650000e+00	6.959674e+05	
94	4.700000e+00	7.116467e+05	
95	4.750000e+00	7.272909e+05	
96	4.800000e+00	7.428996e+05	
97	4.850000e+00	7.584727e+05	
98	4.900000e+00	7.740100e+05	
99	4.950000e+00	7.895113e+05	
100	5.000000e+00	8.049765e+05	
101	5.050000e+00	8.204055e+05	
102	5.100000e+00	8.357981e+05	
103	5.150000e+00	8.511543e+05	
104	5.200000e+00	8.664740e+05	
105	5.250000e+00	8.817572e+05	
106	5.300000e+00	8.970039e+05	
107	5.350000e+00	9.122139e+05	
108	5.400000e+00	9.273874e+05	
109	5.450000e+00	9.425242e+05	
110	5.500000e+00	9.576244e+05	
111	5.550000e+00	9.726881e+05	
112	5.600000e+00	9.877152e+05	

Index   v-sweep         rds             
--------------------------------------------------------------------------------
113	5.650000e+00	1.002706e+06	
114	5.700000e+00	1.017660e+06	
115	5.750000e+00	1.032577e+06	
116	5.800000e+00	1.047458e+06	
117	5.850000e+00	1.062303e+06	
118	5.900000e+00	1.077112e+06	
119	5.950000e+00	1.091884e+06	
120	6.000000e+00	1.106620e+06	
121	6.050000e+00	1.121319e+06	
122	6.100000e+00	1.135983e+06	
123	6.150000e+00	1.150611e+06	
124	6.200000e+00	1.165203e+06	
125	6.250000e+00	1.179759e+06	
126	6.300000e+00	1.194279e+06	
127	6.350000e+00	1.208763e+06	
128	6.400000e+00	1.223212e+06	
129	6.450000e+00	1.237626e+06	
130	6.500000e+00	1.252004e+06	
131	6.550000e+00	1.266346e+06	
132	6.600000e+00	1.280654e+06	
Reset re-loads circuit ***************************

Circuit: ***************************

Note: No ".plot", ".print", or ".fourier" lines; no simulations run
