
Note: Compatibility modes selected: hs

Warning: m=xx on .subckt line will override multiplier m hierarchy!


Circuit: ***************************

Doing analysis at TEMP = 25.000000 and TNOM = 25.000000


No. of Data Rows : 133
                          ***************************
                          DC transfer characteristic  Mon Jan  9 13:57:41  2023
--------------------------------------------------------------------------------
Index   v-sweep         rds             
--------------------------------------------------------------------------------
0	0.000000e+00	2.987815e+04	
1	5.000000e-02	3.690641e+04	
2	1.000000e-01	4.812902e+04	
3	1.500000e-01	6.852700e+04	
4	2.000000e-01	1.135685e+05	
5	2.500000e-01	2.397479e+05	
6	3.000000e-01	6.277178e+05	
7	3.500000e-01	1.591850e+06	
8	4.000000e-01	3.280368e+06	
9	4.500000e-01	5.441171e+06	
10	5.000000e-01	7.637600e+06	
11	5.500000e-01	9.563759e+06	
12	6.000000e-01	1.111938e+07	
13	6.500000e-01	1.232853e+07	
14	7.000000e-01	1.325731e+07	
15	7.500000e-01	1.397265e+07	
16	8.000000e-01	1.452921e+07	
17	8.500000e-01	1.496809e+07	
18	9.000000e-01	1.531922e+07	
19	9.500000e-01	1.560424e+07	
20	1.000000e+00	1.583880e+07	
21	1.050000e+00	1.603433e+07	
22	1.100000e+00	1.619927e+07	
23	1.150000e+00	1.633990e+07	
24	1.200000e+00	1.646100e+07	
25	1.250000e+00	1.656622e+07	
26	1.300000e+00	1.665838e+07	
27	1.350000e+00	1.673970e+07	
28	1.400000e+00	1.681195e+07	
29	1.450000e+00	1.687652e+07	
30	1.500000e+00	1.693457e+07	
31	1.550000e+00	1.698701e+07	
32	1.600000e+00	1.703462e+07	
33	1.650000e+00	1.707802e+07	
34	1.700000e+00	1.711774e+07	
35	1.750000e+00	1.715424e+07	
36	1.800000e+00	1.718788e+07	
37	1.850000e+00	1.721899e+07	
38	1.900000e+00	1.724785e+07	
39	1.950000e+00	1.727468e+07	
40	2.000000e+00	1.729971e+07	
41	2.050000e+00	1.732309e+07	
42	2.100000e+00	1.734500e+07	
43	2.150000e+00	1.736556e+07	
44	2.200000e+00	1.738490e+07	
45	2.250000e+00	1.740312e+07	
46	2.300000e+00	1.742032e+07	
47	2.350000e+00	1.743658e+07	
48	2.400000e+00	1.745197e+07	
49	2.450000e+00	1.746658e+07	
50	2.500000e+00	1.748044e+07	
51	2.550000e+00	1.749363e+07	
52	2.600000e+00	1.750618e+07	
53	2.650000e+00	1.751814e+07	
54	2.700000e+00	1.752956e+07	

Index   v-sweep         rds             
--------------------------------------------------------------------------------
55	2.750000e+00	1.754047e+07	
56	2.800000e+00	1.755090e+07	
57	2.850000e+00	1.756089e+07	
58	2.900000e+00	1.757046e+07	
59	2.950000e+00	1.757963e+07	
60	3.000000e+00	1.758844e+07	
61	3.050000e+00	1.759690e+07	
62	3.100000e+00	1.760504e+07	
63	3.150000e+00	1.761286e+07	
64	3.200000e+00	1.762040e+07	
65	3.250000e+00	1.762766e+07	
66	3.300000e+00	1.763466e+07	
67	3.350000e+00	1.764142e+07	
68	3.400000e+00	1.764794e+07	
69	3.450000e+00	1.765424e+07	
70	3.500000e+00	1.766033e+07	
71	3.550000e+00	1.766622e+07	
72	3.600000e+00	1.767191e+07	
73	3.650000e+00	1.767743e+07	
74	3.700000e+00	1.768278e+07	
75	3.750000e+00	1.768796e+07	
76	3.800000e+00	1.769298e+07	
77	3.850000e+00	1.769785e+07	
78	3.900000e+00	1.770258e+07	
79	3.950000e+00	1.770717e+07	
80	4.000000e+00	1.771163e+07	
81	4.050000e+00	1.771596e+07	
82	4.100000e+00	1.772017e+07	
83	4.150000e+00	1.772427e+07	
84	4.200000e+00	1.772825e+07	
85	4.250000e+00	1.773213e+07	
86	4.300000e+00	1.773591e+07	
87	4.350000e+00	1.773959e+07	
88	4.400000e+00	1.774317e+07	
89	4.450000e+00	1.774666e+07	
90	4.500000e+00	1.775006e+07	
91	4.550000e+00	1.775338e+07	
92	4.600000e+00	1.775662e+07	
93	4.650000e+00	1.775978e+07	
94	4.700000e+00	1.776286e+07	
95	4.750000e+00	1.776587e+07	
96	4.800000e+00	1.776881e+07	
97	4.850000e+00	1.777169e+07	
98	4.900000e+00	1.777449e+07	
99	4.950000e+00	1.777724e+07	
100	5.000000e+00	1.777992e+07	
101	5.050000e+00	1.778254e+07	
102	5.100000e+00	1.778510e+07	
103	5.150000e+00	1.778761e+07	
104	5.200000e+00	1.779007e+07	
105	5.250000e+00	1.779247e+07	
106	5.300000e+00	1.779482e+07	
107	5.350000e+00	1.779712e+07	
108	5.400000e+00	1.779938e+07	
109	5.450000e+00	1.780159e+07	
110	5.500000e+00	1.780375e+07	
111	5.550000e+00	1.780588e+07	
112	5.600000e+00	1.780796e+07	

Index   v-sweep         rds             
--------------------------------------------------------------------------------
113	5.650000e+00	1.780999e+07	
114	5.700000e+00	1.781199e+07	
115	5.750000e+00	1.781395e+07	
116	5.800000e+00	1.781588e+07	
117	5.850000e+00	1.781776e+07	
118	5.900000e+00	1.781961e+07	
119	5.950000e+00	1.782143e+07	
120	6.000000e+00	1.782321e+07	
121	6.050000e+00	1.782496e+07	
122	6.100000e+00	1.782668e+07	
123	6.150000e+00	1.782837e+07	
124	6.200000e+00	1.783003e+07	
125	6.250000e+00	1.783165e+07	
126	6.300000e+00	1.783325e+07	
127	6.350000e+00	1.783483e+07	
128	6.400000e+00	1.783637e+07	
129	6.450000e+00	1.783789e+07	
130	6.500000e+00	1.783938e+07	
131	6.550000e+00	1.784085e+07	
132	6.600000e+00	1.784229e+07	
Reset re-loads circuit ***************************

Circuit: ***************************

Doing analysis at TEMP = 25.000000 and TNOM = 25.000000


No. of Data Rows : 133
                          ***************************
                          DC transfer characteristic  Mon Jan  9 13:57:41  2023
--------------------------------------------------------------------------------
Index   v-sweep         rds             
--------------------------------------------------------------------------------
0	0.000000e+00	7.445146e+03	
1	5.000000e-02	7.837060e+03	
2	1.000000e-01	8.271315e+03	
3	1.500000e-01	8.755156e+03	
4	2.000000e-01	9.297580e+03	
5	2.500000e-01	9.909892e+03	
6	3.000000e-01	1.060650e+04	
7	3.500000e-01	1.140605e+04	
8	4.000000e-01	1.233308e+04	
9	4.500000e-01	1.342058e+04	
10	5.000000e-01	1.471385e+04	
11	5.500000e-01	1.627681e+04	
12	6.000000e-01	1.820240e+04	
13	6.500000e-01	2.063060e+04	
14	7.000000e-01	2.378106e+04	
15	7.500000e-01	2.801491e+04	
16	8.000000e-01	3.395723e+04	
17	8.500000e-01	4.274769e+04	
18	9.000000e-01	5.655078e+04	
19	9.500000e-01	7.950297e+04	
20	1.000000e+00	1.190104e+05	
21	1.050000e+00	1.862026e+05	
22	1.100000e+00	2.932733e+05	
23	1.150000e+00	4.477277e+05	
24	1.200000e+00	6.478802e+05	
25	1.250000e+00	8.832489e+05	
26	1.300000e+00	1.138787e+06	
27	1.350000e+00	1.399588e+06	
28	1.400000e+00	1.653843e+06	
29	1.450000e+00	1.893744e+06	
30	1.500000e+00	2.115071e+06	
31	1.550000e+00	2.316258e+06	
32	1.600000e+00	2.497464e+06	
33	1.650000e+00	2.659832e+06	
34	1.700000e+00	2.804983e+06	
35	1.750000e+00	2.934697e+06	
36	1.800000e+00	3.050731e+06	
37	1.850000e+00	3.154726e+06	
38	1.900000e+00	3.248164e+06	
39	1.950000e+00	3.332353e+06	
40	2.000000e+00	3.408441e+06	
41	2.050000e+00	3.477423e+06	
42	2.100000e+00	3.540158e+06	
43	2.150000e+00	3.597389e+06	
44	2.200000e+00	3.649757e+06	
45	2.250000e+00	3.697816e+06	
46	2.300000e+00	3.742046e+06	
47	2.350000e+00	3.782860e+06	
48	2.400000e+00	3.820622e+06	
49	2.450000e+00	3.855645e+06	
50	2.500000e+00	3.888204e+06	
51	2.550000e+00	3.918541e+06	
52	2.600000e+00	3.946868e+06	
53	2.650000e+00	3.973371e+06	
54	2.700000e+00	3.998216e+06	

Index   v-sweep         rds             
--------------------------------------------------------------------------------
55	2.750000e+00	4.021549e+06	
56	2.800000e+00	4.043501e+06	
57	2.850000e+00	4.064187e+06	
58	2.900000e+00	4.083712e+06	
59	2.950000e+00	4.102169e+06	
60	3.000000e+00	4.119641e+06	
61	3.050000e+00	4.136203e+06	
62	3.100000e+00	4.151924e+06	
63	3.150000e+00	4.166864e+06	
64	3.200000e+00	4.181081e+06	
65	3.250000e+00	4.194623e+06	
66	3.300000e+00	4.207539e+06	
67	3.350000e+00	4.219868e+06	
68	3.400000e+00	4.231651e+06	
69	3.450000e+00	4.242922e+06	
70	3.500000e+00	4.253713e+06	
71	3.550000e+00	4.264054e+06	
72	3.600000e+00	4.273973e+06	
73	3.650000e+00	4.283494e+06	
74	3.700000e+00	4.292640e+06	
75	3.750000e+00	4.301434e+06	
76	3.800000e+00	4.309895e+06	
77	3.850000e+00	4.318041e+06	
78	3.900000e+00	4.325890e+06	
79	3.950000e+00	4.333456e+06	
80	4.000000e+00	4.340757e+06	
81	4.050000e+00	4.347804e+06	
82	4.100000e+00	4.354610e+06	
83	4.150000e+00	4.361189e+06	
84	4.200000e+00	4.367551e+06	
85	4.250000e+00	4.373706e+06	
86	4.300000e+00	4.379664e+06	
87	4.350000e+00	4.385435e+06	
88	4.400000e+00	4.391027e+06	
89	4.450000e+00	4.396448e+06	
90	4.500000e+00	4.401706e+06	
91	4.550000e+00	4.406809e+06	
92	4.600000e+00	4.411762e+06	
93	4.650000e+00	4.416573e+06	
94	4.700000e+00	4.421247e+06	
95	4.750000e+00	4.425791e+06	
96	4.800000e+00	4.430208e+06	
97	4.850000e+00	4.434506e+06	
98	4.900000e+00	4.438688e+06	
99	4.950000e+00	4.442759e+06	
100	5.000000e+00	4.446723e+06	
101	5.050000e+00	4.450585e+06	
102	5.100000e+00	4.454348e+06	
103	5.150000e+00	4.458016e+06	
104	5.200000e+00	4.461593e+06	
105	5.250000e+00	4.465082e+06	
106	5.300000e+00	4.468486e+06	
107	5.350000e+00	4.471808e+06	
108	5.400000e+00	4.475051e+06	
109	5.450000e+00	4.478218e+06	
110	5.500000e+00	4.481312e+06	
111	5.550000e+00	4.484334e+06	
112	5.600000e+00	4.487289e+06	

Index   v-sweep         rds             
--------------------------------------------------------------------------------
113	5.650000e+00	4.490176e+06	
114	5.700000e+00	4.493000e+06	
115	5.750000e+00	4.495762e+06	
116	5.800000e+00	4.498464e+06	
117	5.850000e+00	4.501108e+06	
118	5.900000e+00	4.503695e+06	
119	5.950000e+00	4.506228e+06	
120	6.000000e+00	4.508709e+06	
121	6.050000e+00	4.511138e+06	
122	6.100000e+00	4.513518e+06	
123	6.150000e+00	4.515849e+06	
124	6.200000e+00	4.518134e+06	
125	6.250000e+00	4.520374e+06	
126	6.300000e+00	4.522570e+06	
127	6.350000e+00	4.524723e+06	
128	6.400000e+00	4.526834e+06	
129	6.450000e+00	4.528906e+06	
130	6.500000e+00	4.530938e+06	
131	6.550000e+00	4.532932e+06	
132	6.600000e+00	4.534889e+06	
Reset re-loads circuit ***************************

Circuit: ***************************

Doing analysis at TEMP = 25.000000 and TNOM = 25.000000


No. of Data Rows : 133
                          ***************************
                          DC transfer characteristic  Mon Jan  9 13:57:42  2023
--------------------------------------------------------------------------------
Index   v-sweep         rds             
--------------------------------------------------------------------------------
0	0.000000e+00	4.547268e+03	
1	5.000000e-02	4.681441e+03	
2	1.000000e-01	4.823381e+03	
3	1.500000e-01	4.973783e+03	
4	2.000000e-01	5.133427e+03	
5	2.500000e-01	5.303191e+03	
6	3.000000e-01	5.484068e+03	
7	3.500000e-01	5.677187e+03	
8	4.000000e-01	5.883833e+03	
9	4.500000e-01	6.105478e+03	
10	5.000000e-01	6.343816e+03	
11	5.500000e-01	6.600807e+03	
12	6.000000e-01	6.878727e+03	
13	6.500000e-01	7.180239e+03	
14	7.000000e-01	7.508480e+03	
15	7.500000e-01	7.867164e+03	
16	8.000000e-01	8.260730e+03	
17	8.500000e-01	8.694517e+03	
18	9.000000e-01	9.175014e+03	
19	9.500000e-01	9.710180e+03	
20	1.000000e+00	1.030988e+04	
21	1.050000e+00	1.098650e+04	
22	1.100000e+00	1.175579e+04	
23	1.150000e+00	1.263806e+04	
24	1.200000e+00	1.365998e+04	
25	1.250000e+00	1.485715e+04	
26	1.300000e+00	1.627819e+04	
27	1.350000e+00	1.799089e+04	
28	1.400000e+00	2.009234e+04	
29	1.450000e+00	2.272534e+04	
30	1.500000e+00	2.610597e+04	
31	1.550000e+00	3.057019e+04	
32	1.600000e+00	3.665150e+04	
33	1.650000e+00	4.520359e+04	
34	1.700000e+00	5.756760e+04	
35	1.750000e+00	7.572812e+04	
36	1.800000e+00	1.022960e+05	
37	1.850000e+00	1.401074e+05	
38	1.900000e+00	1.914362e+05	
39	1.950000e+00	2.571976e+05	
40	2.000000e+00	3.366124e+05	
41	2.050000e+00	4.274541e+05	
42	2.100000e+00	5.266451e+05	
43	2.150000e+00	6.308879e+05	
44	2.200000e+00	7.371372e+05	
45	2.250000e+00	8.428617e+05	
46	2.300000e+00	9.461299e+05	
47	2.350000e+00	1.045583e+06	
48	2.400000e+00	1.140351e+06	
49	2.450000e+00	1.229949e+06	
50	2.500000e+00	1.314180e+06	
51	2.550000e+00	1.393051e+06	
52	2.600000e+00	1.466705e+06	
53	2.650000e+00	1.535373e+06	
54	2.700000e+00	1.599335e+06	

Index   v-sweep         rds             
--------------------------------------------------------------------------------
55	2.750000e+00	1.658896e+06	
56	2.800000e+00	1.714366e+06	
57	2.850000e+00	1.766053e+06	
58	2.900000e+00	1.814250e+06	
59	2.950000e+00	1.859234e+06	
60	3.000000e+00	1.901266e+06	
61	3.050000e+00	1.940583e+06	
62	3.100000e+00	1.977407e+06	
63	3.150000e+00	2.011939e+06	
64	3.200000e+00	2.044364e+06	
65	3.250000e+00	2.074850e+06	
66	3.300000e+00	2.103550e+06	
67	3.350000e+00	2.130603e+06	
68	3.400000e+00	2.156135e+06	
69	3.450000e+00	2.180262e+06	
70	3.500000e+00	2.203090e+06	
71	3.550000e+00	2.224712e+06	
72	3.600000e+00	2.245217e+06	
73	3.650000e+00	2.264684e+06	
74	3.700000e+00	2.283186e+06	
75	3.750000e+00	2.300788e+06	
76	3.800000e+00	2.317552e+06	
77	3.850000e+00	2.333534e+06	
78	3.900000e+00	2.348784e+06	
79	3.950000e+00	2.363350e+06	
80	4.000000e+00	2.377275e+06	
81	4.050000e+00	2.390598e+06	
82	4.100000e+00	2.403357e+06	
83	4.150000e+00	2.415585e+06	
84	4.200000e+00	2.427313e+06	
85	4.250000e+00	2.438571e+06	
86	4.300000e+00	2.449385e+06	
87	4.350000e+00	2.459781e+06	
88	4.400000e+00	2.469781e+06	
89	4.450000e+00	2.479407e+06	
90	4.500000e+00	2.488679e+06	
91	4.550000e+00	2.497616e+06	
92	4.600000e+00	2.506235e+06	
93	4.650000e+00	2.514552e+06	
94	4.700000e+00	2.522583e+06	
95	4.750000e+00	2.530342e+06	
96	4.800000e+00	2.537841e+06	
97	4.850000e+00	2.545095e+06	
98	4.900000e+00	2.552113e+06	
99	4.950000e+00	2.558908e+06	
100	5.000000e+00	2.565489e+06	
101	5.050000e+00	2.571866e+06	
102	5.100000e+00	2.578049e+06	
103	5.150000e+00	2.584046e+06	
104	5.200000e+00	2.589865e+06	
105	5.250000e+00	2.595514e+06	
106	5.300000e+00	2.601000e+06	
107	5.350000e+00	2.606330e+06	
108	5.400000e+00	2.611510e+06	
109	5.450000e+00	2.616546e+06	
110	5.500000e+00	2.621445e+06	
111	5.550000e+00	2.626211e+06	
112	5.600000e+00	2.630851e+06	

Index   v-sweep         rds             
--------------------------------------------------------------------------------
113	5.650000e+00	2.635368e+06	
114	5.700000e+00	2.639768e+06	
115	5.750000e+00	2.644055e+06	
116	5.800000e+00	2.648233e+06	
117	5.850000e+00	2.652306e+06	
118	5.900000e+00	2.656279e+06	
119	5.950000e+00	2.660154e+06	
120	6.000000e+00	2.663936e+06	
121	6.050000e+00	2.667627e+06	
122	6.100000e+00	2.671231e+06	
123	6.150000e+00	2.674751e+06	
124	6.200000e+00	2.678189e+06	
125	6.250000e+00	2.681549e+06	
126	6.300000e+00	2.684833e+06	
127	6.350000e+00	2.688043e+06	
128	6.400000e+00	2.691182e+06	
129	6.450000e+00	2.694253e+06	
130	6.500000e+00	2.697257e+06	
131	6.550000e+00	2.700197e+06	
132	6.600000e+00	2.703074e+06	
Reset re-loads circuit ***************************

Circuit: ***************************

Doing analysis at TEMP = 25.000000 and TNOM = 25.000000


No. of Data Rows : 133
                          ***************************
                          DC transfer characteristic  Mon Jan  9 13:57:42  2023
--------------------------------------------------------------------------------
Index   v-sweep         rds             
--------------------------------------------------------------------------------
0	0.000000e+00	3.467399e+03	
1	5.000000e-02	3.537944e+03	
2	1.000000e-01	3.611228e+03	
3	1.500000e-01	3.687411e+03	
4	2.000000e-01	3.766669e+03	
5	2.500000e-01	3.849194e+03	
6	3.000000e-01	3.935189e+03	
7	3.500000e-01	4.024881e+03	
8	4.000000e-01	4.118510e+03	
9	4.500000e-01	4.216343e+03	
10	5.000000e-01	4.318670e+03	
11	5.500000e-01	4.425806e+03	
12	6.000000e-01	4.538100e+03	
13	6.500000e-01	4.655932e+03	
14	7.000000e-01	4.779723e+03	
15	7.500000e-01	4.909936e+03	
16	8.000000e-01	5.047085e+03	
17	8.500000e-01	5.191738e+03	
18	9.000000e-01	5.344529e+03	
19	9.500000e-01	5.506164e+03	
20	1.000000e+00	5.677435e+03	
21	1.050000e+00	5.859228e+03	
22	1.100000e+00	6.052545e+03	
23	1.150000e+00	6.258517e+03	
24	1.200000e+00	6.478429e+03	
25	1.250000e+00	6.713746e+03	
26	1.300000e+00	6.966146e+03	
27	1.350000e+00	7.237557e+03	
28	1.400000e+00	7.530214e+03	
29	1.450000e+00	7.846712e+03	
30	1.500000e+00	8.190088e+03	
31	1.550000e+00	8.563917e+03	
32	1.600000e+00	8.972438e+03	
33	1.650000e+00	9.420711e+03	
34	1.700000e+00	9.914831e+03	
35	1.750000e+00	1.046220e+04	
36	1.800000e+00	1.107191e+04	
37	1.850000e+00	1.175520e+04	
38	1.900000e+00	1.252621e+04	
39	1.950000e+00	1.340289e+04	
40	2.000000e+00	1.440834e+04	
41	2.050000e+00	1.557283e+04	
42	2.100000e+00	1.693661e+04	
43	2.150000e+00	1.855420e+04	
44	2.200000e+00	2.050084e+04	
45	2.250000e+00	2.288235e+04	
46	2.300000e+00	2.585009e+04	
47	2.350000e+00	2.962361e+04	
48	2.400000e+00	3.452314e+04	
49	2.450000e+00	4.101210e+04	
50	2.500000e+00	4.974203e+04	
51	2.550000e+00	6.157663e+04	
52	2.600000e+00	7.755453e+04	
53	2.650000e+00	9.875499e+04	
54	2.700000e+00	1.260798e+05	

Index   v-sweep         rds             
--------------------------------------------------------------------------------
55	2.750000e+00	1.600326e+05	
56	2.800000e+00	2.005947e+05	
57	2.850000e+00	2.472393e+05	
58	2.900000e+00	2.990542e+05	
59	2.950000e+00	3.549081e+05	
60	3.000000e+00	4.136059e+05	
61	3.050000e+00	4.740064e+05	
62	3.100000e+00	5.350953e+05	
63	3.150000e+00	5.960202e+05	
64	3.200000e+00	6.560980e+05	
65	3.250000e+00	7.148059e+05	
66	3.300000e+00	7.717618e+05	
67	3.350000e+00	8.267031e+05	
68	3.400000e+00	8.794635e+05	
69	3.450000e+00	9.299534e+05	
70	3.500000e+00	9.781417e+05	
71	3.550000e+00	1.024041e+06	
72	3.600000e+00	1.067696e+06	
73	3.650000e+00	1.109175e+06	
74	3.700000e+00	1.148559e+06	
75	3.750000e+00	1.185939e+06	
76	3.800000e+00	1.221413e+06	
77	3.850000e+00	1.255080e+06	
78	3.900000e+00	1.287038e+06	
79	3.950000e+00	1.317383e+06	
80	4.000000e+00	1.346208e+06	
81	4.050000e+00	1.373604e+06	
82	4.100000e+00	1.399656e+06	
83	4.150000e+00	1.424444e+06	
84	4.200000e+00	1.448045e+06	
85	4.250000e+00	1.470530e+06	
86	4.300000e+00	1.491968e+06	
87	4.350000e+00	1.512421e+06	
88	4.400000e+00	1.531947e+06	
89	4.450000e+00	1.550602e+06	
90	4.500000e+00	1.568438e+06	
91	4.550000e+00	1.585502e+06	
92	4.600000e+00	1.601839e+06	
93	4.650000e+00	1.617490e+06	
94	4.700000e+00	1.632495e+06	
95	4.750000e+00	1.646890e+06	
96	4.800000e+00	1.660708e+06	
97	4.850000e+00	1.673982e+06	
98	4.900000e+00	1.686740e+06	
99	4.950000e+00	1.699011e+06	
100	5.000000e+00	1.710820e+06	
101	5.050000e+00	1.722191e+06	
102	5.100000e+00	1.733147e+06	
103	5.150000e+00	1.743709e+06	
104	5.200000e+00	1.753897e+06	
105	5.250000e+00	1.763729e+06	
106	5.300000e+00	1.773223e+06	
107	5.350000e+00	1.782395e+06	
108	5.400000e+00	1.791260e+06	
109	5.450000e+00	1.799834e+06	
110	5.500000e+00	1.808129e+06	
111	5.550000e+00	1.816158e+06	
112	5.600000e+00	1.823934e+06	

Index   v-sweep         rds             
--------------------------------------------------------------------------------
113	5.650000e+00	1.831467e+06	
114	5.700000e+00	1.838770e+06	
115	5.750000e+00	1.845850e+06	
116	5.800000e+00	1.852720e+06	
117	5.850000e+00	1.859386e+06	
118	5.900000e+00	1.865858e+06	
119	5.950000e+00	1.872144e+06	
120	6.000000e+00	1.878252e+06	
121	6.050000e+00	1.884189e+06	
122	6.100000e+00	1.889961e+06	
123	6.150000e+00	1.895576e+06	
124	6.200000e+00	1.901039e+06	
125	6.250000e+00	1.906356e+06	
126	6.300000e+00	1.911533e+06	
127	6.350000e+00	1.916576e+06	
128	6.400000e+00	1.921489e+06	
129	6.450000e+00	1.926277e+06	
130	6.500000e+00	1.930945e+06	
131	6.550000e+00	1.935496e+06	
132	6.600000e+00	1.939936e+06	
Reset re-loads circuit ***************************

Circuit: ***************************

Doing analysis at TEMP = 25.000000 and TNOM = 25.000000


No. of Data Rows : 133
                          ***************************
                          DC transfer characteristic  Mon Jan  9 13:57:42  2023
--------------------------------------------------------------------------------
Index   v-sweep         rds             
--------------------------------------------------------------------------------
0	0.000000e+00	2.940363e+03	
1	5.000000e-02	2.985573e+03	
2	1.000000e-01	3.032082e+03	
3	1.500000e-01	3.079945e+03	
4	2.000000e-01	3.129224e+03	
5	2.500000e-01	3.179982e+03	
6	3.000000e-01	3.232286e+03	
7	3.500000e-01	3.286207e+03	
8	4.000000e-01	3.341823e+03	
9	4.500000e-01	3.399214e+03	
10	5.000000e-01	3.458467e+03	
11	5.500000e-01	3.519674e+03	
12	6.000000e-01	3.582932e+03	
13	6.500000e-01	3.648347e+03	
14	7.000000e-01	3.716030e+03	
15	7.500000e-01	3.786103e+03	
16	8.000000e-01	3.858693e+03	
17	8.500000e-01	3.933939e+03	
18	9.000000e-01	4.011990e+03	
19	9.500000e-01	4.093004e+03	
20	1.000000e+00	4.177154e+03	
21	1.050000e+00	4.264626e+03	
22	1.100000e+00	4.355619e+03	
23	1.150000e+00	4.450353e+03	
24	1.200000e+00	4.549060e+03	
25	1.250000e+00	4.651998e+03	
26	1.300000e+00	4.759444e+03	
27	1.350000e+00	4.871700e+03	
28	1.400000e+00	4.989098e+03	
29	1.450000e+00	5.111999e+03	
30	1.500000e+00	5.240799e+03	
31	1.550000e+00	5.375933e+03	
32	1.600000e+00	5.517882e+03	
33	1.650000e+00	5.667173e+03	
34	1.700000e+00	5.824391e+03	
35	1.750000e+00	5.990187e+03	
36	1.800000e+00	6.165282e+03	
37	1.850000e+00	6.350482e+03	
38	1.900000e+00	6.546687e+03	
39	1.950000e+00	6.754911e+03	
40	2.000000e+00	6.976294e+03	
41	2.050000e+00	7.212124e+03	
42	2.100000e+00	7.463867e+03	
43	2.150000e+00	7.733191e+03	
44	2.200000e+00	8.022007e+03	
45	2.250000e+00	8.332515e+03	
46	2.300000e+00	8.667258e+03	
47	2.350000e+00	9.029195e+03	
48	2.400000e+00	9.421786e+03	
49	2.450000e+00	9.849105e+03	
50	2.500000e+00	1.031598e+04	
51	2.550000e+00	1.082819e+04	
52	2.600000e+00	1.139267e+04	
53	2.650000e+00	1.201787e+04	
54	2.700000e+00	1.271414e+04	

Index   v-sweep         rds             
--------------------------------------------------------------------------------
55	2.750000e+00	1.349432e+04	
56	2.800000e+00	1.437449e+04	
57	2.850000e+00	1.537505e+04	
58	2.900000e+00	1.652225e+04	
59	2.950000e+00	1.785024e+04	
60	3.000000e+00	1.940420e+04	
61	3.050000e+00	2.124460e+04	
62	3.100000e+00	2.345350e+04	
63	3.150000e+00	2.614333e+04	
64	3.200000e+00	2.946890e+04	
65	3.250000e+00	3.364267e+04	
66	3.300000e+00	3.895175e+04	
67	3.350000e+00	4.577150e+04	
68	3.400000e+00	5.456601e+04	
69	3.450000e+00	6.586288e+04	
70	3.500000e+00	8.019446e+04	
71	3.550000e+00	9.801372e+04	
72	3.600000e+00	1.196102e+05	
73	3.650000e+00	1.450565e+05	
74	3.700000e+00	1.742003e+05	
75	3.750000e+00	2.066980e+05	
76	3.800000e+00	2.420715e+05	
77	3.850000e+00	2.797692e+05	
78	3.900000e+00	3.192194e+05	
79	3.950000e+00	3.598712e+05	
80	4.000000e+00	4.012202e+05	
81	4.050000e+00	4.428232e+05	
82	4.100000e+00	4.843039e+05	
83	4.150000e+00	5.253524e+05	
84	4.200000e+00	5.657203e+05	
85	4.250000e+00	6.052149e+05	
86	4.300000e+00	6.436914e+05	
87	4.350000e+00	6.810459e+05	
88	4.400000e+00	7.172083e+05	
89	4.450000e+00	7.521365e+05	
90	4.500000e+00	7.858101e+05	
91	4.550000e+00	8.182267e+05	
92	4.600000e+00	8.493975e+05	
93	4.650000e+00	8.793439e+05	
94	4.700000e+00	9.080953e+05	
95	4.750000e+00	9.356865e+05	
96	4.800000e+00	9.621564e+05	
97	4.850000e+00	9.875463e+05	
98	4.900000e+00	1.011899e+06	
99	4.950000e+00	1.035257e+06	
100	5.000000e+00	1.057665e+06	
101	5.050000e+00	1.079164e+06	
102	5.100000e+00	1.099797e+06	
103	5.150000e+00	1.119604e+06	
104	5.200000e+00	1.138624e+06	
105	5.250000e+00	1.156895e+06	
106	5.300000e+00	1.174453e+06	
107	5.350000e+00	1.191333e+06	
108	5.400000e+00	1.207568e+06	
109	5.450000e+00	1.223188e+06	
110	5.500000e+00	1.238224e+06	
111	5.550000e+00	1.252704e+06	
112	5.600000e+00	1.266654e+06	

Index   v-sweep         rds             
--------------------------------------------------------------------------------
113	5.650000e+00	1.280101e+06	
114	5.700000e+00	1.293067e+06	
115	5.750000e+00	1.305576e+06	
116	5.800000e+00	1.317650e+06	
117	5.850000e+00	1.329308e+06	
118	5.900000e+00	1.340571e+06	
119	5.950000e+00	1.351455e+06	
120	6.000000e+00	1.361978e+06	
121	6.050000e+00	1.372158e+06	
122	6.100000e+00	1.382008e+06	
123	6.150000e+00	1.391544e+06	
124	6.200000e+00	1.400779e+06	
125	6.250000e+00	1.409726e+06	
126	6.300000e+00	1.418399e+06	
127	6.350000e+00	1.426808e+06	
128	6.400000e+00	1.434964e+06	
129	6.450000e+00	1.442879e+06	
130	6.500000e+00	1.450563e+06	
131	6.550000e+00	1.458024e+06	
132	6.600000e+00	1.465271e+06	
Reset re-loads circuit ***************************

Circuit: ***************************

Doing analysis at TEMP = 25.000000 and TNOM = 25.000000


No. of Data Rows : 133
                          ***************************
                          DC transfer characteristic  Mon Jan  9 13:57:42  2023
--------------------------------------------------------------------------------
Index   v-sweep         rds             
--------------------------------------------------------------------------------
0	0.000000e+00	2.653761e+03	
1	5.000000e-02	2.686200e+03	
2	1.000000e-01	2.719367e+03	
3	1.500000e-01	2.753289e+03	
4	2.000000e-01	2.787989e+03	
5	2.500000e-01	2.823496e+03	
6	3.000000e-01	2.859838e+03	
7	3.500000e-01	2.897045e+03	
8	4.000000e-01	2.935148e+03	
9	4.500000e-01	2.974179e+03	
10	5.000000e-01	3.014173e+03	
11	5.500000e-01	3.055166e+03	
12	6.000000e-01	3.097197e+03	
13	6.500000e-01	3.140304e+03	
14	7.000000e-01	3.184529e+03	
15	7.500000e-01	3.229918e+03	
16	8.000000e-01	3.276515e+03	
17	8.500000e-01	3.324370e+03	
18	9.000000e-01	3.373536e+03	
19	9.500000e-01	3.424065e+03	
20	1.000000e+00	3.476016e+03	
21	1.050000e+00	3.529450e+03	
22	1.100000e+00	3.584430e+03	
23	1.150000e+00	3.641026e+03	
24	1.200000e+00	3.699308e+03	
25	1.250000e+00	3.759355e+03	
26	1.300000e+00	3.821246e+03	
27	1.350000e+00	3.885069e+03	
28	1.400000e+00	3.950916e+03	
29	1.450000e+00	4.018883e+03	
30	1.500000e+00	4.089075e+03	
31	1.550000e+00	4.161604e+03	
32	1.600000e+00	4.236587e+03	
33	1.650000e+00	4.314152e+03	
34	1.700000e+00	4.394434e+03	
35	1.750000e+00	4.477579e+03	
36	1.800000e+00	4.563742e+03	
37	1.850000e+00	4.653091e+03	
38	1.900000e+00	4.745806e+03	
39	1.950000e+00	4.842081e+03	
40	2.000000e+00	4.942125e+03	
41	2.050000e+00	5.046164e+03	
42	2.100000e+00	5.154442e+03	
43	2.150000e+00	5.267224e+03	
44	2.200000e+00	5.384797e+03	
45	2.250000e+00	5.507473e+03	
46	2.300000e+00	5.635592e+03	
47	2.350000e+00	5.769526e+03	
48	2.400000e+00	5.909678e+03	
49	2.450000e+00	6.056494e+03	
50	2.500000e+00	6.210461e+03	
51	2.550000e+00	6.372115e+03	
52	2.600000e+00	6.542048e+03	
53	2.650000e+00	6.720914e+03	
54	2.700000e+00	6.909436e+03	

Index   v-sweep         rds             
--------------------------------------------------------------------------------
55	2.750000e+00	7.108422e+03	
56	2.800000e+00	7.318769e+03	
57	2.850000e+00	7.541481e+03	
58	2.900000e+00	7.777685e+03	
59	2.950000e+00	8.028649e+03	
60	3.000000e+00	8.295807e+03	
61	3.050000e+00	8.580784e+03	
62	3.100000e+00	8.885433e+03	
63	3.150000e+00	9.211872e+03	
64	3.200000e+00	9.562538e+03	
65	3.250000e+00	9.940247e+03	
66	3.300000e+00	1.034827e+04	
67	3.350000e+00	1.079043e+04	
68	3.400000e+00	1.127123e+04	
69	3.450000e+00	1.179600e+04	
70	3.500000e+00	1.237109e+04	
71	3.550000e+00	1.300416e+04	
72	3.600000e+00	1.370449e+04	
73	3.650000e+00	1.448345e+04	
74	3.700000e+00	1.535509e+04	
75	3.750000e+00	1.633699e+04	
76	3.800000e+00	1.745134e+04	
77	3.850000e+00	1.872651e+04	
78	3.900000e+00	2.019910e+04	
79	3.950000e+00	2.191690e+04	
80	4.000000e+00	2.394277e+04	
81	4.050000e+00	2.635982e+04	
82	4.100000e+00	2.927802e+04	
83	4.150000e+00	3.284176e+04	
84	4.200000e+00	3.723737e+04	
85	4.250000e+00	4.269781e+04	
86	4.300000e+00	4.950046e+04	
87	4.350000e+00	5.795323e+04	
88	4.400000e+00	6.836677e+04	
89	4.450000e+00	8.101577e+04	
90	4.500000e+00	9.609889e+04	
91	4.550000e+00	1.137091e+05	
92	4.600000e+00	1.338224e+05	
93	4.650000e+00	1.563052e+05	
94	4.700000e+00	1.809362e+05	
95	4.750000e+00	2.074332e+05	
96	4.800000e+00	2.354814e+05	
97	4.850000e+00	2.647561e+05	
98	4.900000e+00	2.949415e+05	
99	4.950000e+00	3.257424e+05	
100	5.000000e+00	3.568919e+05	
101	5.050000e+00	3.881552e+05	
102	5.100000e+00	4.193305e+05	
103	5.150000e+00	4.502476e+05	
104	5.200000e+00	4.807664e+05	
105	5.250000e+00	5.107735e+05	
106	5.300000e+00	5.401795e+05	
107	5.350000e+00	5.689157e+05	
108	5.400000e+00	5.969313e+05	
109	5.450000e+00	6.241904e+05	
110	5.500000e+00	6.506699e+05	
111	5.550000e+00	6.763572e+05	
112	5.600000e+00	7.012479e+05	

Index   v-sweep         rds             
--------------------------------------------------------------------------------
113	5.650000e+00	7.253448e+05	
114	5.700000e+00	7.486561e+05	
115	5.750000e+00	7.711943e+05	
116	5.800000e+00	7.929753e+05	
117	5.850000e+00	8.140177e+05	
118	5.900000e+00	8.343417e+05	
119	5.950000e+00	8.539688e+05	
120	6.000000e+00	8.729216e+05	
121	6.050000e+00	8.912230e+05	
122	6.100000e+00	9.088961e+05	
123	6.150000e+00	9.259640e+05	
124	6.200000e+00	9.424494e+05	
125	6.250000e+00	9.583749e+05	
126	6.300000e+00	9.737623e+05	
127	6.350000e+00	9.886331e+05	
128	6.400000e+00	1.003008e+06	
129	6.450000e+00	1.016907e+06	
130	6.500000e+00	1.030349e+06	
131	6.550000e+00	1.043354e+06	
132	6.600000e+00	1.055939e+06	
Reset re-loads circuit ***************************

Circuit: ***************************

Note: No ".plot", ".print", or ".fourier" lines; no simulations run
