
Note: Compatibility modes selected: hs

Warning: m=xx on .subckt line will override multiplier m hierarchy!


Circuit: ***************************

Doing analysis at TEMP = 125.000000 and TNOM = 125.000000


No. of Data Rows : 133
                          ***************************
                          DC transfer characteristic  Mon Jan  9 13:57:43  2023
--------------------------------------------------------------------------------
Index   v-sweep         rds             
--------------------------------------------------------------------------------
0	0.000000e+00	8.342186e+04	
1	5.000000e-02	9.760380e+04	
2	1.000000e-01	1.171316e+05	
3	1.500000e-01	1.456219e+05	
4	2.000000e-01	1.905995e+05	
5	2.500000e-01	2.694255e+05	
6	3.000000e-01	4.234641e+05	
7	3.500000e-01	7.251229e+05	
8	4.000000e-01	1.188179e+06	
9	4.500000e-01	1.694509e+06	
10	5.000000e-01	2.158763e+06	
11	5.500000e-01	2.574991e+06	
12	6.000000e-01	2.956895e+06	
13	6.500000e-01	3.315270e+06	
14	7.000000e-01	3.656585e+06	
15	7.500000e-01	3.984604e+06	
16	8.000000e-01	4.301598e+06	
17	8.500000e-01	4.609013e+06	
18	9.000000e-01	4.907824e+06	
19	9.500000e-01	5.198734e+06	
20	1.000000e+00	5.482270e+06	
21	1.050000e+00	5.758855e+06	
22	1.100000e+00	6.028836e+06	
23	1.150000e+00	6.292509e+06	
24	1.200000e+00	6.550134e+06	
25	1.250000e+00	6.801946e+06	
26	1.300000e+00	7.048155e+06	
27	1.350000e+00	7.288959e+06	
28	1.400000e+00	7.524540e+06	
29	1.450000e+00	7.755067e+06	
30	1.500000e+00	7.980703e+06	
31	1.550000e+00	8.201599e+06	
32	1.600000e+00	8.417901e+06	
33	1.650000e+00	8.629747e+06	
34	1.700000e+00	8.837269e+06	
35	1.750000e+00	9.040593e+06	
36	1.800000e+00	9.239842e+06	
37	1.850000e+00	9.435130e+06	
38	1.900000e+00	9.626570e+06	
39	1.950000e+00	9.814270e+06	
40	2.000000e+00	9.998333e+06	
41	2.050000e+00	1.017886e+07	
42	2.100000e+00	1.035594e+07	
43	2.150000e+00	1.052968e+07	
44	2.200000e+00	1.070015e+07	
45	2.250000e+00	1.086746e+07	
46	2.300000e+00	1.103167e+07	
47	2.350000e+00	1.119287e+07	
48	2.400000e+00	1.135114e+07	
49	2.450000e+00	1.150656e+07	
50	2.500000e+00	1.165919e+07	
51	2.550000e+00	1.180911e+07	
52	2.600000e+00	1.195638e+07	
53	2.650000e+00	1.210108e+07	
54	2.700000e+00	1.224325e+07	

Index   v-sweep         rds             
--------------------------------------------------------------------------------
55	2.750000e+00	1.238297e+07	
56	2.800000e+00	1.252030e+07	
57	2.850000e+00	1.265529e+07	
58	2.900000e+00	1.278800e+07	
59	2.950000e+00	1.291848e+07	
60	3.000000e+00	1.304679e+07	
61	3.050000e+00	1.317298e+07	
62	3.100000e+00	1.329709e+07	
63	3.150000e+00	1.341917e+07	
64	3.200000e+00	1.353928e+07	
65	3.250000e+00	1.365746e+07	
66	3.300000e+00	1.377374e+07	
67	3.350000e+00	1.388818e+07	
68	3.400000e+00	1.400081e+07	
69	3.450000e+00	1.411168e+07	
70	3.500000e+00	1.422081e+07	
71	3.550000e+00	1.432827e+07	
72	3.600000e+00	1.443406e+07	
73	3.650000e+00	1.453825e+07	
74	3.700000e+00	1.464085e+07	
75	3.750000e+00	1.474190e+07	
76	3.800000e+00	1.484144e+07	
77	3.850000e+00	1.493950e+07	
78	3.900000e+00	1.503610e+07	
79	3.950000e+00	1.513129e+07	
80	4.000000e+00	1.522508e+07	
81	4.050000e+00	1.531751e+07	
82	4.100000e+00	1.540861e+07	
83	4.150000e+00	1.549839e+07	
84	4.200000e+00	1.558690e+07	
85	4.250000e+00	1.567415e+07	
86	4.300000e+00	1.576017e+07	
87	4.350000e+00	1.584499e+07	
88	4.400000e+00	1.592862e+07	
89	4.450000e+00	1.601109e+07	
90	4.500000e+00	1.609243e+07	
91	4.550000e+00	1.617265e+07	
92	4.600000e+00	1.625178e+07	
93	4.650000e+00	1.632984e+07	
94	4.700000e+00	1.640685e+07	
95	4.750000e+00	1.648282e+07	
96	4.800000e+00	1.655779e+07	
97	4.850000e+00	1.663176e+07	
98	4.900000e+00	1.670475e+07	
99	4.950000e+00	1.677679e+07	
100	5.000000e+00	1.684790e+07	
101	5.050000e+00	1.691808e+07	
102	5.100000e+00	1.698735e+07	
103	5.150000e+00	1.705574e+07	
104	5.200000e+00	1.712326e+07	
105	5.250000e+00	1.718992e+07	
106	5.300000e+00	1.725573e+07	
107	5.350000e+00	1.732073e+07	
108	5.400000e+00	1.738491e+07	
109	5.450000e+00	1.744829e+07	
110	5.500000e+00	1.751089e+07	
111	5.550000e+00	1.757272e+07	
112	5.600000e+00	1.763380e+07	

Index   v-sweep         rds             
--------------------------------------------------------------------------------
113	5.650000e+00	1.769413e+07	
114	5.700000e+00	1.775373e+07	
115	5.750000e+00	1.781261e+07	
116	5.800000e+00	1.787078e+07	
117	5.850000e+00	1.792827e+07	
118	5.900000e+00	1.798506e+07	
119	5.950000e+00	1.804119e+07	
120	6.000000e+00	1.809666e+07	
121	6.050000e+00	1.815148e+07	
122	6.100000e+00	1.820566e+07	
123	6.150000e+00	1.825921e+07	
124	6.200000e+00	1.831215e+07	
125	6.250000e+00	1.836448e+07	
126	6.300000e+00	1.841621e+07	
127	6.350000e+00	1.846735e+07	
128	6.400000e+00	1.851791e+07	
129	6.450000e+00	1.856790e+07	
130	6.500000e+00	1.861734e+07	
131	6.550000e+00	1.866622e+07	
132	6.600000e+00	1.871455e+07	
Reset re-loads circuit ***************************

Circuit: ***************************

Doing analysis at TEMP = 125.000000 and TNOM = 125.000000


No. of Data Rows : 133
                          ***************************
                          DC transfer characteristic  Mon Jan  9 13:57:43  2023
--------------------------------------------------------------------------------
Index   v-sweep         rds             
--------------------------------------------------------------------------------
0	0.000000e+00	2.973514e+04	
1	5.000000e-02	3.154417e+04	
2	1.000000e-01	3.354750e+04	
3	1.500000e-01	3.577803e+04	
4	2.000000e-01	3.827650e+04	
5	2.500000e-01	4.109397e+04	
6	3.000000e-01	4.429530e+04	
7	3.500000e-01	4.796410e+04	
8	4.000000e-01	5.220991e+04	
9	4.500000e-01	5.717896e+04	
10	5.000000e-01	6.307051e+04	
11	5.500000e-01	7.016239e+04	
12	6.000000e-01	7.885162e+04	
13	6.500000e-01	8.972001e+04	
14	7.000000e-01	1.036386e+05	
15	7.500000e-01	1.219211e+05	
16	8.000000e-01	1.464899e+05	
17	8.500000e-01	1.798292e+05	
18	9.000000e-01	2.241779e+05	
19	9.500000e-01	2.798002e+05	
20	1.000000e+00	3.441599e+05	
21	1.050000e+00	4.135943e+05	
22	1.100000e+00	4.852978e+05	
23	1.150000e+00	5.577193e+05	
24	1.200000e+00	6.301249e+05	
25	1.250000e+00	7.021854e+05	
26	1.300000e+00	7.737542e+05	
27	1.350000e+00	8.447657e+05	
28	1.400000e+00	9.151909e+05	
29	1.450000e+00	9.850179e+05	
30	1.500000e+00	1.054244e+06	
31	1.550000e+00	1.122869e+06	
32	1.600000e+00	1.190897e+06	
33	1.650000e+00	1.258332e+06	
34	1.700000e+00	1.325180e+06	
35	1.750000e+00	1.391447e+06	
36	1.800000e+00	1.457137e+06	
37	1.850000e+00	1.522257e+06	
38	1.900000e+00	1.586814e+06	
39	1.950000e+00	1.650812e+06	
40	2.000000e+00	1.714259e+06	
41	2.050000e+00	1.777160e+06	
42	2.100000e+00	1.839521e+06	
43	2.150000e+00	1.901349e+06	
44	2.200000e+00	1.962649e+06	
45	2.250000e+00	2.023427e+06	
46	2.300000e+00	2.083689e+06	
47	2.350000e+00	2.143441e+06	
48	2.400000e+00	2.202688e+06	
49	2.450000e+00	2.261437e+06	
50	2.500000e+00	2.319693e+06	
51	2.550000e+00	2.377461e+06	
52	2.600000e+00	2.434747e+06	
53	2.650000e+00	2.491557e+06	
54	2.700000e+00	2.547895e+06	

Index   v-sweep         rds             
--------------------------------------------------------------------------------
55	2.750000e+00	2.603767e+06	
56	2.800000e+00	2.659179e+06	
57	2.850000e+00	2.714135e+06	
58	2.900000e+00	2.768641e+06	
59	2.950000e+00	2.822702e+06	
60	3.000000e+00	2.876322e+06	
61	3.050000e+00	2.929507e+06	
62	3.100000e+00	2.982262e+06	
63	3.150000e+00	3.034591e+06	
64	3.200000e+00	3.086499e+06	
65	3.250000e+00	3.137990e+06	
66	3.300000e+00	3.189070e+06	
67	3.350000e+00	3.239743e+06	
68	3.400000e+00	3.290014e+06	
69	3.450000e+00	3.339886e+06	
70	3.500000e+00	3.389365e+06	
71	3.550000e+00	3.438454e+06	
72	3.600000e+00	3.487158e+06	
73	3.650000e+00	3.535482e+06	
74	3.700000e+00	3.583428e+06	
75	3.750000e+00	3.631002e+06	
76	3.800000e+00	3.678207e+06	
77	3.850000e+00	3.725048e+06	
78	3.900000e+00	3.771528e+06	
79	3.950000e+00	3.817652e+06	
80	4.000000e+00	3.863422e+06	
81	4.050000e+00	3.908844e+06	
82	4.100000e+00	3.953920e+06	
83	4.150000e+00	3.998654e+06	
84	4.200000e+00	4.043051e+06	
85	4.250000e+00	4.087113e+06	
86	4.300000e+00	4.130844e+06	
87	4.350000e+00	4.174248e+06	
88	4.400000e+00	4.217328e+06	
89	4.450000e+00	4.260088e+06	
90	4.500000e+00	4.302530e+06	
91	4.550000e+00	4.344659e+06	
92	4.600000e+00	4.386477e+06	
93	4.650000e+00	4.427987e+06	
94	4.700000e+00	4.469194e+06	
95	4.750000e+00	4.510100e+06	
96	4.800000e+00	4.550708e+06	
97	4.850000e+00	4.591021e+06	
98	4.900000e+00	4.631043e+06	
99	4.950000e+00	4.670775e+06	
100	5.000000e+00	4.710222e+06	
101	5.050000e+00	4.749386e+06	
102	5.100000e+00	4.788271e+06	
103	5.150000e+00	4.826878e+06	
104	5.200000e+00	4.865210e+06	
105	5.250000e+00	4.903271e+06	
106	5.300000e+00	4.941064e+06	
107	5.350000e+00	4.978590e+06	
108	5.400000e+00	5.015852e+06	
109	5.450000e+00	5.052854e+06	
110	5.500000e+00	5.089598e+06	
111	5.550000e+00	5.126086e+06	
112	5.600000e+00	5.162320e+06	

Index   v-sweep         rds             
--------------------------------------------------------------------------------
113	5.650000e+00	5.198305e+06	
114	5.700000e+00	5.234040e+06	
115	5.750000e+00	5.269531e+06	
116	5.800000e+00	5.304778e+06	
117	5.850000e+00	5.339783e+06	
118	5.900000e+00	5.374551e+06	
119	5.950000e+00	5.409082e+06	
120	6.000000e+00	5.443379e+06	
121	6.050000e+00	5.477444e+06	
122	6.100000e+00	5.511280e+06	
123	6.150000e+00	5.544888e+06	
124	6.200000e+00	5.578271e+06	
125	6.250000e+00	5.611432e+06	
126	6.300000e+00	5.644371e+06	
127	6.350000e+00	5.677092e+06	
128	6.400000e+00	5.709596e+06	
129	6.450000e+00	5.741885e+06	
130	6.500000e+00	5.773962e+06	
131	6.550000e+00	5.805828e+06	
132	6.600000e+00	5.837486e+06	
Reset re-loads circuit ***************************

Circuit: ***************************

Doing analysis at TEMP = 125.000000 and TNOM = 125.000000


No. of Data Rows : 133
                          ***************************
                          DC transfer characteristic  Mon Jan  9 13:57:43  2023
--------------------------------------------------------------------------------
Index   v-sweep         rds             
--------------------------------------------------------------------------------
0	0.000000e+00	1.978159e+04	
1	5.000000e-02	2.057947e+04	
2	1.000000e-01	2.142824e+04	
3	1.500000e-01	2.233287e+04	
4	2.000000e-01	2.329900e+04	
5	2.500000e-01	2.433307e+04	
6	3.000000e-01	2.544245e+04	
7	3.500000e-01	2.663561e+04	
8	4.000000e-01	2.792233e+04	
9	4.500000e-01	2.931401e+04	
10	5.000000e-01	3.082392e+04	
11	5.500000e-01	3.246773e+04	
12	6.000000e-01	3.426394e+04	
13	6.500000e-01	3.623466e+04	
14	7.000000e-01	3.840646e+04	
15	7.500000e-01	4.081157e+04	
16	8.000000e-01	4.348949e+04	
17	8.500000e-01	4.648910e+04	
18	9.000000e-01	4.987167e+04	
19	9.500000e-01	5.371492e+04	
20	1.000000e+00	5.811889e+04	
21	1.050000e+00	6.321436e+04	
22	1.100000e+00	6.917502e+04	
23	1.150000e+00	7.623520e+04	
24	1.200000e+00	8.471468e+04	
25	1.250000e+00	9.504984e+04	
26	1.300000e+00	1.078195e+05	
27	1.350000e+00	1.237265e+05	
28	1.400000e+00	1.434606e+05	
29	1.450000e+00	1.674141e+05	
30	1.500000e+00	1.954223e+05	
31	1.550000e+00	2.268046e+05	
32	1.600000e+00	2.606762e+05	
33	1.650000e+00	2.962362e+05	
34	1.700000e+00	3.328807e+05	
35	1.750000e+00	3.701941e+05	
36	1.800000e+00	4.079010e+05	
37	1.850000e+00	4.458201e+05	
38	1.900000e+00	4.838313e+05	
39	1.950000e+00	5.218536e+05	
40	2.000000e+00	5.598317e+05	
41	2.050000e+00	5.977267e+05	
42	2.100000e+00	6.355115e+05	
43	2.150000e+00	6.731661e+05	
44	2.200000e+00	7.106761e+05	
45	2.250000e+00	7.480311e+05	
46	2.300000e+00	7.852231e+05	
47	2.350000e+00	8.222463e+05	
48	2.400000e+00	8.590964e+05	
49	2.450000e+00	8.957702e+05	
50	2.500000e+00	9.322653e+05	
51	2.550000e+00	9.685802e+05	
52	2.600000e+00	1.004714e+06	
53	2.650000e+00	1.040665e+06	
54	2.700000e+00	1.076434e+06	

Index   v-sweep         rds             
--------------------------------------------------------------------------------
55	2.750000e+00	1.112020e+06	
56	2.800000e+00	1.147424e+06	
57	2.850000e+00	1.182645e+06	
58	2.900000e+00	1.217685e+06	
59	2.950000e+00	1.252543e+06	
60	3.000000e+00	1.287221e+06	
61	3.050000e+00	1.321719e+06	
62	3.100000e+00	1.356038e+06	
63	3.150000e+00	1.390178e+06	
64	3.200000e+00	1.424141e+06	
65	3.250000e+00	1.457928e+06	
66	3.300000e+00	1.491539e+06	
67	3.350000e+00	1.524975e+06	
68	3.400000e+00	1.558238e+06	
69	3.450000e+00	1.591328e+06	
70	3.500000e+00	1.624247e+06	
71	3.550000e+00	1.656996e+06	
72	3.600000e+00	1.689575e+06	
73	3.650000e+00	1.721986e+06	
74	3.700000e+00	1.754229e+06	
75	3.750000e+00	1.786306e+06	
76	3.800000e+00	1.818219e+06	
77	3.850000e+00	1.849967e+06	
78	3.900000e+00	1.881552e+06	
79	3.950000e+00	1.912976e+06	
80	4.000000e+00	1.944238e+06	
81	4.050000e+00	1.975341e+06	
82	4.100000e+00	2.006286e+06	
83	4.150000e+00	2.037072e+06	
84	4.200000e+00	2.067703e+06	
85	4.250000e+00	2.098177e+06	
86	4.300000e+00	2.128498e+06	
87	4.350000e+00	2.158665e+06	
88	4.400000e+00	2.188679e+06	
89	4.450000e+00	2.218543e+06	
90	4.500000e+00	2.248256e+06	
91	4.550000e+00	2.277820e+06	
92	4.600000e+00	2.307235e+06	
93	4.650000e+00	2.336504e+06	
94	4.700000e+00	2.365626e+06	
95	4.750000e+00	2.394603e+06	
96	4.800000e+00	2.423436e+06	
97	4.850000e+00	2.452126e+06	
98	4.900000e+00	2.480673e+06	
99	4.950000e+00	2.509080e+06	
100	5.000000e+00	2.537345e+06	
101	5.050000e+00	2.565472e+06	
102	5.100000e+00	2.593460e+06	
103	5.150000e+00	2.621311e+06	
104	5.200000e+00	2.649025e+06	
105	5.250000e+00	2.676604e+06	
106	5.300000e+00	2.704048e+06	
107	5.350000e+00	2.731358e+06	
108	5.400000e+00	2.758536e+06	
109	5.450000e+00	2.785581e+06	
110	5.500000e+00	2.812496e+06	
111	5.550000e+00	2.839280e+06	
112	5.600000e+00	2.865935e+06	

Index   v-sweep         rds             
--------------------------------------------------------------------------------
113	5.650000e+00	2.892462e+06	
114	5.700000e+00	2.918861e+06	
115	5.750000e+00	2.945134e+06	
116	5.800000e+00	2.971280e+06	
117	5.850000e+00	2.997302e+06	
118	5.900000e+00	3.023200e+06	
119	5.950000e+00	3.048974e+06	
120	6.000000e+00	3.074626e+06	
121	6.050000e+00	3.100156e+06	
122	6.100000e+00	3.125566e+06	
123	6.150000e+00	3.150855e+06	
124	6.200000e+00	3.176025e+06	
125	6.250000e+00	3.201077e+06	
126	6.300000e+00	3.226011e+06	
127	6.350000e+00	3.250828e+06	
128	6.400000e+00	3.275530e+06	
129	6.450000e+00	3.300116e+06	
130	6.500000e+00	3.324587e+06	
131	6.550000e+00	3.348945e+06	
132	6.600000e+00	3.373189e+06	
Reset re-loads circuit ***************************

Circuit: ***************************

Doing analysis at TEMP = 125.000000 and TNOM = 125.000000


No. of Data Rows : 133
                          ***************************
                          DC transfer characteristic  Mon Jan  9 13:57:43  2023
--------------------------------------------------------------------------------
Index   v-sweep         rds             
--------------------------------------------------------------------------------
0	0.000000e+00	1.574160e+04	
1	5.000000e-02	1.622998e+04	
2	1.000000e-01	1.674062e+04	
3	1.500000e-01	1.727504e+04	
4	2.000000e-01	1.783492e+04	
5	2.500000e-01	1.842210e+04	
6	3.000000e-01	1.903858e+04	
7	3.500000e-01	1.968661e+04	
8	4.000000e-01	2.036862e+04	
9	4.500000e-01	2.108733e+04	
10	5.000000e-01	2.184577e+04	
11	5.500000e-01	2.264728e+04	
12	6.000000e-01	2.349560e+04	
13	6.500000e-01	2.439494e+04	
14	7.000000e-01	2.534999e+04	
15	7.500000e-01	2.636605e+04	
16	8.000000e-01	2.744913e+04	
17	8.500000e-01	2.860604e+04	
18	9.000000e-01	2.984454e+04	
19	9.500000e-01	3.117354e+04	
20	1.000000e+00	3.260327e+04	
21	1.050000e+00	3.414560e+04	
22	1.100000e+00	3.581433e+04	
23	1.150000e+00	3.762562e+04	
24	1.200000e+00	3.959858e+04	
25	1.250000e+00	4.175589e+04	
26	1.300000e+00	4.412480e+04	
27	1.350000e+00	4.673835e+04	
28	1.400000e+00	4.963705e+04	
29	1.450000e+00	5.287129e+04	
30	1.500000e+00	5.650474e+04	
31	1.550000e+00	6.061934e+04	
32	1.600000e+00	6.532264e+04	
33	1.650000e+00	7.075861e+04	
34	1.700000e+00	7.712248e+04	
35	1.750000e+00	8.467754e+04	
36	1.800000e+00	9.376418e+04	
37	1.850000e+00	1.047767e+05	
38	1.900000e+00	1.180792e+05	
39	1.950000e+00	1.338718e+05	
40	2.000000e+00	1.520921e+05	
41	2.050000e+00	1.724378e+05	
42	2.100000e+00	1.944857e+05	
43	2.150000e+00	2.178134e+05	
44	2.200000e+00	2.420651e+05	
45	2.250000e+00	2.669676e+05	
46	2.300000e+00	2.923208e+05	
47	2.350000e+00	3.179809e+05	
48	2.400000e+00	3.438452e+05	
49	2.450000e+00	3.698399e+05	
50	2.500000e+00	3.959114e+05	
51	2.550000e+00	4.220206e+05	
52	2.600000e+00	4.481384e+05	
53	2.650000e+00	4.742427e+05	
54	2.700000e+00	5.003170e+05	

Index   v-sweep         rds             
--------------------------------------------------------------------------------
55	2.750000e+00	5.263484e+05	
56	2.800000e+00	5.523269e+05	
57	2.850000e+00	5.782449e+05	
58	2.900000e+00	6.040960e+05	
59	2.950000e+00	6.298754e+05	
60	3.000000e+00	6.555792e+05	
61	3.050000e+00	6.812043e+05	
62	3.100000e+00	7.067480e+05	
63	3.150000e+00	7.322085e+05	
64	3.200000e+00	7.575839e+05	
65	3.250000e+00	7.828731e+05	
66	3.300000e+00	8.080749e+05	
67	3.350000e+00	8.331885e+05	
68	3.400000e+00	8.582133e+05	
69	3.450000e+00	8.831488e+05	
70	3.500000e+00	9.079945e+05	
71	3.550000e+00	9.327502e+05	
72	3.600000e+00	9.574158e+05	
73	3.650000e+00	9.819912e+05	
74	3.700000e+00	1.006476e+06	
75	3.750000e+00	1.030871e+06	
76	3.800000e+00	1.055176e+06	
77	3.850000e+00	1.079390e+06	
78	3.900000e+00	1.103515e+06	
79	3.950000e+00	1.127549e+06	
80	4.000000e+00	1.151494e+06	
81	4.050000e+00	1.175350e+06	
82	4.100000e+00	1.199117e+06	
83	4.150000e+00	1.222795e+06	
84	4.200000e+00	1.246385e+06	
85	4.250000e+00	1.269886e+06	
86	4.300000e+00	1.293299e+06	
87	4.350000e+00	1.316625e+06	
88	4.400000e+00	1.339864e+06	
89	4.450000e+00	1.363016e+06	
90	4.500000e+00	1.386081e+06	
91	4.550000e+00	1.409060e+06	
92	4.600000e+00	1.431953e+06	
93	4.650000e+00	1.454761e+06	
94	4.700000e+00	1.477483e+06	
95	4.750000e+00	1.500121e+06	
96	4.800000e+00	1.522675e+06	
97	4.850000e+00	1.545144e+06	
98	4.900000e+00	1.567530e+06	
99	4.950000e+00	1.589833e+06	
100	5.000000e+00	1.612053e+06	
101	5.050000e+00	1.634190e+06	
102	5.100000e+00	1.656246e+06	
103	5.150000e+00	1.678220e+06	
104	5.200000e+00	1.700112e+06	
105	5.250000e+00	1.721924e+06	
106	5.300000e+00	1.743655e+06	
107	5.350000e+00	1.765306e+06	
108	5.400000e+00	1.786877e+06	
109	5.450000e+00	1.808369e+06	
110	5.500000e+00	1.829782e+06	
111	5.550000e+00	1.851116e+06	
112	5.600000e+00	1.872372e+06	

Index   v-sweep         rds             
--------------------------------------------------------------------------------
113	5.650000e+00	1.893551e+06	
114	5.700000e+00	1.914651e+06	
115	5.750000e+00	1.935675e+06	
116	5.800000e+00	1.956622e+06	
117	5.850000e+00	1.977493e+06	
118	5.900000e+00	1.998288e+06	
119	5.950000e+00	2.019007e+06	
120	6.000000e+00	2.039651e+06	
121	6.050000e+00	2.060220e+06	
122	6.100000e+00	2.080715e+06	
123	6.150000e+00	2.101136e+06	
124	6.200000e+00	2.121483e+06	
125	6.250000e+00	2.141757e+06	
126	6.300000e+00	2.161957e+06	
127	6.350000e+00	2.182085e+06	
128	6.400000e+00	2.202141e+06	
129	6.450000e+00	2.222125e+06	
130	6.500000e+00	2.242037e+06	
131	6.550000e+00	2.261878e+06	
132	6.600000e+00	2.281648e+06	
Reset re-loads circuit ***************************

Circuit: ***************************

Doing analysis at TEMP = 125.000000 and TNOM = 125.000000


No. of Data Rows : 133
                          ***************************
                          DC transfer characteristic  Mon Jan  9 13:57:43  2023
--------------------------------------------------------------------------------
Index   v-sweep         rds             
--------------------------------------------------------------------------------
0	0.000000e+00	1.367567e+04	
1	5.000000e-02	1.402277e+04	
2	1.000000e-01	1.438216e+04	
3	1.500000e-01	1.475449e+04	
4	2.000000e-01	1.514045e+04	
5	2.500000e-01	1.554079e+04	
6	3.000000e-01	1.595632e+04	
7	3.500000e-01	1.638789e+04	
8	4.000000e-01	1.683645e+04	
9	4.500000e-01	1.730299e+04	
10	5.000000e-01	1.778860e+04	
11	5.500000e-01	1.829447e+04	
12	6.000000e-01	1.882187e+04	
13	6.500000e-01	1.937219e+04	
14	7.000000e-01	1.994693e+04	
15	7.500000e-01	2.054774e+04	
16	8.000000e-01	2.117643e+04	
17	8.500000e-01	2.183495e+04	
18	9.000000e-01	2.252546e+04	
19	9.500000e-01	2.325033e+04	
20	1.000000e+00	2.401217e+04	
21	1.050000e+00	2.481385e+04	
22	1.100000e+00	2.565857e+04	
23	1.150000e+00	2.654985e+04	
24	1.200000e+00	2.749162e+04	
25	1.250000e+00	2.848829e+04	
26	1.300000e+00	2.954477e+04	
27	1.350000e+00	3.066658e+04	
28	1.400000e+00	3.185997e+04	
29	1.450000e+00	3.313201e+04	
30	1.500000e+00	3.449075e+04	
31	1.550000e+00	3.594542e+04	
32	1.600000e+00	3.750663e+04	
33	1.650000e+00	3.918670e+04	
34	1.700000e+00	4.100002e+04	
35	1.750000e+00	4.296355e+04	
36	1.800000e+00	4.509753e+04	
37	1.850000e+00	4.742639e+04	
38	1.900000e+00	4.998012e+04	
39	1.950000e+00	5.279618e+04	
40	2.000000e+00	5.592242e+04	
41	2.050000e+00	5.942137e+04	
42	2.100000e+00	6.337651e+04	
43	2.150000e+00	6.790112e+04	
44	2.200000e+00	7.314868e+04	
45	2.250000e+00	7.932114e+04	
46	2.300000e+00	8.666470e+04	
47	2.350000e+00	9.543879e+04	
48	2.400000e+00	1.058526e+05	
49	2.450000e+00	1.179934e+05	
50	2.500000e+00	1.317930e+05	
51	2.550000e+00	1.470559e+05	
52	2.600000e+00	1.635239e+05	
53	2.650000e+00	1.809367e+05	
54	2.700000e+00	1.990669e+05	

Index   v-sweep         rds             
--------------------------------------------------------------------------------
55	2.750000e+00	2.177314e+05	
56	2.800000e+00	2.367892e+05	
57	2.850000e+00	2.561339e+05	
58	2.900000e+00	2.756863e+05	
59	2.950000e+00	2.953871e+05	
60	3.000000e+00	3.151921e+05	
61	3.050000e+00	3.350675e+05	
62	3.100000e+00	3.549878e+05	
63	3.150000e+00	3.749333e+05	
64	3.200000e+00	3.948886e+05	
65	3.250000e+00	4.148417e+05	
66	3.300000e+00	4.347829e+05	
67	3.350000e+00	4.547047e+05	
68	3.400000e+00	4.746010e+05	
69	3.450000e+00	4.944666e+05	
70	3.500000e+00	5.142976e+05	
71	3.550000e+00	5.340906e+05	
72	3.600000e+00	5.538429e+05	
73	3.650000e+00	5.735520e+05	
74	3.700000e+00	5.932162e+05	
75	3.750000e+00	6.128339e+05	
76	3.800000e+00	6.324036e+05	
77	3.850000e+00	6.519243e+05	
78	3.900000e+00	6.713950e+05	
79	3.950000e+00	6.908150e+05	
80	4.000000e+00	7.101836e+05	
81	4.050000e+00	7.295002e+05	
82	4.100000e+00	7.487644e+05	
83	4.150000e+00	7.679758e+05	
84	4.200000e+00	7.871340e+05	
85	4.250000e+00	8.062390e+05	
86	4.300000e+00	8.252903e+05	
87	4.350000e+00	8.442880e+05	
88	4.400000e+00	8.632318e+05	
89	4.450000e+00	8.821217e+05	
90	4.500000e+00	9.009576e+05	
91	4.550000e+00	9.197395e+05	
92	4.600000e+00	9.384675e+05	
93	4.650000e+00	9.571414e+05	
94	4.700000e+00	9.757614e+05	
95	4.750000e+00	9.943275e+05	
96	4.800000e+00	1.012840e+06	
97	4.850000e+00	1.031298e+06	
98	4.900000e+00	1.049703e+06	
99	4.950000e+00	1.068054e+06	
100	5.000000e+00	1.086352e+06	
101	5.050000e+00	1.104596e+06	
102	5.100000e+00	1.122788e+06	
103	5.150000e+00	1.140926e+06	
104	5.200000e+00	1.159011e+06	
105	5.250000e+00	1.177043e+06	
106	5.300000e+00	1.195023e+06	
107	5.350000e+00	1.212950e+06	
108	5.400000e+00	1.230825e+06	
109	5.450000e+00	1.248647e+06	
110	5.500000e+00	1.266418e+06	
111	5.550000e+00	1.284136e+06	
112	5.600000e+00	1.301803e+06	

Index   v-sweep         rds             
--------------------------------------------------------------------------------
113	5.650000e+00	1.319418e+06	
114	5.700000e+00	1.336982e+06	
115	5.750000e+00	1.354495e+06	
116	5.800000e+00	1.371957e+06	
117	5.850000e+00	1.389367e+06	
118	5.900000e+00	1.406728e+06	
119	5.950000e+00	1.424037e+06	
120	6.000000e+00	1.441296e+06	
121	6.050000e+00	1.458505e+06	
122	6.100000e+00	1.475664e+06	
123	6.150000e+00	1.492774e+06	
124	6.200000e+00	1.509833e+06	
125	6.250000e+00	1.526844e+06	
126	6.300000e+00	1.543805e+06	
127	6.350000e+00	1.560716e+06	
128	6.400000e+00	1.577579e+06	
129	6.450000e+00	1.594394e+06	
130	6.500000e+00	1.611159e+06	
131	6.550000e+00	1.627877e+06	
132	6.600000e+00	1.644546e+06	
Reset re-loads circuit ***************************

Circuit: ***************************

Doing analysis at TEMP = 125.000000 and TNOM = 125.000000


No. of Data Rows : 133
                          ***************************
                          DC transfer characteristic  Mon Jan  9 13:57:43  2023
--------------------------------------------------------------------------------
Index   v-sweep         rds             
--------------------------------------------------------------------------------
0	0.000000e+00	1.250924e+04	
1	5.000000e-02	1.277748e+04	
2	1.000000e-01	1.305346e+04	
3	1.500000e-01	1.333751e+04	
4	2.000000e-01	1.362997e+04	
5	2.500000e-01	1.393121e+04	
6	3.000000e-01	1.424163e+04	
7	3.500000e-01	1.456164e+04	
8	4.000000e-01	1.489168e+04	
9	4.500000e-01	1.523222e+04	
10	5.000000e-01	1.558376e+04	
11	5.500000e-01	1.594684e+04	
12	6.000000e-01	1.632201e+04	
13	6.500000e-01	1.670990e+04	
14	7.000000e-01	1.711113e+04	
15	7.500000e-01	1.752642e+04	
16	8.000000e-01	1.795648e+04	
17	8.500000e-01	1.840213e+04	
18	9.000000e-01	1.886420e+04	
19	9.500000e-01	1.934363e+04	
20	1.000000e+00	1.984138e+04	
21	1.050000e+00	2.035852e+04	
22	1.100000e+00	2.089620e+04	
23	1.150000e+00	2.145564e+04	
24	1.200000e+00	2.203819e+04	
25	1.250000e+00	2.264529e+04	
26	1.300000e+00	2.327852e+04	
27	1.350000e+00	2.393957e+04	
28	1.400000e+00	2.463030e+04	
29	1.450000e+00	2.535276e+04	
30	1.500000e+00	2.610915e+04	
31	1.550000e+00	2.690191e+04	
32	1.600000e+00	2.773371e+04	
33	1.650000e+00	2.860749e+04	
34	1.700000e+00	2.952650e+04	
35	1.750000e+00	3.049434e+04	
36	1.800000e+00	3.151502e+04	
37	1.850000e+00	3.259299e+04	
38	1.900000e+00	3.373325e+04	
39	1.950000e+00	3.494144e+04	
40	2.000000e+00	3.622389e+04	
41	2.050000e+00	3.758786e+04	
42	2.100000e+00	3.904161e+04	
43	2.150000e+00	4.059472e+04	
44	2.200000e+00	4.225833e+04	
45	2.250000e+00	4.404563e+04	
46	2.300000e+00	4.597234e+04	
47	2.350000e+00	4.805765e+04	
48	2.400000e+00	5.032533e+04	
49	2.450000e+00	5.280555e+04	
50	2.500000e+00	5.553747e+04	
51	2.550000e+00	5.857300e+04	
52	2.600000e+00	6.198201e+04	
53	2.650000e+00	6.585884e+04	
54	2.700000e+00	7.032846e+04	

Index   v-sweep         rds             
--------------------------------------------------------------------------------
55	2.750000e+00	7.554851e+04	
56	2.800000e+00	8.169986e+04	
57	2.850000e+00	8.895938e+04	
58	2.900000e+00	9.745768e+04	
59	2.950000e+00	1.072399e+05	
60	3.000000e+00	1.182525e+05	
61	3.050000e+00	1.303634e+05	
62	3.100000e+00	1.433999e+05	
63	3.150000e+00	1.571840e+05	
64	3.200000e+00	1.715553e+05	
65	3.250000e+00	1.863795e+05	
66	3.300000e+00	2.015492e+05	
67	3.350000e+00	2.169811e+05	
68	3.400000e+00	2.326108e+05	
69	3.450000e+00	2.483891e+05	
70	3.500000e+00	2.642782e+05	
71	3.550000e+00	2.802488e+05	
72	3.600000e+00	2.962783e+05	
73	3.650000e+00	3.123491e+05	
74	3.700000e+00	3.284470e+05	
75	3.750000e+00	3.445610e+05	
76	3.800000e+00	3.606822e+05	
77	3.850000e+00	3.768033e+05	
78	3.900000e+00	3.929185e+05	
79	3.950000e+00	4.090230e+05	
80	4.000000e+00	4.251128e+05	
81	4.050000e+00	4.411846e+05	
82	4.100000e+00	4.572357e+05	
83	4.150000e+00	4.732637e+05	
84	4.200000e+00	4.892668e+05	
85	4.250000e+00	5.052433e+05	
86	4.300000e+00	5.211917e+05	
87	4.350000e+00	5.371110e+05	
88	4.400000e+00	5.530000e+05	
89	4.450000e+00	5.688579e+05	
90	4.500000e+00	5.846840e+05	
91	4.550000e+00	6.004776e+05	
92	4.600000e+00	6.162382e+05	
93	4.650000e+00	6.319653e+05	
94	4.700000e+00	6.476585e+05	
95	4.750000e+00	6.633174e+05	
96	4.800000e+00	6.789418e+05	
97	4.850000e+00	6.945313e+05	
98	4.900000e+00	7.100859e+05	
99	4.950000e+00	7.256052e+05	
100	5.000000e+00	7.410891e+05	
101	5.050000e+00	7.565375e+05	
102	5.100000e+00	7.719504e+05	
103	5.150000e+00	7.873275e+05	
104	5.200000e+00	8.026689e+05	
105	5.250000e+00	8.179745e+05	
106	5.300000e+00	8.332443e+05	
107	5.350000e+00	8.484782e+05	
108	5.400000e+00	8.636762e+05	
109	5.450000e+00	8.788384e+05	
110	5.500000e+00	8.939646e+05	
111	5.550000e+00	9.090551e+05	
112	5.600000e+00	9.241097e+05	

Index   v-sweep         rds             
--------------------------------------------------------------------------------
113	5.650000e+00	9.391285e+05	
114	5.700000e+00	9.541116e+05	
115	5.750000e+00	9.690590e+05	
116	5.800000e+00	9.839707e+05	
117	5.850000e+00	9.988468e+05	
118	5.900000e+00	1.013687e+06	
119	5.950000e+00	1.028492e+06	
120	6.000000e+00	1.043262e+06	
121	6.050000e+00	1.057996e+06	
122	6.100000e+00	1.072695e+06	
123	6.150000e+00	1.087359e+06	
124	6.200000e+00	1.101988e+06	
125	6.250000e+00	1.116582e+06	
126	6.300000e+00	1.131140e+06	
127	6.350000e+00	1.145664e+06	
128	6.400000e+00	1.160153e+06	
129	6.450000e+00	1.174607e+06	
130	6.500000e+00	1.189027e+06	
131	6.550000e+00	1.203412e+06	
132	6.600000e+00	1.217763e+06	
Reset re-loads circuit ***************************

Circuit: ***************************

Note: No ".plot", ".print", or ".fourier" lines; no simulations run
