
Note: Compatibility modes selected: hs

Warning: m=xx on .subckt line will override multiplier m hierarchy!


Circuit: ***************************

Doing analysis at TEMP = 25.000000 and TNOM = 25.000000


No. of Data Rows : 133
                          ***************************
                          DC transfer characteristic  Mon Jan  9 13:57:42  2023
--------------------------------------------------------------------------------
Index   v-sweep         rds             
--------------------------------------------------------------------------------
0	0.000000e+00	3.000847e+03	
1	5.000000e-02	4.018647e+03	
2	1.000000e-01	5.891572e+03	
3	1.500000e-01	9.921297e+03	
4	2.000000e-01	1.829433e+04	
5	2.500000e-01	2.872283e+04	
6	3.000000e-01	3.697132e+04	
7	3.500000e-01	4.328936e+04	
8	4.000000e-01	4.849942e+04	
9	4.500000e-01	5.299219e+04	
10	5.000000e-01	5.695327e+04	
11	5.500000e-01	6.048799e+04	
12	6.000000e-01	6.366630e+04	
13	6.500000e-01	6.653976e+04	
14	7.000000e-01	6.914882e+04	
15	7.500000e-01	7.152642e+04	
16	8.000000e-01	7.369998e+04	
17	8.500000e-01	7.569271e+04	
18	9.000000e-01	7.752440e+04	
19	9.500000e-01	7.921213e+04	
20	1.000000e+00	8.077070e+04	
21	1.050000e+00	8.221299e+04	
22	1.100000e+00	8.355029e+04	
23	1.150000e+00	8.479253e+04	
24	1.200000e+00	8.594845e+04	
25	1.250000e+00	8.702582e+04	
26	1.300000e+00	8.803152e+04	
27	1.350000e+00	8.897169e+04	
28	1.400000e+00	8.985181e+04	
29	1.450000e+00	9.067681e+04	
30	1.500000e+00	9.145110e+04	
31	1.550000e+00	9.217865e+04	
32	1.600000e+00	9.286306e+04	
33	1.650000e+00	9.350757e+04	
34	1.700000e+00	9.411514e+04	
35	1.750000e+00	9.468842e+04	
36	1.800000e+00	9.522986e+04	
37	1.850000e+00	9.574168e+04	
38	1.900000e+00	9.622591e+04	
39	1.950000e+00	9.668440e+04	
40	2.000000e+00	9.711886e+04	
41	2.050000e+00	9.753084e+04	
42	2.100000e+00	9.792179e+04	
43	2.150000e+00	9.829303e+04	
44	2.200000e+00	9.864577e+04	
45	2.250000e+00	9.898114e+04	
46	2.300000e+00	9.930019e+04	
47	2.350000e+00	9.960388e+04	
48	2.400000e+00	9.989311e+04	
49	2.450000e+00	1.001687e+05	
50	2.500000e+00	1.004314e+05	
51	2.550000e+00	1.006820e+05	
52	2.600000e+00	1.009211e+05	
53	2.650000e+00	1.011494e+05	
54	2.700000e+00	1.013674e+05	

Index   v-sweep         rds             
--------------------------------------------------------------------------------
55	2.750000e+00	1.015756e+05	
56	2.800000e+00	1.017747e+05	
57	2.850000e+00	1.019650e+05	
58	2.900000e+00	1.021470e+05	
59	2.950000e+00	1.023211e+05	
60	3.000000e+00	1.024877e+05	
61	3.050000e+00	1.026472e+05	
62	3.100000e+00	1.028000e+05	
63	3.150000e+00	1.029463e+05	
64	3.200000e+00	1.030865e+05	
65	3.250000e+00	1.032208e+05	
66	3.300000e+00	1.033495e+05	
67	3.350000e+00	1.034729e+05	
68	3.400000e+00	1.035913e+05	
69	3.450000e+00	1.037048e+05	
70	3.500000e+00	1.038137e+05	
71	3.550000e+00	1.039182e+05	
72	3.600000e+00	1.040184e+05	
73	3.650000e+00	1.041146e+05	
74	3.700000e+00	1.042069e+05	
75	3.750000e+00	1.042955e+05	
76	3.800000e+00	1.043806e+05	
77	3.850000e+00	1.044623e+05	
78	3.900000e+00	1.045408e+05	
79	3.950000e+00	1.046161e+05	
80	4.000000e+00	1.046884e+05	
81	4.050000e+00	1.047579e+05	
82	4.100000e+00	1.048247e+05	
83	4.150000e+00	1.048888e+05	
84	4.200000e+00	1.049503e+05	
85	4.250000e+00	1.050095e+05	
86	4.300000e+00	1.050663e+05	
87	4.350000e+00	1.051209e+05	
88	4.400000e+00	1.051733e+05	
89	4.450000e+00	1.052237e+05	
90	4.500000e+00	1.052721e+05	
91	4.550000e+00	1.053185e+05	
92	4.600000e+00	1.053632e+05	
93	4.650000e+00	1.054061e+05	
94	4.700000e+00	1.054472e+05	
95	4.750000e+00	1.054868e+05	
96	4.800000e+00	1.055248e+05	
97	4.850000e+00	1.055613e+05	
98	4.900000e+00	1.055963e+05	
99	4.950000e+00	1.056299e+05	
100	5.000000e+00	1.056622e+05	
101	5.050000e+00	1.056932e+05	
102	5.100000e+00	1.057229e+05	
103	5.150000e+00	1.057515e+05	
104	5.200000e+00	1.057789e+05	
105	5.250000e+00	1.058052e+05	
106	5.300000e+00	1.058304e+05	
107	5.350000e+00	1.058546e+05	
108	5.400000e+00	1.058778e+05	
109	5.450000e+00	1.059001e+05	
110	5.500000e+00	1.059215e+05	
111	5.550000e+00	1.059419e+05	
112	5.600000e+00	1.059616e+05	

Index   v-sweep         rds             
--------------------------------------------------------------------------------
113	5.650000e+00	1.059804e+05	
114	5.700000e+00	1.059984e+05	
115	5.750000e+00	1.060157e+05	
116	5.800000e+00	1.060323e+05	
117	5.850000e+00	1.060482e+05	
118	5.900000e+00	1.060634e+05	
119	5.950000e+00	1.060780e+05	
120	6.000000e+00	1.060919e+05	
121	6.050000e+00	1.061053e+05	
122	6.100000e+00	1.061181e+05	
123	6.150000e+00	1.061304e+05	
124	6.200000e+00	1.061422e+05	
125	6.250000e+00	1.061534e+05	
126	6.300000e+00	1.061642e+05	
127	6.350000e+00	1.061746e+05	
128	6.400000e+00	1.061845e+05	
129	6.450000e+00	1.061940e+05	
130	6.500000e+00	1.062031e+05	
131	6.550000e+00	1.062118e+05	
132	6.600000e+00	1.062202e+05	
Reset re-loads circuit ***************************

Circuit: ***************************

Doing analysis at TEMP = 25.000000 and TNOM = 25.000000


No. of Data Rows : 133
                          ***************************
                          DC transfer characteristic  Mon Jan  9 13:57:42  2023
--------------------------------------------------------------------------------
Index   v-sweep         rds             
--------------------------------------------------------------------------------
0	0.000000e+00	8.139544e+02	
1	5.000000e-02	8.882758e+02	
2	1.000000e-01	9.734275e+02	
3	1.500000e-01	1.071923e+03	
4	2.000000e-01	1.187116e+03	
5	2.500000e-01	1.323578e+03	
6	3.000000e-01	1.487690e+03	
7	3.500000e-01	1.688596e+03	
8	4.000000e-01	1.939811e+03	
9	4.500000e-01	2.261920e+03	
10	5.000000e-01	2.686931e+03	
11	5.500000e-01	3.263275e+03	
12	6.000000e-01	4.052039e+03	
13	6.500000e-01	5.092436e+03	
14	7.000000e-01	6.354054e+03	
15	7.500000e-01	7.754007e+03	
16	8.000000e-01	9.215267e+03	
17	8.500000e-01	1.068935e+04	
18	9.000000e-01	1.215008e+04	
19	9.500000e-01	1.358405e+04	
20	1.000000e+00	1.498458e+04	
21	1.050000e+00	1.634853e+04	
22	1.100000e+00	1.767467e+04	
23	1.150000e+00	1.896284e+04	
24	1.200000e+00	2.021349e+04	
25	1.250000e+00	2.142742e+04	
26	1.300000e+00	2.260560e+04	
27	1.350000e+00	2.374914e+04	
28	1.400000e+00	2.485917e+04	
29	1.450000e+00	2.593687e+04	
30	1.500000e+00	2.698337e+04	
31	1.550000e+00	2.799983e+04	
32	1.600000e+00	2.898734e+04	
33	1.650000e+00	2.994699e+04	
34	1.700000e+00	3.087979e+04	
35	1.750000e+00	3.178676e+04	
36	1.800000e+00	3.266885e+04	
37	1.850000e+00	3.352699e+04	
38	1.900000e+00	3.436204e+04	
39	1.950000e+00	3.517487e+04	
40	2.000000e+00	3.596628e+04	
41	2.050000e+00	3.673703e+04	
42	2.100000e+00	3.748789e+04	
43	2.150000e+00	3.821954e+04	
44	2.200000e+00	3.893268e+04	
45	2.250000e+00	3.962794e+04	
46	2.300000e+00	4.030596e+04	
47	2.350000e+00	4.096733e+04	
48	2.400000e+00	4.161261e+04	
49	2.450000e+00	4.224235e+04	
50	2.500000e+00	4.285708e+04	
51	2.550000e+00	4.345729e+04	
52	2.600000e+00	4.404347e+04	
53	2.650000e+00	4.461607e+04	
54	2.700000e+00	4.517553e+04	

Index   v-sweep         rds             
--------------------------------------------------------------------------------
55	2.750000e+00	4.572228e+04	
56	2.800000e+00	4.625673e+04	
57	2.850000e+00	4.677925e+04	
58	2.900000e+00	4.729024e+04	
59	2.950000e+00	4.779003e+04	
60	3.000000e+00	4.827899e+04	
61	3.050000e+00	4.875744e+04	
62	3.100000e+00	4.922569e+04	
63	3.150000e+00	4.968406e+04	
64	3.200000e+00	5.013285e+04	
65	3.250000e+00	5.057232e+04	
66	3.300000e+00	5.100276e+04	
67	3.350000e+00	5.142443e+04	
68	3.400000e+00	5.183758e+04	
69	3.450000e+00	5.224246e+04	
70	3.500000e+00	5.263930e+04	
71	3.550000e+00	5.302832e+04	
72	3.600000e+00	5.340974e+04	
73	3.650000e+00	5.378378e+04	
74	3.700000e+00	5.415064e+04	
75	3.750000e+00	5.451051e+04	
76	3.800000e+00	5.486358e+04	
77	3.850000e+00	5.521004e+04	
78	3.900000e+00	5.555006e+04	
79	3.950000e+00	5.588380e+04	
80	4.000000e+00	5.621144e+04	
81	4.050000e+00	5.653314e+04	
82	4.100000e+00	5.684904e+04	
83	4.150000e+00	5.715930e+04	
84	4.200000e+00	5.746406e+04	
85	4.250000e+00	5.776346e+04	
86	4.300000e+00	5.805763e+04	
87	4.350000e+00	5.834670e+04	
88	4.400000e+00	5.863080e+04	
89	4.450000e+00	5.891006e+04	
90	4.500000e+00	5.918458e+04	
91	4.550000e+00	5.945449e+04	
92	4.600000e+00	5.971989e+04	
93	4.650000e+00	5.998089e+04	
94	4.700000e+00	6.023761e+04	
95	4.750000e+00	6.049013e+04	
96	4.800000e+00	6.073855e+04	
97	4.850000e+00	6.098298e+04	
98	4.900000e+00	6.122350e+04	
99	4.950000e+00	6.146020e+04	
100	5.000000e+00	6.169317e+04	
101	5.050000e+00	6.192250e+04	
102	5.100000e+00	6.214826e+04	
103	5.150000e+00	6.237054e+04	
104	5.200000e+00	6.258942e+04	
105	5.250000e+00	6.280496e+04	
106	5.300000e+00	6.301724e+04	
107	5.350000e+00	6.322633e+04	
108	5.400000e+00	6.343231e+04	
109	5.450000e+00	6.363524e+04	
110	5.500000e+00	6.383517e+04	
111	5.550000e+00	6.403219e+04	
112	5.600000e+00	6.422634e+04	

Index   v-sweep         rds             
--------------------------------------------------------------------------------
113	5.650000e+00	6.441770e+04	
114	5.700000e+00	6.460631e+04	
115	5.750000e+00	6.479224e+04	
116	5.800000e+00	6.497553e+04	
117	5.850000e+00	6.515625e+04	
118	5.900000e+00	6.533445e+04	
119	5.950000e+00	6.551017e+04	
120	6.000000e+00	6.568347e+04	
121	6.050000e+00	6.585440e+04	
122	6.100000e+00	6.602300e+04	
123	6.150000e+00	6.618932e+04	
124	6.200000e+00	6.635340e+04	
125	6.250000e+00	6.651530e+04	
126	6.300000e+00	6.667504e+04	
127	6.350000e+00	6.683268e+04	
128	6.400000e+00	6.698825e+04	
129	6.450000e+00	6.714179e+04	
130	6.500000e+00	6.729334e+04	
131	6.550000e+00	6.744295e+04	
132	6.600000e+00	6.759064e+04	
Reset re-loads circuit ***************************

Circuit: ***************************

Doing analysis at TEMP = 25.000000 and TNOM = 25.000000


No. of Data Rows : 133
                          ***************************
                          DC transfer characteristic  Mon Jan  9 13:57:42  2023
--------------------------------------------------------------------------------
Index   v-sweep         rds             
--------------------------------------------------------------------------------
0	0.000000e+00	5.296224e+02	
1	5.000000e-02	5.628696e+02	
2	1.000000e-01	5.989358e+02	
3	1.500000e-01	6.381844e+02	
4	2.000000e-01	6.810462e+02	
5	2.500000e-01	7.280359e+02	
6	3.000000e-01	7.797735e+02	
7	3.500000e-01	8.370116e+02	
8	4.000000e-01	9.006722e+02	
9	4.500000e-01	9.718973e+02	
10	5.000000e-01	1.052121e+03	
11	5.500000e-01	1.143177e+03	
12	6.000000e-01	1.247467e+03	
13	6.500000e-01	1.368244e+03	
14	7.000000e-01	1.510113e+03	
15	7.500000e-01	1.679980e+03	
16	8.000000e-01	1.888838e+03	
17	8.500000e-01	2.154706e+03	
18	9.000000e-01	2.505200e+03	
19	9.500000e-01	2.973132e+03	
20	1.000000e+00	3.578918e+03	
21	1.050000e+00	4.314260e+03	
22	1.100000e+00	5.148540e+03	
23	1.150000e+00	6.047381e+03	
24	1.200000e+00	6.983481e+03	
25	1.250000e+00	7.938137e+03	
26	1.300000e+00	8.899250e+03	
27	1.350000e+00	9.859117e+03	
28	1.400000e+00	1.081283e+04	
29	1.450000e+00	1.175722e+04	
30	1.500000e+00	1.269028e+04	
31	1.550000e+00	1.361071e+04	
32	1.600000e+00	1.451768e+04	
33	1.650000e+00	1.541072e+04	
34	1.700000e+00	1.628955e+04	
35	1.750000e+00	1.715408e+04	
36	1.800000e+00	1.800429e+04	
37	1.850000e+00	1.884028e+04	
38	1.900000e+00	1.966218e+04	
39	1.950000e+00	2.047016e+04	
40	2.000000e+00	2.126444e+04	
41	2.050000e+00	2.204523e+04	
42	2.100000e+00	2.281277e+04	
43	2.150000e+00	2.356731e+04	
44	2.200000e+00	2.430911e+04	
45	2.250000e+00	2.503841e+04	
46	2.300000e+00	2.575549e+04	
47	2.350000e+00	2.646058e+04	
48	2.400000e+00	2.715395e+04	
49	2.450000e+00	2.783585e+04	
50	2.500000e+00	2.850653e+04	
51	2.550000e+00	2.916622e+04	
52	2.600000e+00	2.981517e+04	
53	2.650000e+00	3.045361e+04	
54	2.700000e+00	3.108178e+04	

Index   v-sweep         rds             
--------------------------------------------------------------------------------
55	2.750000e+00	3.169989e+04	
56	2.800000e+00	3.230817e+04	
57	2.850000e+00	3.290683e+04	
58	2.900000e+00	3.349608e+04	
59	2.950000e+00	3.407613e+04	
60	3.000000e+00	3.464717e+04	
61	3.050000e+00	3.520940e+04	
62	3.100000e+00	3.576302e+04	
63	3.150000e+00	3.630820e+04	
64	3.200000e+00	3.684512e+04	
65	3.250000e+00	3.737396e+04	
66	3.300000e+00	3.789490e+04	
67	3.350000e+00	3.840810e+04	
68	3.400000e+00	3.891372e+04	
69	3.450000e+00	3.941192e+04	
70	3.500000e+00	3.990285e+04	
71	3.550000e+00	4.038668e+04	
72	3.600000e+00	4.086353e+04	
73	3.650000e+00	4.133356e+04	
74	3.700000e+00	4.179691e+04	
75	3.750000e+00	4.225371e+04	
76	3.800000e+00	4.270409e+04	
77	3.850000e+00	4.314818e+04	
78	3.900000e+00	4.358611e+04	
79	3.950000e+00	4.401800e+04	
80	4.000000e+00	4.444398e+04	
81	4.050000e+00	4.486415e+04	
82	4.100000e+00	4.527863e+04	
83	4.150000e+00	4.568753e+04	
84	4.200000e+00	4.609096e+04	
85	4.250000e+00	4.648903e+04	
86	4.300000e+00	4.688183e+04	
87	4.350000e+00	4.726948e+04	
88	4.400000e+00	4.765206e+04	
89	4.450000e+00	4.802967e+04	
90	4.500000e+00	4.840241e+04	
91	4.550000e+00	4.877037e+04	
92	4.600000e+00	4.913363e+04	
93	4.650000e+00	4.949228e+04	
94	4.700000e+00	4.984641e+04	
95	4.750000e+00	5.019610e+04	
96	4.800000e+00	5.054143e+04	
97	4.850000e+00	5.088249e+04	
98	4.900000e+00	5.121933e+04	
99	4.950000e+00	5.155205e+04	
100	5.000000e+00	5.188072e+04	
101	5.050000e+00	5.220540e+04	
102	5.100000e+00	5.252618e+04	
103	5.150000e+00	5.284311e+04	
104	5.200000e+00	5.315626e+04	
105	5.250000e+00	5.346570e+04	
106	5.300000e+00	5.377150e+04	
107	5.350000e+00	5.407371e+04	
108	5.400000e+00	5.437240e+04	
109	5.450000e+00	5.466763e+04	
110	5.500000e+00	5.495946e+04	
111	5.550000e+00	5.524794e+04	
112	5.600000e+00	5.553313e+04	

Index   v-sweep         rds             
--------------------------------------------------------------------------------
113	5.650000e+00	5.581509e+04	
114	5.700000e+00	5.609386e+04	
115	5.750000e+00	5.636951e+04	
116	5.800000e+00	5.664208e+04	
117	5.850000e+00	5.691162e+04	
118	5.900000e+00	5.717819e+04	
119	5.950000e+00	5.744183e+04	
120	6.000000e+00	5.770259e+04	
121	6.050000e+00	5.796051e+04	
122	6.100000e+00	5.821564e+04	
123	6.150000e+00	5.846803e+04	
124	6.200000e+00	5.871772e+04	
125	6.250000e+00	5.896474e+04	
126	6.300000e+00	5.920916e+04	
127	6.350000e+00	5.945099e+04	
128	6.400000e+00	5.969029e+04	
129	6.450000e+00	5.992709e+04	
130	6.500000e+00	6.016143e+04	
131	6.550000e+00	6.039335e+04	
132	6.600000e+00	6.062289e+04	
Reset re-loads circuit ***************************

Circuit: ***************************

Doing analysis at TEMP = 25.000000 and TNOM = 25.000000


No. of Data Rows : 133
                          ***************************
                          DC transfer characteristic  Mon Jan  9 13:57:42  2023
--------------------------------------------------------------------------------
Index   v-sweep         rds             
--------------------------------------------------------------------------------
0	0.000000e+00	4.211947e+02	
1	5.000000e-02	4.422629e+02	
2	1.000000e-01	4.646220e+02	
3	1.500000e-01	4.883886e+02	
4	2.000000e-01	5.136950e+02	
5	2.500000e-01	5.406913e+02	
6	3.000000e-01	5.695498e+02	
7	3.500000e-01	6.004679e+02	
8	4.000000e-01	6.336735e+02	
9	4.500000e-01	6.694299e+02	
10	5.000000e-01	7.080430e+02	
11	5.500000e-01	7.498698e+02	
12	6.000000e-01	7.953295e+02	
13	6.500000e-01	8.449191e+02	
14	7.000000e-01	8.992346e+02	
15	7.500000e-01	9.590023e+02	
16	8.000000e-01	1.025127e+03	
17	8.500000e-01	1.098768e+03	
18	9.000000e-01	1.181477e+03	
19	9.500000e-01	1.275434e+03	
20	1.000000e+00	1.383896e+03	
21	1.050000e+00	1.512027e+03	
22	1.100000e+00	1.668288e+03	
23	1.150000e+00	1.866230e+03	
24	1.200000e+00	2.125053e+03	
25	1.250000e+00	2.465413e+03	
26	1.300000e+00	2.899655e+03	
27	1.350000e+00	3.424510e+03	
28	1.400000e+00	4.024060e+03	
29	1.450000e+00	4.678385e+03	
30	1.500000e+00	5.369788e+03	
31	1.550000e+00	6.084782e+03	
32	1.600000e+00	6.813776e+03	
33	1.650000e+00	7.550127e+03	
34	1.700000e+00	8.289257e+03	
35	1.750000e+00	9.027993e+03	
36	1.800000e+00	9.764122e+03	
37	1.850000e+00	1.049608e+04	
38	1.900000e+00	1.122276e+04	
39	1.950000e+00	1.194337e+04	
40	2.000000e+00	1.265734e+04	
41	2.050000e+00	1.336428e+04	
42	2.100000e+00	1.406390e+04	
43	2.150000e+00	1.475603e+04	
44	2.200000e+00	1.544052e+04	
45	2.250000e+00	1.611732e+04	
46	2.300000e+00	1.678640e+04	
47	2.350000e+00	1.744774e+04	
48	2.400000e+00	1.810138e+04	
49	2.450000e+00	1.874736e+04	
50	2.500000e+00	1.938572e+04	
51	2.550000e+00	2.001654e+04	
52	2.600000e+00	2.063989e+04	
53	2.650000e+00	2.125584e+04	
54	2.700000e+00	2.186450e+04	

Index   v-sweep         rds             
--------------------------------------------------------------------------------
55	2.750000e+00	2.246594e+04	
56	2.800000e+00	2.306026e+04	
57	2.850000e+00	2.364756e+04	
58	2.900000e+00	2.422793e+04	
59	2.950000e+00	2.480147e+04	
60	3.000000e+00	2.536828e+04	
61	3.050000e+00	2.592845e+04	
62	3.100000e+00	2.648208e+04	
63	3.150000e+00	2.702928e+04	
64	3.200000e+00	2.757014e+04	
65	3.250000e+00	2.810474e+04	
66	3.300000e+00	2.863320e+04	
67	3.350000e+00	2.915560e+04	
68	3.400000e+00	2.967204e+04	
69	3.450000e+00	3.018261e+04	
70	3.500000e+00	3.068739e+04	
71	3.550000e+00	3.118649e+04	
72	3.600000e+00	3.167997e+04	
73	3.650000e+00	3.216795e+04	
74	3.700000e+00	3.265049e+04	
75	3.750000e+00	3.312768e+04	
76	3.800000e+00	3.359960e+04	
77	3.850000e+00	3.406634e+04	
78	3.900000e+00	3.452798e+04	
79	3.950000e+00	3.498459e+04	
80	4.000000e+00	3.543625e+04	
81	4.050000e+00	3.588303e+04	
82	4.100000e+00	3.632502e+04	
83	4.150000e+00	3.676228e+04	
84	4.200000e+00	3.719489e+04	
85	4.250000e+00	3.762291e+04	
86	4.300000e+00	3.804642e+04	
87	4.350000e+00	3.846548e+04	
88	4.400000e+00	3.888016e+04	
89	4.450000e+00	3.929052e+04	
90	4.500000e+00	3.969664e+04	
91	4.550000e+00	4.009856e+04	
92	4.600000e+00	4.049637e+04	
93	4.650000e+00	4.089010e+04	
94	4.700000e+00	4.127984e+04	
95	4.750000e+00	4.166563e+04	
96	4.800000e+00	4.204753e+04	
97	4.850000e+00	4.242560e+04	
98	4.900000e+00	4.279989e+04	
99	4.950000e+00	4.317046e+04	
100	5.000000e+00	4.353737e+04	
101	5.050000e+00	4.390066e+04	
102	5.100000e+00	4.426039e+04	
103	5.150000e+00	4.461660e+04	
104	5.200000e+00	4.496935e+04	
105	5.250000e+00	4.531869e+04	
106	5.300000e+00	4.566466e+04	
107	5.350000e+00	4.600732e+04	
108	5.400000e+00	4.634670e+04	
109	5.450000e+00	4.668285e+04	
110	5.500000e+00	4.701583e+04	
111	5.550000e+00	4.734567e+04	
112	5.600000e+00	4.767241e+04	

Index   v-sweep         rds             
--------------------------------------------------------------------------------
113	5.650000e+00	4.799610e+04	
114	5.700000e+00	4.831678e+04	
115	5.750000e+00	4.863449e+04	
116	5.800000e+00	4.894928e+04	
117	5.850000e+00	4.926117e+04	
118	5.900000e+00	4.957022e+04	
119	5.950000e+00	4.987645e+04	
120	6.000000e+00	5.017990e+04	
121	6.050000e+00	5.048062e+04	
122	6.100000e+00	5.077864e+04	
123	6.150000e+00	5.107400e+04	
124	6.200000e+00	5.136672e+04	
125	6.250000e+00	5.165685e+04	
126	6.300000e+00	5.194441e+04	
127	6.350000e+00	5.222945e+04	
128	6.400000e+00	5.251199e+04	
129	6.450000e+00	5.279207e+04	
130	6.500000e+00	5.306972e+04	
131	6.550000e+00	5.334496e+04	
132	6.600000e+00	5.361784e+04	
Reset re-loads circuit ***************************

Circuit: ***************************

Doing analysis at TEMP = 25.000000 and TNOM = 25.000000


No. of Data Rows : 133
                          ***************************
                          DC transfer characteristic  Mon Jan  9 13:57:42  2023
--------------------------------------------------------------------------------
Index   v-sweep         rds             
--------------------------------------------------------------------------------
0	0.000000e+00	3.685915e+02	
1	5.000000e-02	3.840346e+02	
2	1.000000e-01	4.002239e+02	
3	1.500000e-01	4.172115e+02	
4	2.000000e-01	4.350549e+02	
5	2.500000e-01	4.538176e+02	
6	3.000000e-01	4.735703e+02	
7	3.500000e-01	4.943923e+02	
8	4.000000e-01	5.163718e+02	
9	4.500000e-01	5.396080e+02	
10	5.000000e-01	5.642122e+02	
11	5.500000e-01	5.903096e+02	
12	6.000000e-01	6.180408e+02	
13	6.500000e-01	6.475648e+02	
14	7.000000e-01	6.790616e+02	
15	7.500000e-01	7.127356e+02	
16	8.000000e-01	7.488212e+02	
17	8.500000e-01	7.875880e+02	
18	9.000000e-01	8.293509e+02	
19	9.500000e-01	8.744817e+02	
20	1.000000e+00	9.234283e+02	
21	1.050000e+00	9.767441e+02	
22	1.100000e+00	1.035136e+03	
23	1.150000e+00	1.099545e+03	
24	1.200000e+00	1.171289e+03	
25	1.250000e+00	1.252318e+03	
26	1.300000e+00	1.345661e+03	
27	1.350000e+00	1.456160e+03	
28	1.400000e+00	1.591487e+03	
29	1.450000e+00	1.762946e+03	
30	1.500000e+00	1.984667e+03	
31	1.550000e+00	2.269646e+03	
32	1.600000e+00	2.623976e+03	
33	1.650000e+00	3.044070e+03	
34	1.700000e+00	3.519251e+03	
35	1.750000e+00	4.036561e+03	
36	1.800000e+00	4.584177e+03	
37	1.850000e+00	5.152676e+03	
38	1.900000e+00	5.735033e+03	
39	1.950000e+00	6.326152e+03	
40	2.000000e+00	6.922375e+03	
41	2.050000e+00	7.521065e+03	
42	2.100000e+00	8.120313e+03	
43	2.150000e+00	8.718719e+03	
44	2.200000e+00	9.315253e+03	
45	2.250000e+00	9.909145e+03	
46	2.300000e+00	1.049982e+04	
47	2.350000e+00	1.108684e+04	
48	2.400000e+00	1.166988e+04	
49	2.450000e+00	1.224870e+04	
50	2.500000e+00	1.282310e+04	
51	2.550000e+00	1.339295e+04	
52	2.600000e+00	1.395815e+04	
53	2.650000e+00	1.451862e+04	
54	2.700000e+00	1.507432e+04	

Index   v-sweep         rds             
--------------------------------------------------------------------------------
55	2.750000e+00	1.562522e+04	
56	2.800000e+00	1.617130e+04	
57	2.850000e+00	1.671257e+04	
58	2.900000e+00	1.724901e+04	
59	2.950000e+00	1.778067e+04	
60	3.000000e+00	1.830754e+04	
61	3.050000e+00	1.882966e+04	
62	3.100000e+00	1.934707e+04	
63	3.150000e+00	1.985979e+04	
64	3.200000e+00	2.036786e+04	
65	3.250000e+00	2.087132e+04	
66	3.300000e+00	2.137022e+04	
67	3.350000e+00	2.186460e+04	
68	3.400000e+00	2.235450e+04	
69	3.450000e+00	2.283996e+04	
70	3.500000e+00	2.332104e+04	
71	3.550000e+00	2.379778e+04	
72	3.600000e+00	2.427022e+04	
73	3.650000e+00	2.473842e+04	
74	3.700000e+00	2.520242e+04	
75	3.750000e+00	2.566227e+04	
76	3.800000e+00	2.611802e+04	
77	3.850000e+00	2.656970e+04	
78	3.900000e+00	2.701738e+04	
79	3.950000e+00	2.746110e+04	
80	4.000000e+00	2.790089e+04	
81	4.050000e+00	2.833682e+04	
82	4.100000e+00	2.876892e+04	
83	4.150000e+00	2.919724e+04	
84	4.200000e+00	2.962182e+04	
85	4.250000e+00	3.004272e+04	
86	4.300000e+00	3.045996e+04	
87	4.350000e+00	3.087361e+04	
88	4.400000e+00	3.128369e+04	
89	4.450000e+00	3.169025e+04	
90	4.500000e+00	3.209334e+04	
91	4.550000e+00	3.249299e+04	
92	4.600000e+00	3.288924e+04	
93	4.650000e+00	3.328215e+04	
94	4.700000e+00	3.367174e+04	
95	4.750000e+00	3.405805e+04	
96	4.800000e+00	3.444113e+04	
97	4.850000e+00	3.482101e+04	
98	4.900000e+00	3.519773e+04	
99	4.950000e+00	3.557133e+04	
100	5.000000e+00	3.594184e+04	
101	5.050000e+00	3.630930e+04	
102	5.100000e+00	3.667375e+04	
103	5.150000e+00	3.703522e+04	
104	5.200000e+00	3.739375e+04	
105	5.250000e+00	3.774937e+04	
106	5.300000e+00	3.810212e+04	
107	5.350000e+00	3.845202e+04	
108	5.400000e+00	3.879911e+04	
109	5.450000e+00	3.914343e+04	
110	5.500000e+00	3.948500e+04	
111	5.550000e+00	3.982386e+04	
112	5.600000e+00	4.016004e+04	

Index   v-sweep         rds             
--------------------------------------------------------------------------------
113	5.650000e+00	4.049357e+04	
114	5.700000e+00	4.082448e+04	
115	5.750000e+00	4.115280e+04	
116	5.800000e+00	4.147855e+04	
117	5.850000e+00	4.180178e+04	
118	5.900000e+00	4.212250e+04	
119	5.950000e+00	4.244074e+04	
120	6.000000e+00	4.275654e+04	
121	6.050000e+00	4.306992e+04	
122	6.100000e+00	4.338091e+04	
123	6.150000e+00	4.368952e+04	
124	6.200000e+00	4.399580e+04	
125	6.250000e+00	4.429977e+04	
126	6.300000e+00	4.460145e+04	
127	6.350000e+00	4.490086e+04	
128	6.400000e+00	4.519803e+04	
129	6.450000e+00	4.549300e+04	
130	6.500000e+00	4.578577e+04	
131	6.550000e+00	4.607637e+04	
132	6.600000e+00	4.636484e+04	
Reset re-loads circuit ***************************

Circuit: ***************************

Doing analysis at TEMP = 25.000000 and TNOM = 25.000000


No. of Data Rows : 133
                          ***************************
                          DC transfer characteristic  Mon Jan  9 13:57:42  2023
--------------------------------------------------------------------------------
Index   v-sweep         rds             
--------------------------------------------------------------------------------
0	0.000000e+00	3.410144e+02	
1	5.000000e-02	3.532614e+02	
2	1.000000e-01	3.659972e+02	
3	1.500000e-01	3.792494e+02	
4	2.000000e-01	3.930480e+02	
5	2.500000e-01	4.074256e+02	
6	3.000000e-01	4.224181e+02	
7	3.500000e-01	4.380643e+02	
8	4.000000e-01	4.544073e+02	
9	4.500000e-01	4.714943e+02	
10	5.000000e-01	4.893771e+02	
11	5.500000e-01	5.081130e+02	
12	6.000000e-01	5.277651e+02	
13	6.500000e-01	5.484026e+02	
14	7.000000e-01	5.701023e+02	
15	7.500000e-01	5.929486e+02	
16	8.000000e-01	6.170350e+02	
17	8.500000e-01	6.424651e+02	
18	9.000000e-01	6.693540e+02	
19	9.500000e-01	6.978303e+02	
20	1.000000e+00	7.280382e+02	
21	1.050000e+00	7.601405e+02	
22	1.100000e+00	7.943229e+02	
23	1.150000e+00	8.307995e+02	
24	1.200000e+00	8.698208e+02	
25	1.250000e+00	9.116861e+02	
26	1.300000e+00	9.567621e+02	
27	1.350000e+00	1.005512e+03	
28	1.400000e+00	1.058547e+03	
29	1.450000e+00	1.116708e+03	
30	1.500000e+00	1.181206e+03	
31	1.550000e+00	1.253868e+03	
32	1.600000e+00	1.337524e+03	
33	1.650000e+00	1.436573e+03	
34	1.700000e+00	1.557603e+03	
35	1.750000e+00	1.709587e+03	
36	1.800000e+00	1.902729e+03	
37	1.850000e+00	2.145512e+03	
38	1.900000e+00	2.441295e+03	
39	1.950000e+00	2.787126e+03	
40	2.000000e+00	3.175541e+03	
41	2.050000e+00	3.597495e+03	
42	2.100000e+00	4.044508e+03	
43	2.150000e+00	4.509592e+03	
44	2.200000e+00	4.987356e+03	
45	2.250000e+00	5.473771e+03	
46	2.300000e+00	5.965862e+03	
47	2.350000e+00	6.461437e+03	
48	2.400000e+00	6.958870e+03	
49	2.450000e+00	7.456948e+03	
50	2.500000e+00	7.954760e+03	
51	2.550000e+00	8.451611e+03	
52	2.600000e+00	8.946970e+03	
53	2.650000e+00	9.440427e+03	
54	2.700000e+00	9.931664e+03	

Index   v-sweep         rds             
--------------------------------------------------------------------------------
55	2.750000e+00	1.042043e+04	
56	2.800000e+00	1.090654e+04	
57	2.850000e+00	1.138984e+04	
58	2.900000e+00	1.187020e+04	
59	2.950000e+00	1.234754e+04	
60	3.000000e+00	1.282179e+04	
61	3.050000e+00	1.329289e+04	
62	3.100000e+00	1.376080e+04	
63	3.150000e+00	1.422549e+04	
64	3.200000e+00	1.468695e+04	
65	3.250000e+00	1.514516e+04	
66	3.300000e+00	1.560011e+04	
67	3.350000e+00	1.605181e+04	
68	3.400000e+00	1.650027e+04	
69	3.450000e+00	1.694548e+04	
70	3.500000e+00	1.738746e+04	
71	3.550000e+00	1.782623e+04	
72	3.600000e+00	1.826179e+04	
73	3.650000e+00	1.869417e+04	
74	3.700000e+00	1.912339e+04	
75	3.750000e+00	1.954946e+04	
76	3.800000e+00	1.997242e+04	
77	3.850000e+00	2.039227e+04	
78	3.900000e+00	2.080905e+04	
79	3.950000e+00	2.122278e+04	
80	4.000000e+00	2.163348e+04	
81	4.050000e+00	2.204118e+04	
82	4.100000e+00	2.244590e+04	
83	4.150000e+00	2.284768e+04	
84	4.200000e+00	2.324653e+04	
85	4.250000e+00	2.364247e+04	
86	4.300000e+00	2.403555e+04	
87	4.350000e+00	2.442578e+04	
88	4.400000e+00	2.481319e+04	
89	4.450000e+00	2.519780e+04	
90	4.500000e+00	2.557965e+04	
91	4.550000e+00	2.595875e+04	
92	4.600000e+00	2.633513e+04	
93	4.650000e+00	2.670882e+04	
94	4.700000e+00	2.707985e+04	
95	4.750000e+00	2.744823e+04	
96	4.800000e+00	2.781400e+04	
97	4.850000e+00	2.817718e+04	
98	4.900000e+00	2.853780e+04	
99	4.950000e+00	2.889587e+04	
100	5.000000e+00	2.925143e+04	
101	5.050000e+00	2.960449e+04	
102	5.100000e+00	2.995509e+04	
103	5.150000e+00	3.030324e+04	
104	5.200000e+00	3.064898e+04	
105	5.250000e+00	3.099231e+04	
106	5.300000e+00	3.133327e+04	
107	5.350000e+00	3.167188e+04	
108	5.400000e+00	3.200816e+04	
109	5.450000e+00	3.234214e+04	
110	5.500000e+00	3.267383e+04	
111	5.550000e+00	3.300326e+04	
112	5.600000e+00	3.333046e+04	

Index   v-sweep         rds             
--------------------------------------------------------------------------------
113	5.650000e+00	3.365543e+04	
114	5.700000e+00	3.397821e+04	
115	5.750000e+00	3.429881e+04	
116	5.800000e+00	3.461725e+04	
117	5.850000e+00	3.493356e+04	
118	5.900000e+00	3.524776e+04	
119	5.950000e+00	3.555987e+04	
120	6.000000e+00	3.586990e+04	
121	6.050000e+00	3.617788e+04	
122	6.100000e+00	3.648382e+04	
123	6.150000e+00	3.678775e+04	
124	6.200000e+00	3.708968e+04	
125	6.250000e+00	3.738964e+04	
126	6.300000e+00	3.768763e+04	
127	6.350000e+00	3.798369e+04	
128	6.400000e+00	3.827783e+04	
129	6.450000e+00	3.857006e+04	
130	6.500000e+00	3.886041e+04	
131	6.550000e+00	3.914889e+04	
132	6.600000e+00	3.943552e+04	
Reset re-loads circuit ***************************

Circuit: ***************************

Note: No ".plot", ".print", or ".fourier" lines; no simulations run
