
Note: Compatibility modes selected: hs

Warning: m=xx on .subckt line will override multiplier m hierarchy!


Circuit: ***************************

Doing analysis at TEMP = 25.000000 and TNOM = 25.000000


No. of Data Rows : 133
                          ***************************
                          DC transfer characteristic  Mon Jan  9 13:57:42  2023
--------------------------------------------------------------------------------
Index   v-sweep         rds             
--------------------------------------------------------------------------------
0	0.000000e+00	1.840904e+04	
1	5.000000e-02	2.441448e+04	
2	1.000000e-01	3.533203e+04	
3	1.500000e-01	5.888335e+04	
4	2.000000e-01	1.130364e+05	
5	2.500000e-01	1.978526e+05	
6	3.000000e-01	2.770164e+05	
7	3.500000e-01	3.409539e+05	
8	4.000000e-01	3.948794e+05	
9	4.500000e-01	4.423913e+05	
10	5.000000e-01	4.852624e+05	
11	5.500000e-01	5.244420e+05	
12	6.000000e-01	5.605160e+05	
13	6.500000e-01	5.938933e+05	
14	7.000000e-01	6.248850e+05	
15	7.500000e-01	6.537423e+05	
16	8.000000e-01	6.806751e+05	
17	8.500000e-01	7.058632e+05	
18	9.000000e-01	7.294627e+05	
19	9.500000e-01	7.516110e+05	
20	1.000000e+00	7.724298e+05	
21	1.050000e+00	7.920273e+05	
22	1.100000e+00	8.105005e+05	
23	1.150000e+00	8.279366e+05	
24	1.200000e+00	8.444141e+05	
25	1.250000e+00	8.600038e+05	
26	1.300000e+00	8.747701e+05	
27	1.350000e+00	8.887716e+05	
28	1.400000e+00	9.020612e+05	
29	1.450000e+00	9.146877e+05	
30	1.500000e+00	9.266953e+05	
31	1.550000e+00	9.381246e+05	
32	1.600000e+00	9.490130e+05	
33	1.650000e+00	9.593946e+05	
34	1.700000e+00	9.693010e+05	
35	1.750000e+00	9.787611e+05	
36	1.800000e+00	9.878018e+05	
37	1.850000e+00	9.964479e+05	
38	1.900000e+00	1.004722e+06	
39	1.950000e+00	1.012646e+06	
40	2.000000e+00	1.020239e+06	
41	2.050000e+00	1.027520e+06	
42	2.100000e+00	1.034505e+06	
43	2.150000e+00	1.041211e+06	
44	2.200000e+00	1.047652e+06	
45	2.250000e+00	1.053842e+06	
46	2.300000e+00	1.059794e+06	
47	2.350000e+00	1.065520e+06	
48	2.400000e+00	1.071031e+06	
49	2.450000e+00	1.076339e+06	
50	2.500000e+00	1.081452e+06	
51	2.550000e+00	1.086380e+06	
52	2.600000e+00	1.091132e+06	
53	2.650000e+00	1.095716e+06	
54	2.700000e+00	1.100140e+06	

Index   v-sweep         rds             
--------------------------------------------------------------------------------
55	2.750000e+00	1.104411e+06	
56	2.800000e+00	1.108536e+06	
57	2.850000e+00	1.112521e+06	
58	2.900000e+00	1.116374e+06	
59	2.950000e+00	1.120098e+06	
60	3.000000e+00	1.123700e+06	
61	3.050000e+00	1.127186e+06	
62	3.100000e+00	1.130559e+06	
63	3.150000e+00	1.133825e+06	
64	3.200000e+00	1.136988e+06	
65	3.250000e+00	1.140052e+06	
66	3.300000e+00	1.143021e+06	
67	3.350000e+00	1.145899e+06	
68	3.400000e+00	1.148689e+06	
69	3.450000e+00	1.151395e+06	
70	3.500000e+00	1.154020e+06	
71	3.550000e+00	1.156567e+06	
72	3.600000e+00	1.159040e+06	
73	3.650000e+00	1.161440e+06	
74	3.700000e+00	1.163770e+06	
75	3.750000e+00	1.166034e+06	
76	3.800000e+00	1.168233e+06	
77	3.850000e+00	1.170369e+06	
78	3.900000e+00	1.172446e+06	
79	3.950000e+00	1.174465e+06	
80	4.000000e+00	1.176428e+06	
81	4.050000e+00	1.178336e+06	
82	4.100000e+00	1.180193e+06	
83	4.150000e+00	1.181999e+06	
84	4.200000e+00	1.183757e+06	
85	4.250000e+00	1.185467e+06	
86	4.300000e+00	1.187132e+06	
87	4.350000e+00	1.188753e+06	
88	4.400000e+00	1.190331e+06	
89	4.450000e+00	1.191868e+06	
90	4.500000e+00	1.193365e+06	
91	4.550000e+00	1.194824e+06	
92	4.600000e+00	1.196245e+06	
93	4.650000e+00	1.197629e+06	
94	4.700000e+00	1.198979e+06	
95	4.750000e+00	1.200294e+06	
96	4.800000e+00	1.201576e+06	
97	4.850000e+00	1.202826e+06	
98	4.900000e+00	1.204045e+06	
99	4.950000e+00	1.205234e+06	
100	5.000000e+00	1.206394e+06	
101	5.050000e+00	1.207525e+06	
102	5.100000e+00	1.208628e+06	
103	5.150000e+00	1.209705e+06	
104	5.200000e+00	1.210756e+06	
105	5.250000e+00	1.211781e+06	
106	5.300000e+00	1.212782e+06	
107	5.350000e+00	1.213759e+06	
108	5.400000e+00	1.214712e+06	
109	5.450000e+00	1.215643e+06	
110	5.500000e+00	1.216552e+06	
111	5.550000e+00	1.217440e+06	
112	5.600000e+00	1.218307e+06	

Index   v-sweep         rds             
--------------------------------------------------------------------------------
113	5.650000e+00	1.219153e+06	
114	5.700000e+00	1.219980e+06	
115	5.750000e+00	1.220788e+06	
116	5.800000e+00	1.221577e+06	
117	5.850000e+00	1.222347e+06	
118	5.900000e+00	1.223100e+06	
119	5.950000e+00	1.223836e+06	
120	6.000000e+00	1.224555e+06	
121	6.050000e+00	1.225258e+06	
122	6.100000e+00	1.225944e+06	
123	6.150000e+00	1.226616e+06	
124	6.200000e+00	1.227271e+06	
125	6.250000e+00	1.227913e+06	
126	6.300000e+00	1.228539e+06	
127	6.350000e+00	1.229152e+06	
128	6.400000e+00	1.229751e+06	
129	6.450000e+00	1.230336e+06	
130	6.500000e+00	1.230909e+06	
131	6.550000e+00	1.231469e+06	
132	6.600000e+00	1.232016e+06	
Reset re-loads circuit ***************************

Circuit: ***************************

Doing analysis at TEMP = 25.000000 and TNOM = 25.000000


No. of Data Rows : 133
                          ***************************
                          DC transfer characteristic  Mon Jan  9 13:57:42  2023
--------------------------------------------------------------------------------
Index   v-sweep         rds             
--------------------------------------------------------------------------------
0	0.000000e+00	4.859732e+03	
1	5.000000e-02	5.274841e+03	
2	1.000000e-01	5.747972e+03	
3	1.500000e-01	6.292040e+03	
4	2.000000e-01	6.924091e+03	
5	2.500000e-01	7.667072e+03	
6	3.000000e-01	8.552585e+03	
7	3.500000e-01	9.625283e+03	
8	4.000000e-01	1.095014e+04	
9	4.500000e-01	1.262478e+04	
10	5.000000e-01	1.480045e+04	
11	5.500000e-01	1.771484e+04	
12	6.000000e-01	2.172448e+04	
13	6.500000e-01	2.725709e+04	
14	7.000000e-01	3.454940e+04	
15	7.500000e-01	4.336443e+04	
16	8.000000e-01	5.315656e+04	
17	8.500000e-01	6.343469e+04	
18	9.000000e-01	7.388719e+04	
19	9.500000e-01	8.434083e+04	
20	1.000000e+00	9.470241e+04	
21	1.050000e+00	1.049217e+05	
22	1.100000e+00	1.149716e+05	
23	1.150000e+00	1.248379e+05	
24	1.200000e+00	1.345136e+05	
25	1.250000e+00	1.439962e+05	
26	1.300000e+00	1.532856e+05	
27	1.350000e+00	1.623837e+05	
28	1.400000e+00	1.712931e+05	
29	1.450000e+00	1.800174e+05	
30	1.500000e+00	1.885603e+05	
31	1.550000e+00	1.969260e+05	
32	1.600000e+00	2.051185e+05	
33	1.650000e+00	2.131422e+05	
34	1.700000e+00	2.210014e+05	
35	1.750000e+00	2.287002e+05	
36	1.800000e+00	2.362428e+05	
37	1.850000e+00	2.436334e+05	
38	1.900000e+00	2.508760e+05	
39	1.950000e+00	2.579744e+05	
40	2.000000e+00	2.649326e+05	
41	2.050000e+00	2.717541e+05	
42	2.100000e+00	2.784428e+05	
43	2.150000e+00	2.850019e+05	
44	2.200000e+00	2.914351e+05	
45	2.250000e+00	2.977455e+05	
46	2.300000e+00	3.039365e+05	
47	2.350000e+00	3.100110e+05	
48	2.400000e+00	3.159721e+05	
49	2.450000e+00	3.218229e+05	
50	2.500000e+00	3.275659e+05	
51	2.550000e+00	3.332042e+05	
52	2.600000e+00	3.387402e+05	
53	2.650000e+00	3.441765e+05	
54	2.700000e+00	3.495158e+05	

Index   v-sweep         rds             
--------------------------------------------------------------------------------
55	2.750000e+00	3.547603e+05	
56	2.800000e+00	3.599125e+05	
57	2.850000e+00	3.649746e+05	
58	2.900000e+00	3.699488e+05	
59	2.950000e+00	3.748373e+05	
60	3.000000e+00	3.796421e+05	
61	3.050000e+00	3.843652e+05	
62	3.100000e+00	3.890086e+05	
63	3.150000e+00	3.935743e+05	
64	3.200000e+00	3.980639e+05	
65	3.250000e+00	4.024793e+05	
66	3.300000e+00	4.068223e+05	
67	3.350000e+00	4.110944e+05	
68	3.400000e+00	4.152974e+05	
69	3.450000e+00	4.194328e+05	
70	3.500000e+00	4.235021e+05	
71	3.550000e+00	4.275069e+05	
72	3.600000e+00	4.314485e+05	
73	3.650000e+00	4.353284e+05	
74	3.700000e+00	4.391480e+05	
75	3.750000e+00	4.429085e+05	
76	3.800000e+00	4.466114e+05	
77	3.850000e+00	4.502577e+05	
78	3.900000e+00	4.538488e+05	
79	3.950000e+00	4.573858e+05	
80	4.000000e+00	4.608699e+05	
81	4.050000e+00	4.643022e+05	
82	4.100000e+00	4.676837e+05	
83	4.150000e+00	4.710157e+05	
84	4.200000e+00	4.742990e+05	
85	4.250000e+00	4.775347e+05	
86	4.300000e+00	4.807238e+05	
87	4.350000e+00	4.838672e+05	
88	4.400000e+00	4.869659e+05	
89	4.450000e+00	4.900207e+05	
90	4.500000e+00	4.930325e+05	
91	4.550000e+00	4.960023e+05	
92	4.600000e+00	4.989307e+05	
93	4.650000e+00	5.018188e+05	
94	4.700000e+00	5.046671e+05	
95	4.750000e+00	5.074766e+05	
96	4.800000e+00	5.102479e+05	
97	4.850000e+00	5.129819e+05	
98	4.900000e+00	5.156791e+05	
99	4.950000e+00	5.183404e+05	
100	5.000000e+00	5.209664e+05	
101	5.050000e+00	5.235577e+05	
102	5.100000e+00	5.261150e+05	
103	5.150000e+00	5.286390e+05	
104	5.200000e+00	5.311303e+05	
105	5.250000e+00	5.335894e+05	
106	5.300000e+00	5.360170e+05	
107	5.350000e+00	5.384136e+05	
108	5.400000e+00	5.407798e+05	
109	5.450000e+00	5.431162e+05	
110	5.500000e+00	5.454233e+05	
111	5.550000e+00	5.477015e+05	
112	5.600000e+00	5.499515e+05	

Index   v-sweep         rds             
--------------------------------------------------------------------------------
113	5.650000e+00	5.521736e+05	
114	5.700000e+00	5.543685e+05	
115	5.750000e+00	5.565366e+05	
116	5.800000e+00	5.586783e+05	
117	5.850000e+00	5.607941e+05	
118	5.900000e+00	5.628845e+05	
119	5.950000e+00	5.649498e+05	
120	6.000000e+00	5.669906e+05	
121	6.050000e+00	5.690071e+05	
122	6.100000e+00	5.709999e+05	
123	6.150000e+00	5.729694e+05	
124	6.200000e+00	5.749159e+05	
125	6.250000e+00	5.768397e+05	
126	6.300000e+00	5.787414e+05	
127	6.350000e+00	5.806212e+05	
128	6.400000e+00	5.824795e+05	
129	6.450000e+00	5.843167e+05	
130	6.500000e+00	5.861330e+05	
131	6.550000e+00	5.879289e+05	
132	6.600000e+00	5.897046e+05	
Reset re-loads circuit ***************************

Circuit: ***************************

Doing analysis at TEMP = 25.000000 and TNOM = 25.000000


No. of Data Rows : 133
                          ***************************
                          DC transfer characteristic  Mon Jan  9 13:57:42  2023
--------------------------------------------------------------------------------
Index   v-sweep         rds             
--------------------------------------------------------------------------------
0	0.000000e+00	3.130040e+03	
1	5.000000e-02	3.310907e+03	
2	1.000000e-01	3.506331e+03	
3	1.500000e-01	3.718100e+03	
4	2.000000e-01	3.948309e+03	
5	2.500000e-01	4.199437e+03	
6	3.000000e-01	4.474435e+03	
7	3.500000e-01	4.776843e+03	
8	4.000000e-01	5.110944e+03	
9	4.500000e-01	5.481968e+03	
10	5.000000e-01	5.896376e+03	
11	5.500000e-01	6.362255e+03	
12	6.000000e-01	6.889904e+03	
13	6.500000e-01	7.492722e+03	
14	7.000000e-01	8.188635e+03	
15	7.500000e-01	9.002523e+03	
16	8.000000e-01	9.970563e+03	
17	8.500000e-01	1.114819e+04	
18	9.000000e-01	1.262376e+04	
19	9.500000e-01	1.453614e+04	
20	1.000000e+00	1.707560e+04	
21	1.050000e+00	2.042472e+04	
22	1.100000e+00	2.464583e+04	
23	1.150000e+00	2.963466e+04	
24	1.200000e+00	3.519554e+04	
25	1.250000e+00	4.113633e+04	
26	1.300000e+00	4.730986e+04	
27	1.350000e+00	5.361486e+04	
28	1.400000e+00	5.998437e+04	
29	1.450000e+00	6.637436e+04	
30	1.500000e+00	7.275574e+04	
31	1.550000e+00	7.910897e+04	
32	1.600000e+00	8.542083e+04	
33	1.650000e+00	9.168227e+04	
34	1.700000e+00	9.788704e+04	
35	1.750000e+00	1.040309e+05	
36	1.800000e+00	1.101108e+05	
37	1.850000e+00	1.161250e+05	
38	1.900000e+00	1.220723e+05	
39	1.950000e+00	1.279518e+05	
40	2.000000e+00	1.337633e+05	
41	2.050000e+00	1.395069e+05	
42	2.100000e+00	1.451827e+05	
43	2.150000e+00	1.507912e+05	
44	2.200000e+00	1.563327e+05	
45	2.250000e+00	1.618081e+05	
46	2.300000e+00	1.672178e+05	
47	2.350000e+00	1.725628e+05	
48	2.400000e+00	1.778437e+05	
49	2.450000e+00	1.830615e+05	
50	2.500000e+00	1.882168e+05	
51	2.550000e+00	1.933107e+05	
52	2.600000e+00	1.983439e+05	
53	2.650000e+00	2.033174e+05	
54	2.700000e+00	2.082320e+05	

Index   v-sweep         rds             
--------------------------------------------------------------------------------
55	2.750000e+00	2.130885e+05	
56	2.800000e+00	2.178879e+05	
57	2.850000e+00	2.226311e+05	
58	2.900000e+00	2.273188e+05	
59	2.950000e+00	2.319520e+05	
60	3.000000e+00	2.365314e+05	
61	3.050000e+00	2.410579e+05	
62	3.100000e+00	2.455323e+05	
63	3.150000e+00	2.499555e+05	
64	3.200000e+00	2.543281e+05	
65	3.250000e+00	2.586511e+05	
66	3.300000e+00	2.629252e+05	
67	3.350000e+00	2.671511e+05	
68	3.400000e+00	2.713295e+05	
69	3.450000e+00	2.754613e+05	
70	3.500000e+00	2.795471e+05	
71	3.550000e+00	2.835877e+05	
72	3.600000e+00	2.875837e+05	
73	3.650000e+00	2.915358e+05	
74	3.700000e+00	2.954448e+05	
75	3.750000e+00	2.993112e+05	
76	3.800000e+00	3.031357e+05	
77	3.850000e+00	3.069189e+05	
78	3.900000e+00	3.106616e+05	
79	3.950000e+00	3.143642e+05	
80	4.000000e+00	3.180274e+05	
81	4.050000e+00	3.216518e+05	
82	4.100000e+00	3.252380e+05	
83	4.150000e+00	3.287865e+05	
84	4.200000e+00	3.322979e+05	
85	4.250000e+00	3.357727e+05	
86	4.300000e+00	3.392115e+05	
87	4.350000e+00	3.426149e+05	
88	4.400000e+00	3.459833e+05	
89	4.450000e+00	3.493172e+05	
90	4.500000e+00	3.526172e+05	
91	4.550000e+00	3.558837e+05	
92	4.600000e+00	3.591173e+05	
93	4.650000e+00	3.623184e+05	
94	4.700000e+00	3.654874e+05	
95	4.750000e+00	3.686248e+05	
96	4.800000e+00	3.717312e+05	
97	4.850000e+00	3.748068e+05	
98	4.900000e+00	3.778522e+05	
99	4.950000e+00	3.808678e+05	
100	5.000000e+00	3.838540e+05	
101	5.050000e+00	3.868112e+05	
102	5.100000e+00	3.897398e+05	
103	5.150000e+00	3.926402e+05	
104	5.200000e+00	3.955129e+05	
105	5.250000e+00	3.983581e+05	
106	5.300000e+00	4.011762e+05	
107	5.350000e+00	4.039677e+05	
108	5.400000e+00	4.067329e+05	
109	5.450000e+00	4.094721e+05	
110	5.500000e+00	4.121857e+05	
111	5.550000e+00	4.148741e+05	
112	5.600000e+00	4.175375e+05	

Index   v-sweep         rds             
--------------------------------------------------------------------------------
113	5.650000e+00	4.201764e+05	
114	5.700000e+00	4.227910e+05	
115	5.750000e+00	4.253816e+05	
116	5.800000e+00	4.279487e+05	
117	5.850000e+00	4.304924e+05	
118	5.900000e+00	4.330131e+05	
119	5.950000e+00	4.355111e+05	
120	6.000000e+00	4.379868e+05	
121	6.050000e+00	4.404402e+05	
122	6.100000e+00	4.428719e+05	
123	6.150000e+00	4.452820e+05	
124	6.200000e+00	4.476708e+05	
125	6.250000e+00	4.500386e+05	
126	6.300000e+00	4.523857e+05	
127	6.350000e+00	4.547123e+05	
128	6.400000e+00	4.570187e+05	
129	6.450000e+00	4.593051e+05	
130	6.500000e+00	4.615719e+05	
131	6.550000e+00	4.638191e+05	
132	6.600000e+00	4.660471e+05	
Reset re-loads circuit ***************************

Circuit: ***************************

Doing analysis at TEMP = 25.000000 and TNOM = 25.000000


No. of Data Rows : 133
                          ***************************
                          DC transfer characteristic  Mon Jan  9 13:57:42  2023
--------------------------------------------------------------------------------
Index   v-sweep         rds             
--------------------------------------------------------------------------------
0	0.000000e+00	2.472160e+03	
1	5.000000e-02	2.585023e+03	
2	1.000000e-01	2.704398e+03	
3	1.500000e-01	2.830845e+03	
4	2.000000e-01	2.964987e+03	
5	2.500000e-01	3.107530e+03	
6	3.000000e-01	3.259272e+03	
7	3.500000e-01	3.421118e+03	
8	4.000000e-01	3.594102e+03	
9	4.500000e-01	3.779405e+03	
10	5.000000e-01	3.978386e+03	
11	5.500000e-01	4.192611e+03	
12	6.000000e-01	4.423896e+03	
13	6.500000e-01	4.674360e+03	
14	7.000000e-01	4.946497e+03	
15	7.500000e-01	5.243268e+03	
16	8.000000e-01	5.568236e+03	
17	8.500000e-01	5.925754e+03	
18	9.000000e-01	6.321264e+03	
19	9.500000e-01	6.761752e+03	
20	1.000000e+00	7.256531e+03	
21	1.050000e+00	7.818598e+03	
22	1.100000e+00	8.467079e+03	
23	1.150000e+00	9.231595e+03	
24	1.200000e+00	1.015950e+04	
25	1.250000e+00	1.132535e+04	
26	1.300000e+00	1.283583e+04	
27	1.350000e+00	1.481338e+04	
28	1.400000e+00	1.734890e+04	
29	1.450000e+00	2.045387e+04	
30	1.500000e+00	2.405927e+04	
31	1.550000e+00	2.805657e+04	
32	1.600000e+00	3.233806e+04	
33	1.650000e+00	3.681579e+04	
34	1.700000e+00	4.142423e+04	
35	1.750000e+00	4.611647e+04	
36	1.800000e+00	5.085935e+04	
37	1.850000e+00	5.562936e+04	
38	1.900000e+00	6.040973e+04	
39	1.950000e+00	6.518836e+04	
40	2.000000e+00	6.995640e+04	
41	2.050000e+00	7.470733e+04	
42	2.100000e+00	7.943628e+04	
43	2.150000e+00	8.413961e+04	
44	2.200000e+00	8.881457e+04	
45	2.250000e+00	9.345909e+04	
46	2.300000e+00	9.807158e+04	
47	2.350000e+00	1.026509e+05	
48	2.400000e+00	1.071961e+05	
49	2.450000e+00	1.117067e+05	
50	2.500000e+00	1.161820e+05	
51	2.550000e+00	1.206220e+05	
52	2.600000e+00	1.250263e+05	
53	2.650000e+00	1.293949e+05	
54	2.700000e+00	1.337277e+05	

Index   v-sweep         rds             
--------------------------------------------------------------------------------
55	2.750000e+00	1.380249e+05	
56	2.800000e+00	1.422865e+05	
57	2.850000e+00	1.465128e+05	
58	2.900000e+00	1.507037e+05	
59	2.950000e+00	1.548597e+05	
60	3.000000e+00	1.589810e+05	
61	3.050000e+00	1.630676e+05	
62	3.100000e+00	1.671201e+05	
63	3.150000e+00	1.711386e+05	
64	3.200000e+00	1.751234e+05	
65	3.250000e+00	1.790749e+05	
66	3.300000e+00	1.829934e+05	
67	3.350000e+00	1.868791e+05	
68	3.400000e+00	1.907324e+05	
69	3.450000e+00	1.945536e+05	
70	3.500000e+00	1.983430e+05	
71	3.550000e+00	2.021010e+05	
72	3.600000e+00	2.058279e+05	
73	3.650000e+00	2.095240e+05	
74	3.700000e+00	2.131896e+05	
75	3.750000e+00	2.168251e+05	
76	3.800000e+00	2.204307e+05	
77	3.850000e+00	2.240069e+05	
78	3.900000e+00	2.275539e+05	
79	3.950000e+00	2.310720e+05	
80	4.000000e+00	2.345616e+05	
81	4.050000e+00	2.380229e+05	
82	4.100000e+00	2.414563e+05	
83	4.150000e+00	2.448620e+05	
84	4.200000e+00	2.482405e+05	
85	4.250000e+00	2.515919e+05	
86	4.300000e+00	2.549166e+05	
87	4.350000e+00	2.582148e+05	
88	4.400000e+00	2.614869e+05	
89	4.450000e+00	2.647331e+05	
90	4.500000e+00	2.679538e+05	
91	4.550000e+00	2.711491e+05	
92	4.600000e+00	2.743195e+05	
93	4.650000e+00	2.774650e+05	
94	4.700000e+00	2.805862e+05	
95	4.750000e+00	2.836831e+05	
96	4.800000e+00	2.867560e+05	
97	4.850000e+00	2.898053e+05	
98	4.900000e+00	2.928311e+05	
99	4.950000e+00	2.958338e+05	
100	5.000000e+00	2.988135e+05	
101	5.050000e+00	3.017706e+05	
102	5.100000e+00	3.047052e+05	
103	5.150000e+00	3.076176e+05	
104	5.200000e+00	3.105081e+05	
105	5.250000e+00	3.133769e+05	
106	5.300000e+00	3.162242e+05	
107	5.350000e+00	3.190502e+05	
108	5.400000e+00	3.218552e+05	
109	5.450000e+00	3.246394e+05	
110	5.500000e+00	3.274030e+05	
111	5.550000e+00	3.301462e+05	
112	5.600000e+00	3.328693e+05	

Index   v-sweep         rds             
--------------------------------------------------------------------------------
113	5.650000e+00	3.355724e+05	
114	5.700000e+00	3.382558e+05	
115	5.750000e+00	3.409197e+05	
116	5.800000e+00	3.435642e+05	
117	5.850000e+00	3.461897e+05	
118	5.900000e+00	3.487962e+05	
119	5.950000e+00	3.513840e+05	
120	6.000000e+00	3.539532e+05	
121	6.050000e+00	3.565041e+05	
122	6.100000e+00	3.590369e+05	
123	6.150000e+00	3.615517e+05	
124	6.200000e+00	3.640487e+05	
125	6.250000e+00	3.665281e+05	
126	6.300000e+00	3.689901e+05	
127	6.350000e+00	3.714348e+05	
128	6.400000e+00	3.738625e+05	
129	6.450000e+00	3.762733e+05	
130	6.500000e+00	3.786673e+05	
131	6.550000e+00	3.810448e+05	
132	6.600000e+00	3.834059e+05	
Reset re-loads circuit ***************************

Circuit: ***************************

Doing analysis at TEMP = 25.000000 and TNOM = 25.000000


No. of Data Rows : 133
                          ***************************
                          DC transfer characteristic  Mon Jan  9 13:57:42  2023
--------------------------------------------------------------------------------
Index   v-sweep         rds             
--------------------------------------------------------------------------------
0	0.000000e+00	2.150574e+03	
1	5.000000e-02	2.232448e+03	
2	1.000000e-01	2.318026e+03	
3	1.500000e-01	2.407553e+03	
4	2.000000e-01	2.501295e+03	
5	2.500000e-01	2.599544e+03	
6	3.000000e-01	2.702623e+03	
7	3.500000e-01	2.810888e+03	
8	4.000000e-01	2.924733e+03	
9	4.500000e-01	3.044597e+03	
10	5.000000e-01	3.170967e+03	
11	5.500000e-01	3.304385e+03	
12	6.000000e-01	3.445455e+03	
13	6.500000e-01	3.594854e+03	
14	7.000000e-01	3.753340e+03	
15	7.500000e-01	3.921765e+03	
16	8.000000e-01	4.101092e+03	
17	8.500000e-01	4.292411e+03	
18	9.000000e-01	4.496970e+03	
19	9.500000e-01	4.716200e+03	
20	1.000000e+00	4.951766e+03	
21	1.050000e+00	5.205625e+03	
22	1.100000e+00	5.480117e+03	
23	1.150000e+00	5.778094e+03	
24	1.200000e+00	6.103134e+03	
25	1.250000e+00	6.459873e+03	
26	1.300000e+00	6.854574e+03	
27	1.350000e+00	7.296105e+03	
28	1.400000e+00	7.797618e+03	
29	1.450000e+00	8.379390e+03	
30	1.500000e+00	9.073200e+03	
31	1.550000e+00	9.927758e+03	
32	1.600000e+00	1.101182e+04	
33	1.650000e+00	1.240740e+04	
34	1.700000e+00	1.418680e+04	
35	1.750000e+00	1.638293e+04	
36	1.800000e+00	1.897653e+04	
37	1.850000e+00	2.190979e+04	
38	1.900000e+00	2.511109e+04	
39	1.950000e+00	2.851316e+04	
40	2.000000e+00	3.206080e+04	
41	2.050000e+00	3.571165e+04	
42	2.100000e+00	3.943420e+04	
43	2.150000e+00	4.320526e+04	
44	2.200000e+00	4.700777e+04	
45	2.250000e+00	5.082910e+04	
46	2.300000e+00	5.465981e+04	
47	2.350000e+00	5.849279e+04	
48	2.400000e+00	6.232262e+04	
49	2.450000e+00	6.614514e+04	
50	2.500000e+00	6.995710e+04	
51	2.550000e+00	7.375597e+04	
52	2.600000e+00	7.753979e+04	
53	2.650000e+00	8.130696e+04	
54	2.700000e+00	8.505625e+04	

Index   v-sweep         rds             
--------------------------------------------------------------------------------
55	2.750000e+00	8.878667e+04	
56	2.800000e+00	9.249743e+04	
57	2.850000e+00	9.618792e+04	
58	2.900000e+00	9.985764e+04	
59	2.950000e+00	1.035062e+05	
60	3.000000e+00	1.071334e+05	
61	3.050000e+00	1.107388e+05	
62	3.100000e+00	1.143225e+05	
63	3.150000e+00	1.178842e+05	
64	3.200000e+00	1.214239e+05	
65	3.250000e+00	1.249415e+05	
66	3.300000e+00	1.284372e+05	
67	3.350000e+00	1.319108e+05	
68	3.400000e+00	1.353624e+05	
69	3.450000e+00	1.387921e+05	
70	3.500000e+00	1.421999e+05	
71	3.550000e+00	1.455860e+05	
72	3.600000e+00	1.489504e+05	
73	3.650000e+00	1.522933e+05	
74	3.700000e+00	1.556147e+05	
75	3.750000e+00	1.589148e+05	
76	3.800000e+00	1.621937e+05	
77	3.850000e+00	1.654516e+05	
78	3.900000e+00	1.686886e+05	
79	3.950000e+00	1.719048e+05	
80	4.000000e+00	1.751004e+05	
81	4.050000e+00	1.782755e+05	
82	4.100000e+00	1.814303e+05	
83	4.150000e+00	1.845649e+05	
84	4.200000e+00	1.876795e+05	
85	4.250000e+00	1.907743e+05	
86	4.300000e+00	1.938493e+05	
87	4.350000e+00	1.969047e+05	
88	4.400000e+00	1.999408e+05	
89	4.450000e+00	2.029576e+05	
90	4.500000e+00	2.059554e+05	
91	4.550000e+00	2.089342e+05	
92	4.600000e+00	2.118942e+05	
93	4.650000e+00	2.148356e+05	
94	4.700000e+00	2.177585e+05	
95	4.750000e+00	2.206631e+05	
96	4.800000e+00	2.235495e+05	
97	4.850000e+00	2.264179e+05	
98	4.900000e+00	2.292685e+05	
99	4.950000e+00	2.321013e+05	
100	5.000000e+00	2.349166e+05	
101	5.050000e+00	2.377144e+05	
102	5.100000e+00	2.404950e+05	
103	5.150000e+00	2.432585e+05	
104	5.200000e+00	2.460049e+05	
105	5.250000e+00	2.487346e+05	
106	5.300000e+00	2.514475e+05	
107	5.350000e+00	2.541439e+05	
108	5.400000e+00	2.568238e+05	
109	5.450000e+00	2.594875e+05	
110	5.500000e+00	2.621350e+05	
111	5.550000e+00	2.647666e+05	
112	5.600000e+00	2.673822e+05	

Index   v-sweep         rds             
--------------------------------------------------------------------------------
113	5.650000e+00	2.699822e+05	
114	5.700000e+00	2.725665e+05	
115	5.750000e+00	2.751354e+05	
116	5.800000e+00	2.776889e+05	
117	5.850000e+00	2.802272e+05	
118	5.900000e+00	2.827504e+05	
119	5.950000e+00	2.852587e+05	
120	6.000000e+00	2.877521e+05	
121	6.050000e+00	2.902308e+05	
122	6.100000e+00	2.926950e+05	
123	6.150000e+00	2.951447e+05	
124	6.200000e+00	2.975800e+05	
125	6.250000e+00	3.000011e+05	
126	6.300000e+00	3.024081e+05	
127	6.350000e+00	3.048012e+05	
128	6.400000e+00	3.071803e+05	
129	6.450000e+00	3.095457e+05	
130	6.500000e+00	3.118975e+05	
131	6.550000e+00	3.142357e+05	
132	6.600000e+00	3.165605e+05	
Reset re-loads circuit ***************************

Circuit: ***************************

Doing analysis at TEMP = 25.000000 and TNOM = 25.000000


No. of Data Rows : 133
                          ***************************
                          DC transfer characteristic  Mon Jan  9 13:57:42  2023
--------------------------------------------------------------------------------
Index   v-sweep         rds             
--------------------------------------------------------------------------------
0	0.000000e+00	1.978651e+03	
1	5.000000e-02	2.043079e+03	
2	1.000000e-01	2.109904e+03	
3	1.500000e-01	2.179253e+03	
4	2.000000e-01	2.251263e+03	
5	2.500000e-01	2.326082e+03	
6	3.000000e-01	2.403871e+03	
7	3.500000e-01	2.484804e+03	
8	4.000000e-01	2.569071e+03	
9	4.500000e-01	2.656877e+03	
10	5.000000e-01	2.748447e+03	
11	5.500000e-01	2.844029e+03	
12	6.000000e-01	2.943889e+03	
13	6.500000e-01	3.048322e+03	
14	7.000000e-01	3.157648e+03	
15	7.500000e-01	3.272220e+03	
16	8.000000e-01	3.392424e+03	
17	8.500000e-01	3.518684e+03	
18	9.000000e-01	3.651466e+03	
19	9.500000e-01	3.791288e+03	
20	1.000000e+00	3.938718e+03	
21	1.050000e+00	4.094392e+03	
22	1.100000e+00	4.259018e+03	
23	1.150000e+00	4.433391e+03	
24	1.200000e+00	4.618414e+03	
25	1.250000e+00	4.815114e+03	
26	1.300000e+00	5.024679e+03	
27	1.350000e+00	5.248501e+03	
28	1.400000e+00	5.488246e+03	
29	1.450000e+00	5.745945e+03	
30	1.500000e+00	6.024161e+03	
31	1.550000e+00	6.326229e+03	
32	1.600000e+00	6.656674e+03	
33	1.650000e+00	7.021889e+03	
34	1.700000e+00	7.431260e+03	
35	1.750000e+00	7.898978e+03	
36	1.800000e+00	8.446710e+03	
37	1.850000e+00	9.106891e+03	
38	1.900000e+00	9.925081e+03	
39	1.950000e+00	1.095772e+04	
40	2.000000e+00	1.226125e+04	
41	2.050000e+00	1.387416e+04	
42	2.100000e+00	1.580288e+04	
43	2.150000e+00	1.802190e+04	
44	2.200000e+00	2.048624e+04	
45	2.250000e+00	2.314585e+04	
46	2.300000e+00	2.595494e+04	
47	2.350000e+00	2.887569e+04	
48	2.400000e+00	3.187852e+04	
49	2.450000e+00	3.494089e+04	
50	2.500000e+00	3.804578e+04	
51	2.550000e+00	4.118037e+04	
52	2.600000e+00	4.433495e+04	
53	2.650000e+00	4.750213e+04	
54	2.700000e+00	5.067620e+04	

Index   v-sweep         rds             
--------------------------------------------------------------------------------
55	2.750000e+00	5.385276e+04	
56	2.800000e+00	5.702833e+04	
57	2.850000e+00	6.020021e+04	
58	2.900000e+00	6.336620e+04	
59	2.950000e+00	6.652458e+04	
60	3.000000e+00	6.967394e+04	
61	3.050000e+00	7.281315e+04	
62	3.100000e+00	7.594128e+04	
63	3.150000e+00	7.905757e+04	
64	3.200000e+00	8.216141e+04	
65	3.250000e+00	8.525230e+04	
66	3.300000e+00	8.832982e+04	
67	3.350000e+00	9.139364e+04	
68	3.400000e+00	9.444347e+04	
69	3.450000e+00	9.747910e+04	
70	3.500000e+00	1.005003e+05	
71	3.550000e+00	1.035071e+05	
72	3.600000e+00	1.064992e+05	
73	3.650000e+00	1.094766e+05	
74	3.700000e+00	1.124392e+05	
75	3.750000e+00	1.153870e+05	
76	3.800000e+00	1.183199e+05	
77	3.850000e+00	1.212380e+05	
78	3.900000e+00	1.241413e+05	
79	3.950000e+00	1.270297e+05	
80	4.000000e+00	1.299034e+05	
81	4.050000e+00	1.327622e+05	
82	4.100000e+00	1.356064e+05	
83	4.150000e+00	1.384359e+05	
84	4.200000e+00	1.412507e+05	
85	4.250000e+00	1.440509e+05	
86	4.300000e+00	1.468367e+05	
87	4.350000e+00	1.496080e+05	
88	4.400000e+00	1.523649e+05	
89	4.450000e+00	1.551075e+05	
90	4.500000e+00	1.578358e+05	
91	4.550000e+00	1.605500e+05	
92	4.600000e+00	1.632501e+05	
93	4.650000e+00	1.659362e+05	
94	4.700000e+00	1.686084e+05	
95	4.750000e+00	1.712667e+05	
96	4.800000e+00	1.739113e+05	
97	4.850000e+00	1.765421e+05	
98	4.900000e+00	1.791594e+05	
99	4.950000e+00	1.817631e+05	
100	5.000000e+00	1.843535e+05	
101	5.050000e+00	1.869304e+05	
102	5.100000e+00	1.894941e+05	
103	5.150000e+00	1.920447e+05	
104	5.200000e+00	1.945821e+05	
105	5.250000e+00	1.971066e+05	
106	5.300000e+00	1.996181e+05	
107	5.350000e+00	2.021167e+05	
108	5.400000e+00	2.046027e+05	
109	5.450000e+00	2.070759e+05	
110	5.500000e+00	2.095366e+05	
111	5.550000e+00	2.119848e+05	
112	5.600000e+00	2.144206e+05	

Index   v-sweep         rds             
--------------------------------------------------------------------------------
113	5.650000e+00	2.168440e+05	
114	5.700000e+00	2.192552e+05	
115	5.750000e+00	2.216542e+05	
116	5.800000e+00	2.240411e+05	
117	5.850000e+00	2.264161e+05	
118	5.900000e+00	2.287791e+05	
119	5.950000e+00	2.311303e+05	
120	6.000000e+00	2.334697e+05	
121	6.050000e+00	2.357975e+05	
122	6.100000e+00	2.381137e+05	
123	6.150000e+00	2.404183e+05	
124	6.200000e+00	2.427115e+05	
125	6.250000e+00	2.449934e+05	
126	6.300000e+00	2.472640e+05	
127	6.350000e+00	2.495234e+05	
128	6.400000e+00	2.517716e+05	
129	6.450000e+00	2.540088e+05	
130	6.500000e+00	2.562351e+05	
131	6.550000e+00	2.584504e+05	
132	6.600000e+00	2.606549e+05	
Reset re-loads circuit ***************************

Circuit: ***************************

Note: No ".plot", ".print", or ".fourier" lines; no simulations run
