
Note: Compatibility modes selected: hs

Warning: m=xx on .subckt line will override multiplier m hierarchy!


Circuit: ***************************

Doing analysis at TEMP = 125.000000 and TNOM = 125.000000


No. of Data Rows : 133
                          ***************************
                          DC transfer characteristic  Mon Jan  9 13:57:43  2023
--------------------------------------------------------------------------------
Index   v-sweep         rds             
--------------------------------------------------------------------------------
0	0.000000e+00	1.544552e+04	
1	5.000000e-02	1.876686e+04	
2	1.000000e-01	2.367724e+04	
3	1.500000e-01	3.156519e+04	
4	2.000000e-01	4.560885e+04	
5	2.500000e-01	7.221319e+04	
6	3.000000e-01	1.143065e+05	
7	3.500000e-01	1.565678e+05	
8	4.000000e-01	1.883991e+05	
9	4.500000e-01	2.128086e+05	
10	5.000000e-01	2.331753e+05	
11	5.500000e-01	2.510844e+05	
12	6.000000e-01	2.672514e+05	
13	6.500000e-01	2.820434e+05	
14	7.000000e-01	2.956801e+05	
15	7.500000e-01	3.083122e+05	
16	8.000000e-01	3.200529e+05	
17	8.500000e-01	3.309936e+05	
18	9.000000e-01	3.412106e+05	
19	9.500000e-01	3.507695e+05	
20	1.000000e+00	3.597274e+05	
21	1.050000e+00	3.681350e+05	
22	1.100000e+00	3.760372e+05	
23	1.150000e+00	3.834741e+05	
24	1.200000e+00	3.904819e+05	
25	1.250000e+00	3.970932e+05	
26	1.300000e+00	4.033373e+05	
27	1.350000e+00	4.092410e+05	
28	1.400000e+00	4.148286e+05	
29	1.450000e+00	4.201222e+05	
30	1.500000e+00	4.251420e+05	
31	1.550000e+00	4.299064e+05	
32	1.600000e+00	4.344323e+05	
33	1.650000e+00	4.387353e+05	
34	1.700000e+00	4.428296e+05	
35	1.750000e+00	4.467282e+05	
36	1.800000e+00	4.504434e+05	
37	1.850000e+00	4.539862e+05	
38	1.900000e+00	4.573670e+05	
39	1.950000e+00	4.605953e+05	
40	2.000000e+00	4.636799e+05	
41	2.050000e+00	4.666291e+05	
42	2.100000e+00	4.694505e+05	
43	2.150000e+00	4.721511e+05	
44	2.200000e+00	4.747376e+05	
45	2.250000e+00	4.772161e+05	
46	2.300000e+00	4.795924e+05	
47	2.350000e+00	4.818717e+05	
48	2.400000e+00	4.840592e+05	
49	2.450000e+00	4.861594e+05	
50	2.500000e+00	4.881768e+05	
51	2.550000e+00	4.901155e+05	
52	2.600000e+00	4.919794e+05	
53	2.650000e+00	4.937720e+05	
54	2.700000e+00	4.954967e+05	

Index   v-sweep         rds             
--------------------------------------------------------------------------------
55	2.750000e+00	4.971569e+05	
56	2.800000e+00	4.987554e+05	
57	2.850000e+00	5.002952e+05	
58	2.900000e+00	5.017789e+05	
59	2.950000e+00	5.032090e+05	
60	3.000000e+00	5.045879e+05	
61	3.050000e+00	5.059179e+05	
62	3.100000e+00	5.072011e+05	
63	3.150000e+00	5.084394e+05	
64	3.200000e+00	5.096349e+05	
65	3.250000e+00	5.107894e+05	
66	3.300000e+00	5.119044e+05	
67	3.350000e+00	5.129817e+05	
68	3.400000e+00	5.140229e+05	
69	3.450000e+00	5.150292e+05	
70	3.500000e+00	5.160023e+05	
71	3.550000e+00	5.169433e+05	
72	3.600000e+00	5.178535e+05	
73	3.650000e+00	5.187342e+05	
74	3.700000e+00	5.195864e+05	
75	3.750000e+00	5.204113e+05	
76	3.800000e+00	5.212098e+05	
77	3.850000e+00	5.219831e+05	
78	3.900000e+00	5.227319e+05	
79	3.950000e+00	5.234573e+05	
80	4.000000e+00	5.241600e+05	
81	4.050000e+00	5.248409e+05	
82	4.100000e+00	5.255007e+05	
83	4.150000e+00	5.261403e+05	
84	4.200000e+00	5.267603e+05	
85	4.250000e+00	5.273614e+05	
86	4.300000e+00	5.279442e+05	
87	4.350000e+00	5.285095e+05	
88	4.400000e+00	5.290578e+05	
89	4.450000e+00	5.295896e+05	
90	4.500000e+00	5.301056e+05	
91	4.550000e+00	5.306062e+05	
92	4.600000e+00	5.310920e+05	
93	4.650000e+00	5.315634e+05	
94	4.700000e+00	5.320210e+05	
95	4.750000e+00	5.324651e+05	
96	4.800000e+00	5.328962e+05	
97	4.850000e+00	5.333148e+05	
98	4.900000e+00	5.337211e+05	
99	4.950000e+00	5.341157e+05	
100	5.000000e+00	5.344988e+05	
101	5.050000e+00	5.348709e+05	
102	5.100000e+00	5.352322e+05	
103	5.150000e+00	5.355832e+05	
104	5.200000e+00	5.359240e+05	
105	5.250000e+00	5.362551e+05	
106	5.300000e+00	5.365768e+05	
107	5.350000e+00	5.368892e+05	
108	5.400000e+00	5.371927e+05	
109	5.450000e+00	5.374875e+05	
110	5.500000e+00	5.377740e+05	
111	5.550000e+00	5.380523e+05	
112	5.600000e+00	5.383226e+05	

Index   v-sweep         rds             
--------------------------------------------------------------------------------
113	5.650000e+00	5.385853e+05	
114	5.700000e+00	5.388406e+05	
115	5.750000e+00	5.390886e+05	
116	5.800000e+00	5.393295e+05	
117	5.850000e+00	5.395636e+05	
118	5.900000e+00	5.397911e+05	
119	5.950000e+00	5.400121e+05	
120	6.000000e+00	5.402268e+05	
121	6.050000e+00	5.404355e+05	
122	6.100000e+00	5.406382e+05	
123	6.150000e+00	5.408351e+05	
124	6.200000e+00	5.410265e+05	
125	6.250000e+00	5.412124e+05	
126	6.300000e+00	5.413930e+05	
127	6.350000e+00	5.415684e+05	
128	6.400000e+00	5.417388e+05	
129	6.450000e+00	5.419043e+05	
130	6.500000e+00	5.420651e+05	
131	6.550000e+00	5.422213e+05	
132	6.600000e+00	5.423730e+05	
Reset re-loads circuit ***************************

Circuit: ***************************

Doing analysis at TEMP = 125.000000 and TNOM = 125.000000


No. of Data Rows : 133
                          ***************************
                          DC transfer characteristic  Mon Jan  9 13:57:43  2023
--------------------------------------------------------------------------------
Index   v-sweep         rds             
--------------------------------------------------------------------------------
0	0.000000e+00	5.290043e+03	
1	5.000000e-02	5.692593e+03	
2	1.000000e-01	6.145567e+03	
3	1.500000e-01	6.658942e+03	
4	2.000000e-01	7.245493e+03	
5	2.500000e-01	7.921837e+03	
6	3.000000e-01	8.709947e+03	
7	3.500000e-01	9.639425e+03	
8	4.000000e-01	1.075095e+04	
9	4.500000e-01	1.210153e+04	
10	5.000000e-01	1.377250e+04	
11	5.500000e-01	1.588062e+04	
12	6.000000e-01	1.858969e+04	
13	6.500000e-01	2.210656e+04	
14	7.000000e-01	2.661577e+04	
15	7.500000e-01	3.211685e+04	
16	8.000000e-01	3.832184e+04	
17	8.500000e-01	4.483803e+04	
18	9.000000e-01	5.139685e+04	
19	9.500000e-01	5.787261e+04	
20	1.000000e+00	6.421524e+04	
21	1.050000e+00	7.040587e+04	
22	1.100000e+00	7.643827e+04	
23	1.150000e+00	8.231171e+04	
24	1.200000e+00	8.802805e+04	
25	1.250000e+00	9.359051e+04	
26	1.300000e+00	9.900299e+04	
27	1.350000e+00	1.042698e+05	
28	1.400000e+00	1.093952e+05	
29	1.450000e+00	1.143839e+05	
30	1.500000e+00	1.192401e+05	
31	1.550000e+00	1.239684e+05	
32	1.600000e+00	1.285729e+05	
33	1.650000e+00	1.330578e+05	
34	1.700000e+00	1.374272e+05	
35	1.750000e+00	1.416849e+05	
36	1.800000e+00	1.458347e+05	
37	1.850000e+00	1.498802e+05	
38	1.900000e+00	1.538250e+05	
39	1.950000e+00	1.576723e+05	
40	2.000000e+00	1.614254e+05	
41	2.050000e+00	1.650875e+05	
42	2.100000e+00	1.686614e+05	
43	2.150000e+00	1.721502e+05	
44	2.200000e+00	1.755564e+05	
45	2.250000e+00	1.788828e+05	
46	2.300000e+00	1.821320e+05	
47	2.350000e+00	1.853063e+05	
48	2.400000e+00	1.884082e+05	
49	2.450000e+00	1.914399e+05	
50	2.500000e+00	1.944035e+05	
51	2.550000e+00	1.973012e+05	
52	2.600000e+00	2.001350e+05	
53	2.650000e+00	2.029069e+05	
54	2.700000e+00	2.056186e+05	

Index   v-sweep         rds             
--------------------------------------------------------------------------------
55	2.750000e+00	2.082720e+05	
56	2.800000e+00	2.108688e+05	
57	2.850000e+00	2.134107e+05	
58	2.900000e+00	2.158993e+05	
59	2.950000e+00	2.183361e+05	
60	3.000000e+00	2.207226e+05	
61	3.050000e+00	2.230602e+05	
62	3.100000e+00	2.253504e+05	
63	3.150000e+00	2.275945e+05	
64	3.200000e+00	2.297937e+05	
65	3.250000e+00	2.319493e+05	
66	3.300000e+00	2.340625e+05	
67	3.350000e+00	2.361344e+05	
68	3.400000e+00	2.381662e+05	
69	3.450000e+00	2.401590e+05	
70	3.500000e+00	2.421137e+05	
71	3.550000e+00	2.440314e+05	
72	3.600000e+00	2.459131e+05	
73	3.650000e+00	2.477597e+05	
74	3.700000e+00	2.495721e+05	
75	3.750000e+00	2.513512e+05	
76	3.800000e+00	2.530978e+05	
77	3.850000e+00	2.548129e+05	
78	3.900000e+00	2.564970e+05	
79	3.950000e+00	2.581511e+05	
80	4.000000e+00	2.597759e+05	
81	4.050000e+00	2.613721e+05	
82	4.100000e+00	2.629404e+05	
83	4.150000e+00	2.644815e+05	
84	4.200000e+00	2.659960e+05	
85	4.250000e+00	2.674847e+05	
86	4.300000e+00	2.689480e+05	
87	4.350000e+00	2.703866e+05	
88	4.400000e+00	2.718010e+05	
89	4.450000e+00	2.731919e+05	
90	4.500000e+00	2.745598e+05	
91	4.550000e+00	2.759053e+05	
92	4.600000e+00	2.772287e+05	
93	4.650000e+00	2.785307e+05	
94	4.700000e+00	2.798117e+05	
95	4.750000e+00	2.810722e+05	
96	4.800000e+00	2.823126e+05	
97	4.850000e+00	2.835334e+05	
98	4.900000e+00	2.847351e+05	
99	4.950000e+00	2.859180e+05	
100	5.000000e+00	2.870826e+05	
101	5.050000e+00	2.882292e+05	
102	5.100000e+00	2.893582e+05	
103	5.150000e+00	2.904701e+05	
104	5.200000e+00	2.915651e+05	
105	5.250000e+00	2.926437e+05	
106	5.300000e+00	2.937061e+05	
107	5.350000e+00	2.947528e+05	
108	5.400000e+00	2.957840e+05	
109	5.450000e+00	2.968000e+05	
110	5.500000e+00	2.978013e+05	
111	5.550000e+00	2.987880e+05	
112	5.600000e+00	2.997605e+05	

Index   v-sweep         rds             
--------------------------------------------------------------------------------
113	5.650000e+00	3.007190e+05	
114	5.700000e+00	3.016639e+05	
115	5.750000e+00	3.025954e+05	
116	5.800000e+00	3.035137e+05	
117	5.850000e+00	3.044192e+05	
118	5.900000e+00	3.053121e+05	
119	5.950000e+00	3.061926e+05	
120	6.000000e+00	3.070610e+05	
121	6.050000e+00	3.079175e+05	
122	6.100000e+00	3.087623e+05	
123	6.150000e+00	3.095957e+05	
124	6.200000e+00	3.104178e+05	
125	6.250000e+00	3.112289e+05	
126	6.300000e+00	3.120293e+05	
127	6.350000e+00	3.128190e+05	
128	6.400000e+00	3.135983e+05	
129	6.450000e+00	3.143674e+05	
130	6.500000e+00	3.151264e+05	
131	6.550000e+00	3.158757e+05	
132	6.600000e+00	3.166152e+05	
Reset re-loads circuit ***************************

Circuit: ***************************

Doing analysis at TEMP = 125.000000 and TNOM = 125.000000


No. of Data Rows : 133
                          ***************************
                          DC transfer characteristic  Mon Jan  9 13:57:43  2023
--------------------------------------------------------------------------------
Index   v-sweep         rds             
--------------------------------------------------------------------------------
0	0.000000e+00	3.555834e+03	
1	5.000000e-02	3.742074e+03	
2	1.000000e-01	3.942334e+03	
3	1.500000e-01	4.158221e+03	
4	2.000000e-01	4.391603e+03	
5	2.500000e-01	4.644658e+03	
6	3.000000e-01	4.919942e+03	
7	3.500000e-01	5.220477e+03	
8	4.000000e-01	5.549855e+03	
9	4.500000e-01	5.912382e+03	
10	5.000000e-01	6.313253e+03	
11	5.500000e-01	6.758797e+03	
12	6.000000e-01	7.256795e+03	
13	6.500000e-01	7.816913e+03	
14	7.000000e-01	8.451302e+03	
15	7.500000e-01	9.175424e+03	
16	8.000000e-01	1.000922e+04	
17	8.500000e-01	1.097876e+04	
18	9.000000e-01	1.211856e+04	
19	9.500000e-01	1.347454e+04	
20	1.000000e+00	1.510700e+04	
21	1.050000e+00	1.708953e+04	
22	1.100000e+00	1.949450e+04	
23	1.150000e+00	2.235670e+04	
24	1.200000e+00	2.563791e+04	
25	1.250000e+00	2.923705e+04	
26	1.300000e+00	3.303858e+04	
27	1.350000e+00	3.694877e+04	
28	1.400000e+00	4.090374e+04	
29	1.450000e+00	4.486317e+04	
30	1.500000e+00	4.880239e+04	
31	1.550000e+00	5.270634e+04	
32	1.600000e+00	5.656581e+04	
33	1.650000e+00	6.037524e+04	
34	1.700000e+00	6.413128e+04	
35	1.750000e+00	6.783205e+04	
36	1.800000e+00	7.147659e+04	
37	1.850000e+00	7.506457e+04	
38	1.900000e+00	7.859608e+04	
39	1.950000e+00	8.207152e+04	
40	2.000000e+00	8.549145e+04	
41	2.050000e+00	8.885659e+04	
42	2.100000e+00	9.216776e+04	
43	2.150000e+00	9.542583e+04	
44	2.200000e+00	9.863172e+04	
45	2.250000e+00	1.017864e+05	
46	2.300000e+00	1.048908e+05	
47	2.350000e+00	1.079458e+05	
48	2.400000e+00	1.109525e+05	
49	2.450000e+00	1.139119e+05	
50	2.500000e+00	1.168247e+05	
51	2.550000e+00	1.196921e+05	
52	2.600000e+00	1.225149e+05	
53	2.650000e+00	1.252941e+05	
54	2.700000e+00	1.280305e+05	

Index   v-sweep         rds             
--------------------------------------------------------------------------------
55	2.750000e+00	1.307249e+05	
56	2.800000e+00	1.333783e+05	
57	2.850000e+00	1.359916e+05	
58	2.900000e+00	1.385654e+05	
59	2.950000e+00	1.411007e+05	
60	3.000000e+00	1.435982e+05	
61	3.050000e+00	1.460586e+05	
62	3.100000e+00	1.484828e+05	
63	3.150000e+00	1.508715e+05	
64	3.200000e+00	1.532254e+05	
65	3.250000e+00	1.555451e+05	
66	3.300000e+00	1.578314e+05	
67	3.350000e+00	1.600849e+05	
68	3.400000e+00	1.623063e+05	
69	3.450000e+00	1.644962e+05	
70	3.500000e+00	1.666553e+05	
71	3.550000e+00	1.687841e+05	
72	3.600000e+00	1.708833e+05	
73	3.650000e+00	1.729533e+05	
74	3.700000e+00	1.749948e+05	
75	3.750000e+00	1.770084e+05	
76	3.800000e+00	1.789945e+05	
77	3.850000e+00	1.809537e+05	
78	3.900000e+00	1.828865e+05	
79	3.950000e+00	1.847934e+05	
80	4.000000e+00	1.866749e+05	
81	4.050000e+00	1.885314e+05	
82	4.100000e+00	1.903635e+05	
83	4.150000e+00	1.921715e+05	
84	4.200000e+00	1.939560e+05	
85	4.250000e+00	1.957173e+05	
86	4.300000e+00	1.974559e+05	
87	4.350000e+00	1.991722e+05	
88	4.400000e+00	2.008666e+05	
89	4.450000e+00	2.025395e+05	
90	4.500000e+00	2.041912e+05	
91	4.550000e+00	2.058223e+05	
92	4.600000e+00	2.074329e+05	
93	4.650000e+00	2.090236e+05	
94	4.700000e+00	2.105945e+05	
95	4.750000e+00	2.121462e+05	
96	4.800000e+00	2.136789e+05	
97	4.850000e+00	2.151929e+05	
98	4.900000e+00	2.166886e+05	
99	4.950000e+00	2.181663e+05	
100	5.000000e+00	2.196262e+05	
101	5.050000e+00	2.210688e+05	
102	5.100000e+00	2.224943e+05	
103	5.150000e+00	2.239029e+05	
104	5.200000e+00	2.252950e+05	
105	5.250000e+00	2.266709e+05	
106	5.300000e+00	2.280307e+05	
107	5.350000e+00	2.293749e+05	
108	5.400000e+00	2.307035e+05	
109	5.450000e+00	2.320170e+05	
110	5.500000e+00	2.333155e+05	
111	5.550000e+00	2.345993e+05	
112	5.600000e+00	2.358685e+05	

Index   v-sweep         rds             
--------------------------------------------------------------------------------
113	5.650000e+00	2.371236e+05	
114	5.700000e+00	2.383646e+05	
115	5.750000e+00	2.395918e+05	
116	5.800000e+00	2.408055e+05	
117	5.850000e+00	2.420057e+05	
118	5.900000e+00	2.431929e+05	
119	5.950000e+00	2.443670e+05	
120	6.000000e+00	2.455285e+05	
121	6.050000e+00	2.466774e+05	
122	6.100000e+00	2.478139e+05	
123	6.150000e+00	2.489383e+05	
124	6.200000e+00	2.500507e+05	
125	6.250000e+00	2.511513e+05	
126	6.300000e+00	2.522403e+05	
127	6.350000e+00	2.533178e+05	
128	6.400000e+00	2.543841e+05	
129	6.450000e+00	2.554393e+05	
130	6.500000e+00	2.564836e+05	
131	6.550000e+00	2.575171e+05	
132	6.600000e+00	2.585400e+05	
Reset re-loads circuit ***************************

Circuit: ***************************

Doing analysis at TEMP = 125.000000 and TNOM = 125.000000


No. of Data Rows : 133
                          ***************************
                          DC transfer characteristic  Mon Jan  9 13:57:43  2023
--------------------------------------------------------------------------------
Index   v-sweep         rds             
--------------------------------------------------------------------------------
0	0.000000e+00	2.869830e+03	
1	5.000000e-02	2.988391e+03	
2	1.000000e-01	3.113433e+03	
3	1.500000e-01	3.245484e+03	
4	2.000000e-01	3.385133e+03	
5	2.500000e-01	3.533036e+03	
6	3.000000e-01	3.689932e+03	
7	3.500000e-01	3.856650e+03	
8	4.000000e-01	4.034125e+03	
9	4.500000e-01	4.223418e+03	
10	5.000000e-01	4.425733e+03	
11	5.500000e-01	4.642442e+03	
12	6.000000e-01	4.875119e+03	
13	6.500000e-01	5.125569e+03	
14	7.000000e-01	5.395882e+03	
15	7.500000e-01	5.688481e+03	
16	8.000000e-01	6.006201e+03	
17	8.500000e-01	6.352373e+03	
18	9.000000e-01	6.730950e+03	
19	9.500000e-01	7.146656e+03	
20	1.000000e+00	7.605205e+03	
21	1.050000e+00	8.113593e+03	
22	1.100000e+00	8.680531e+03	
23	1.150000e+00	9.317085e+03	
24	1.200000e+00	1.003769e+04	
25	1.250000e+00	1.086175e+04	
26	1.300000e+00	1.181601e+04	
27	1.350000e+00	1.293748e+04	
28	1.400000e+00	1.427451e+04	
29	1.450000e+00	1.588003e+04	
30	1.500000e+00	1.779166e+04	
31	1.550000e+00	2.000836e+04	
32	1.600000e+00	2.248664e+04	
33	1.650000e+00	2.516076e+04	
34	1.700000e+00	2.796639e+04	
35	1.750000e+00	3.085247e+04	
36	1.800000e+00	3.378256e+04	
37	1.850000e+00	3.673188e+04	
38	1.900000e+00	3.968394e+04	
39	1.950000e+00	4.262770e+04	
40	2.000000e+00	4.555580e+04	
41	2.050000e+00	4.846325e+04	
42	2.100000e+00	5.134667e+04	
43	2.150000e+00	5.420376e+04	
44	2.200000e+00	5.703298e+04	
45	2.250000e+00	5.983330e+04	
46	2.300000e+00	6.260406e+04	
47	2.350000e+00	6.534489e+04	
48	2.400000e+00	6.805558e+04	
49	2.450000e+00	7.073610e+04	
50	2.500000e+00	7.338650e+04	
51	2.550000e+00	7.600692e+04	
52	2.600000e+00	7.859758e+04	
53	2.650000e+00	8.115871e+04	
54	2.700000e+00	8.369060e+04	

Index   v-sweep         rds             
--------------------------------------------------------------------------------
55	2.750000e+00	8.619357e+04	
56	2.800000e+00	8.866794e+04	
57	2.850000e+00	9.111406e+04	
58	2.900000e+00	9.353228e+04	
59	2.950000e+00	9.592297e+04	
60	3.000000e+00	9.828649e+04	
61	3.050000e+00	1.006232e+05	
62	3.100000e+00	1.029335e+05	
63	3.150000e+00	1.052178e+05	
64	3.200000e+00	1.074763e+05	
65	3.250000e+00	1.097096e+05	
66	3.300000e+00	1.119179e+05	
67	3.350000e+00	1.141016e+05	
68	3.400000e+00	1.162611e+05	
69	3.450000e+00	1.183967e+05	
70	3.500000e+00	1.205088e+05	
71	3.550000e+00	1.225977e+05	
72	3.600000e+00	1.246638e+05	
73	3.650000e+00	1.267074e+05	
74	3.700000e+00	1.287288e+05	
75	3.750000e+00	1.307284e+05	
76	3.800000e+00	1.327065e+05	
77	3.850000e+00	1.346634e+05	
78	3.900000e+00	1.365993e+05	
79	3.950000e+00	1.385147e+05	
80	4.000000e+00	1.404099e+05	
81	4.050000e+00	1.422850e+05	
82	4.100000e+00	1.441405e+05	
83	4.150000e+00	1.459765e+05	
84	4.200000e+00	1.477934e+05	
85	4.250000e+00	1.495915e+05	
86	4.300000e+00	1.513710e+05	
87	4.350000e+00	1.531322e+05	
88	4.400000e+00	1.548754e+05	
89	4.450000e+00	1.566008e+05	
90	4.500000e+00	1.583087e+05	
91	4.550000e+00	1.599993e+05	
92	4.600000e+00	1.616728e+05	
93	4.650000e+00	1.633296e+05	
94	4.700000e+00	1.649698e+05	
95	4.750000e+00	1.665937e+05	
96	4.800000e+00	1.682015e+05	
97	4.850000e+00	1.697935e+05	
98	4.900000e+00	1.713698e+05	
99	4.950000e+00	1.729307e+05	
100	5.000000e+00	1.744764e+05	
101	5.050000e+00	1.760070e+05	
102	5.100000e+00	1.775229e+05	
103	5.150000e+00	1.790242e+05	
104	5.200000e+00	1.805111e+05	
105	5.250000e+00	1.819838e+05	
106	5.300000e+00	1.834425e+05	
107	5.350000e+00	1.848874e+05	
108	5.400000e+00	1.863187e+05	
109	5.450000e+00	1.877365e+05	
110	5.500000e+00	1.891411e+05	
111	5.550000e+00	1.905326e+05	
112	5.600000e+00	1.919112e+05	

Index   v-sweep         rds             
--------------------------------------------------------------------------------
113	5.650000e+00	1.932770e+05	
114	5.700000e+00	1.946303e+05	
115	5.750000e+00	1.959711e+05	
116	5.800000e+00	1.972997e+05	
117	5.850000e+00	1.986163e+05	
118	5.900000e+00	1.999209e+05	
119	5.950000e+00	2.012137e+05	
120	6.000000e+00	2.024949e+05	
121	6.050000e+00	2.037647e+05	
122	6.100000e+00	2.050231e+05	
123	6.150000e+00	2.062704e+05	
124	6.200000e+00	2.075066e+05	
125	6.250000e+00	2.087319e+05	
126	6.300000e+00	2.099465e+05	
127	6.350000e+00	2.111505e+05	
128	6.400000e+00	2.123439e+05	
129	6.450000e+00	2.135271e+05	
130	6.500000e+00	2.147000e+05	
131	6.550000e+00	2.158628e+05	
132	6.600000e+00	2.170156e+05	
Reset re-loads circuit ***************************

Circuit: ***************************

Doing analysis at TEMP = 125.000000 and TNOM = 125.000000


No. of Data Rows : 133
                          ***************************
                          DC transfer characteristic  Mon Jan  9 13:57:43  2023
--------------------------------------------------------------------------------
Index   v-sweep         rds             
--------------------------------------------------------------------------------
0	0.000000e+00	2.531952e+03	
1	5.000000e-02	2.618846e+03	
2	1.000000e-01	2.709484e+03	
3	1.500000e-01	2.804104e+03	
4	2.000000e-01	2.902963e+03	
5	2.500000e-01	3.006343e+03	
6	3.000000e-01	3.114551e+03	
7	3.500000e-01	3.227925e+03	
8	4.000000e-01	3.346834e+03	
9	4.500000e-01	3.471686e+03	
10	5.000000e-01	3.602930e+03	
11	5.500000e-01	3.741063e+03	
12	6.000000e-01	3.886633e+03	
13	6.500000e-01	4.040250e+03	
14	7.000000e-01	4.202590e+03	
15	7.500000e-01	4.374408e+03	
16	8.000000e-01	4.556547e+03	
17	8.500000e-01	4.749950e+03	
18	9.000000e-01	4.955679e+03	
19	9.500000e-01	5.174931e+03	
20	1.000000e+00	5.409062e+03	
21	1.050000e+00	5.659618e+03	
22	1.100000e+00	5.928366e+03	
23	1.150000e+00	6.217339e+03	
24	1.200000e+00	6.528901e+03	
25	1.250000e+00	6.865814e+03	
26	1.300000e+00	7.231351e+03	
27	1.350000e+00	7.629440e+03	
28	1.400000e+00	8.064889e+03	
29	1.450000e+00	8.543725e+03	
30	1.500000e+00	9.073734e+03	
31	1.550000e+00	9.665333e+03	
32	1.600000e+00	1.033294e+04	
33	1.650000e+00	1.109686e+04	
34	1.700000e+00	1.198526e+04	
35	1.750000e+00	1.303406e+04	
36	1.800000e+00	1.428115e+04	
37	1.850000e+00	1.575330e+04	
38	1.900000e+00	1.745248e+04	
39	1.950000e+00	1.935359e+04	
40	2.000000e+00	2.141519e+04	
41	2.050000e+00	2.359356e+04	
42	2.100000e+00	2.585128e+04	
43	2.150000e+00	2.815973e+04	
44	2.200000e+00	3.049827e+04	
45	2.250000e+00	3.285236e+04	
46	2.300000e+00	3.521187e+04	
47	2.350000e+00	3.756970e+04	
48	2.400000e+00	3.992085e+04	
49	2.450000e+00	4.226180e+04	
50	2.500000e+00	4.458999e+04	
51	2.550000e+00	4.690361e+04	
52	2.600000e+00	4.920132e+04	
53	2.650000e+00	5.148219e+04	
54	2.700000e+00	5.374553e+04	

Index   v-sweep         rds             
--------------------------------------------------------------------------------
55	2.750000e+00	5.599086e+04	
56	2.800000e+00	5.821783e+04	
57	2.850000e+00	6.042624e+04	
58	2.900000e+00	6.261596e+04	
59	2.950000e+00	6.478691e+04	
60	3.000000e+00	6.693909e+04	
61	3.050000e+00	6.907254e+04	
62	3.100000e+00	7.118730e+04	
63	3.150000e+00	7.328348e+04	
64	3.200000e+00	7.536117e+04	
65	3.250000e+00	7.742052e+04	
66	3.300000e+00	7.946165e+04	
67	3.350000e+00	8.148472e+04	
68	3.400000e+00	8.348989e+04	
69	3.450000e+00	8.547732e+04	
70	3.500000e+00	8.744717e+04	
71	3.550000e+00	8.939963e+04	
72	3.600000e+00	9.133486e+04	
73	3.650000e+00	9.325305e+04	
74	3.700000e+00	9.515438e+04	
75	3.750000e+00	9.703903e+04	
76	3.800000e+00	9.890717e+04	
77	3.850000e+00	1.007590e+05	
78	3.900000e+00	1.025947e+05	
79	3.950000e+00	1.044144e+05	
80	4.000000e+00	1.062183e+05	
81	4.050000e+00	1.080067e+05	
82	4.100000e+00	1.097796e+05	
83	4.150000e+00	1.115372e+05	
84	4.200000e+00	1.132798e+05	
85	4.250000e+00	1.150075e+05	
86	4.300000e+00	1.167204e+05	
87	4.350000e+00	1.184188e+05	
88	4.400000e+00	1.201027e+05	
89	4.450000e+00	1.217725e+05	
90	4.500000e+00	1.234281e+05	
91	4.550000e+00	1.250699e+05	
92	4.600000e+00	1.266979e+05	
93	4.650000e+00	1.283123e+05	
94	4.700000e+00	1.299133e+05	
95	4.750000e+00	1.315010e+05	
96	4.800000e+00	1.330756e+05	
97	4.850000e+00	1.346372e+05	
98	4.900000e+00	1.361860e+05	
99	4.950000e+00	1.377221e+05	
100	5.000000e+00	1.392456e+05	
101	5.050000e+00	1.407568e+05	
102	5.100000e+00	1.422557e+05	
103	5.150000e+00	1.437425e+05	
104	5.200000e+00	1.452173e+05	
105	5.250000e+00	1.466803e+05	
106	5.300000e+00	1.481316e+05	
107	5.350000e+00	1.495713e+05	
108	5.400000e+00	1.509995e+05	
109	5.450000e+00	1.524165e+05	
110	5.500000e+00	1.538222e+05	
111	5.550000e+00	1.552169e+05	
112	5.600000e+00	1.566006e+05	

Index   v-sweep         rds             
--------------------------------------------------------------------------------
113	5.650000e+00	1.579735e+05	
114	5.700000e+00	1.593357e+05	
115	5.750000e+00	1.606874e+05	
116	5.800000e+00	1.620285e+05	
117	5.850000e+00	1.633593e+05	
118	5.900000e+00	1.646799e+05	
119	5.950000e+00	1.659904e+05	
120	6.000000e+00	1.672908e+05	
121	6.050000e+00	1.685813e+05	
122	6.100000e+00	1.698621e+05	
123	6.150000e+00	1.711331e+05	
124	6.200000e+00	1.723946e+05	
125	6.250000e+00	1.736465e+05	
126	6.300000e+00	1.748891e+05	
127	6.350000e+00	1.761224e+05	
128	6.400000e+00	1.773466e+05	
129	6.450000e+00	1.785616e+05	
130	6.500000e+00	1.797677e+05	
131	6.550000e+00	1.809648e+05	
132	6.600000e+00	1.821532e+05	
Reset re-loads circuit ***************************

Circuit: ***************************

Doing analysis at TEMP = 125.000000 and TNOM = 125.000000


No. of Data Rows : 133
                          ***************************
                          DC transfer characteristic  Mon Jan  9 13:57:43  2023
--------------------------------------------------------------------------------
Index   v-sweep         rds             
--------------------------------------------------------------------------------
0	0.000000e+00	2.352906e+03	
1	5.000000e-02	2.421752e+03	
2	1.000000e-01	2.493046e+03	
3	1.500000e-01	2.566914e+03	
4	2.000000e-01	2.643490e+03	
5	2.500000e-01	2.722920e+03	
6	3.000000e-01	2.805360e+03	
7	3.500000e-01	2.890980e+03	
8	4.000000e-01	2.979960e+03	
9	4.500000e-01	3.072498e+03	
10	5.000000e-01	3.168807e+03	
11	5.500000e-01	3.269117e+03	
12	6.000000e-01	3.373678e+03	
13	6.500000e-01	3.482763e+03	
14	7.000000e-01	3.596668e+03	
15	7.500000e-01	3.715714e+03	
16	8.000000e-01	3.840253e+03	
17	8.500000e-01	3.970670e+03	
18	9.000000e-01	4.107383e+03	
19	9.500000e-01	4.250852e+03	
20	1.000000e+00	4.401583e+03	
21	1.050000e+00	4.560132e+03	
22	1.100000e+00	4.727111e+03	
23	1.150000e+00	4.903197e+03	
24	1.200000e+00	5.089144e+03	
25	1.250000e+00	5.285787e+03	
26	1.300000e+00	5.494061e+03	
27	1.350000e+00	5.715014e+03	
28	1.400000e+00	5.949828e+03	
29	1.450000e+00	6.199842e+03	
30	1.500000e+00	6.466587e+03	
31	1.550000e+00	6.751826e+03	
32	1.600000e+00	7.057612e+03	
33	1.650000e+00	7.386372e+03	
34	1.700000e+00	7.741027e+03	
35	1.750000e+00	8.125179e+03	
36	1.800000e+00	8.543395e+03	
37	1.850000e+00	9.001667e+03	
38	1.900000e+00	9.508129e+03	
39	1.950000e+00	1.007410e+04	
40	2.000000e+00	1.071545e+04	
41	2.050000e+00	1.145367e+04	
42	2.100000e+00	1.231536e+04	
43	2.150000e+00	1.332804e+04	
44	2.200000e+00	1.451168e+04	
45	2.250000e+00	1.587020e+04	
46	2.300000e+00	1.738921e+04	
47	2.350000e+00	1.904172e+04	
48	2.400000e+00	2.079682e+04	
49	2.450000e+00	2.262617e+04	
50	2.500000e+00	2.450680e+04	
51	2.550000e+00	2.642127e+04	
52	2.600000e+00	2.835682e+04	
53	2.650000e+00	3.030424e+04	
54	2.700000e+00	3.225690e+04	

Index   v-sweep         rds             
--------------------------------------------------------------------------------
55	2.750000e+00	3.421001e+04	
56	2.800000e+00	3.616010e+04	
57	2.850000e+00	3.810463e+04	
58	2.900000e+00	4.004170e+04	
59	2.950000e+00	4.196993e+04	
60	3.000000e+00	4.388825e+04	
61	3.050000e+00	4.579590e+04	
62	3.100000e+00	4.769226e+04	
63	3.150000e+00	4.957691e+04	
64	3.200000e+00	5.144951e+04	
65	3.250000e+00	5.330982e+04	
66	3.300000e+00	5.515766e+04	
67	3.350000e+00	5.699292e+04	
68	3.400000e+00	5.881551e+04	
69	3.450000e+00	6.062539e+04	
70	3.500000e+00	6.242255e+04	
71	3.550000e+00	6.420699e+04	
72	3.600000e+00	6.597873e+04	
73	3.650000e+00	6.773782e+04	
74	3.700000e+00	6.948430e+04	
75	3.750000e+00	7.121823e+04	
76	3.800000e+00	7.293968e+04	
77	3.850000e+00	7.464873e+04	
78	3.900000e+00	7.634545e+04	
79	3.950000e+00	7.802994e+04	
80	4.000000e+00	7.970227e+04	
81	4.050000e+00	8.136254e+04	
82	4.100000e+00	8.301085e+04	
83	4.150000e+00	8.464728e+04	
84	4.200000e+00	8.627194e+04	
85	4.250000e+00	8.788493e+04	
86	4.300000e+00	8.948634e+04	
87	4.350000e+00	9.107627e+04	
88	4.400000e+00	9.265483e+04	
89	4.450000e+00	9.422211e+04	
90	4.500000e+00	9.577822e+04	
91	4.550000e+00	9.732326e+04	
92	4.600000e+00	9.885733e+04	
93	4.650000e+00	1.003805e+05	
94	4.700000e+00	1.018929e+05	
95	4.750000e+00	1.033947e+05	
96	4.800000e+00	1.048858e+05	
97	4.850000e+00	1.063665e+05	
98	4.900000e+00	1.078369e+05	
99	4.950000e+00	1.092969e+05	
100	5.000000e+00	1.107467e+05	
101	5.050000e+00	1.121865e+05	
102	5.100000e+00	1.136162e+05	
103	5.150000e+00	1.150361e+05	
104	5.200000e+00	1.164461e+05	
105	5.250000e+00	1.178465e+05	
106	5.300000e+00	1.192372e+05	
107	5.350000e+00	1.206183e+05	
108	5.400000e+00	1.219901e+05	
109	5.450000e+00	1.233524e+05	
110	5.500000e+00	1.247055e+05	
111	5.550000e+00	1.260495e+05	
112	5.600000e+00	1.273843e+05	

Index   v-sweep         rds             
--------------------------------------------------------------------------------
113	5.650000e+00	1.287101e+05	
114	5.700000e+00	1.300270e+05	
115	5.750000e+00	1.313350e+05	
116	5.800000e+00	1.326343e+05	
117	5.850000e+00	1.339249e+05	
118	5.900000e+00	1.352070e+05	
119	5.950000e+00	1.364805e+05	
120	6.000000e+00	1.377455e+05	
121	6.050000e+00	1.390022e+05	
122	6.100000e+00	1.402507e+05	
123	6.150000e+00	1.414909e+05	
124	6.200000e+00	1.427230e+05	
125	6.250000e+00	1.439470e+05	
126	6.300000e+00	1.451631e+05	
127	6.350000e+00	1.463712e+05	
128	6.400000e+00	1.475716e+05	
129	6.450000e+00	1.487642e+05	
130	6.500000e+00	1.499490e+05	
131	6.550000e+00	1.511263e+05	
132	6.600000e+00	1.522960e+05	
Reset re-loads circuit ***************************

Circuit: ***************************

Note: No ".plot", ".print", or ".fourier" lines; no simulations run
