
Note: Compatibility modes selected: hs

Warning: m=xx on .subckt line will override multiplier m hierarchy!


Circuit: ***************************

Doing analysis at TEMP = -40.000000 and TNOM = -40.000000


No. of Data Rows : 133
                          ***************************
                          DC transfer characteristic  Mon Jan  9 13:57:42  2023
--------------------------------------------------------------------------------
Index   v-sweep         rds             
--------------------------------------------------------------------------------
0	0.000000e+00	4.086358e+05	
1	5.000000e-02	5.231184e+05	
2	1.000000e-01	7.224854e+05	
3	1.500000e-01	1.138482e+06	
4	2.000000e-01	2.259302e+06	
5	2.500000e-01	5.868101e+06	
6	3.000000e-01	1.561085e+07	
7	3.500000e-01	3.326270e+07	
8	4.000000e-01	5.579965e+07	
9	4.500000e-01	7.871053e+07	
10	5.000000e-01	9.923624e+07	
11	5.500000e-01	1.165444e+08	
12	6.000000e-01	1.308047e+08	
13	6.500000e-01	1.425099e+08	
14	7.000000e-01	1.521716e+08	
15	7.500000e-01	1.602236e+08	
16	8.000000e-01	1.670082e+08	
17	8.500000e-01	1.727880e+08	
18	9.000000e-01	1.777634e+08	
19	9.500000e-01	1.820878e+08	
20	1.000000e+00	1.858793e+08	
21	1.050000e+00	1.892301e+08	
22	1.100000e+00	1.922125e+08	
23	1.150000e+00	1.948841e+08	
24	1.200000e+00	1.972913e+08	
25	1.250000e+00	1.994717e+08	
26	1.300000e+00	2.014560e+08	
27	1.350000e+00	2.032697e+08	
28	1.400000e+00	2.049342e+08	
29	1.450000e+00	2.064672e+08	
30	1.500000e+00	2.078838e+08	
31	1.550000e+00	2.091969e+08	
32	1.600000e+00	2.104176e+08	
33	1.650000e+00	2.115553e+08	
34	1.700000e+00	2.126182e+08	
35	1.750000e+00	2.136136e+08	
36	1.800000e+00	2.145477e+08	
37	1.850000e+00	2.154260e+08	
38	1.900000e+00	2.162535e+08	
39	1.950000e+00	2.170343e+08	
40	2.000000e+00	2.177725e+08	
41	2.050000e+00	2.184713e+08	
42	2.100000e+00	2.191338e+08	
43	2.150000e+00	2.197629e+08	
44	2.200000e+00	2.203609e+08	
45	2.250000e+00	2.209302e+08	
46	2.300000e+00	2.214727e+08	
47	2.350000e+00	2.219903e+08	
48	2.400000e+00	2.224847e+08	
49	2.450000e+00	2.229574e+08	
50	2.500000e+00	2.234098e+08	
51	2.550000e+00	2.238431e+08	
52	2.600000e+00	2.242586e+08	
53	2.650000e+00	2.246573e+08	
54	2.700000e+00	2.250402e+08	

Index   v-sweep         rds             
--------------------------------------------------------------------------------
55	2.750000e+00	2.254083e+08	
56	2.800000e+00	2.257623e+08	
57	2.850000e+00	2.261031e+08	
58	2.900000e+00	2.264313e+08	
59	2.950000e+00	2.267477e+08	
60	3.000000e+00	2.270529e+08	
61	3.050000e+00	2.273475e+08	
62	3.100000e+00	2.276319e+08	
63	3.150000e+00	2.279068e+08	
64	3.200000e+00	2.281726e+08	
65	3.250000e+00	2.284296e+08	
66	3.300000e+00	2.286784e+08	
67	3.350000e+00	2.289194e+08	
68	3.400000e+00	2.291528e+08	
69	3.450000e+00	2.293791e+08	
70	3.500000e+00	2.295985e+08	
71	3.550000e+00	2.298114e+08	
72	3.600000e+00	2.300180e+08	
73	3.650000e+00	2.302187e+08	
74	3.700000e+00	2.304136e+08	
75	3.750000e+00	2.306030e+08	
76	3.800000e+00	2.307871e+08	
77	3.850000e+00	2.309662e+08	
78	3.900000e+00	2.311404e+08	
79	3.950000e+00	2.313100e+08	
80	4.000000e+00	2.314751e+08	
81	4.050000e+00	2.316359e+08	
82	4.100000e+00	2.317925e+08	
83	4.150000e+00	2.319452e+08	
84	4.200000e+00	2.320940e+08	
85	4.250000e+00	2.322391e+08	
86	4.300000e+00	2.323807e+08	
87	4.350000e+00	2.325188e+08	
88	4.400000e+00	2.326536e+08	
89	4.450000e+00	2.327852e+08	
90	4.500000e+00	2.329137e+08	
91	4.550000e+00	2.330393e+08	
92	4.600000e+00	2.331619e+08	
93	4.650000e+00	2.332818e+08	
94	4.700000e+00	2.333990e+08	
95	4.750000e+00	2.335135e+08	
96	4.800000e+00	2.336256e+08	
97	4.850000e+00	2.337352e+08	
98	4.900000e+00	2.338424e+08	
99	4.950000e+00	2.339474e+08	
100	5.000000e+00	2.340501e+08	
101	5.050000e+00	2.341507e+08	
102	5.100000e+00	2.342492e+08	
103	5.150000e+00	2.343457e+08	
104	5.200000e+00	2.344402e+08	
105	5.250000e+00	2.345328e+08	
106	5.300000e+00	2.346236e+08	
107	5.350000e+00	2.347126e+08	
108	5.400000e+00	2.347998e+08	
109	5.450000e+00	2.348854e+08	
110	5.500000e+00	2.349692e+08	
111	5.550000e+00	2.350515e+08	
112	5.600000e+00	2.351323e+08	

Index   v-sweep         rds             
--------------------------------------------------------------------------------
113	5.650000e+00	2.352115e+08	
114	5.700000e+00	2.352893e+08	
115	5.750000e+00	2.353656e+08	
116	5.800000e+00	2.354405e+08	
117	5.850000e+00	2.355141e+08	
118	5.900000e+00	2.355863e+08	
119	5.950000e+00	2.356573e+08	
120	6.000000e+00	2.357270e+08	
121	6.050000e+00	2.357955e+08	
122	6.100000e+00	2.358628e+08	
123	6.150000e+00	2.359289e+08	
124	6.200000e+00	2.359939e+08	
125	6.250000e+00	2.360578e+08	
126	6.300000e+00	2.361207e+08	
127	6.350000e+00	2.361825e+08	
128	6.400000e+00	2.362432e+08	
129	6.450000e+00	2.363030e+08	
130	6.500000e+00	2.363617e+08	
131	6.550000e+00	2.364195e+08	
132	6.600000e+00	2.364764e+08	
Reset re-loads circuit ***************************

Circuit: ***************************

Doing analysis at TEMP = -40.000000 and TNOM = -40.000000


No. of Data Rows : 133
                          ***************************
                          DC transfer characteristic  Mon Jan  9 13:57:42  2023
--------------------------------------------------------------------------------
Index   v-sweep         rds             
--------------------------------------------------------------------------------
0	0.000000e+00	9.272361e+04	
1	5.000000e-02	9.793943e+04	
2	1.000000e-01	1.037441e+05	
3	1.500000e-01	1.102431e+05	
4	2.000000e-01	1.175688e+05	
5	2.500000e-01	1.258893e+05	
6	3.000000e-01	1.354218e+05	
7	3.500000e-01	1.464509e+05	
8	4.000000e-01	1.593579e+05	
9	4.500000e-01	1.746644e+05	
10	5.000000e-01	1.931033e+05	
11	5.500000e-01	2.157348e+05	
12	6.000000e-01	2.441478e+05	
13	6.500000e-01	2.808210e+05	
14	7.000000e-01	3.298030e+05	
15	7.500000e-01	3.980456e+05	
16	8.000000e-01	4.980722e+05	
17	8.500000e-01	6.531493e+05	
18	9.000000e-01	9.057522e+05	
19	9.500000e-01	1.325103e+06	
20	1.000000e+00	1.998042e+06	
21	1.050000e+00	2.991231e+06	
22	1.100000e+00	4.311911e+06	
23	1.150000e+00	5.906530e+06	
24	1.200000e+00	7.690620e+06	
25	1.250000e+00	9.578970e+06	
26	1.300000e+00	1.150162e+07	
27	1.350000e+00	1.340782e+07	
28	1.400000e+00	1.526389e+07	
29	1.450000e+00	1.704936e+07	
30	1.500000e+00	1.875310e+07	
31	1.550000e+00	2.037031e+07	
32	1.600000e+00	2.190029e+07	
33	1.650000e+00	2.334492e+07	
34	1.700000e+00	2.470757e+07	
35	1.750000e+00	2.599245e+07	
36	1.800000e+00	2.720412e+07	
37	1.850000e+00	2.834728e+07	
38	1.900000e+00	2.942651e+07	
39	1.950000e+00	3.044624e+07	
40	2.000000e+00	3.141064e+07	
41	2.050000e+00	3.232361e+07	
42	2.100000e+00	3.318880e+07	
43	2.150000e+00	3.400956e+07	
44	2.200000e+00	3.478900e+07	
45	2.250000e+00	3.552997e+07	
46	2.300000e+00	3.623510e+07	
47	2.350000e+00	3.690680e+07	
48	2.400000e+00	3.754731e+07	
49	2.450000e+00	3.815865e+07	
50	2.500000e+00	3.874271e+07	
51	2.550000e+00	3.930121e+07	
52	2.600000e+00	3.983575e+07	
53	2.650000e+00	4.034780e+07	
54	2.700000e+00	4.083871e+07	

Index   v-sweep         rds             
--------------------------------------------------------------------------------
55	2.750000e+00	4.130973e+07	
56	2.800000e+00	4.176203e+07	
57	2.850000e+00	4.219667e+07	
58	2.900000e+00	4.261466e+07	
59	2.950000e+00	4.301690e+07	
60	3.000000e+00	4.340427e+07	
61	3.050000e+00	4.377756e+07	
62	3.100000e+00	4.413751e+07	
63	3.150000e+00	4.448481e+07	
64	3.200000e+00	4.482012e+07	
65	3.250000e+00	4.514402e+07	
66	3.300000e+00	4.545710e+07	
67	3.350000e+00	4.575987e+07	
68	3.400000e+00	4.605284e+07	
69	3.450000e+00	4.633645e+07	
70	3.500000e+00	4.661116e+07	
71	3.550000e+00	4.687737e+07	
72	3.600000e+00	4.713546e+07	
73	3.650000e+00	4.738580e+07	
74	3.700000e+00	4.762872e+07	
75	3.750000e+00	4.786455e+07	
76	3.800000e+00	4.809360e+07	
77	3.850000e+00	4.831614e+07	
78	3.900000e+00	4.853245e+07	
79	3.950000e+00	4.874279e+07	
80	4.000000e+00	4.894739e+07	
81	4.050000e+00	4.914649e+07	
82	4.100000e+00	4.934031e+07	
83	4.150000e+00	4.952904e+07	
84	4.200000e+00	4.971289e+07	
85	4.250000e+00	4.989204e+07	
86	4.300000e+00	5.006667e+07	
87	4.350000e+00	5.023694e+07	
88	4.400000e+00	5.040302e+07	
89	4.450000e+00	5.056505e+07	
90	4.500000e+00	5.072319e+07	
91	4.550000e+00	5.087757e+07	
92	4.600000e+00	5.102832e+07	
93	4.650000e+00	5.117556e+07	
94	4.700000e+00	5.131943e+07	
95	4.750000e+00	5.146002e+07	
96	4.800000e+00	5.159746e+07	
97	4.850000e+00	5.173184e+07	
98	4.900000e+00	5.186326e+07	
99	4.950000e+00	5.199183e+07	
100	5.000000e+00	5.211763e+07	
101	5.050000e+00	5.224075e+07	
102	5.100000e+00	5.236128e+07	
103	5.150000e+00	5.247929e+07	
104	5.200000e+00	5.259486e+07	
105	5.250000e+00	5.270807e+07	
106	5.300000e+00	5.281899e+07	
107	5.350000e+00	5.292768e+07	
108	5.400000e+00	5.303422e+07	
109	5.450000e+00	5.313866e+07	
110	5.500000e+00	5.324107e+07	
111	5.550000e+00	5.334150e+07	
112	5.600000e+00	5.344001e+07	

Index   v-sweep         rds             
--------------------------------------------------------------------------------
113	5.650000e+00	5.353666e+07	
114	5.700000e+00	5.363149e+07	
115	5.750000e+00	5.372456e+07	
116	5.800000e+00	5.381592e+07	
117	5.850000e+00	5.390561e+07	
118	5.900000e+00	5.399368e+07	
119	5.950000e+00	5.408017e+07	
120	6.000000e+00	5.416512e+07	
121	6.050000e+00	5.424857e+07	
122	6.100000e+00	5.433056e+07	
123	6.150000e+00	5.441113e+07	
124	6.200000e+00	5.449032e+07	
125	6.250000e+00	5.456816e+07	
126	6.300000e+00	5.464468e+07	
127	6.350000e+00	5.471993e+07	
128	6.400000e+00	5.479392e+07	
129	6.450000e+00	5.486669e+07	
130	6.500000e+00	5.493827e+07	
131	6.550000e+00	5.500868e+07	
132	6.600000e+00	5.507797e+07	
Reset re-loads circuit ***************************

Circuit: ***************************

Doing analysis at TEMP = -40.000000 and TNOM = -40.000000


No. of Data Rows : 133
                          ***************************
                          DC transfer characteristic  Mon Jan  9 13:57:42  2023
--------------------------------------------------------------------------------
Index   v-sweep         rds             
--------------------------------------------------------------------------------
0	0.000000e+00	5.588777e+04	
1	5.000000e-02	5.768028e+04	
2	1.000000e-01	5.958050e+04	
3	1.500000e-01	6.159844e+04	
4	2.000000e-01	6.374538e+04	
5	2.500000e-01	6.603409e+04	
6	3.000000e-01	6.847907e+04	
7	3.500000e-01	7.109689e+04	
8	4.000000e-01	7.390653e+04	
9	4.500000e-01	7.692988e+04	
10	5.000000e-01	8.019226e+04	
11	5.500000e-01	8.372319e+04	
12	6.000000e-01	8.755724e+04	
13	6.500000e-01	9.173520e+04	
14	7.000000e-01	9.630550e+04	
15	7.500000e-01	1.013262e+05	
16	8.000000e-01	1.068672e+05	
17	8.500000e-01	1.130140e+05	
18	9.000000e-01	1.198716e+05	
19	9.500000e-01	1.275710e+05	
20	1.000000e+00	1.362774e+05	
21	1.050000e+00	1.462021e+05	
22	1.100000e+00	1.576200e+05	
23	1.150000e+00	1.708949e+05	
24	1.200000e+00	1.865183e+05	
25	1.250000e+00	2.051691e+05	
26	1.300000e+00	2.278088e+05	
27	1.350000e+00	2.558371e+05	
28	1.400000e+00	2.913470e+05	
29	1.450000e+00	3.375495e+05	
30	1.500000e+00	3.994503e+05	
31	1.550000e+00	4.848291e+05	
32	1.600000e+00	6.053126e+05	
33	1.650000e+00	7.766982e+05	
34	1.700000e+00	1.017042e+06	
35	1.750000e+00	1.341902e+06	
36	1.800000e+00	1.759001e+06	
37	1.850000e+00	2.265952e+06	
38	1.900000e+00	2.852049e+06	
39	1.950000e+00	3.502042e+06	
40	2.000000e+00	4.199592e+06	
41	2.050000e+00	4.929482e+06	
42	2.100000e+00	5.678642e+06	
43	2.150000e+00	6.436418e+06	
44	2.200000e+00	7.194436e+06	
45	2.250000e+00	7.946293e+06	
46	2.300000e+00	8.687219e+06	
47	2.350000e+00	9.413750e+06	
48	2.400000e+00	1.012345e+07	
49	2.450000e+00	1.081468e+07	
50	2.500000e+00	1.148641e+07	
51	2.550000e+00	1.213809e+07	
52	2.600000e+00	1.276949e+07	
53	2.650000e+00	1.338067e+07	
54	2.700000e+00	1.397187e+07	

Index   v-sweep         rds             
--------------------------------------------------------------------------------
55	2.750000e+00	1.454347e+07	
56	2.800000e+00	1.509596e+07	
57	2.850000e+00	1.562987e+07	
58	2.900000e+00	1.614582e+07	
59	2.950000e+00	1.664441e+07	
60	3.000000e+00	1.712628e+07	
61	3.050000e+00	1.759207e+07	
62	3.100000e+00	1.804239e+07	
63	3.150000e+00	1.847787e+07	
64	3.200000e+00	1.889911e+07	
65	3.250000e+00	1.930670e+07	
66	3.300000e+00	1.970120e+07	
67	3.350000e+00	2.008315e+07	
68	3.400000e+00	2.045308e+07	
69	3.450000e+00	2.081149e+07	
70	3.500000e+00	2.115885e+07	
71	3.550000e+00	2.149563e+07	
72	3.600000e+00	2.182227e+07	
73	3.650000e+00	2.213918e+07	
74	3.700000e+00	2.244675e+07	
75	3.750000e+00	2.274537e+07	
76	3.800000e+00	2.303541e+07	
77	3.850000e+00	2.331719e+07	
78	3.900000e+00	2.359106e+07	
79	3.950000e+00	2.385732e+07	
80	4.000000e+00	2.411627e+07	
81	4.050000e+00	2.436819e+07	
82	4.100000e+00	2.461336e+07	
83	4.150000e+00	2.485203e+07	
84	4.200000e+00	2.508444e+07	
85	4.250000e+00	2.531083e+07	
86	4.300000e+00	2.553142e+07	
87	4.350000e+00	2.574642e+07	
88	4.400000e+00	2.595604e+07	
89	4.450000e+00	2.616047e+07	
90	4.500000e+00	2.635990e+07	
91	4.550000e+00	2.655449e+07	
92	4.600000e+00	2.674442e+07	
93	4.650000e+00	2.692986e+07	
94	4.700000e+00	2.711094e+07	
95	4.750000e+00	2.728783e+07	
96	4.800000e+00	2.746066e+07	
97	4.850000e+00	2.762956e+07	
98	4.900000e+00	2.779468e+07	
99	4.950000e+00	2.795612e+07	
100	5.000000e+00	2.811401e+07	
101	5.050000e+00	2.826845e+07	
102	5.100000e+00	2.841957e+07	
103	5.150000e+00	2.856747e+07	
104	5.200000e+00	2.871224e+07	
105	5.250000e+00	2.885398e+07	
106	5.300000e+00	2.899278e+07	
107	5.350000e+00	2.912874e+07	
108	5.400000e+00	2.926193e+07	
109	5.450000e+00	2.939245e+07	
110	5.500000e+00	2.952036e+07	
111	5.550000e+00	2.964574e+07	
112	5.600000e+00	2.976868e+07	

Index   v-sweep         rds             
--------------------------------------------------------------------------------
113	5.650000e+00	2.988923e+07	
114	5.700000e+00	3.000746e+07	
115	5.750000e+00	3.012344e+07	
116	5.800000e+00	3.023724e+07	
117	5.850000e+00	3.034891e+07	
118	5.900000e+00	3.045851e+07	
119	5.950000e+00	3.056610e+07	
120	6.000000e+00	3.067173e+07	
121	6.050000e+00	3.077545e+07	
122	6.100000e+00	3.087732e+07	
123	6.150000e+00	3.097738e+07	
124	6.200000e+00	3.107569e+07	
125	6.250000e+00	3.117227e+07	
126	6.300000e+00	3.126719e+07	
127	6.350000e+00	3.136048e+07	
128	6.400000e+00	3.145218e+07	
129	6.450000e+00	3.154234e+07	
130	6.500000e+00	3.163098e+07	
131	6.550000e+00	3.171816e+07	
132	6.600000e+00	3.180390e+07	
Reset re-loads circuit ***************************

Circuit: ***************************

Doing analysis at TEMP = -40.000000 and TNOM = -40.000000


No. of Data Rows : 133
                          ***************************
                          DC transfer characteristic  Mon Jan  9 13:57:42  2023
--------------------------------------------------------------------------------
Index   v-sweep         rds             
--------------------------------------------------------------------------------
0	0.000000e+00	4.234112e+04	
1	5.000000e-02	4.329956e+04	
2	1.000000e-01	4.429677e+04	
3	1.500000e-01	4.533516e+04	
4	2.000000e-01	4.641731e+04	
5	2.500000e-01	4.754606e+04	
6	3.000000e-01	4.872447e+04	
7	3.500000e-01	4.995589e+04	
8	4.000000e-01	5.124397e+04	
9	4.500000e-01	5.259272e+04	
10	5.000000e-01	5.400651e+04	
11	5.500000e-01	5.549016e+04	
12	6.000000e-01	5.704898e+04	
13	6.500000e-01	5.868883e+04	
14	7.000000e-01	6.041618e+04	
15	7.500000e-01	6.223823e+04	
16	8.000000e-01	6.416299e+04	
17	8.500000e-01	6.619939e+04	
18	9.000000e-01	6.835744e+04	
19	9.500000e-01	7.064837e+04	
20	1.000000e+00	7.308486e+04	
21	1.050000e+00	7.568125e+04	
22	1.100000e+00	7.845384e+04	
23	1.150000e+00	8.142121e+04	
24	1.200000e+00	8.460469e+04	
25	1.250000e+00	8.802882e+04	
26	1.300000e+00	9.172205e+04	
27	1.350000e+00	9.571751e+04	
28	1.400000e+00	1.000540e+05	
29	1.450000e+00	1.047774e+05	
30	1.500000e+00	1.099423e+05	
31	1.550000e+00	1.156138e+05	
32	1.600000e+00	1.218710e+05	
33	1.650000e+00	1.288104e+05	
34	1.700000e+00	1.365511e+05	
35	1.750000e+00	1.452422e+05	
36	1.800000e+00	1.550722e+05	
37	1.850000e+00	1.662839e+05	
38	1.900000e+00	1.791948e+05	
39	1.950000e+00	1.942273e+05	
40	2.000000e+00	2.119556e+05	
41	2.050000e+00	2.331743e+05	
42	2.100000e+00	2.590057e+05	
43	2.150000e+00	2.910581e+05	
44	2.200000e+00	3.316520e+05	
45	2.250000e+00	3.841070e+05	
46	2.300000e+00	4.530171e+05	
47	2.350000e+00	5.443196e+05	
48	2.400000e+00	6.648592e+05	
49	2.450000e+00	8.212712e+05	
50	2.500000e+00	1.018481e+06	
51	2.550000e+00	1.258541e+06	
52	2.600000e+00	1.540385e+06	
53	2.650000e+00	1.860417e+06	
54	2.700000e+00	2.213493e+06	

Index   v-sweep         rds             
--------------------------------------------------------------------------------
55	2.750000e+00	2.593838e+06	
56	2.800000e+00	2.995708e+06	
57	2.850000e+00	3.413785e+06	
58	2.900000e+00	3.843362e+06	
59	2.950000e+00	4.280397e+06	
60	3.000000e+00	4.721496e+06	
61	3.050000e+00	5.163852e+06	
62	3.100000e+00	5.605174e+06	
63	3.150000e+00	6.043616e+06	
64	3.200000e+00	6.477702e+06	
65	3.250000e+00	6.906272e+06	
66	3.300000e+00	7.328424e+06	
67	3.350000e+00	7.743470e+06	
68	3.400000e+00	8.150897e+06	
69	3.450000e+00	8.550337e+06	
70	3.500000e+00	8.941538e+06	
71	3.550000e+00	9.324345e+06	
72	3.600000e+00	9.698679e+06	
73	3.650000e+00	1.006452e+07	
74	3.700000e+00	1.042191e+07	
75	3.750000e+00	1.077092e+07	
76	3.800000e+00	1.111165e+07	
77	3.850000e+00	1.144424e+07	
78	3.900000e+00	1.176883e+07	
79	3.950000e+00	1.208558e+07	
80	4.000000e+00	1.239468e+07	
81	4.050000e+00	1.269629e+07	
82	4.100000e+00	1.299061e+07	
83	4.150000e+00	1.327783e+07	
84	4.200000e+00	1.355814e+07	
85	4.250000e+00	1.383172e+07	
86	4.300000e+00	1.409877e+07	
87	4.350000e+00	1.435947e+07	
88	4.400000e+00	1.461401e+07	
89	4.450000e+00	1.486256e+07	
90	4.500000e+00	1.510530e+07	
91	4.550000e+00	1.534241e+07	
92	4.600000e+00	1.557406e+07	
93	4.650000e+00	1.580040e+07	
94	4.700000e+00	1.602159e+07	
95	4.750000e+00	1.623780e+07	
96	4.800000e+00	1.644916e+07	
97	4.850000e+00	1.665583e+07	
98	4.900000e+00	1.685794e+07	
99	4.950000e+00	1.705564e+07	
100	5.000000e+00	1.724904e+07	
101	5.050000e+00	1.743829e+07	
102	5.100000e+00	1.762350e+07	
103	5.150000e+00	1.780478e+07	
104	5.200000e+00	1.798227e+07	
105	5.250000e+00	1.815606e+07	
106	5.300000e+00	1.832626e+07	
107	5.350000e+00	1.849298e+07	
108	5.400000e+00	1.865632e+07	
109	5.450000e+00	1.881637e+07	
110	5.500000e+00	1.897322e+07	
111	5.550000e+00	1.912698e+07	
112	5.600000e+00	1.927771e+07	

Index   v-sweep         rds             
--------------------------------------------------------------------------------
113	5.650000e+00	1.942551e+07	
114	5.700000e+00	1.957046e+07	
115	5.750000e+00	1.971263e+07	
116	5.800000e+00	1.985211e+07	
117	5.850000e+00	1.998895e+07	
118	5.900000e+00	2.012325e+07	
119	5.950000e+00	2.025505e+07	
120	6.000000e+00	2.038444e+07	
121	6.050000e+00	2.051147e+07	
122	6.100000e+00	2.063620e+07	
123	6.150000e+00	2.075870e+07	
124	6.200000e+00	2.087902e+07	
125	6.250000e+00	2.099721e+07	
126	6.300000e+00	2.111334e+07	
127	6.350000e+00	2.122745e+07	
128	6.400000e+00	2.133960e+07	
129	6.450000e+00	2.144983e+07	
130	6.500000e+00	2.155819e+07	
131	6.550000e+00	2.166472e+07	
132	6.600000e+00	2.176948e+07	
Reset re-loads circuit ***************************

Circuit: ***************************

Doing analysis at TEMP = -40.000000 and TNOM = -40.000000


No. of Data Rows : 133
                          ***************************
                          DC transfer characteristic  Mon Jan  9 13:57:42  2023
--------------------------------------------------------------------------------
Index   v-sweep         rds             
--------------------------------------------------------------------------------
0	0.000000e+00	3.575531e+04	
1	5.000000e-02	3.638012e+04	
2	1.000000e-01	3.702375e+04	
3	1.500000e-01	3.768708e+04	
4	2.000000e-01	3.837101e+04	
5	2.500000e-01	3.907652e+04	
6	3.000000e-01	3.980465e+04	
7	3.500000e-01	4.055649e+04	
8	4.000000e-01	4.133322e+04	
9	4.500000e-01	4.213610e+04	
10	5.000000e-01	4.296646e+04	
11	5.500000e-01	4.382574e+04	
12	6.000000e-01	4.471547e+04	
13	6.500000e-01	4.563729e+04	
14	7.000000e-01	4.659298e+04	
15	7.500000e-01	4.758442e+04	
16	8.000000e-01	4.861367e+04	
17	8.500000e-01	4.968291e+04	
18	9.000000e-01	5.079454e+04	
19	9.500000e-01	5.195111e+04	
20	1.000000e+00	5.315540e+04	
21	1.050000e+00	5.441044e+04	
22	1.100000e+00	5.571949e+04	
23	1.150000e+00	5.708611e+04	
24	1.200000e+00	5.851419e+04	
25	1.250000e+00	6.000798e+04	
26	1.300000e+00	6.157210e+04	
27	1.350000e+00	6.321167e+04	
28	1.400000e+00	6.493226e+04	
29	1.450000e+00	6.674006e+04	
30	1.500000e+00	6.864186e+04	
31	1.550000e+00	7.064522e+04	
32	1.600000e+00	7.275851e+04	
33	1.650000e+00	7.499106e+04	
34	1.700000e+00	7.735330e+04	
35	1.750000e+00	7.985689e+04	
36	1.800000e+00	8.251500e+04	
37	1.850000e+00	8.534245e+04	
38	1.900000e+00	8.835606e+04	
39	1.950000e+00	9.157497e+04	
40	2.000000e+00	9.502109e+04	
41	2.050000e+00	9.871959e+04	
42	2.100000e+00	1.026996e+05	
43	2.150000e+00	1.069948e+05	
44	2.200000e+00	1.116450e+05	
45	2.250000e+00	1.166967e+05	
46	2.300000e+00	1.222053e+05	
47	2.350000e+00	1.282372e+05	
48	2.400000e+00	1.348728e+05	
49	2.450000e+00	1.422101e+05	
50	2.500000e+00	1.503704e+05	
51	2.550000e+00	1.595058e+05	
52	2.600000e+00	1.698094e+05	
53	2.650000e+00	1.815301e+05	
54	2.700000e+00	1.949944e+05	

Index   v-sweep         rds             
--------------------------------------------------------------------------------
55	2.750000e+00	2.106368e+05	
56	2.800000e+00	2.290454e+05	
57	2.850000e+00	2.510249e+05	
58	2.900000e+00	2.776844e+05	
59	2.950000e+00	3.105473e+05	
60	3.000000e+00	3.516685e+05	
61	3.050000e+00	4.037125e+05	
62	3.100000e+00	4.699107e+05	
63	3.150000e+00	5.538079e+05	
64	3.200000e+00	6.587753e+05	
65	3.250000e+00	7.874195e+05	
66	3.300000e+00	9.411168e+05	
67	3.350000e+00	1.119856e+06	
68	3.400000e+00	1.322396e+06	
69	3.450000e+00	1.546606e+06	
70	3.500000e+00	1.789847e+06	
71	3.550000e+00	2.049284e+06	
72	3.600000e+00	2.322112e+06	
73	3.650000e+00	2.605696e+06	
74	3.700000e+00	2.897641e+06	
75	3.750000e+00	3.195822e+06	
76	3.800000e+00	3.498385e+06	
77	3.850000e+00	3.803731e+06	
78	3.900000e+00	4.110494e+06	
79	3.950000e+00	4.417517e+06	
80	4.000000e+00	4.723826e+06	
81	4.050000e+00	5.028607e+06	
82	4.100000e+00	5.331184e+06	
83	4.150000e+00	5.630999e+06	
84	4.200000e+00	5.927594e+06	
85	4.250000e+00	6.220598e+06	
86	4.300000e+00	6.509717e+06	
87	4.350000e+00	6.794714e+06	
88	4.400000e+00	7.075409e+06	
89	4.450000e+00	7.351667e+06	
90	4.500000e+00	7.623389e+06	
91	4.550000e+00	7.890509e+06	
92	4.600000e+00	8.152989e+06	
93	4.650000e+00	8.410813e+06	
94	4.700000e+00	8.663986e+06	
95	4.750000e+00	8.912525e+06	
96	4.800000e+00	9.156465e+06	
97	4.850000e+00	9.395848e+06	
98	4.900000e+00	9.630728e+06	
99	4.950000e+00	9.861164e+06	
100	5.000000e+00	1.008722e+07	
101	5.050000e+00	1.030898e+07	
102	5.100000e+00	1.052650e+07	
103	5.150000e+00	1.073987e+07	
104	5.200000e+00	1.094916e+07	
105	5.250000e+00	1.115447e+07	
106	5.300000e+00	1.135586e+07	
107	5.350000e+00	1.155342e+07	
108	5.400000e+00	1.174724e+07	
109	5.450000e+00	1.193739e+07	
110	5.500000e+00	1.212396e+07	
111	5.550000e+00	1.230703e+07	
112	5.600000e+00	1.248668e+07	

Index   v-sweep         rds             
--------------------------------------------------------------------------------
113	5.650000e+00	1.266298e+07	
114	5.700000e+00	1.283602e+07	
115	5.750000e+00	1.300588e+07	
116	5.800000e+00	1.317261e+07	
117	5.850000e+00	1.333631e+07	
118	5.900000e+00	1.349704e+07	
119	5.950000e+00	1.365487e+07	
120	6.000000e+00	1.380987e+07	
121	6.050000e+00	1.396211e+07	
122	6.100000e+00	1.411165e+07	
123	6.150000e+00	1.425856e+07	
124	6.200000e+00	1.440290e+07	
125	6.250000e+00	1.454473e+07	
126	6.300000e+00	1.468411e+07	
127	6.350000e+00	1.482109e+07	
128	6.400000e+00	1.495574e+07	
129	6.450000e+00	1.508810e+07	
130	6.500000e+00	1.521824e+07	
131	6.550000e+00	1.534620e+07	
132	6.600000e+00	1.547203e+07	
Reset re-loads circuit ***************************

Circuit: ***************************

Doing analysis at TEMP = -40.000000 and TNOM = -40.000000


No. of Data Rows : 133
                          ***************************
                          DC transfer characteristic  Mon Jan  9 13:57:42  2023
--------------------------------------------------------------------------------
Index   v-sweep         rds             
--------------------------------------------------------------------------------
0	0.000000e+00	3.217196e+04	
1	5.000000e-02	3.262704e+04	
2	1.000000e-01	3.309293e+04	
3	1.500000e-01	3.357000e+04	
4	2.000000e-01	3.405868e+04	
5	2.500000e-01	3.455937e+04	
6	3.000000e-01	3.507254e+04	
7	3.500000e-01	3.559865e+04	
8	4.000000e-01	3.613819e+04	
9	4.500000e-01	3.669169e+04	
10	5.000000e-01	3.725968e+04	
11	5.500000e-01	3.784275e+04	
12	6.000000e-01	3.844151e+04	
13	6.500000e-01	3.905658e+04	
14	7.000000e-01	3.968865e+04	
15	7.500000e-01	4.033843e+04	
16	8.000000e-01	4.100666e+04	
17	8.500000e-01	4.169416e+04	
18	9.000000e-01	4.240175e+04	
19	9.500000e-01	4.313034e+04	
20	1.000000e+00	4.388086e+04	
21	1.050000e+00	4.465432e+04	
22	1.100000e+00	4.545179e+04	
23	1.150000e+00	4.627440e+04	
24	1.200000e+00	4.712336e+04	
25	1.250000e+00	4.799995e+04	
26	1.300000e+00	4.890554e+04	
27	1.350000e+00	4.984160e+04	
28	1.400000e+00	5.080968e+04	
29	1.450000e+00	5.181145e+04	
30	1.500000e+00	5.284871e+04	
31	1.550000e+00	5.392337e+04	
32	1.600000e+00	5.503750e+04	
33	1.650000e+00	5.619330e+04	
34	1.700000e+00	5.739316e+04	
35	1.750000e+00	5.863965e+04	
36	1.800000e+00	5.993555e+04	
37	1.850000e+00	6.128385e+04	
38	1.900000e+00	6.268780e+04	
39	1.950000e+00	6.415093e+04	
40	2.000000e+00	6.567707e+04	
41	2.050000e+00	6.727038e+04	
42	2.100000e+00	6.893541e+04	
43	2.150000e+00	7.067714e+04	
44	2.200000e+00	7.250100e+04	
45	2.250000e+00	7.441299e+04	
46	2.300000e+00	7.641966e+04	
47	2.350000e+00	7.852828e+04	
48	2.400000e+00	8.074688e+04	
49	2.450000e+00	8.308435e+04	
50	2.500000e+00	8.555060e+04	
51	2.550000e+00	8.815668e+04	
52	2.600000e+00	9.091498e+04	
53	2.650000e+00	9.383939e+04	
54	2.700000e+00	9.694564e+04	

Index   v-sweep         rds             
--------------------------------------------------------------------------------
55	2.750000e+00	1.002515e+05	
56	2.800000e+00	1.037773e+05	
57	2.850000e+00	1.075461e+05	
58	2.900000e+00	1.115847e+05	
59	2.950000e+00	1.159239e+05	
60	3.000000e+00	1.205998e+05	
61	3.050000e+00	1.256545e+05	
62	3.100000e+00	1.311382e+05	
63	3.150000e+00	1.371105e+05	
64	3.200000e+00	1.436433e+05	
65	3.250000e+00	1.508245e+05	
66	3.300000e+00	1.587621e+05	
67	3.350000e+00	1.675912e+05	
68	3.400000e+00	1.774828e+05	
69	3.450000e+00	1.886561e+05	
70	3.500000e+00	2.013965e+05	
71	3.550000e+00	2.160796e+05	
72	3.600000e+00	2.332046e+05	
73	3.650000e+00	2.534387e+05	
74	3.700000e+00	2.776706e+05	
75	3.750000e+00	3.070686e+05	
76	3.800000e+00	3.431257e+05	
77	3.850000e+00	3.876623e+05	
78	3.900000e+00	4.427485e+05	
79	3.950000e+00	5.105213e+05	
80	4.000000e+00	5.929158e+05	
81	4.050000e+00	6.913831e+05	
82	4.100000e+00	8.066904e+05	
83	4.150000e+00	9.388625e+05	
84	4.200000e+00	1.087259e+06	
85	4.250000e+00	1.250736e+06	
86	4.300000e+00	1.427827e+06	
87	4.350000e+00	1.616903e+06	
88	4.400000e+00	1.816303e+06	
89	4.450000e+00	2.024413e+06	
90	4.500000e+00	2.239720e+06	
91	4.550000e+00	2.460841e+06	
92	4.600000e+00	2.686531e+06	
93	4.650000e+00	2.915681e+06	
94	4.700000e+00	3.147318e+06	
95	4.750000e+00	3.380590e+06	
96	4.800000e+00	3.614758e+06	
97	4.850000e+00	3.849180e+06	
98	4.900000e+00	4.083307e+06	
99	4.950000e+00	4.316664e+06	
100	5.000000e+00	4.548850e+06	
101	5.050000e+00	4.779521e+06	
102	5.100000e+00	5.008387e+06	
103	5.150000e+00	5.235203e+06	
104	5.200000e+00	5.459766e+06	
105	5.250000e+00	5.681906e+06	
106	5.300000e+00	5.901485e+06	
107	5.350000e+00	6.118389e+06	
108	5.400000e+00	6.332530e+06	
109	5.450000e+00	6.543838e+06	
110	5.500000e+00	6.752258e+06	
111	5.550000e+00	6.957755e+06	
112	5.600000e+00	7.160302e+06	

Index   v-sweep         rds             
--------------------------------------------------------------------------------
113	5.650000e+00	7.359885e+06	
114	5.700000e+00	7.556501e+06	
115	5.750000e+00	7.750153e+06	
116	5.800000e+00	7.940851e+06	
117	5.850000e+00	8.128613e+06	
118	5.900000e+00	8.313460e+06	
119	5.950000e+00	8.495418e+06	
120	6.000000e+00	8.674519e+06	
121	6.050000e+00	8.850794e+06	
122	6.100000e+00	9.024279e+06	
123	6.150000e+00	9.195013e+06	
124	6.200000e+00	9.363034e+06	
125	6.250000e+00	9.528383e+06	
126	6.300000e+00	9.691103e+06	
127	6.350000e+00	9.851235e+06	
128	6.400000e+00	1.000882e+07	
129	6.450000e+00	1.016391e+07	
130	6.500000e+00	1.031654e+07	
131	6.550000e+00	1.046676e+07	
132	6.600000e+00	1.061462e+07	
Reset re-loads circuit ***************************

Circuit: ***************************

Note: No ".plot", ".print", or ".fourier" lines; no simulations run
