
Note: Compatibility modes selected: hs

Warning: m=xx on .subckt line will override multiplier m hierarchy!


Circuit: ***************************

Doing analysis at TEMP = -40.000000 and TNOM = -40.000000


No. of Data Rows : 133
                          ***************************
                          DC transfer characteristic  Mon Jan  9 13:57:42  2023
--------------------------------------------------------------------------------
Index   v-sweep         rds             
--------------------------------------------------------------------------------
0	0.000000e+00	1.808547e+04	
1	5.000000e-02	2.709594e+04	
2	1.000000e-01	4.869801e+04	
3	1.500000e-01	1.076360e+05	
4	2.000000e-01	2.070183e+05	
5	2.500000e-01	2.994908e+05	
6	3.000000e-01	3.750977e+05	
7	3.500000e-01	4.391202e+05	
8	4.000000e-01	4.950193e+05	
9	4.500000e-01	5.446696e+05	
10	5.000000e-01	5.892215e+05	
11	5.500000e-01	6.294736e+05	
12	6.000000e-01	6.660286e+05	
13	6.500000e-01	6.993649e+05	
14	7.000000e-01	7.298746e+05	
15	7.500000e-01	7.578855e+05	
16	8.000000e-01	7.836754e+05	
17	8.500000e-01	8.074825e+05	
18	9.000000e-01	8.295119e+05	
19	9.500000e-01	8.499422e+05	
20	1.000000e+00	8.689289e+05	
21	1.050000e+00	8.866086e+05	
22	1.100000e+00	9.031017e+05	
23	1.150000e+00	9.185146e+05	
24	1.200000e+00	9.329417e+05	
25	1.250000e+00	9.464669e+05	
26	1.300000e+00	9.591654e+05	
27	1.350000e+00	9.711043e+05	
28	1.400000e+00	9.823440e+05	
29	1.450000e+00	9.929387e+05	
30	1.500000e+00	1.002938e+06	
31	1.550000e+00	1.012385e+06	
32	1.600000e+00	1.021321e+06	
33	1.650000e+00	1.029782e+06	
34	1.700000e+00	1.037801e+06	
35	1.750000e+00	1.045410e+06	
36	1.800000e+00	1.052634e+06	
37	1.850000e+00	1.059501e+06	
38	1.900000e+00	1.066032e+06	
39	1.950000e+00	1.072250e+06	
40	2.000000e+00	1.078173e+06	
41	2.050000e+00	1.083821e+06	
42	2.100000e+00	1.089209e+06	
43	2.150000e+00	1.094354e+06	
44	2.200000e+00	1.099269e+06	
45	2.250000e+00	1.103968e+06	
46	2.300000e+00	1.108463e+06	
47	2.350000e+00	1.112765e+06	
48	2.400000e+00	1.116885e+06	
49	2.450000e+00	1.120833e+06	
50	2.500000e+00	1.124618e+06	
51	2.550000e+00	1.128249e+06	
52	2.600000e+00	1.131733e+06	
53	2.650000e+00	1.135078e+06	
54	2.700000e+00	1.138291e+06	

Index   v-sweep         rds             
--------------------------------------------------------------------------------
55	2.750000e+00	1.141379e+06	
56	2.800000e+00	1.144348e+06	
57	2.850000e+00	1.147203e+06	
58	2.900000e+00	1.149951e+06	
59	2.950000e+00	1.152595e+06	
60	3.000000e+00	1.155142e+06	
61	3.050000e+00	1.157594e+06	
62	3.100000e+00	1.159958e+06	
63	3.150000e+00	1.162236e+06	
64	3.200000e+00	1.164433e+06	
65	3.250000e+00	1.166552e+06	
66	3.300000e+00	1.168596e+06	
67	3.350000e+00	1.170569e+06	
68	3.400000e+00	1.172474e+06	
69	3.450000e+00	1.174313e+06	
70	3.500000e+00	1.176089e+06	
71	3.550000e+00	1.177806e+06	
72	3.600000e+00	1.179465e+06	
73	3.650000e+00	1.181068e+06	
74	3.700000e+00	1.182618e+06	
75	3.750000e+00	1.184117e+06	
76	3.800000e+00	1.185568e+06	
77	3.850000e+00	1.186971e+06	
78	3.900000e+00	1.188328e+06	
79	3.950000e+00	1.189642e+06	
80	4.000000e+00	1.190914e+06	
81	4.050000e+00	1.192146e+06	
82	4.100000e+00	1.193338e+06	
83	4.150000e+00	1.194493e+06	
84	4.200000e+00	1.195612e+06	
85	4.250000e+00	1.196697e+06	
86	4.300000e+00	1.197747e+06	
87	4.350000e+00	1.198765e+06	
88	4.400000e+00	1.199752e+06	
89	4.450000e+00	1.200709e+06	
90	4.500000e+00	1.201636e+06	
91	4.550000e+00	1.202536e+06	
92	4.600000e+00	1.203408e+06	
93	4.650000e+00	1.204254e+06	
94	4.700000e+00	1.205074e+06	
95	4.750000e+00	1.205870e+06	
96	4.800000e+00	1.206642e+06	
97	4.850000e+00	1.207391e+06	
98	4.900000e+00	1.208118e+06	
99	4.950000e+00	1.208824e+06	
100	5.000000e+00	1.209508e+06	
101	5.050000e+00	1.210173e+06	
102	5.100000e+00	1.210818e+06	
103	5.150000e+00	1.211444e+06	
104	5.200000e+00	1.212051e+06	
105	5.250000e+00	1.212641e+06	
106	5.300000e+00	1.213214e+06	
107	5.350000e+00	1.213770e+06	
108	5.400000e+00	1.214309e+06	
109	5.450000e+00	1.214834e+06	
110	5.500000e+00	1.215342e+06	
111	5.550000e+00	1.215836e+06	
112	5.600000e+00	1.216316e+06	

Index   v-sweep         rds             
--------------------------------------------------------------------------------
113	5.650000e+00	1.216782e+06	
114	5.700000e+00	1.217234e+06	
115	5.750000e+00	1.217673e+06	
116	5.800000e+00	1.218100e+06	
117	5.850000e+00	1.218514e+06	
118	5.900000e+00	1.218916e+06	
119	5.950000e+00	1.219306e+06	
120	6.000000e+00	1.219685e+06	
121	6.050000e+00	1.220053e+06	
122	6.100000e+00	1.220410e+06	
123	6.150000e+00	1.220757e+06	
124	6.200000e+00	1.221094e+06	
125	6.250000e+00	1.221421e+06	
126	6.300000e+00	1.221738e+06	
127	6.350000e+00	1.222046e+06	
128	6.400000e+00	1.222345e+06	
129	6.450000e+00	1.222635e+06	
130	6.500000e+00	1.222917e+06	
131	6.550000e+00	1.223190e+06	
132	6.600000e+00	1.223455e+06	
Reset re-loads circuit ***************************

Circuit: ***************************

Doing analysis at TEMP = -40.000000 and TNOM = -40.000000


No. of Data Rows : 133
                          ***************************
                          DC transfer characteristic  Mon Jan  9 13:57:42  2023
--------------------------------------------------------------------------------
Index   v-sweep         rds             
--------------------------------------------------------------------------------
0	0.000000e+00	3.883407e+03	
1	5.000000e-02	4.266936e+03	
2	1.000000e-01	4.710127e+03	
3	1.500000e-01	5.227890e+03	
4	2.000000e-01	5.840616e+03	
5	2.500000e-01	6.576970e+03	
6	3.000000e-01	7.478615e+03	
7	3.500000e-01	8.608798e+03	
8	4.000000e-01	1.006909e+04	
9	4.500000e-01	1.203391e+04	
10	5.000000e-01	1.481794e+04	
11	5.500000e-01	1.895280e+04	
12	6.000000e-01	2.506150e+04	
13	6.500000e-01	3.334746e+04	
14	7.000000e-01	4.336300e+04	
15	7.500000e-01	5.444063e+04	
16	8.000000e-01	6.605906e+04	
17	8.500000e-01	7.789247e+04	
18	9.000000e-01	8.975055e+04	
19	9.500000e-01	1.015232e+05	
20	1.000000e+00	1.131462e+05	
21	1.050000e+00	1.245819e+05	
22	1.100000e+00	1.358088e+05	
23	1.150000e+00	1.468149e+05	
24	1.200000e+00	1.575943e+05	
25	1.250000e+00	1.681451e+05	
26	1.300000e+00	1.784680e+05	
27	1.350000e+00	1.885654e+05	
28	1.400000e+00	1.984408e+05	
29	1.450000e+00	2.080985e+05	
30	1.500000e+00	2.175430e+05	
31	1.550000e+00	2.267795e+05	
32	1.600000e+00	2.358131e+05	
33	1.650000e+00	2.446491e+05	
34	1.700000e+00	2.532928e+05	
35	1.750000e+00	2.617493e+05	
36	1.800000e+00	2.700238e+05	
37	1.850000e+00	2.781214e+05	
38	1.900000e+00	2.860471e+05	
39	1.950000e+00	2.938056e+05	
40	2.000000e+00	3.014018e+05	
41	2.050000e+00	3.088401e+05	
42	2.100000e+00	3.161250e+05	
43	2.150000e+00	3.232608e+05	
44	2.200000e+00	3.302518e+05	
45	2.250000e+00	3.371019e+05	
46	2.300000e+00	3.438151e+05	
47	2.350000e+00	3.503952e+05	
48	2.400000e+00	3.568458e+05	
49	2.450000e+00	3.631705e+05	
50	2.500000e+00	3.693727e+05	
51	2.550000e+00	3.754558e+05	
52	2.600000e+00	3.814229e+05	
53	2.650000e+00	3.872772e+05	
54	2.700000e+00	3.930216e+05	

Index   v-sweep         rds             
--------------------------------------------------------------------------------
55	2.750000e+00	3.986592e+05	
56	2.800000e+00	4.041925e+05	
57	2.850000e+00	4.096245e+05	
58	2.900000e+00	4.149577e+05	
59	2.950000e+00	4.201947e+05	
60	3.000000e+00	4.253379e+05	
61	3.050000e+00	4.303897e+05	
62	3.100000e+00	4.353524e+05	
63	3.150000e+00	4.402283e+05	
64	3.200000e+00	4.450194e+05	
65	3.250000e+00	4.497280e+05	
66	3.300000e+00	4.543560e+05	
67	3.350000e+00	4.589054e+05	
68	3.400000e+00	4.633782e+05	
69	3.450000e+00	4.677760e+05	
70	3.500000e+00	4.721008e+05	
71	3.550000e+00	4.763542e+05	
72	3.600000e+00	4.805380e+05	
73	3.650000e+00	4.846538e+05	
74	3.700000e+00	4.887032e+05	
75	3.750000e+00	4.926876e+05	
76	3.800000e+00	4.966086e+05	
77	3.850000e+00	5.004676e+05	
78	3.900000e+00	5.042661e+05	
79	3.950000e+00	5.080054e+05	
80	4.000000e+00	5.116868e+05	
81	4.050000e+00	5.153116e+05	
82	4.100000e+00	5.188810e+05	
83	4.150000e+00	5.223963e+05	
84	4.200000e+00	5.258586e+05	
85	4.250000e+00	5.292692e+05	
86	4.300000e+00	5.326290e+05	
87	4.350000e+00	5.359392e+05	
88	4.400000e+00	5.392009e+05	
89	4.450000e+00	5.424150e+05	
90	4.500000e+00	5.455825e+05	
91	4.550000e+00	5.487045e+05	
92	4.600000e+00	5.517818e+05	
93	4.650000e+00	5.548155e+05	
94	4.700000e+00	5.578063e+05	
95	4.750000e+00	5.607552e+05	
96	4.800000e+00	5.636629e+05	
97	4.850000e+00	5.665304e+05	
98	4.900000e+00	5.693584e+05	
99	4.950000e+00	5.721477e+05	
100	5.000000e+00	5.748991e+05	
101	5.050000e+00	5.776133e+05	
102	5.100000e+00	5.802910e+05	
103	5.150000e+00	5.829330e+05	
104	5.200000e+00	5.855399e+05	
105	5.250000e+00	5.881124e+05	
106	5.300000e+00	5.906512e+05	
107	5.350000e+00	5.931569e+05	
108	5.400000e+00	5.956300e+05	
109	5.450000e+00	5.980714e+05	
110	5.500000e+00	6.004814e+05	
111	5.550000e+00	6.028607e+05	
112	5.600000e+00	6.052099e+05	

Index   v-sweep         rds             
--------------------------------------------------------------------------------
113	5.650000e+00	6.075295e+05	
114	5.700000e+00	6.098201e+05	
115	5.750000e+00	6.120822e+05	
116	5.800000e+00	6.143162e+05	
117	5.850000e+00	6.165227e+05	
118	5.900000e+00	6.187022e+05	
119	5.950000e+00	6.208552e+05	
120	6.000000e+00	6.229821e+05	
121	6.050000e+00	6.250834e+05	
122	6.100000e+00	6.271595e+05	
123	6.150000e+00	6.292109e+05	
124	6.200000e+00	6.312380e+05	
125	6.250000e+00	6.332412e+05	
126	6.300000e+00	6.352209e+05	
127	6.350000e+00	6.371776e+05	
128	6.400000e+00	6.391115e+05	
129	6.450000e+00	6.410232e+05	
130	6.500000e+00	6.429129e+05	
131	6.550000e+00	6.447810e+05	
132	6.600000e+00	6.466279e+05	
Reset re-loads circuit ***************************

Circuit: ***************************

Doing analysis at TEMP = -40.000000 and TNOM = -40.000000


No. of Data Rows : 133
                          ***************************
                          DC transfer characteristic  Mon Jan  9 13:57:42  2023
--------------------------------------------------------------------------------
Index   v-sweep         rds             
--------------------------------------------------------------------------------
0	0.000000e+00	2.455242e+03	
1	5.000000e-02	2.620575e+03	
2	1.000000e-01	2.800446e+03	
3	1.500000e-01	2.996801e+03	
4	2.000000e-01	3.211969e+03	
5	2.500000e-01	3.448773e+03	
6	3.000000e-01	3.710658e+03	
7	3.500000e-01	4.001879e+03	
8	4.000000e-01	4.327755e+03	
9	4.500000e-01	4.695051e+03	
10	5.000000e-01	5.112588e+03	
11	5.500000e-01	5.592277e+03	
12	6.000000e-01	6.151003e+03	
13	6.500000e-01	6.814315e+03	
14	7.000000e-01	7.623980e+03	
15	7.500000e-01	8.653370e+03	
16	8.000000e-01	1.003504e+04	
17	8.500000e-01	1.199128e+04	
18	9.000000e-01	1.481387e+04	
19	9.500000e-01	1.872981e+04	
20	1.000000e+00	2.375263e+04	
21	1.050000e+00	2.970054e+04	
22	1.100000e+00	3.632758e+04	
23	1.150000e+00	4.341622e+04	
24	1.200000e+00	5.080314e+04	
25	1.250000e+00	5.837330e+04	
26	1.300000e+00	6.604715e+04	
27	1.350000e+00	7.376968e+04	
28	1.400000e+00	8.150242e+04	
29	1.450000e+00	8.921822e+04	
30	1.500000e+00	9.689768e+04	
31	1.550000e+00	1.045268e+05	
32	1.600000e+00	1.120954e+05	
33	1.650000e+00	1.195962e+05	
34	1.700000e+00	1.270238e+05	
35	1.750000e+00	1.343743e+05	
36	1.800000e+00	1.416451e+05	
37	1.850000e+00	1.488342e+05	
38	1.900000e+00	1.559406e+05	
39	1.950000e+00	1.629636e+05	
40	2.000000e+00	1.699028e+05	
41	2.050000e+00	1.767583e+05	
42	2.100000e+00	1.835304e+05	
43	2.150000e+00	1.902195e+05	
44	2.200000e+00	1.968263e+05	
45	2.250000e+00	2.033516e+05	
46	2.300000e+00	2.097960e+05	
47	2.350000e+00	2.161606e+05	
48	2.400000e+00	2.224463e+05	
49	2.450000e+00	2.286542e+05	
50	2.500000e+00	2.347852e+05	
51	2.550000e+00	2.408404e+05	
52	2.600000e+00	2.468210e+05	
53	2.650000e+00	2.527279e+05	
54	2.700000e+00	2.585624e+05	

Index   v-sweep         rds             
--------------------------------------------------------------------------------
55	2.750000e+00	2.643254e+05	
56	2.800000e+00	2.700181e+05	
57	2.850000e+00	2.756416e+05	
58	2.900000e+00	2.811970e+05	
59	2.950000e+00	2.866853e+05	
60	3.000000e+00	2.921076e+05	
61	3.050000e+00	2.974650e+05	
62	3.100000e+00	3.027584e+05	
63	3.150000e+00	3.079890e+05	
64	3.200000e+00	3.131577e+05	
65	3.250000e+00	3.182655e+05	
66	3.300000e+00	3.233134e+05	
67	3.350000e+00	3.283023e+05	
68	3.400000e+00	3.332333e+05	
69	3.450000e+00	3.381072e+05	
70	3.500000e+00	3.429250e+05	
71	3.550000e+00	3.476875e+05	
72	3.600000e+00	3.523956e+05	
73	3.650000e+00	3.570503e+05	
74	3.700000e+00	3.616524e+05	
75	3.750000e+00	3.662026e+05	
76	3.800000e+00	3.707019e+05	
77	3.850000e+00	3.751510e+05	
78	3.900000e+00	3.795507e+05	
79	3.950000e+00	3.839018e+05	
80	4.000000e+00	3.882051e+05	
81	4.050000e+00	3.924613e+05	
82	4.100000e+00	3.966712e+05	
83	4.150000e+00	4.008354e+05	
84	4.200000e+00	4.049547e+05	
85	4.250000e+00	4.090297e+05	
86	4.300000e+00	4.130612e+05	
87	4.350000e+00	4.170499e+05	
88	4.400000e+00	4.209963e+05	
89	4.450000e+00	4.249011e+05	
90	4.500000e+00	4.287649e+05	
91	4.550000e+00	4.325884e+05	
92	4.600000e+00	4.363722e+05	
93	4.650000e+00	4.401168e+05	
94	4.700000e+00	4.438229e+05	
95	4.750000e+00	4.474911e+05	
96	4.800000e+00	4.511218e+05	
97	4.850000e+00	4.547156e+05	
98	4.900000e+00	4.582731e+05	
99	4.950000e+00	4.617948e+05	
100	5.000000e+00	4.652813e+05	
101	5.050000e+00	4.687330e+05	
102	5.100000e+00	4.721505e+05	
103	5.150000e+00	4.755342e+05	
104	5.200000e+00	4.788846e+05	
105	5.250000e+00	4.822022e+05	
106	5.300000e+00	4.854875e+05	
107	5.350000e+00	4.887409e+05	
108	5.400000e+00	4.919629e+05	
109	5.450000e+00	4.951539e+05	
110	5.500000e+00	4.983144e+05	
111	5.550000e+00	5.014447e+05	
112	5.600000e+00	5.045454e+05	

Index   v-sweep         rds             
--------------------------------------------------------------------------------
113	5.650000e+00	5.076167e+05	
114	5.700000e+00	5.106592e+05	
115	5.750000e+00	5.136732e+05	
116	5.800000e+00	5.166590e+05	
117	5.850000e+00	5.196172e+05	
118	5.900000e+00	5.225480e+05	
119	5.950000e+00	5.254519e+05	
120	6.000000e+00	5.283291e+05	
121	6.050000e+00	5.311801e+05	
122	6.100000e+00	5.340052e+05	
123	6.150000e+00	5.368047e+05	
124	6.200000e+00	5.395790e+05	
125	6.250000e+00	5.423284e+05	
126	6.300000e+00	5.450533e+05	
127	6.350000e+00	5.477539e+05	
128	6.400000e+00	5.504307e+05	
129	6.450000e+00	5.530838e+05	
130	6.500000e+00	5.557136e+05	
131	6.550000e+00	5.583204e+05	
132	6.600000e+00	5.609045e+05	
Reset re-loads circuit ***************************

Circuit: ***************************

Doing analysis at TEMP = -40.000000 and TNOM = -40.000000


No. of Data Rows : 133
                          ***************************
                          DC transfer characteristic  Mon Jan  9 13:57:42  2023
--------------------------------------------------------------------------------
Index   v-sweep         rds             
--------------------------------------------------------------------------------
0	0.000000e+00	1.918886e+03	
1	5.000000e-02	2.022305e+03	
2	1.000000e-01	2.132248e+03	
3	1.500000e-01	2.249320e+03	
4	2.000000e-01	2.374208e+03	
5	2.500000e-01	2.507708e+03	
6	3.000000e-01	2.650738e+03	
7	3.500000e-01	2.804365e+03	
8	4.000000e-01	2.969838e+03	
9	4.500000e-01	3.148617e+03	
10	5.000000e-01	3.342423e+03	
11	5.500000e-01	3.553299e+03	
12	6.000000e-01	3.783700e+03	
13	6.500000e-01	4.036629e+03	
14	7.000000e-01	4.315852e+03	
15	7.500000e-01	4.626250e+03	
16	8.000000e-01	4.974446e+03	
17	8.500000e-01	5.369951e+03	
18	9.000000e-01	5.827341e+03	
19	9.500000e-01	6.370463e+03	
20	1.000000e+00	7.040303e+03	
21	1.050000e+00	7.908118e+03	
22	1.100000e+00	9.091024e+03	
23	1.150000e+00	1.075317e+04	
24	1.200000e+00	1.306381e+04	
25	1.250000e+00	1.611935e+04	
26	1.300000e+00	1.989962e+04	
27	1.350000e+00	2.429794e+04	
28	1.400000e+00	2.917949e+04	
29	1.450000e+00	3.442015e+04	
30	1.500000e+00	3.991997e+04	
31	1.550000e+00	4.560308e+04	
32	1.600000e+00	5.141317e+04	
33	1.650000e+00	5.730864e+04	
34	1.700000e+00	6.325865e+04	
35	1.750000e+00	6.924008e+04	
36	1.800000e+00	7.523552e+04	
37	1.850000e+00	8.123165e+04	
38	1.900000e+00	8.721823e+04	
39	1.950000e+00	9.318731e+04	
40	2.000000e+00	9.913269e+04	
41	2.050000e+00	1.050495e+05	
42	2.100000e+00	1.109339e+05	
43	2.150000e+00	1.167828e+05	
44	2.200000e+00	1.225938e+05	
45	2.250000e+00	1.283651e+05	
46	2.300000e+00	1.340951e+05	
47	2.350000e+00	1.397827e+05	
48	2.400000e+00	1.454271e+05	
49	2.450000e+00	1.510275e+05	
50	2.500000e+00	1.565834e+05	
51	2.550000e+00	1.620946e+05	
52	2.600000e+00	1.675608e+05	
53	2.650000e+00	1.729820e+05	
54	2.700000e+00	1.783580e+05	

Index   v-sweep         rds             
--------------------------------------------------------------------------------
55	2.750000e+00	1.836891e+05	
56	2.800000e+00	1.889752e+05	
57	2.850000e+00	1.942165e+05	
58	2.900000e+00	1.994133e+05	
59	2.950000e+00	2.045659e+05	
60	3.000000e+00	2.096744e+05	
61	3.050000e+00	2.147392e+05	
62	3.100000e+00	2.197607e+05	
63	3.150000e+00	2.247391e+05	
64	3.200000e+00	2.296749e+05	
65	3.250000e+00	2.345684e+05	
66	3.300000e+00	2.394199e+05	
67	3.350000e+00	2.442300e+05	
68	3.400000e+00	2.489990e+05	
69	3.450000e+00	2.537272e+05	
70	3.500000e+00	2.584152e+05	
71	3.550000e+00	2.630633e+05	
72	3.600000e+00	2.676719e+05	
73	3.650000e+00	2.722414e+05	
74	3.700000e+00	2.767723e+05	
75	3.750000e+00	2.812650e+05	
76	3.800000e+00	2.857198e+05	
77	3.850000e+00	2.901372e+05	
78	3.900000e+00	2.945177e+05	
79	3.950000e+00	2.988615e+05	
80	4.000000e+00	3.031691e+05	
81	4.050000e+00	3.074409e+05	
82	4.100000e+00	3.116774e+05	
83	4.150000e+00	3.158788e+05	
84	4.200000e+00	3.200457e+05	
85	4.250000e+00	3.241783e+05	
86	4.300000e+00	3.282771e+05	
87	4.350000e+00	3.323424e+05	
88	4.400000e+00	3.363746e+05	
89	4.450000e+00	3.403741e+05	
90	4.500000e+00	3.443413e+05	
91	4.550000e+00	3.482765e+05	
92	4.600000e+00	3.521801e+05	
93	4.650000e+00	3.560524e+05	
94	4.700000e+00	3.598937e+05	
95	4.750000e+00	3.637046e+05	
96	4.800000e+00	3.674852e+05	
97	4.850000e+00	3.712359e+05	
98	4.900000e+00	3.749570e+05	
99	4.950000e+00	3.786489e+05	
100	5.000000e+00	3.823120e+05	
101	5.050000e+00	3.859464e+05	
102	5.100000e+00	3.895526e+05	
103	5.150000e+00	3.931308e+05	
104	5.200000e+00	3.966814e+05	
105	5.250000e+00	4.002047e+05	
106	5.300000e+00	4.037009e+05	
107	5.350000e+00	4.071704e+05	
108	5.400000e+00	4.106135e+05	
109	5.450000e+00	4.140304e+05	
110	5.500000e+00	4.174215e+05	
111	5.550000e+00	4.207869e+05	
112	5.600000e+00	4.241271e+05	

Index   v-sweep         rds             
--------------------------------------------------------------------------------
113	5.650000e+00	4.274422e+05	
114	5.700000e+00	4.307326e+05	
115	5.750000e+00	4.339985e+05	
116	5.800000e+00	4.372402e+05	
117	5.850000e+00	4.404578e+05	
118	5.900000e+00	4.436518e+05	
119	5.950000e+00	4.468223e+05	
120	6.000000e+00	4.499697e+05	
121	6.050000e+00	4.530940e+05	
122	6.100000e+00	4.561957e+05	
123	6.150000e+00	4.592748e+05	
124	6.200000e+00	4.623318e+05	
125	6.250000e+00	4.653667e+05	
126	6.300000e+00	4.683798e+05	
127	6.350000e+00	4.713714e+05	
128	6.400000e+00	4.743417e+05	
129	6.450000e+00	4.772909e+05	
130	6.500000e+00	4.802192e+05	
131	6.550000e+00	4.831269e+05	
132	6.600000e+00	4.860141e+05	
Reset re-loads circuit ***************************

Circuit: ***************************

Doing analysis at TEMP = -40.000000 and TNOM = -40.000000


No. of Data Rows : 133
                          ***************************
                          DC transfer characteristic  Mon Jan  9 13:57:42  2023
--------------------------------------------------------------------------------
Index   v-sweep         rds             
--------------------------------------------------------------------------------
0	0.000000e+00	1.655654e+03	
1	5.000000e-02	1.730844e+03	
2	1.000000e-01	1.809767e+03	
3	1.500000e-01	1.892687e+03	
4	2.000000e-01	1.979896e+03	
5	2.500000e-01	2.071725e+03	
6	3.000000e-01	2.168543e+03	
7	3.500000e-01	2.270769e+03	
8	4.000000e-01	2.378877e+03	
9	4.500000e-01	2.493406e+03	
10	5.000000e-01	2.614965e+03	
11	5.500000e-01	2.744248e+03	
12	6.000000e-01	2.882043e+03	
13	6.500000e-01	3.029252e+03	
14	7.000000e-01	3.186908e+03	
15	7.500000e-01	3.356213e+03	
16	8.000000e-01	3.538575e+03	
17	8.500000e-01	3.735683e+03	
18	9.000000e-01	3.949601e+03	
19	9.500000e-01	4.182946e+03	
20	1.000000e+00	4.439163e+03	
21	1.050000e+00	4.723019e+03	
22	1.100000e+00	5.041479e+03	
23	1.150000e+00	5.405291e+03	
24	1.200000e+00	5.831867e+03	
25	1.250000e+00	6.350252e+03	
26	1.300000e+00	7.008793e+03	
27	1.350000e+00	7.883791e+03	
28	1.400000e+00	9.081231e+03	
29	1.450000e+00	1.071795e+04	
30	1.500000e+00	1.288052e+04	
31	1.550000e+00	1.559000e+04	
32	1.600000e+00	1.880273e+04	
33	1.650000e+00	2.243893e+04	
34	1.700000e+00	2.641176e+04	
35	1.750000e+00	3.064353e+04	
36	1.800000e+00	3.507079e+04	
37	1.850000e+00	3.964397e+04	
38	1.900000e+00	4.432498e+04	
39	1.950000e+00	4.908469e+04	
40	2.000000e+00	5.390076e+04	
41	2.050000e+00	5.875595e+04	
42	2.100000e+00	6.363686e+04	
43	2.150000e+00	6.853295e+04	
44	2.200000e+00	7.343591e+04	
45	2.250000e+00	7.833908e+04	
46	2.300000e+00	8.323713e+04	
47	2.350000e+00	8.812575e+04	
48	2.400000e+00	9.300143e+04	
49	2.450000e+00	9.786129e+04	
50	2.500000e+00	1.027030e+05	
51	2.550000e+00	1.075246e+05	
52	2.600000e+00	1.123245e+05	
53	2.650000e+00	1.171014e+05	
54	2.700000e+00	1.218542e+05	

Index   v-sweep         rds             
--------------------------------------------------------------------------------
55	2.750000e+00	1.265820e+05	
56	2.800000e+00	1.312840e+05	
57	2.850000e+00	1.359598e+05	
58	2.900000e+00	1.406087e+05	
59	2.950000e+00	1.452304e+05	
60	3.000000e+00	1.498246e+05	
61	3.050000e+00	1.543910e+05	
62	3.100000e+00	1.589295e+05	
63	3.150000e+00	1.634400e+05	
64	3.200000e+00	1.679223e+05	
65	3.250000e+00	1.723764e+05	
66	3.300000e+00	1.768023e+05	
67	3.350000e+00	1.812001e+05	
68	3.400000e+00	1.855697e+05	
69	3.450000e+00	1.899112e+05	
70	3.500000e+00	1.942248e+05	
71	3.550000e+00	1.985104e+05	
72	3.600000e+00	2.027683e+05	
73	3.650000e+00	2.069986e+05	
74	3.700000e+00	2.112013e+05	
75	3.750000e+00	2.153768e+05	
76	3.800000e+00	2.195250e+05	
77	3.850000e+00	2.236461e+05	
78	3.900000e+00	2.277405e+05	
79	3.950000e+00	2.318081e+05	
80	4.000000e+00	2.358492e+05	
81	4.050000e+00	2.398640e+05	
82	4.100000e+00	2.438527e+05	
83	4.150000e+00	2.478154e+05	
84	4.200000e+00	2.517524e+05	
85	4.250000e+00	2.556638e+05	
86	4.300000e+00	2.595498e+05	
87	4.350000e+00	2.634107e+05	
88	4.400000e+00	2.672466e+05	
89	4.450000e+00	2.710578e+05	
90	4.500000e+00	2.748444e+05	
91	4.550000e+00	2.786066e+05	
92	4.600000e+00	2.823446e+05	
93	4.650000e+00	2.860587e+05	
94	4.700000e+00	2.897489e+05	
95	4.750000e+00	2.934156e+05	
96	4.800000e+00	2.970590e+05	
97	4.850000e+00	3.006791e+05	
98	4.900000e+00	3.042763e+05	
99	4.950000e+00	3.078506e+05	
100	5.000000e+00	3.114024e+05	
101	5.050000e+00	3.149317e+05	
102	5.100000e+00	3.184388e+05	
103	5.150000e+00	3.219239e+05	
104	5.200000e+00	3.253872e+05	
105	5.250000e+00	3.288288e+05	
106	5.300000e+00	3.322489e+05	
107	5.350000e+00	3.356478e+05	
108	5.400000e+00	3.390255e+05	
109	5.450000e+00	3.423824e+05	
110	5.500000e+00	3.457184e+05	
111	5.550000e+00	3.490340e+05	
112	5.600000e+00	3.523291e+05	

Index   v-sweep         rds             
--------------------------------------------------------------------------------
113	5.650000e+00	3.556041e+05	
114	5.700000e+00	3.588590e+05	
115	5.750000e+00	3.620940e+05	
116	5.800000e+00	3.653094e+05	
117	5.850000e+00	3.685052e+05	
118	5.900000e+00	3.716817e+05	
119	5.950000e+00	3.748389e+05	
120	6.000000e+00	3.779772e+05	
121	6.050000e+00	3.810966e+05	
122	6.100000e+00	3.841973e+05	
123	6.150000e+00	3.872795e+05	
124	6.200000e+00	3.903433e+05	
125	6.250000e+00	3.933888e+05	
126	6.300000e+00	3.964163e+05	
127	6.350000e+00	3.994259e+05	
128	6.400000e+00	4.024177e+05	
129	6.450000e+00	4.053919e+05	
130	6.500000e+00	4.083486e+05	
131	6.550000e+00	4.112880e+05	
132	6.600000e+00	4.142103e+05	
Reset re-loads circuit ***************************

Circuit: ***************************

Doing analysis at TEMP = -40.000000 and TNOM = -40.000000


No. of Data Rows : 133
                          ***************************
                          DC transfer characteristic  Mon Jan  9 13:57:42  2023
--------------------------------------------------------------------------------
Index   v-sweep         rds             
--------------------------------------------------------------------------------
0	0.000000e+00	1.513052e+03	
1	5.000000e-02	1.572281e+03	
2	1.000000e-01	1.633936e+03	
3	1.500000e-01	1.698155e+03	
4	2.000000e-01	1.765089e+03	
5	2.500000e-01	1.834903e+03	
6	3.000000e-01	1.907782e+03	
7	3.500000e-01	1.983929e+03	
8	4.000000e-01	2.063570e+03	
9	4.500000e-01	2.146957e+03	
10	5.000000e-01	2.234371e+03	
11	5.500000e-01	2.326124e+03	
12	6.000000e-01	2.422562e+03	
13	6.500000e-01	2.524071e+03	
14	7.000000e-01	2.631078e+03	
15	7.500000e-01	2.744060e+03	
16	8.000000e-01	2.863550e+03	
17	8.500000e-01	2.990144e+03	
18	9.000000e-01	3.124515e+03	
19	9.500000e-01	3.267432e+03	
20	1.000000e+00	3.419781e+03	
21	1.050000e+00	3.582603e+03	
22	1.100000e+00	3.757149e+03	
23	1.150000e+00	3.944963e+03	
24	1.200000e+00	4.148021e+03	
25	1.250000e+00	4.368955e+03	
26	1.300000e+00	4.611434e+03	
27	1.350000e+00	4.880824e+03	
28	1.400000e+00	5.185318e+03	
29	1.450000e+00	5.537885e+03	
30	1.500000e+00	5.959461e+03	
31	1.550000e+00	6.483635e+03	
32	1.600000e+00	7.161953e+03	
33	1.650000e+00	8.066006e+03	
34	1.700000e+00	9.279185e+03	
35	1.750000e+00	1.087442e+04	
36	1.800000e+00	1.288852e+04	
37	1.850000e+00	1.531224e+04	
38	1.900000e+00	1.810136e+04	
39	1.950000e+00	2.119609e+04	
40	2.000000e+00	2.453628e+04	
41	2.050000e+00	2.806905e+04	
42	2.100000e+00	3.175096e+04	
43	2.150000e+00	3.554749e+04	
44	2.200000e+00	3.943159e+04	
45	2.250000e+00	4.338216e+04	
46	2.300000e+00	4.738271e+04	
47	2.350000e+00	5.142026e+04	
48	2.400000e+00	5.548455e+04	
49	2.450000e+00	5.956737e+04	
50	2.500000e+00	6.366215e+04	
51	2.550000e+00	6.776356e+04	
52	2.600000e+00	7.186725e+04	
53	2.650000e+00	7.596966e+04	
54	2.700000e+00	8.006784e+04	

Index   v-sweep         rds             
--------------------------------------------------------------------------------
55	2.750000e+00	8.415935e+04	
56	2.800000e+00	8.824216e+04	
57	2.850000e+00	9.231454e+04	
58	2.900000e+00	9.637507e+04	
59	2.950000e+00	1.004225e+05	
60	3.000000e+00	1.044559e+05	
61	3.050000e+00	1.084744e+05	
62	3.100000e+00	1.124771e+05	
63	3.150000e+00	1.164636e+05	
64	3.200000e+00	1.204332e+05	
65	3.250000e+00	1.243856e+05	
66	3.300000e+00	1.283204e+05	
67	3.350000e+00	1.322372e+05	
68	3.400000e+00	1.361357e+05	
69	3.450000e+00	1.400159e+05	
70	3.500000e+00	1.438775e+05	
71	3.550000e+00	1.477203e+05	
72	3.600000e+00	1.515442e+05	
73	3.650000e+00	1.553492e+05	
74	3.700000e+00	1.591352e+05	
75	3.750000e+00	1.629021e+05	
76	3.800000e+00	1.666500e+05	
77	3.850000e+00	1.703788e+05	
78	3.900000e+00	1.740885e+05	
79	3.950000e+00	1.777791e+05	
80	4.000000e+00	1.814507e+05	
81	4.050000e+00	1.851033e+05	
82	4.100000e+00	1.887369e+05	
83	4.150000e+00	1.923516e+05	
84	4.200000e+00	1.959476e+05	
85	4.250000e+00	1.995247e+05	
86	4.300000e+00	2.030831e+05	
87	4.350000e+00	2.066229e+05	
88	4.400000e+00	2.101442e+05	
89	4.450000e+00	2.136470e+05	
90	4.500000e+00	2.171315e+05	
91	4.550000e+00	2.205977e+05	
92	4.600000e+00	2.240457e+05	
93	4.650000e+00	2.274757e+05	
94	4.700000e+00	2.308876e+05	
95	4.750000e+00	2.342817e+05	
96	4.800000e+00	2.376580e+05	
97	4.850000e+00	2.410166e+05	
98	4.900000e+00	2.443577e+05	
99	4.950000e+00	2.476813e+05	
100	5.000000e+00	2.509875e+05	
101	5.050000e+00	2.542766e+05	
102	5.100000e+00	2.575484e+05	
103	5.150000e+00	2.608033e+05	
104	5.200000e+00	2.640412e+05	
105	5.250000e+00	2.672623e+05	
106	5.300000e+00	2.704667e+05	
107	5.350000e+00	2.736545e+05	
108	5.400000e+00	2.768258e+05	
109	5.450000e+00	2.799808e+05	
110	5.500000e+00	2.831194e+05	
111	5.550000e+00	2.862420e+05	
112	5.600000e+00	2.893485e+05	

Index   v-sweep         rds             
--------------------------------------------------------------------------------
113	5.650000e+00	2.924390e+05	
114	5.700000e+00	2.955137e+05	
115	5.750000e+00	2.985727e+05	
116	5.800000e+00	3.016161e+05	
117	5.850000e+00	3.046439e+05	
118	5.900000e+00	3.076564e+05	
119	5.950000e+00	3.106536e+05	
120	6.000000e+00	3.136355e+05	
121	6.050000e+00	3.166024e+05	
122	6.100000e+00	3.195543e+05	
123	6.150000e+00	3.224914e+05	
124	6.200000e+00	3.254136e+05	
125	6.250000e+00	3.283212e+05	
126	6.300000e+00	3.312142e+05	
127	6.350000e+00	3.340927e+05	
128	6.400000e+00	3.369569e+05	
129	6.450000e+00	3.398068e+05	
130	6.500000e+00	3.426425e+05	
131	6.550000e+00	3.454642e+05	
132	6.600000e+00	3.482719e+05	
Reset re-loads circuit ***************************

Circuit: ***************************

Note: No ".plot", ".print", or ".fourier" lines; no simulations run
