
Note: Compatibility modes selected: hs

Warning: m=xx on .subckt line will override multiplier m hierarchy!


Circuit: ***************************

Doing analysis at TEMP = 25.000000 and TNOM = 25.000000


No. of Data Rows : 133
                          ***************************
                          DC transfer characteristic  Mon Jan  9 13:57:42  2023
--------------------------------------------------------------------------------
Index   v-sweep         rds             
--------------------------------------------------------------------------------
0	0.000000e+00	4.302851e+05	
1	5.000000e-02	5.163942e+05	
2	1.000000e-01	6.442501e+05	
3	1.500000e-01	8.522516e+05	
4	2.000000e-01	1.239270e+06	
5	2.500000e-01	2.107759e+06	
6	3.000000e-01	4.440689e+06	
7	3.500000e-01	1.059767e+07	
8	4.000000e-01	2.304579e+07	
9	4.500000e-01	4.128439e+07	
10	5.000000e-01	6.215874e+07	
11	5.500000e-01	8.261360e+07	
12	6.000000e-01	1.010088e+08	
13	6.500000e-01	1.168744e+08	
14	7.000000e-01	1.303336e+08	
15	7.500000e-01	1.417171e+08	
16	8.000000e-01	1.513819e+08	
17	8.500000e-01	1.596448e+08	
18	9.000000e-01	1.667672e+08	
19	9.500000e-01	1.729583e+08	
20	1.000000e+00	1.783836e+08	
21	1.050000e+00	1.831741e+08	
22	1.100000e+00	1.874338e+08	
23	1.150000e+00	1.912458e+08	
24	1.200000e+00	1.946772e+08	
25	1.250000e+00	1.977826e+08	
26	1.300000e+00	2.006064e+08	
27	1.350000e+00	2.031857e+08	
28	1.400000e+00	2.055511e+08	
29	1.450000e+00	2.077284e+08	
30	1.500000e+00	2.097395e+08	
31	1.550000e+00	2.116028e+08	
32	1.600000e+00	2.133342e+08	
33	1.650000e+00	2.149474e+08	
34	1.700000e+00	2.164543e+08	
35	1.750000e+00	2.178650e+08	
36	1.800000e+00	2.191885e+08	
37	1.850000e+00	2.204329e+08	
38	1.900000e+00	2.216050e+08	
39	1.950000e+00	2.227109e+08	
40	2.000000e+00	2.237563e+08	
41	2.050000e+00	2.247459e+08	
42	2.100000e+00	2.256841e+08	
43	2.150000e+00	2.265748e+08	
44	2.200000e+00	2.274216e+08	
45	2.250000e+00	2.282277e+08	
46	2.300000e+00	2.289959e+08	
47	2.350000e+00	2.297289e+08	
48	2.400000e+00	2.304289e+08	
49	2.450000e+00	2.310983e+08	
50	2.500000e+00	2.317389e+08	
51	2.550000e+00	2.323526e+08	
52	2.600000e+00	2.329411e+08	
53	2.650000e+00	2.335058e+08	
54	2.700000e+00	2.340482e+08	

Index   v-sweep         rds             
--------------------------------------------------------------------------------
55	2.750000e+00	2.345696e+08	
56	2.800000e+00	2.350712e+08	
57	2.850000e+00	2.355540e+08	
58	2.900000e+00	2.360192e+08	
59	2.950000e+00	2.364676e+08	
60	3.000000e+00	2.369001e+08	
61	3.050000e+00	2.373176e+08	
62	3.100000e+00	2.377209e+08	
63	3.150000e+00	2.381106e+08	
64	3.200000e+00	2.384874e+08	
65	3.250000e+00	2.388520e+08	
66	3.300000e+00	2.392048e+08	
67	3.350000e+00	2.395466e+08	
68	3.400000e+00	2.398778e+08	
69	3.450000e+00	2.401988e+08	
70	3.500000e+00	2.405102e+08	
71	3.550000e+00	2.408123e+08	
72	3.600000e+00	2.411056e+08	
73	3.650000e+00	2.413904e+08	
74	3.700000e+00	2.416671e+08	
75	3.750000e+00	2.419360e+08	
76	3.800000e+00	2.421975e+08	
77	3.850000e+00	2.424519e+08	
78	3.900000e+00	2.426994e+08	
79	3.950000e+00	2.429403e+08	
80	4.000000e+00	2.431749e+08	
81	4.050000e+00	2.434034e+08	
82	4.100000e+00	2.436261e+08	
83	4.150000e+00	2.438431e+08	
84	4.200000e+00	2.440547e+08	
85	4.250000e+00	2.442611e+08	
86	4.300000e+00	2.444624e+08	
87	4.350000e+00	2.446589e+08	
88	4.400000e+00	2.448506e+08	
89	4.450000e+00	2.450379e+08	
90	4.500000e+00	2.452208e+08	
91	4.550000e+00	2.453995e+08	
92	4.600000e+00	2.455741e+08	
93	4.650000e+00	2.457448e+08	
94	4.700000e+00	2.459116e+08	
95	4.750000e+00	2.460748e+08	
96	4.800000e+00	2.462344e+08	
97	4.850000e+00	2.463906e+08	
98	4.900000e+00	2.465434e+08	
99	4.950000e+00	2.466930e+08	
100	5.000000e+00	2.468394e+08	
101	5.050000e+00	2.469828e+08	
102	5.100000e+00	2.471233e+08	
103	5.150000e+00	2.472609e+08	
104	5.200000e+00	2.473957e+08	
105	5.250000e+00	2.475278e+08	
106	5.300000e+00	2.476573e+08	
107	5.350000e+00	2.477843e+08	
108	5.400000e+00	2.479088e+08	
109	5.450000e+00	2.480309e+08	
110	5.500000e+00	2.481507e+08	
111	5.550000e+00	2.482682e+08	
112	5.600000e+00	2.483835e+08	

Index   v-sweep         rds             
--------------------------------------------------------------------------------
113	5.650000e+00	2.484967e+08	
114	5.700000e+00	2.486078e+08	
115	5.750000e+00	2.487168e+08	
116	5.800000e+00	2.488239e+08	
117	5.850000e+00	2.489291e+08	
118	5.900000e+00	2.490324e+08	
119	5.950000e+00	2.491339e+08	
120	6.000000e+00	2.492336e+08	
121	6.050000e+00	2.493315e+08	
122	6.100000e+00	2.494278e+08	
123	6.150000e+00	2.495225e+08	
124	6.200000e+00	2.496155e+08	
125	6.250000e+00	2.497070e+08	
126	6.300000e+00	2.497969e+08	
127	6.350000e+00	2.498854e+08	
128	6.400000e+00	2.499724e+08	
129	6.450000e+00	2.500580e+08	
130	6.500000e+00	2.501422e+08	
131	6.550000e+00	2.502250e+08	
132	6.600000e+00	2.503066e+08	
Reset re-loads circuit ***************************

Circuit: ***************************

Doing analysis at TEMP = 25.000000 and TNOM = 25.000000


No. of Data Rows : 133
                          ***************************
                          DC transfer characteristic  Mon Jan  9 13:57:42  2023
--------------------------------------------------------------------------------
Index   v-sweep         rds             
--------------------------------------------------------------------------------
0	0.000000e+00	1.207704e+05	
1	5.000000e-02	1.270619e+05	
2	1.000000e-01	1.340066e+05	
3	1.500000e-01	1.417117e+05	
4	2.000000e-01	1.503093e+05	
5	2.500000e-01	1.599637e+05	
6	3.000000e-01	1.708820e+05	
7	3.500000e-01	1.833291e+05	
8	4.000000e-01	1.976495e+05	
9	4.500000e-01	2.142987e+05	
10	5.000000e-01	2.338917e+05	
11	5.500000e-01	2.572788e+05	
12	6.000000e-01	2.856682e+05	
13	6.500000e-01	3.208299e+05	
14	7.000000e-01	3.654535e+05	
15	7.500000e-01	4.237959e+05	
16	8.000000e-01	5.029069e+05	
17	8.500000e-01	6.150066e+05	
18	9.000000e-01	7.820686e+05	
19	9.500000e-01	1.043870e+06	
20	1.000000e+00	1.468244e+06	
21	1.050000e+00	2.152467e+06	
22	1.100000e+00	3.195712e+06	
23	1.150000e+00	4.647351e+06	
24	1.200000e+00	6.477915e+06	
25	1.250000e+00	8.598293e+06	
26	1.300000e+00	1.090003e+07	
27	1.350000e+00	1.328524e+07	
28	1.400000e+00	1.567882e+07	
29	1.450000e+00	1.802898e+07	
30	1.500000e+00	2.030300e+07	
31	1.550000e+00	2.248209e+07	
32	1.600000e+00	2.455706e+07	
33	1.650000e+00	2.652500e+07	
34	1.700000e+00	2.838693e+07	
35	1.750000e+00	3.014627e+07	
36	1.800000e+00	3.180778e+07	
37	1.850000e+00	3.337689e+07	
38	1.900000e+00	3.485925e+07	
39	1.950000e+00	3.626053e+07	
40	2.000000e+00	3.758618e+07	
41	2.050000e+00	3.884143e+07	
42	2.100000e+00	4.003114e+07	
43	2.150000e+00	4.115988e+07	
44	2.200000e+00	4.223187e+07	
45	2.250000e+00	4.325102e+07	
46	2.300000e+00	4.422092e+07	
47	2.350000e+00	4.514489e+07	
48	2.400000e+00	4.602599e+07	
49	2.450000e+00	4.686701e+07	
50	2.500000e+00	4.767055e+07	
51	2.550000e+00	4.843897e+07	
52	2.600000e+00	4.917448e+07	
53	2.650000e+00	4.987908e+07	
54	2.700000e+00	5.055465e+07	

Index   v-sweep         rds             
--------------------------------------------------------------------------------
55	2.750000e+00	5.120291e+07	
56	2.800000e+00	5.182545e+07	
57	2.850000e+00	5.242375e+07	
58	2.900000e+00	5.299917e+07	
59	2.950000e+00	5.355298e+07	
60	3.000000e+00	5.408637e+07	
61	3.050000e+00	5.460042e+07	
62	3.100000e+00	5.509616e+07	
63	3.150000e+00	5.557453e+07	
64	3.200000e+00	5.603643e+07	
65	3.250000e+00	5.648268e+07	
66	3.300000e+00	5.691406e+07	
67	3.350000e+00	5.733129e+07	
68	3.400000e+00	5.773505e+07	
69	3.450000e+00	5.812598e+07	
70	3.500000e+00	5.850467e+07	
71	3.550000e+00	5.887168e+07	
72	3.600000e+00	5.922755e+07	
73	3.650000e+00	5.957277e+07	
74	3.700000e+00	5.990781e+07	
75	3.750000e+00	6.023310e+07	
76	3.800000e+00	6.054907e+07	
77	3.850000e+00	6.085610e+07	
78	3.900000e+00	6.115457e+07	
79	3.950000e+00	6.144484e+07	
80	4.000000e+00	6.172722e+07	
81	4.050000e+00	6.200204e+07	
82	4.100000e+00	6.226959e+07	
83	4.150000e+00	6.253015e+07	
84	4.200000e+00	6.278401e+07	
85	4.250000e+00	6.303140e+07	
86	4.300000e+00	6.327257e+07	
87	4.350000e+00	6.350776e+07	
88	4.400000e+00	6.373717e+07	
89	4.450000e+00	6.396102e+07	
90	4.500000e+00	6.417952e+07	
91	4.550000e+00	6.439284e+07	
92	4.600000e+00	6.460116e+07	
93	4.650000e+00	6.480467e+07	
94	4.700000e+00	6.500352e+07	
95	4.750000e+00	6.519787e+07	
96	4.800000e+00	6.538788e+07	
97	4.850000e+00	6.557368e+07	
98	4.900000e+00	6.575541e+07	
99	4.950000e+00	6.593320e+07	
100	5.000000e+00	6.610719e+07	
101	5.050000e+00	6.627748e+07	
102	5.100000e+00	6.644420e+07	
103	5.150000e+00	6.660745e+07	
104	5.200000e+00	6.676735e+07	
105	5.250000e+00	6.692399e+07	
106	5.300000e+00	6.707748e+07	
107	5.350000e+00	6.722790e+07	
108	5.400000e+00	6.737535e+07	
109	5.450000e+00	6.751991e+07	
110	5.500000e+00	6.766166e+07	
111	5.550000e+00	6.780070e+07	
112	5.600000e+00	6.793709e+07	

Index   v-sweep         rds             
--------------------------------------------------------------------------------
113	5.650000e+00	6.807090e+07	
114	5.700000e+00	6.820222e+07	
115	5.750000e+00	6.833111e+07	
116	5.800000e+00	6.845763e+07	
117	5.850000e+00	6.858185e+07	
118	5.900000e+00	6.870383e+07	
119	5.950000e+00	6.882364e+07	
120	6.000000e+00	6.894132e+07	
121	6.050000e+00	6.905694e+07	
122	6.100000e+00	6.917054e+07	
123	6.150000e+00	6.928219e+07	
124	6.200000e+00	6.939192e+07	
125	6.250000e+00	6.949979e+07	
126	6.300000e+00	6.960585e+07	
127	6.350000e+00	6.971014e+07	
128	6.400000e+00	6.981270e+07	
129	6.450000e+00	6.991357e+07	
130	6.500000e+00	7.001280e+07	
131	6.550000e+00	7.011043e+07	
132	6.600000e+00	7.020649e+07	
Reset re-loads circuit ***************************

Circuit: ***************************

Doing analysis at TEMP = 25.000000 and TNOM = 25.000000


No. of Data Rows : 133
                          ***************************
                          DC transfer characteristic  Mon Jan  9 13:57:42  2023
--------------------------------------------------------------------------------
Index   v-sweep         rds             
--------------------------------------------------------------------------------
0	0.000000e+00	7.504929e+04	
1	5.000000e-02	7.734021e+04	
2	1.000000e-01	7.976222e+04	
3	1.500000e-01	8.232692e+04	
4	2.000000e-01	8.504728e+04	
5	2.500000e-01	8.793789e+04	
6	3.000000e-01	9.101524e+04	
7	3.500000e-01	9.429802e+04	
8	4.000000e-01	9.780749e+04	
9	4.500000e-01	1.015680e+05	
10	5.000000e-01	1.056073e+05	
11	5.500000e-01	1.099578e+05	
12	6.000000e-01	1.146567e+05	
13	6.500000e-01	1.197477e+05	
14	7.000000e-01	1.252818e+05	
15	7.500000e-01	1.313197e+05	
16	8.000000e-01	1.379333e+05	
17	8.500000e-01	1.452090e+05	
18	9.000000e-01	1.532515e+05	
19	9.500000e-01	1.621885e+05	
20	1.000000e+00	1.721780e+05	
21	1.050000e+00	1.834173e+05	
22	1.100000e+00	1.961562e+05	
23	1.150000e+00	2.107154e+05	
24	1.200000e+00	2.275136e+05	
25	1.250000e+00	2.471070e+05	
26	1.300000e+00	2.702499e+05	
27	1.350000e+00	2.979877e+05	
28	1.400000e+00	3.318059e+05	
29	1.450000e+00	3.738687e+05	
30	1.500000e+00	4.274106e+05	
31	1.550000e+00	4.973668e+05	
32	1.600000e+00	5.913421e+05	
33	1.650000e+00	7.209039e+05	
34	1.700000e+00	9.027520e+05	
35	1.750000e+00	1.158452e+06	
36	1.800000e+00	1.510942e+06	
37	1.850000e+00	1.977845e+06	
38	1.900000e+00	2.565230e+06	
39	1.950000e+00	3.266045e+06	
40	2.000000e+00	4.063473e+06	
41	2.050000e+00	4.936121e+06	
42	2.100000e+00	5.862321e+06	
43	2.150000e+00	6.822636e+06	
44	2.200000e+00	7.800879e+06	
45	2.250000e+00	8.784204e+06	
46	2.300000e+00	9.762779e+06	
47	2.350000e+00	1.072929e+07	
48	2.400000e+00	1.167843e+07	
49	2.450000e+00	1.260649e+07	
50	2.500000e+00	1.351098e+07	
51	2.550000e+00	1.439031e+07	
52	2.600000e+00	1.524361e+07	
53	2.650000e+00	1.607051e+07	
54	2.700000e+00	1.687101e+07	

Index   v-sweep         rds             
--------------------------------------------------------------------------------
55	2.750000e+00	1.764542e+07	
56	2.800000e+00	1.839423e+07	
57	2.850000e+00	1.911806e+07	
58	2.900000e+00	1.981764e+07	
59	2.950000e+00	2.049375e+07	
60	3.000000e+00	2.114721e+07	
61	3.050000e+00	2.177886e+07	
62	3.100000e+00	2.238953e+07	
63	3.150000e+00	2.298005e+07	
64	3.200000e+00	2.355123e+07	
65	3.250000e+00	2.410387e+07	
66	3.300000e+00	2.463873e+07	
67	3.350000e+00	2.515655e+07	
68	3.400000e+00	2.565805e+07	
69	3.450000e+00	2.614390e+07	
70	3.500000e+00	2.661477e+07	
71	3.550000e+00	2.707127e+07	
72	3.600000e+00	2.751400e+07	
73	3.650000e+00	2.794354e+07	
74	3.700000e+00	2.836042e+07	
75	3.750000e+00	2.876516e+07	
76	3.800000e+00	2.915826e+07	
77	3.850000e+00	2.954018e+07	
78	3.900000e+00	2.991137e+07	
79	3.950000e+00	3.027225e+07	
80	4.000000e+00	3.062324e+07	
81	4.050000e+00	3.096470e+07	
82	4.100000e+00	3.129702e+07	
83	4.150000e+00	3.162053e+07	
84	4.200000e+00	3.193558e+07	
85	4.250000e+00	3.224248e+07	
86	4.300000e+00	3.254153e+07	
87	4.350000e+00	3.283302e+07	
88	4.400000e+00	3.311723e+07	
89	4.450000e+00	3.339441e+07	
90	4.500000e+00	3.366482e+07	
91	4.550000e+00	3.392870e+07	
92	4.600000e+00	3.418627e+07	
93	4.650000e+00	3.443776e+07	
94	4.700000e+00	3.468336e+07	
95	4.750000e+00	3.492329e+07	
96	4.800000e+00	3.515773e+07	
97	4.850000e+00	3.538686e+07	
98	4.900000e+00	3.561086e+07	
99	4.950000e+00	3.582990e+07	
100	5.000000e+00	3.604413e+07	
101	5.050000e+00	3.625371e+07	
102	5.100000e+00	3.645879e+07	
103	5.150000e+00	3.665951e+07	
104	5.200000e+00	3.685600e+07	
105	5.250000e+00	3.704839e+07	
106	5.300000e+00	3.723681e+07	
107	5.350000e+00	3.742138e+07	
108	5.400000e+00	3.760222e+07	
109	5.450000e+00	3.777943e+07	
110	5.500000e+00	3.795312e+07	
111	5.550000e+00	3.812339e+07	
112	5.600000e+00	3.829035e+07	

Index   v-sweep         rds             
--------------------------------------------------------------------------------
113	5.650000e+00	3.845408e+07	
114	5.700000e+00	3.861468e+07	
115	5.750000e+00	3.877223e+07	
116	5.800000e+00	3.892683e+07	
117	5.850000e+00	3.907855e+07	
118	5.900000e+00	3.922746e+07	
119	5.950000e+00	3.937366e+07	
120	6.000000e+00	3.951721e+07	
121	6.050000e+00	3.965817e+07	
122	6.100000e+00	3.979663e+07	
123	6.150000e+00	3.993264e+07	
124	6.200000e+00	4.006626e+07	
125	6.250000e+00	4.019757e+07	
126	6.300000e+00	4.032662e+07	
127	6.350000e+00	4.045346e+07	
128	6.400000e+00	4.057815e+07	
129	6.450000e+00	4.070075e+07	
130	6.500000e+00	4.082131e+07	
131	6.550000e+00	4.093987e+07	
132	6.600000e+00	4.105649e+07	
Reset re-loads circuit ***************************

Circuit: ***************************

Doing analysis at TEMP = 25.000000 and TNOM = 25.000000


No. of Data Rows : 133
                          ***************************
                          DC transfer characteristic  Mon Jan  9 13:57:42  2023
--------------------------------------------------------------------------------
Index   v-sweep         rds             
--------------------------------------------------------------------------------
0	0.000000e+00	5.754370e+04	
1	5.000000e-02	5.879221e+04	
2	1.000000e-01	6.008941e+04	
3	1.500000e-01	6.143820e+04	
4	2.000000e-01	6.284170e+04	
5	2.500000e-01	6.430331e+04	
6	3.000000e-01	6.582672e+04	
7	3.500000e-01	6.741591e+04	
8	4.000000e-01	6.907524e+04	
9	4.500000e-01	7.080945e+04	
10	5.000000e-01	7.262372e+04	
11	5.500000e-01	7.452371e+04	
12	6.000000e-01	7.651565e+04	
13	6.500000e-01	7.860636e+04	
14	7.000000e-01	8.080338e+04	
15	7.500000e-01	8.311501e+04	
16	8.000000e-01	8.555046e+04	
17	8.500000e-01	8.811995e+04	
18	9.000000e-01	9.083485e+04	
19	9.500000e-01	9.370787e+04	
20	1.000000e+00	9.675322e+04	
21	1.050000e+00	9.998689e+04	
22	1.100000e+00	1.034269e+05	
23	1.150000e+00	1.070937e+05	
24	1.200000e+00	1.110105e+05	
25	1.250000e+00	1.152037e+05	
26	1.300000e+00	1.197037e+05	
27	1.350000e+00	1.245456e+05	
28	1.400000e+00	1.297698e+05	
29	1.450000e+00	1.354236e+05	
30	1.500000e+00	1.415625e+05	
31	1.550000e+00	1.482518e+05	
32	1.600000e+00	1.555692e+05	
33	1.650000e+00	1.636080e+05	
34	1.700000e+00	1.724808e+05	
35	1.750000e+00	1.823251e+05	
36	1.800000e+00	1.933107e+05	
37	1.850000e+00	2.056495e+05	
38	1.900000e+00	2.196093e+05	
39	1.950000e+00	2.355339e+05	
40	2.000000e+00	2.538713e+05	
41	2.050000e+00	2.752151e+05	
42	2.100000e+00	3.003666e+05	
43	2.150000e+00	3.304276e+05	
44	2.200000e+00	3.669384e+05	
45	2.250000e+00	4.120832e+05	
46	2.300000e+00	4.689755e+05	
47	2.350000e+00	5.420163e+05	
48	2.400000e+00	6.372322e+05	
49	2.450000e+00	7.623589e+05	
50	2.500000e+00	9.262975e+05	
51	2.550000e+00	1.137705e+06	
52	2.600000e+00	1.403042e+06	
53	2.650000e+00	1.724982e+06	
54	2.700000e+00	2.101982e+06	

Index   v-sweep         rds             
--------------------------------------------------------------------------------
55	2.750000e+00	2.529039e+06	
56	2.800000e+00	2.999015e+06	
57	2.850000e+00	3.503938e+06	
58	2.900000e+00	4.035936e+06	
59	2.950000e+00	4.587797e+06	
60	3.000000e+00	5.153214e+06	
61	3.050000e+00	5.726852e+06	
62	3.100000e+00	6.304294e+06	
63	3.150000e+00	6.881946e+06	
64	3.200000e+00	7.456928e+06	
65	3.250000e+00	8.026955e+06	
66	3.300000e+00	8.590242e+06	
67	3.350000e+00	9.145413e+06	
68	3.400000e+00	9.691425e+06	
69	3.450000e+00	1.022751e+07	
70	3.500000e+00	1.075311e+07	
71	3.550000e+00	1.126785e+07	
72	3.600000e+00	1.177150e+07	
73	3.650000e+00	1.226394e+07	
74	3.700000e+00	1.274515e+07	
75	3.750000e+00	1.321516e+07	
76	3.800000e+00	1.367407e+07	
77	3.850000e+00	1.412203e+07	
78	3.900000e+00	1.455922e+07	
79	3.950000e+00	1.498583e+07	
80	4.000000e+00	1.540210e+07	
81	4.050000e+00	1.580826e+07	
82	4.100000e+00	1.620456e+07	
83	4.150000e+00	1.659125e+07	
84	4.200000e+00	1.696858e+07	
85	4.250000e+00	1.733681e+07	
86	4.300000e+00	1.769621e+07	
87	4.350000e+00	1.804701e+07	
88	4.400000e+00	1.838947e+07	
89	4.450000e+00	1.872385e+07	
90	4.500000e+00	1.905037e+07	
91	4.550000e+00	1.936927e+07	
92	4.600000e+00	1.968079e+07	
93	4.650000e+00	1.998514e+07	
94	4.700000e+00	2.028255e+07	
95	4.750000e+00	2.057321e+07	
96	4.800000e+00	2.085735e+07	
97	4.850000e+00	2.113515e+07	
98	4.900000e+00	2.140681e+07	
99	4.950000e+00	2.167251e+07	
100	5.000000e+00	2.193243e+07	
101	5.050000e+00	2.218674e+07	
102	5.100000e+00	2.243562e+07	
103	5.150000e+00	2.267921e+07	
104	5.200000e+00	2.291768e+07	
105	5.250000e+00	2.315118e+07	
106	5.300000e+00	2.337986e+07	
107	5.350000e+00	2.360385e+07	
108	5.400000e+00	2.382328e+07	
109	5.450000e+00	2.403830e+07	
110	5.500000e+00	2.424902e+07	
111	5.550000e+00	2.445556e+07	
112	5.600000e+00	2.465806e+07	

Index   v-sweep         rds             
--------------------------------------------------------------------------------
113	5.650000e+00	2.485660e+07	
114	5.700000e+00	2.505132e+07	
115	5.750000e+00	2.524231e+07	
116	5.800000e+00	2.542967e+07	
117	5.850000e+00	2.561351e+07	
118	5.900000e+00	2.579392e+07	
119	5.950000e+00	2.597099e+07	
120	6.000000e+00	2.614480e+07	
121	6.050000e+00	2.631546e+07	
122	6.100000e+00	2.648303e+07	
123	6.150000e+00	2.664760e+07	
124	6.200000e+00	2.680925e+07	
125	6.250000e+00	2.696805e+07	
126	6.300000e+00	2.712407e+07	
127	6.350000e+00	2.727739e+07	
128	6.400000e+00	2.742807e+07	
129	6.450000e+00	2.757618e+07	
130	6.500000e+00	2.772178e+07	
131	6.550000e+00	2.786494e+07	
132	6.600000e+00	2.800571e+07	
Reset re-loads circuit ***************************

Circuit: ***************************

Doing analysis at TEMP = 25.000000 and TNOM = 25.000000


No. of Data Rows : 133
                          ***************************
                          DC transfer characteristic  Mon Jan  9 13:57:42  2023
--------------------------------------------------------------------------------
Index   v-sweep         rds             
--------------------------------------------------------------------------------
0	0.000000e+00	4.885533e+04	
1	5.000000e-02	4.967530e+04	
2	1.000000e-01	5.051922e+04	
3	1.500000e-01	5.138816e+04	
4	2.000000e-01	5.228325e+04	
5	2.500000e-01	5.320567e+04	
6	3.000000e-01	5.415670e+04	
7	3.500000e-01	5.513769e+04	
8	4.000000e-01	5.615007e+04	
9	4.500000e-01	5.719536e+04	
10	5.000000e-01	5.827521e+04	
11	5.500000e-01	5.939134e+04	
12	6.000000e-01	6.054561e+04	
13	6.500000e-01	6.174000e+04	
14	7.000000e-01	6.297665e+04	
15	7.500000e-01	6.425783e+04	
16	8.000000e-01	6.558599e+04	
17	8.500000e-01	6.696375e+04	
18	9.000000e-01	6.839395e+04	
19	9.500000e-01	6.987962e+04	
20	1.000000e+00	7.142407e+04	
21	1.050000e+00	7.303084e+04	
22	1.100000e+00	7.470378e+04	
23	1.150000e+00	7.644705e+04	
24	1.200000e+00	7.826520e+04	
25	1.250000e+00	8.016315e+04	
26	1.300000e+00	8.214626e+04	
27	1.350000e+00	8.422040e+04	
28	1.400000e+00	8.639198e+04	
29	1.450000e+00	8.866804e+04	
30	1.500000e+00	9.105631e+04	
31	1.550000e+00	9.356530e+04	
32	1.600000e+00	9.620441e+04	
33	1.650000e+00	9.898405e+04	
34	1.700000e+00	1.019157e+05	
35	1.750000e+00	1.050124e+05	
36	1.800000e+00	1.082883e+05	
37	1.850000e+00	1.117595e+05	
38	1.900000e+00	1.154442e+05	
39	1.950000e+00	1.193626e+05	
40	2.000000e+00	1.235379e+05	
41	2.050000e+00	1.279963e+05	
42	2.100000e+00	1.327678e+05	
43	2.150000e+00	1.378867e+05	
44	2.200000e+00	1.433927e+05	
45	2.250000e+00	1.493319e+05	
46	2.300000e+00	1.557579e+05	
47	2.350000e+00	1.627340e+05	
48	2.400000e+00	1.703347e+05	
49	2.450000e+00	1.786493e+05	
50	2.500000e+00	1.877850e+05	
51	2.550000e+00	1.978720e+05	
52	2.600000e+00	2.090705e+05	
53	2.650000e+00	2.215792e+05	
54	2.700000e+00	2.356482e+05	

Index   v-sweep         rds             
--------------------------------------------------------------------------------
55	2.750000e+00	2.515965e+05	
56	2.800000e+00	2.698370e+05	
57	2.850000e+00	2.909117e+05	
58	2.900000e+00	3.155428e+05	
59	2.950000e+00	3.447049e+05	
60	3.000000e+00	3.797232e+05	
61	3.050000e+00	4.224024e+05	
62	3.100000e+00	4.751726e+05	
63	3.150000e+00	5.412145e+05	
64	3.200000e+00	6.244796e+05	
65	3.250000e+00	7.294881e+05	
66	3.300000e+00	8.608227e+05	
67	3.350000e+00	1.022384e+06	
68	3.400000e+00	1.216661e+06	
69	3.450000e+00	1.444308e+06	
70	3.500000e+00	1.704175e+06	
71	3.550000e+00	1.993686e+06	
72	3.600000e+00	2.309362e+06	
73	3.650000e+00	2.647316e+06	
74	3.700000e+00	3.003623e+06	
75	3.750000e+00	3.374563e+06	
76	3.800000e+00	3.756754e+06	
77	3.850000e+00	4.147205e+06	
78	3.900000e+00	4.543325e+06	
79	3.950000e+00	4.942896e+06	
80	4.000000e+00	5.344049e+06	
81	4.050000e+00	5.745215e+06	
82	4.100000e+00	6.145091e+06	
83	4.150000e+00	6.542602e+06	
84	4.200000e+00	6.936866e+06	
85	4.250000e+00	7.327167e+06	
86	4.300000e+00	7.712928e+06	
87	4.350000e+00	8.093690e+06	
88	4.400000e+00	8.469092e+06	
89	4.450000e+00	8.838856e+06	
90	4.500000e+00	9.202775e+06	
91	4.550000e+00	9.560698e+06	
92	4.600000e+00	9.912526e+06	
93	4.650000e+00	1.025820e+07	
94	4.700000e+00	1.059769e+07	
95	4.750000e+00	1.093099e+07	
96	4.800000e+00	1.125814e+07	
97	4.850000e+00	1.157918e+07	
98	4.900000e+00	1.189417e+07	
99	4.950000e+00	1.220318e+07	
100	5.000000e+00	1.250628e+07	
101	5.050000e+00	1.280359e+07	
102	5.100000e+00	1.309518e+07	
103	5.150000e+00	1.338117e+07	
104	5.200000e+00	1.366165e+07	
105	5.250000e+00	1.393675e+07	
106	5.300000e+00	1.420656e+07	
107	5.350000e+00	1.447121e+07	
108	5.400000e+00	1.473080e+07	
109	5.450000e+00	1.498544e+07	
110	5.500000e+00	1.523525e+07	
111	5.550000e+00	1.548033e+07	
112	5.600000e+00	1.572080e+07	

Index   v-sweep         rds             
--------------------------------------------------------------------------------
113	5.650000e+00	1.595676e+07	
114	5.700000e+00	1.618832e+07	
115	5.750000e+00	1.641558e+07	
116	5.800000e+00	1.663865e+07	
117	5.850000e+00	1.685762e+07	
118	5.900000e+00	1.707259e+07	
119	5.950000e+00	1.728367e+07	
120	6.000000e+00	1.749094e+07	
121	6.050000e+00	1.769449e+07	
122	6.100000e+00	1.789441e+07	
123	6.150000e+00	1.809080e+07	
124	6.200000e+00	1.828373e+07	
125	6.250000e+00	1.847329e+07	
126	6.300000e+00	1.865956e+07	
127	6.350000e+00	1.884261e+07	
128	6.400000e+00	1.902253e+07	
129	6.450000e+00	1.919939e+07	
130	6.500000e+00	1.937326e+07	
131	6.550000e+00	1.954420e+07	
132	6.600000e+00	1.971230e+07	
Reset re-loads circuit ***************************

Circuit: ***************************

Doing analysis at TEMP = 25.000000 and TNOM = 25.000000


No. of Data Rows : 133
                          ***************************
                          DC transfer characteristic  Mon Jan  9 13:57:42  2023
--------------------------------------------------------------------------------
Index   v-sweep         rds             
--------------------------------------------------------------------------------
0	0.000000e+00	4.404743e+04	
1	5.000000e-02	4.464620e+04	
2	1.000000e-01	4.525881e+04	
3	1.500000e-01	4.588572e+04	
4	2.000000e-01	4.652744e+04	
5	2.500000e-01	4.718450e+04	
6	3.000000e-01	4.785745e+04	
7	3.500000e-01	4.854688e+04	
8	4.000000e-01	4.925340e+04	
9	4.500000e-01	4.997765e+04	
10	5.000000e-01	5.072030e+04	
11	5.500000e-01	5.148206e+04	
12	6.000000e-01	5.226368e+04	
13	6.500000e-01	5.306594e+04	
14	7.000000e-01	5.388966e+04	
15	7.500000e-01	5.473572e+04	
16	8.000000e-01	5.560503e+04	
17	8.500000e-01	5.649857e+04	
18	9.000000e-01	5.741737e+04	
19	9.500000e-01	5.836249e+04	
20	1.000000e+00	5.933509e+04	
21	1.050000e+00	6.033639e+04	
22	1.100000e+00	6.136767e+04	
23	1.150000e+00	6.243029e+04	
24	1.200000e+00	6.352570e+04	
25	1.250000e+00	6.465544e+04	
26	1.300000e+00	6.582116e+04	
27	1.350000e+00	6.702458e+04	
28	1.400000e+00	6.826758e+04	
29	1.450000e+00	6.955213e+04	
30	1.500000e+00	7.088034e+04	
31	1.550000e+00	7.225449e+04	
32	1.600000e+00	7.367699e+04	
33	1.650000e+00	7.515045e+04	
34	1.700000e+00	7.667764e+04	
35	1.750000e+00	7.826157e+04	
36	1.800000e+00	7.990544e+04	
37	1.850000e+00	8.161274e+04	
38	1.900000e+00	8.338721e+04	
39	1.950000e+00	8.523288e+04	
40	2.000000e+00	8.715414e+04	
41	2.050000e+00	8.915574e+04	
42	2.100000e+00	9.124282e+04	
43	2.150000e+00	9.342099e+04	
44	2.200000e+00	9.569636e+04	
45	2.250000e+00	9.807559e+04	
46	2.300000e+00	1.005660e+05	
47	2.350000e+00	1.031755e+05	
48	2.400000e+00	1.059130e+05	
49	2.450000e+00	1.087882e+05	
50	2.500000e+00	1.118117e+05	
51	2.550000e+00	1.149953e+05	
52	2.600000e+00	1.183523e+05	
53	2.650000e+00	1.218973e+05	
54	2.700000e+00	1.256466e+05	

Index   v-sweep         rds             
--------------------------------------------------------------------------------
55	2.750000e+00	1.296186e+05	
56	2.800000e+00	1.338340e+05	
57	2.850000e+00	1.383160e+05	
58	2.900000e+00	1.430912e+05	
59	2.950000e+00	1.481897e+05	
60	3.000000e+00	1.536460e+05	
61	3.050000e+00	1.594999e+05	
62	3.100000e+00	1.657976e+05	
63	3.150000e+00	1.725927e+05	
64	3.200000e+00	1.799482e+05	
65	3.250000e+00	1.879388e+05	
66	3.300000e+00	1.966534e+05	
67	3.350000e+00	2.061990e+05	
68	3.400000e+00	2.167061e+05	
69	3.450000e+00	2.283347e+05	
70	3.500000e+00	2.412841e+05	
71	3.550000e+00	2.558054e+05	
72	3.600000e+00	2.722186e+05	
73	3.650000e+00	2.909373e+05	
74	3.700000e+00	3.125014e+05	
75	3.750000e+00	3.376217e+05	
76	3.800000e+00	3.672377e+05	
77	3.850000e+00	4.025862e+05	
78	3.900000e+00	4.452724e+05	
79	3.950000e+00	4.973204e+05	
80	4.000000e+00	5.611638e+05	
81	4.050000e+00	6.395294e+05	
82	4.100000e+00	7.351863e+05	
83	4.150000e+00	8.505879e+05	
84	4.200000e+00	9.875044e+05	
85	4.250000e+00	1.146770e+06	
86	4.300000e+00	1.328218e+06	
87	4.350000e+00	1.530802e+06	
88	4.400000e+00	1.752818e+06	
89	4.450000e+00	1.992162e+06	
90	4.500000e+00	2.246550e+06	
91	4.550000e+00	2.513687e+06	
92	4.600000e+00	2.791379e+06	
93	4.650000e+00	3.077596e+06	
94	4.700000e+00	3.370507e+06	
95	4.750000e+00	3.668484e+06	
96	4.800000e+00	3.970102e+06	
97	4.850000e+00	4.274121e+06	
98	4.900000e+00	4.579472e+06	
99	4.950000e+00	4.885239e+06	
100	5.000000e+00	5.190638e+06	
101	5.050000e+00	5.495007e+06	
102	5.100000e+00	5.797783e+06	
103	5.150000e+00	6.098496e+06	
104	5.200000e+00	6.396749e+06	
105	5.250000e+00	6.692214e+06	
106	5.300000e+00	6.984620e+06	
107	5.350000e+00	7.273745e+06	
108	5.400000e+00	7.559410e+06	
109	5.450000e+00	7.841473e+06	
110	5.500000e+00	8.119820e+06	
111	5.550000e+00	8.394368e+06	
112	5.600000e+00	8.665056e+06	

Index   v-sweep         rds             
--------------------------------------------------------------------------------
113	5.650000e+00	8.931841e+06	
114	5.700000e+00	9.194698e+06	
115	5.750000e+00	9.453618e+06	
116	5.800000e+00	9.708602e+06	
117	5.850000e+00	9.959662e+06	
118	5.900000e+00	1.020682e+07	
119	5.950000e+00	1.045010e+07	
120	6.000000e+00	1.068955e+07	
121	6.050000e+00	1.092520e+07	
122	6.100000e+00	1.115709e+07	
123	6.150000e+00	1.138528e+07	
124	6.200000e+00	1.160982e+07	
125	6.250000e+00	1.183075e+07	
126	6.300000e+00	1.204815e+07	
127	6.350000e+00	1.226205e+07	
128	6.400000e+00	1.247253e+07	
129	6.450000e+00	1.267964e+07	
130	6.500000e+00	1.288343e+07	
131	6.550000e+00	1.308398e+07	
132	6.600000e+00	1.328133e+07	
Reset re-loads circuit ***************************

Circuit: ***************************

Note: No ".plot", ".print", or ".fourier" lines; no simulations run
