
Note: Compatibility modes selected: hs

Warning: m=xx on .subckt line will override multiplier m hierarchy!


Circuit: ***************************

Doing analysis at TEMP = 125.000000 and TNOM = 125.000000


No. of Data Rows : 133
                          ***************************
                          DC transfer characteristic  Mon Jan  9 13:57:43  2023
--------------------------------------------------------------------------------
Index   v-sweep         rds             
--------------------------------------------------------------------------------
0	0.000000e+00	3.176955e+05	
1	5.000000e-02	3.650932e+05	
2	1.000000e-01	4.287858e+05	
3	1.500000e-01	5.187404e+05	
4	2.000000e-01	6.547293e+05	
5	2.500000e-01	8.809474e+05	
6	3.000000e-01	1.311106e+06	
7	3.500000e-01	2.275013e+06	
8	4.000000e-01	4.702538e+06	
9	4.500000e-01	1.048027e+07	
10	5.000000e-01	2.153351e+07	
11	5.500000e-01	3.788909e+07	
12	6.000000e-01	5.730873e+07	
13	6.500000e-01	7.689194e+07	
14	7.000000e-01	9.460379e+07	
15	7.500000e-01	1.096116e+08	
16	8.000000e-01	1.218980e+08	
17	8.500000e-01	1.318117e+08	
18	9.000000e-01	1.397915e+08	
19	9.500000e-01	1.462429e+08	
20	1.000000e+00	1.515012e+08	
21	1.050000e+00	1.558291e+08	
22	1.100000e+00	1.594286e+08	
23	1.150000e+00	1.624536e+08	
24	1.200000e+00	1.650212e+08	
25	1.250000e+00	1.672212e+08	
26	1.300000e+00	1.691230e+08	
27	1.350000e+00	1.707804e+08	
28	1.400000e+00	1.722357e+08	
29	1.450000e+00	1.735223e+08	
30	1.500000e+00	1.746672e+08	
31	1.550000e+00	1.756918e+08	
32	1.600000e+00	1.766138e+08	
33	1.650000e+00	1.774475e+08	
34	1.700000e+00	1.782047e+08	
35	1.750000e+00	1.788955e+08	
36	1.800000e+00	1.795281e+08	
37	1.850000e+00	1.801095e+08	
38	1.900000e+00	1.806457e+08	
39	1.950000e+00	1.811416e+08	
40	2.000000e+00	1.816016e+08	
41	2.050000e+00	1.820296e+08	
42	2.100000e+00	1.824286e+08	
43	2.150000e+00	1.828016e+08	
44	2.200000e+00	1.831510e+08	
45	2.250000e+00	1.834790e+08	
46	2.300000e+00	1.837876e+08	
47	2.350000e+00	1.840783e+08	
48	2.400000e+00	1.843527e+08	
49	2.450000e+00	1.846122e+08	
50	2.500000e+00	1.848579e+08	
51	2.550000e+00	1.850909e+08	
52	2.600000e+00	1.853121e+08	
53	2.650000e+00	1.855226e+08	
54	2.700000e+00	1.857229e+08	

Index   v-sweep         rds             
--------------------------------------------------------------------------------
55	2.750000e+00	1.859138e+08	
56	2.800000e+00	1.860961e+08	
57	2.850000e+00	1.862702e+08	
58	2.900000e+00	1.864367e+08	
59	2.950000e+00	1.865961e+08	
60	3.000000e+00	1.867488e+08	
61	3.050000e+00	1.868953e+08	
62	3.100000e+00	1.870359e+08	
63	3.150000e+00	1.871709e+08	
64	3.200000e+00	1.873008e+08	
65	3.250000e+00	1.874257e+08	
66	3.300000e+00	1.875461e+08	
67	3.350000e+00	1.876620e+08	
68	3.400000e+00	1.877738e+08	
69	3.450000e+00	1.878816e+08	
70	3.500000e+00	1.879858e+08	
71	3.550000e+00	1.880864e+08	
72	3.600000e+00	1.881836e+08	
73	3.650000e+00	1.882777e+08	
74	3.700000e+00	1.883687e+08	
75	3.750000e+00	1.884569e+08	
76	3.800000e+00	1.885422e+08	
77	3.850000e+00	1.886250e+08	
78	3.900000e+00	1.887052e+08	
79	3.950000e+00	1.887831e+08	
80	4.000000e+00	1.888586e+08	
81	4.050000e+00	1.889320e+08	
82	4.100000e+00	1.890033e+08	
83	4.150000e+00	1.890725e+08	
84	4.200000e+00	1.891399e+08	
85	4.250000e+00	1.892053e+08	
86	4.300000e+00	1.892691e+08	
87	4.350000e+00	1.893311e+08	
88	4.400000e+00	1.893915e+08	
89	4.450000e+00	1.894503e+08	
90	4.500000e+00	1.895076e+08	
91	4.550000e+00	1.895634e+08	
92	4.600000e+00	1.896179e+08	
93	4.650000e+00	1.896710e+08	
94	4.700000e+00	1.897228e+08	
95	4.750000e+00	1.897734e+08	
96	4.800000e+00	1.898227e+08	
97	4.850000e+00	1.898709e+08	
98	4.900000e+00	1.899180e+08	
99	4.950000e+00	1.899640e+08	
100	5.000000e+00	1.900089e+08	
101	5.050000e+00	1.900528e+08	
102	5.100000e+00	1.900958e+08	
103	5.150000e+00	1.901378e+08	
104	5.200000e+00	1.901788e+08	
105	5.250000e+00	1.902190e+08	
106	5.300000e+00	1.902584e+08	
107	5.350000e+00	1.902969e+08	
108	5.400000e+00	1.903346e+08	
109	5.450000e+00	1.903715e+08	
110	5.500000e+00	1.904077e+08	
111	5.550000e+00	1.904431e+08	
112	5.600000e+00	1.904778e+08	

Index   v-sweep         rds             
--------------------------------------------------------------------------------
113	5.650000e+00	1.905118e+08	
114	5.700000e+00	1.905452e+08	
115	5.750000e+00	1.905779e+08	
116	5.800000e+00	1.906100e+08	
117	5.850000e+00	1.906414e+08	
118	5.900000e+00	1.906723e+08	
119	5.950000e+00	1.907026e+08	
120	6.000000e+00	1.907323e+08	
121	6.050000e+00	1.907615e+08	
122	6.100000e+00	1.907901e+08	
123	6.150000e+00	1.908182e+08	
124	6.200000e+00	1.908458e+08	
125	6.250000e+00	1.908730e+08	
126	6.300000e+00	1.908996e+08	
127	6.350000e+00	1.909258e+08	
128	6.400000e+00	1.909515e+08	
129	6.450000e+00	1.909768e+08	
130	6.500000e+00	1.910016e+08	
131	6.550000e+00	1.910260e+08	
132	6.600000e+00	1.910500e+08	
Reset re-loads circuit ***************************

Circuit: ***************************

Doing analysis at TEMP = 125.000000 and TNOM = 125.000000


No. of Data Rows : 133
                          ***************************
                          DC transfer characteristic  Mon Jan  9 13:57:43  2023
--------------------------------------------------------------------------------
Index   v-sweep         rds             
--------------------------------------------------------------------------------
0	0.000000e+00	1.059589e+05	
1	5.000000e-02	1.108861e+05	
2	1.000000e-01	1.162772e+05	
3	1.500000e-01	1.222010e+05	
4	2.000000e-01	1.287404e+05	
5	2.500000e-01	1.359967e+05	
6	3.000000e-01	1.440943e+05	
7	3.500000e-01	1.531882e+05	
8	4.000000e-01	1.634739e+05	
9	4.500000e-01	1.752015e+05	
10	5.000000e-01	1.886959e+05	
11	5.500000e-01	2.043866e+05	
12	6.000000e-01	2.228536e+05	
13	6.500000e-01	2.448982e+05	
14	7.000000e-01	2.716570e+05	
15	7.500000e-01	3.047933e+05	
16	8.000000e-01	3.468270e+05	
17	8.500000e-01	4.017334e+05	
18	9.000000e-01	4.760666e+05	
19	9.500000e-01	5.811430e+05	
20	1.000000e+00	7.373234e+05	
21	1.050000e+00	9.820456e+05	
22	1.100000e+00	1.382588e+06	
23	1.150000e+00	2.048305e+06	
24	1.200000e+00	3.123590e+06	
25	1.250000e+00	4.742621e+06	
26	1.300000e+00	6.964168e+06	
27	1.350000e+00	9.736659e+06	
28	1.400000e+00	1.291718e+07	
29	1.450000e+00	1.632259e+07	
30	1.500000e+00	1.977868e+07	
31	1.550000e+00	2.314881e+07	
32	1.600000e+00	2.634169e+07	
33	1.650000e+00	2.930640e+07	
34	1.700000e+00	3.202226e+07	
35	1.750000e+00	3.448881e+07	
36	1.800000e+00	3.671759e+07	
37	1.850000e+00	3.872650e+07	
38	1.900000e+00	4.053596e+07	
39	1.950000e+00	4.216668e+07	
40	2.000000e+00	4.363842e+07	
41	2.050000e+00	4.496933e+07	
42	2.100000e+00	4.617574e+07	
43	2.150000e+00	4.727214e+07	
44	2.200000e+00	4.827127e+07	
45	2.250000e+00	4.918425e+07	
46	2.300000e+00	5.002082e+07	
47	2.350000e+00	5.078943e+07	
48	2.400000e+00	5.149748e+07	
49	2.450000e+00	5.215139e+07	
50	2.500000e+00	5.275679e+07	
51	2.550000e+00	5.331862e+07	
52	2.600000e+00	5.384117e+07	
53	2.650000e+00	5.432827e+07	
54	2.700000e+00	5.478324e+07	

Index   v-sweep         rds             
--------------------------------------------------------------------------------
55	2.750000e+00	5.520905e+07	
56	2.800000e+00	5.560832e+07	
57	2.850000e+00	5.598338e+07	
58	2.900000e+00	5.633629e+07	
59	2.950000e+00	5.666892e+07	
60	3.000000e+00	5.698291e+07	
61	3.050000e+00	5.727976e+07	
62	3.100000e+00	5.756079e+07	
63	3.150000e+00	5.782722e+07	
64	3.200000e+00	5.808012e+07	
65	3.250000e+00	5.832050e+07	
66	3.300000e+00	5.854923e+07	
67	3.350000e+00	5.876713e+07	
68	3.400000e+00	5.897494e+07	
69	3.450000e+00	5.917333e+07	
70	3.500000e+00	5.936293e+07	
71	3.550000e+00	5.954429e+07	
72	3.600000e+00	5.971794e+07	
73	3.650000e+00	5.988435e+07	
74	3.700000e+00	6.004396e+07	
75	3.750000e+00	6.019717e+07	
76	3.800000e+00	6.034436e+07	
77	3.850000e+00	6.048588e+07	
78	3.900000e+00	6.062203e+07	
79	3.950000e+00	6.075312e+07	
80	4.000000e+00	6.087942e+07	
81	4.050000e+00	6.100119e+07	
82	4.100000e+00	6.111866e+07	
83	4.150000e+00	6.123206e+07	
84	4.200000e+00	6.134160e+07	
85	4.250000e+00	6.144746e+07	
86	4.300000e+00	6.154982e+07	
87	4.350000e+00	6.164887e+07	
88	4.400000e+00	6.174474e+07	
89	4.450000e+00	6.183760e+07	
90	4.500000e+00	6.192758e+07	
91	4.550000e+00	6.201482e+07	
92	4.600000e+00	6.209943e+07	
93	4.650000e+00	6.218153e+07	
94	4.700000e+00	6.226124e+07	
95	4.750000e+00	6.233865e+07	
96	4.800000e+00	6.241386e+07	
97	4.850000e+00	6.248696e+07	
98	4.900000e+00	6.255804e+07	
99	4.950000e+00	6.262719e+07	
100	5.000000e+00	6.269448e+07	
101	5.050000e+00	6.275998e+07	
102	5.100000e+00	6.282376e+07	
103	5.150000e+00	6.288589e+07	
104	5.200000e+00	6.294644e+07	
105	5.250000e+00	6.300546e+07	
106	5.300000e+00	6.306301e+07	
107	5.350000e+00	6.311914e+07	
108	5.400000e+00	6.317391e+07	
109	5.450000e+00	6.322736e+07	
110	5.500000e+00	6.327954e+07	
111	5.550000e+00	6.333050e+07	
112	5.600000e+00	6.338027e+07	

Index   v-sweep         rds             
--------------------------------------------------------------------------------
113	5.650000e+00	6.342890e+07	
114	5.700000e+00	6.347643e+07	
115	5.750000e+00	6.352289e+07	
116	5.800000e+00	6.356832e+07	
117	5.850000e+00	6.361276e+07	
118	5.900000e+00	6.365622e+07	
119	5.950000e+00	6.369876e+07	
120	6.000000e+00	6.374039e+07	
121	6.050000e+00	6.378114e+07	
122	6.100000e+00	6.382105e+07	
123	6.150000e+00	6.386013e+07	
124	6.200000e+00	6.389842e+07	
125	6.250000e+00	6.393593e+07	
126	6.300000e+00	6.397269e+07	
127	6.350000e+00	6.400873e+07	
128	6.400000e+00	6.404405e+07	
129	6.450000e+00	6.407869e+07	
130	6.500000e+00	6.411267e+07	
131	6.550000e+00	6.414599e+07	
132	6.600000e+00	6.417869e+07	
Reset re-loads circuit ***************************

Circuit: ***************************

Doing analysis at TEMP = 125.000000 and TNOM = 125.000000


No. of Data Rows : 133
                          ***************************
                          DC transfer characteristic  Mon Jan  9 13:57:43  2023
--------------------------------------------------------------------------------
Index   v-sweep         rds             
--------------------------------------------------------------------------------
0	0.000000e+00	6.800838e+04	
1	5.000000e-02	6.987484e+04	
2	1.000000e-01	7.184093e+04	
3	1.500000e-01	7.391483e+04	
4	2.000000e-01	7.610567e+04	
5	2.500000e-01	7.842362e+04	
6	3.000000e-01	8.088006e+04	
7	3.500000e-01	8.348778e+04	
8	4.000000e-01	8.626119e+04	
9	4.500000e-01	8.921660e+04	
10	5.000000e-01	9.237252e+04	
11	5.500000e-01	9.575007e+04	
12	6.000000e-01	9.937342e+04	
13	6.500000e-01	1.032704e+05	
14	7.000000e-01	1.074732e+05	
15	7.500000e-01	1.120194e+05	
16	8.000000e-01	1.169526e+05	
17	8.500000e-01	1.223245e+05	
18	9.000000e-01	1.281963e+05	
19	9.500000e-01	1.346410e+05	
20	1.000000e+00	1.417468e+05	
21	1.050000e+00	1.496205e+05	
22	1.100000e+00	1.583935e+05	
23	1.150000e+00	1.682287e+05	
24	1.200000e+00	1.793306e+05	
25	1.250000e+00	1.919595e+05	
26	1.300000e+00	2.064512e+05	
27	1.350000e+00	2.232469e+05	
28	1.400000e+00	2.429357e+05	
29	1.450000e+00	2.663214e+05	
30	1.500000e+00	2.945248e+05	
31	1.550000e+00	3.291475e+05	
32	1.600000e+00	3.725377e+05	
33	1.650000e+00	4.282285e+05	
34	1.700000e+00	5.016613e+05	
35	1.750000e+00	6.013521e+05	
36	1.800000e+00	7.406320e+05	
37	1.850000e+00	9.398172e+05	
38	1.900000e+00	1.227817e+06	
39	1.950000e+00	1.640950e+06	
40	2.000000e+00	2.216678e+06	
41	2.050000e+00	2.983118e+06	
42	2.100000e+00	3.949487e+06	
43	2.150000e+00	5.102799e+06	
44	2.200000e+00	6.411708e+06	
45	2.250000e+00	7.834336e+06	
46	2.300000e+00	9.326290e+06	
47	2.350000e+00	1.084662e+07	
48	2.400000e+00	1.236111e+07	
49	2.450000e+00	1.384341e+07	
50	2.500000e+00	1.527471e+07	
51	2.550000e+00	1.664269e+07	
52	2.600000e+00	1.794020e+07	
53	2.650000e+00	1.916403e+07	
54	2.700000e+00	2.031378e+07	

Index   v-sweep         rds             
--------------------------------------------------------------------------------
55	2.750000e+00	2.139098e+07	
56	2.800000e+00	2.239846e+07	
57	2.850000e+00	2.333977e+07	
58	2.900000e+00	2.421890e+07	
59	2.950000e+00	2.503995e+07	
60	3.000000e+00	2.580705e+07	
61	3.050000e+00	2.652418e+07	
62	3.100000e+00	2.719513e+07	
63	3.150000e+00	2.782346e+07	
64	3.200000e+00	2.841251e+07	
65	3.250000e+00	2.896535e+07	
66	3.300000e+00	2.948479e+07	
67	3.350000e+00	2.997345e+07	
68	3.400000e+00	3.043369e+07	
69	3.450000e+00	3.086769e+07	
70	3.500000e+00	3.127744e+07	
71	3.550000e+00	3.166475e+07	
72	3.600000e+00	3.203127e+07	
73	3.650000e+00	3.237852e+07	
74	3.700000e+00	3.270787e+07	
75	3.750000e+00	3.302060e+07	
76	3.800000e+00	3.331784e+07	
77	3.850000e+00	3.360067e+07	
78	3.900000e+00	3.387005e+07	
79	3.950000e+00	3.412687e+07	
80	4.000000e+00	3.437195e+07	
81	4.050000e+00	3.460603e+07	
82	4.100000e+00	3.482982e+07	
83	4.150000e+00	3.504394e+07	
84	4.200000e+00	3.524899e+07	
85	4.250000e+00	3.544551e+07	
86	4.300000e+00	3.563401e+07	
87	4.350000e+00	3.581494e+07	
88	4.400000e+00	3.598874e+07	
89	4.450000e+00	3.615581e+07	
90	4.500000e+00	3.631652e+07	
91	4.550000e+00	3.647121e+07	
92	4.600000e+00	3.662022e+07	
93	4.650000e+00	3.676384e+07	
94	4.700000e+00	3.690234e+07	
95	4.750000e+00	3.703599e+07	
96	4.800000e+00	3.716504e+07	
97	4.850000e+00	3.728971e+07	
98	4.900000e+00	3.741021e+07	
99	4.950000e+00	3.752676e+07	
100	5.000000e+00	3.763952e+07	
101	5.050000e+00	3.774869e+07	
102	5.100000e+00	3.785443e+07	
103	5.150000e+00	3.795689e+07	
104	5.200000e+00	3.805622e+07	
105	5.250000e+00	3.815257e+07	
106	5.300000e+00	3.824605e+07	
107	5.350000e+00	3.833679e+07	
108	5.400000e+00	3.842492e+07	
109	5.450000e+00	3.851054e+07	
110	5.500000e+00	3.859375e+07	
111	5.550000e+00	3.867465e+07	
112	5.600000e+00	3.875333e+07	

Index   v-sweep         rds             
--------------------------------------------------------------------------------
113	5.650000e+00	3.882989e+07	
114	5.700000e+00	3.890441e+07	
115	5.750000e+00	3.897697e+07	
116	5.800000e+00	3.904764e+07	
117	5.850000e+00	3.911649e+07	
118	5.900000e+00	3.918359e+07	
119	5.950000e+00	3.924901e+07	
120	6.000000e+00	3.931281e+07	
121	6.050000e+00	3.937505e+07	
122	6.100000e+00	3.943578e+07	
123	6.150000e+00	3.949506e+07	
124	6.200000e+00	3.955294e+07	
125	6.250000e+00	3.960946e+07	
126	6.300000e+00	3.966467e+07	
127	6.350000e+00	3.971863e+07	
128	6.400000e+00	3.977136e+07	
129	6.450000e+00	3.982291e+07	
130	6.500000e+00	3.987332e+07	
131	6.550000e+00	3.992262e+07	
132	6.600000e+00	3.997086e+07	
Reset re-loads circuit ***************************

Circuit: ***************************

Doing analysis at TEMP = 125.000000 and TNOM = 125.000000


No. of Data Rows : 133
                          ***************************
                          DC transfer characteristic  Mon Jan  9 13:57:43  2023
--------------------------------------------------------------------------------
Index   v-sweep         rds             
--------------------------------------------------------------------------------
0	0.000000e+00	5.286274e+04	
1	5.000000e-02	5.388367e+04	
2	1.000000e-01	5.494194e+04	
3	1.500000e-01	5.603964e+04	
4	2.000000e-01	5.717901e+04	
5	2.500000e-01	5.836249e+04	
6	3.000000e-01	5.959266e+04	
7	3.500000e-01	6.087236e+04	
8	4.000000e-01	6.220463e+04	
9	4.500000e-01	6.359278e+04	
10	5.000000e-01	6.504040e+04	
11	5.500000e-01	6.655139e+04	
12	6.000000e-01	6.813001e+04	
13	6.500000e-01	6.978089e+04	
14	7.000000e-01	7.150912e+04	
15	7.500000e-01	7.332026e+04	
16	8.000000e-01	7.522042e+04	
17	8.500000e-01	7.721633e+04	
18	9.000000e-01	7.931540e+04	
19	9.500000e-01	8.152586e+04	
20	1.000000e+00	8.385680e+04	
21	1.050000e+00	8.631836e+04	
22	1.100000e+00	8.892182e+04	
23	1.150000e+00	9.167982e+04	
24	1.200000e+00	9.460654e+04	
25	1.250000e+00	9.771794e+04	
26	1.300000e+00	1.010321e+05	
27	1.350000e+00	1.045695e+05	
28	1.400000e+00	1.083534e+05	
29	1.450000e+00	1.124106e+05	
30	1.500000e+00	1.167718e+05	
31	1.550000e+00	1.214725e+05	
32	1.600000e+00	1.265539e+05	
33	1.650000e+00	1.320642e+05	
34	1.700000e+00	1.380601e+05	
35	1.750000e+00	1.446087e+05	
36	1.800000e+00	1.517901e+05	
37	1.850000e+00	1.597006e+05	
38	1.900000e+00	1.684569e+05	
39	1.950000e+00	1.782020e+05	
40	2.000000e+00	1.891130e+05	
41	2.050000e+00	2.014112e+05	
42	2.100000e+00	2.153775e+05	
43	2.150000e+00	2.313723e+05	
44	2.200000e+00	2.498659e+05	
45	2.250000e+00	2.714813e+05	
46	2.300000e+00	2.970582e+05	
47	2.350000e+00	3.277484e+05	
48	2.400000e+00	3.651596e+05	
49	2.450000e+00	4.115724e+05	
50	2.500000e+00	4.702597e+05	
51	2.550000e+00	5.459386e+05	
52	2.600000e+00	6.453471e+05	
53	2.650000e+00	7.778339e+05	
54	2.700000e+00	9.556505e+05	

Index   v-sweep         rds             
--------------------------------------------------------------------------------
55	2.750000e+00	1.193421e+06	
56	2.800000e+00	1.506331e+06	
57	2.850000e+00	1.907201e+06	
58	2.900000e+00	2.403466e+06	
59	2.950000e+00	2.995372e+06	
60	3.000000e+00	3.676027e+06	
61	3.050000e+00	4.432958e+06	
62	3.100000e+00	5.250368e+06	
63	3.150000e+00	6.111318e+06	
64	3.200000e+00	6.999422e+06	
65	3.250000e+00	7.899944e+06	
66	3.300000e+00	8.800356e+06	
67	3.350000e+00	9.690497e+06	
68	3.400000e+00	1.056248e+07	
69	3.450000e+00	1.141045e+07	
70	3.500000e+00	1.223028e+07	
71	3.550000e+00	1.301928e+07	
72	3.600000e+00	1.377588e+07	
73	3.650000e+00	1.449942e+07	
74	3.700000e+00	1.518987e+07	
75	3.750000e+00	1.584774e+07	
76	3.800000e+00	1.647385e+07	
77	3.850000e+00	1.706929e+07	
78	3.900000e+00	1.763531e+07	
79	3.950000e+00	1.817324e+07	
80	4.000000e+00	1.868447e+07	
81	4.050000e+00	1.917037e+07	
82	4.100000e+00	1.963234e+07	
83	4.150000e+00	2.007169e+07	
84	4.200000e+00	2.048973e+07	
85	4.250000e+00	2.088769e+07	
86	4.300000e+00	2.126673e+07	
87	4.350000e+00	2.162799e+07	
88	4.400000e+00	2.197250e+07	
89	4.450000e+00	2.230125e+07	
90	4.500000e+00	2.261516e+07	
91	4.550000e+00	2.291512e+07	
92	4.600000e+00	2.320192e+07	
93	4.650000e+00	2.347633e+07	
94	4.700000e+00	2.373907e+07	
95	4.750000e+00	2.399079e+07	
96	4.800000e+00	2.423211e+07	
97	4.850000e+00	2.446362e+07	
98	4.900000e+00	2.468586e+07	
99	4.950000e+00	2.489933e+07	
100	5.000000e+00	2.510451e+07	
101	5.050000e+00	2.530184e+07	
102	5.100000e+00	2.549173e+07	
103	5.150000e+00	2.567457e+07	
104	5.200000e+00	2.585073e+07	
105	5.250000e+00	2.602054e+07	
106	5.300000e+00	2.618432e+07	
107	5.350000e+00	2.634237e+07	
108	5.400000e+00	2.649498e+07	
109	5.450000e+00	2.664240e+07	
110	5.500000e+00	2.678489e+07	
111	5.550000e+00	2.692267e+07	
112	5.600000e+00	2.705597e+07	

Index   v-sweep         rds             
--------------------------------------------------------------------------------
113	5.650000e+00	2.718499e+07	
114	5.700000e+00	2.730993e+07	
115	5.750000e+00	2.743097e+07	
116	5.800000e+00	2.754828e+07	
117	5.850000e+00	2.766203e+07	
118	5.900000e+00	2.777236e+07	
119	5.950000e+00	2.787944e+07	
120	6.000000e+00	2.798339e+07	
121	6.050000e+00	2.808434e+07	
122	6.100000e+00	2.818242e+07	
123	6.150000e+00	2.827775e+07	
124	6.200000e+00	2.837043e+07	
125	6.250000e+00	2.846057e+07	
126	6.300000e+00	2.854828e+07	
127	6.350000e+00	2.863364e+07	
128	6.400000e+00	2.871675e+07	
129	6.450000e+00	2.879769e+07	
130	6.500000e+00	2.887654e+07	
131	6.550000e+00	2.895339e+07	
132	6.600000e+00	2.902830e+07	
Reset re-loads circuit ***************************

Circuit: ***************************

Doing analysis at TEMP = 125.000000 and TNOM = 125.000000


No. of Data Rows : 133
                          ***************************
                          DC transfer characteristic  Mon Jan  9 13:57:43  2023
--------------------------------------------------------------------------------
Index   v-sweep         rds             
--------------------------------------------------------------------------------
0	0.000000e+00	4.518188e+04	
1	5.000000e-02	4.584848e+04	
2	1.000000e-01	4.653335e+04	
3	1.500000e-01	4.723723e+04	
4	2.000000e-01	4.796094e+04	
5	2.500000e-01	4.870532e+04	
6	3.000000e-01	4.947128e+04	
7	3.500000e-01	5.025975e+04	
8	4.000000e-01	5.107176e+04	
9	4.500000e-01	5.190836e+04	
10	5.000000e-01	5.277069e+04	
11	5.500000e-01	5.365996e+04	
12	6.000000e-01	5.457745e+04	
13	6.500000e-01	5.552452e+04	
14	7.000000e-01	5.650263e+04	
15	7.500000e-01	5.751332e+04	
16	8.000000e-01	5.855825e+04	
17	8.500000e-01	5.963919e+04	
18	9.000000e-01	6.075804e+04	
19	9.500000e-01	6.191681e+04	
20	1.000000e+00	6.311770e+04	
21	1.050000e+00	6.436303e+04	
22	1.100000e+00	6.565531e+04	
23	1.150000e+00	6.699726e+04	
24	1.200000e+00	6.839180e+04	
25	1.250000e+00	6.984207e+04	
26	1.300000e+00	7.135148e+04	
27	1.350000e+00	7.292373e+04	
28	1.400000e+00	7.456282e+04	
29	1.450000e+00	7.627311e+04	
30	1.500000e+00	7.805935e+04	
31	1.550000e+00	7.992670e+04	
32	1.600000e+00	8.188082e+04	
33	1.650000e+00	8.392791e+04	
34	1.700000e+00	8.607476e+04	
35	1.750000e+00	8.832885e+04	
36	1.800000e+00	9.069842e+04	
37	1.850000e+00	9.319259e+04	
38	1.900000e+00	9.582145e+04	
39	1.950000e+00	9.859623e+04	
40	2.000000e+00	1.015294e+05	
41	2.050000e+00	1.046350e+05	
42	2.100000e+00	1.079287e+05	
43	2.150000e+00	1.114281e+05	
44	2.200000e+00	1.151531e+05	
45	2.250000e+00	1.191263e+05	
46	2.300000e+00	1.233735e+05	
47	2.350000e+00	1.279239e+05	
48	2.400000e+00	1.328113e+05	
49	2.450000e+00	1.380747e+05	
50	2.500000e+00	1.437592e+05	
51	2.550000e+00	1.499176e+05	
52	2.600000e+00	1.566119e+05	
53	2.650000e+00	1.639153e+05	
54	2.700000e+00	1.719151e+05	

Index   v-sweep         rds             
--------------------------------------------------------------------------------
55	2.750000e+00	1.807159e+05	
56	2.800000e+00	1.904444e+05	
57	2.850000e+00	2.012556e+05	
58	2.900000e+00	2.133405e+05	
59	2.950000e+00	2.269373e+05	
60	3.000000e+00	2.423469e+05	
61	3.050000e+00	2.599533e+05	
62	3.100000e+00	2.802537e+05	
63	3.150000e+00	3.038999e+05	
64	3.200000e+00	3.317583e+05	
65	3.250000e+00	3.649939e+05	
66	3.300000e+00	4.051886e+05	
67	3.350000e+00	4.545024e+05	
68	3.400000e+00	5.158787e+05	
69	3.450000e+00	5.932770e+05	
70	3.500000e+00	6.918751e+05	
71	3.550000e+00	8.181212e+05	
72	3.600000e+00	9.794684e+05	
73	3.650000e+00	1.183664e+06	
74	3.700000e+00	1.437637e+06	
75	3.750000e+00	1.746284e+06	
76	3.800000e+00	2.111560e+06	
77	3.850000e+00	2.532176e+06	
78	3.900000e+00	3.003917e+06	
79	3.950000e+00	3.520358e+06	
80	4.000000e+00	4.073742e+06	
81	4.050000e+00	4.655782e+06	
82	4.100000e+00	5.258311e+06	
83	4.150000e+00	5.873717e+06	
84	4.200000e+00	6.495213e+06	
85	4.250000e+00	7.116953e+06	
86	4.300000e+00	7.734059e+06	
87	4.350000e+00	8.342569e+06	
88	4.400000e+00	8.939360e+06	
89	4.450000e+00	9.522044e+06	
90	4.500000e+00	1.008886e+07	
91	4.550000e+00	1.063859e+07	
92	4.600000e+00	1.117043e+07	
93	4.650000e+00	1.168395e+07	
94	4.700000e+00	1.217899e+07	
95	4.750000e+00	1.265562e+07	
96	4.800000e+00	1.311408e+07	
97	4.850000e+00	1.355473e+07	
98	4.900000e+00	1.397804e+07	
99	4.950000e+00	1.438454e+07	
100	5.000000e+00	1.477481e+07	
101	5.050000e+00	1.514945e+07	
102	5.100000e+00	1.550909e+07	
103	5.150000e+00	1.585435e+07	
104	5.200000e+00	1.618585e+07	
105	5.250000e+00	1.650421e+07	
106	5.300000e+00	1.681003e+07	
107	5.350000e+00	1.710387e+07	
108	5.400000e+00	1.738631e+07	
109	5.450000e+00	1.765789e+07	
110	5.500000e+00	1.791911e+07	
111	5.550000e+00	1.817046e+07	
112	5.600000e+00	1.841243e+07	

Index   v-sweep         rds             
--------------------------------------------------------------------------------
113	5.650000e+00	1.864546e+07	
114	5.700000e+00	1.886997e+07	
115	5.750000e+00	1.908637e+07	
116	5.800000e+00	1.929504e+07	
117	5.850000e+00	1.949634e+07	
118	5.900000e+00	1.969061e+07	
119	5.950000e+00	1.987820e+07	
120	6.000000e+00	2.005939e+07	
121	6.050000e+00	2.023449e+07	
122	6.100000e+00	2.040377e+07	
123	6.150000e+00	2.056750e+07	
124	6.200000e+00	2.072592e+07	
125	6.250000e+00	2.087926e+07	
126	6.300000e+00	2.102776e+07	
127	6.350000e+00	2.117161e+07	
128	6.400000e+00	2.131103e+07	
129	6.450000e+00	2.144619e+07	
130	6.500000e+00	2.157729e+07	
131	6.550000e+00	2.170449e+07	
132	6.600000e+00	2.182794e+07	
Reset re-loads circuit ***************************

Circuit: ***************************

Doing analysis at TEMP = 125.000000 and TNOM = 125.000000


No. of Data Rows : 133
                          ***************************
                          DC transfer characteristic  Mon Jan  9 13:57:43  2023
--------------------------------------------------------------------------------
Index   v-sweep         rds             
--------------------------------------------------------------------------------
0	0.000000e+00	4.086080e+04	
1	5.000000e-02	4.134337e+04	
2	1.000000e-01	4.183636e+04	
3	1.500000e-01	4.234010e+04	
4	2.000000e-01	4.285495e+04	
5	2.500000e-01	4.338129e+04	
6	3.000000e-01	4.391951e+04	
7	3.500000e-01	4.447000e+04	
8	4.000000e-01	4.503320e+04	
9	4.500000e-01	4.560955e+04	
10	5.000000e-01	4.619951e+04	
11	5.500000e-01	4.680357e+04	
12	6.000000e-01	4.742225e+04	
13	6.500000e-01	4.805607e+04	
14	7.000000e-01	4.870561e+04	
15	7.500000e-01	4.937145e+04	
16	8.000000e-01	5.005421e+04	
17	8.500000e-01	5.075455e+04	
18	9.000000e-01	5.147316e+04	
19	9.500000e-01	5.221075e+04	
20	1.000000e+00	5.296810e+04	
21	1.050000e+00	5.374600e+04	
22	1.100000e+00	5.454529e+04	
23	1.150000e+00	5.536689e+04	
24	1.200000e+00	5.621173e+04	
25	1.250000e+00	5.708081e+04	
26	1.300000e+00	5.797519e+04	
27	1.350000e+00	5.889599e+04	
28	1.400000e+00	5.984440e+04	
29	1.450000e+00	6.082168e+04	
30	1.500000e+00	6.182917e+04	
31	1.550000e+00	6.286828e+04	
32	1.600000e+00	6.394054e+04	
33	1.650000e+00	6.504755e+04	
34	1.700000e+00	6.619103e+04	
35	1.750000e+00	6.737282e+04	
36	1.800000e+00	6.859486e+04	
37	1.850000e+00	6.985926e+04	
38	1.900000e+00	7.116825e+04	
39	1.950000e+00	7.252424e+04	
40	2.000000e+00	7.392980e+04	
41	2.050000e+00	7.538770e+04	
42	2.100000e+00	7.690093e+04	
43	2.150000e+00	7.847269e+04	
44	2.200000e+00	8.010645e+04	
45	2.250000e+00	8.180595e+04	
46	2.300000e+00	8.357525e+04	
47	2.350000e+00	8.541874e+04	
48	2.400000e+00	8.734119e+04	
49	2.450000e+00	8.934778e+04	
50	2.500000e+00	9.144418e+04	
51	2.550000e+00	9.363655e+04	
52	2.600000e+00	9.593164e+04	
53	2.650000e+00	9.833687e+04	
54	2.700000e+00	1.008604e+05	

Index   v-sweep         rds             
--------------------------------------------------------------------------------
55	2.750000e+00	1.035111e+05	
56	2.800000e+00	1.062989e+05	
57	2.850000e+00	1.092348e+05	
58	2.900000e+00	1.123308e+05	
59	2.950000e+00	1.156006e+05	
60	3.000000e+00	1.190591e+05	
61	3.050000e+00	1.227234e+05	
62	3.100000e+00	1.266122e+05	
63	3.150000e+00	1.307471e+05	
64	3.200000e+00	1.351521e+05	
65	3.250000e+00	1.398549e+05	
66	3.300000e+00	1.448868e+05	
67	3.350000e+00	1.502837e+05	
68	3.400000e+00	1.560870e+05	
69	3.450000e+00	1.623448e+05	
70	3.500000e+00	1.691129e+05	
71	3.550000e+00	1.764567e+05	
72	3.600000e+00	1.844535e+05	
73	3.650000e+00	1.931949e+05	
74	3.700000e+00	2.027907e+05	
75	3.750000e+00	2.133733e+05	
76	3.800000e+00	2.251038e+05	
77	3.850000e+00	2.381802e+05	
78	3.900000e+00	2.528482e+05	
79	3.950000e+00	2.694156e+05	
80	4.000000e+00	2.882727e+05	
81	4.050000e+00	3.099190e+05	
82	4.100000e+00	3.350006e+05	
83	4.150000e+00	3.643601e+05	
84	4.200000e+00	3.991039e+05	
85	4.250000e+00	4.406868e+05	
86	4.300000e+00	4.910152e+05	
87	4.350000e+00	5.525550e+05	
88	4.400000e+00	6.284192e+05	
89	4.450000e+00	7.223843e+05	
90	4.500000e+00	8.387736e+05	
91	4.550000e+00	9.821533e+05	
92	4.600000e+00	1.156845e+06	
93	4.650000e+00	1.366348e+06	
94	4.700000e+00	1.612822e+06	
95	4.750000e+00	1.896787e+06	
96	4.800000e+00	2.217090e+06	
97	4.850000e+00	2.571121e+06	
98	4.900000e+00	2.955168e+06	
99	4.950000e+00	3.364824e+06	
100	5.000000e+00	3.795363e+06	
101	5.050000e+00	4.242043e+06	
102	5.100000e+00	4.700333e+06	
103	5.150000e+00	5.166059e+06	
104	5.200000e+00	5.635488e+06	
105	5.250000e+00	6.105363e+06	
106	5.300000e+00	6.572905e+06	
107	5.350000e+00	7.035788e+06	
108	5.400000e+00	7.492104e+06	
109	5.450000e+00	7.940324e+06	
110	5.500000e+00	8.379249e+06	
111	5.550000e+00	8.807964e+06	
112	5.600000e+00	9.225804e+06	

Index   v-sweep         rds             
--------------------------------------------------------------------------------
113	5.650000e+00	9.632306e+06	
114	5.700000e+00	1.002718e+07	
115	5.750000e+00	1.041029e+07	
116	5.800000e+00	1.078159e+07	
117	5.850000e+00	1.114116e+07	
118	5.900000e+00	1.148913e+07	
119	5.950000e+00	1.182569e+07	
120	6.000000e+00	1.215110e+07	
121	6.050000e+00	1.246563e+07	
122	6.100000e+00	1.276958e+07	
123	6.150000e+00	1.306327e+07	
124	6.200000e+00	1.334703e+07	
125	6.250000e+00	1.362119e+07	
126	6.300000e+00	1.388610e+07	
127	6.350000e+00	1.414209e+07	
128	6.400000e+00	1.438950e+07	
129	6.450000e+00	1.462864e+07	
130	6.500000e+00	1.485985e+07	
131	6.550000e+00	1.508343e+07	
132	6.600000e+00	1.529968e+07	
Reset re-loads circuit ***************************

Circuit: ***************************

Note: No ".plot", ".print", or ".fourier" lines; no simulations run
