
Note: Compatibility modes selected: hs

Warning: m=xx on .subckt line will override multiplier m hierarchy!


Circuit: ***************************

Doing analysis at TEMP = 25.000000 and TNOM = 25.000000


No. of Data Rows : 133
                          ***************************
                          DC transfer characteristic  Mon Jan  9 13:57:42  2023
--------------------------------------------------------------------------------
Index   v-sweep         rds             
--------------------------------------------------------------------------------
0	0.000000e+00	2.915374e+05	
1	5.000000e-02	3.565444e+05	
2	1.000000e-01	4.578411e+05	
3	1.500000e-01	6.351144e+05	
4	2.000000e-01	1.004380e+06	
5	2.500000e-01	1.970574e+06	
6	3.000000e-01	4.885520e+06	
7	3.500000e-01	1.252313e+07	
8	4.000000e-01	2.696115e+07	
9	4.500000e-01	4.676645e+07	
10	5.000000e-01	6.800878e+07	
11	5.500000e-01	8.733834e+07	
12	6.000000e-01	1.033136e+08	
13	6.500000e-01	1.158962e+08	
14	7.000000e-01	1.256280e+08	
15	7.500000e-01	1.331465e+08	
16	8.000000e-01	1.390009e+08	
17	8.500000e-01	1.436152e+08	
18	9.000000e-01	1.473028e+08	
19	9.500000e-01	1.502915e+08	
20	1.000000e+00	1.527470e+08	
21	1.050000e+00	1.547905e+08	
22	1.100000e+00	1.565114e+08	
23	1.150000e+00	1.579764e+08	
24	1.200000e+00	1.592360e+08	
25	1.250000e+00	1.603289e+08	
26	1.300000e+00	1.612849e+08	
27	1.350000e+00	1.621275e+08	
28	1.400000e+00	1.628751e+08	
29	1.450000e+00	1.635427e+08	
30	1.500000e+00	1.641422e+08	
31	1.550000e+00	1.646834e+08	
32	1.600000e+00	1.651742e+08	
33	1.650000e+00	1.656213e+08	
34	1.700000e+00	1.660303e+08	
35	1.750000e+00	1.664058e+08	
36	1.800000e+00	1.667517e+08	
37	1.850000e+00	1.670714e+08	
38	1.900000e+00	1.673677e+08	
39	1.950000e+00	1.676432e+08	
40	2.000000e+00	1.678999e+08	
41	2.050000e+00	1.681397e+08	
42	2.100000e+00	1.683643e+08	
43	2.150000e+00	1.685750e+08	
44	2.200000e+00	1.687731e+08	
45	2.250000e+00	1.689596e+08	
46	2.300000e+00	1.691357e+08	
47	2.350000e+00	1.693021e+08	
48	2.400000e+00	1.694596e+08	
49	2.450000e+00	1.696089e+08	
50	2.500000e+00	1.697507e+08	
51	2.550000e+00	1.698854e+08	
52	2.600000e+00	1.700137e+08	
53	2.650000e+00	1.701360e+08	
54	2.700000e+00	1.702526e+08	

Index   v-sweep         rds             
--------------------------------------------------------------------------------
55	2.750000e+00	1.703640e+08	
56	2.800000e+00	1.704705e+08	
57	2.850000e+00	1.705724e+08	
58	2.900000e+00	1.706701e+08	
59	2.950000e+00	1.707637e+08	
60	3.000000e+00	1.708536e+08	
61	3.050000e+00	1.709399e+08	
62	3.100000e+00	1.710229e+08	
63	3.150000e+00	1.711027e+08	
64	3.200000e+00	1.711796e+08	
65	3.250000e+00	1.712536e+08	
66	3.300000e+00	1.713250e+08	
67	3.350000e+00	1.713938e+08	
68	3.400000e+00	1.714603e+08	
69	3.450000e+00	1.715245e+08	
70	3.500000e+00	1.715865e+08	
71	3.550000e+00	1.716465e+08	
72	3.600000e+00	1.717046e+08	
73	3.650000e+00	1.717608e+08	
74	3.700000e+00	1.718152e+08	
75	3.750000e+00	1.718680e+08	
76	3.800000e+00	1.719191e+08	
77	3.850000e+00	1.719687e+08	
78	3.900000e+00	1.720169e+08	
79	3.950000e+00	1.720636e+08	
80	4.000000e+00	1.721090e+08	
81	4.050000e+00	1.721531e+08	
82	4.100000e+00	1.721960e+08	
83	4.150000e+00	1.722377e+08	
84	4.200000e+00	1.722783e+08	
85	4.250000e+00	1.723177e+08	
86	4.300000e+00	1.723562e+08	
87	4.350000e+00	1.723936e+08	
88	4.400000e+00	1.724300e+08	
89	4.450000e+00	1.724656e+08	
90	4.500000e+00	1.725002e+08	
91	4.550000e+00	1.725340e+08	
92	4.600000e+00	1.725669e+08	
93	4.650000e+00	1.725990e+08	
94	4.700000e+00	1.726304e+08	
95	4.750000e+00	1.726610e+08	
96	4.800000e+00	1.726909e+08	
97	4.850000e+00	1.727201e+08	
98	4.900000e+00	1.727487e+08	
99	4.950000e+00	1.727766e+08	
100	5.000000e+00	1.728039e+08	
101	5.050000e+00	1.728305e+08	
102	5.100000e+00	1.728566e+08	
103	5.150000e+00	1.728821e+08	
104	5.200000e+00	1.729071e+08	
105	5.250000e+00	1.729315e+08	
106	5.300000e+00	1.729554e+08	
107	5.350000e+00	1.729788e+08	
108	5.400000e+00	1.730018e+08	
109	5.450000e+00	1.730242e+08	
110	5.500000e+00	1.730463e+08	
111	5.550000e+00	1.730678e+08	
112	5.600000e+00	1.730890e+08	

Index   v-sweep         rds             
--------------------------------------------------------------------------------
113	5.650000e+00	1.731097e+08	
114	5.700000e+00	1.731300e+08	
115	5.750000e+00	1.731499e+08	
116	5.800000e+00	1.731695e+08	
117	5.850000e+00	1.731887e+08	
118	5.900000e+00	1.732075e+08	
119	5.950000e+00	1.732259e+08	
120	6.000000e+00	1.732441e+08	
121	6.050000e+00	1.732619e+08	
122	6.100000e+00	1.732793e+08	
123	6.150000e+00	1.732965e+08	
124	6.200000e+00	1.733133e+08	
125	6.250000e+00	1.733299e+08	
126	6.300000e+00	1.733461e+08	
127	6.350000e+00	1.733621e+08	
128	6.400000e+00	1.733778e+08	
129	6.450000e+00	1.733933e+08	
130	6.500000e+00	1.734084e+08	
131	6.550000e+00	1.734233e+08	
132	6.600000e+00	1.734380e+08	
Reset re-loads circuit ***************************

Circuit: ***************************

Doing analysis at TEMP = 25.000000 and TNOM = 25.000000


No. of Data Rows : 133
                          ***************************
                          DC transfer characteristic  Mon Jan  9 13:57:42  2023
--------------------------------------------------------------------------------
Index   v-sweep         rds             
--------------------------------------------------------------------------------
0	0.000000e+00	7.506517e+04	
1	5.000000e-02	7.895526e+04	
2	1.000000e-01	8.325850e+04	
3	1.500000e-01	8.804435e+04	
4	2.000000e-01	9.339869e+04	
5	2.500000e-01	9.942905e+04	
6	3.000000e-01	1.062718e+05	
7	3.500000e-01	1.141025e+05	
8	4.000000e-01	1.231511e+05	
9	4.500000e-01	1.337241e+05	
10	5.000000e-01	1.462397e+05	
11	5.500000e-01	1.612825e+05	
12	6.000000e-01	1.796938e+05	
13	6.500000e-01	2.027251e+05	
14	7.000000e-01	2.323128e+05	
15	7.500000e-01	2.715880e+05	
16	8.000000e-01	3.258729e+05	
17	8.500000e-01	4.046929e+05	
18	9.000000e-01	5.258799e+05	
19	9.500000e-01	7.234510e+05	
20	1.000000e+00	1.059768e+06	
21	1.050000e+00	1.634466e+06	
22	1.100000e+00	2.569476e+06	
23	1.150000e+00	3.959159e+06	
24	1.200000e+00	5.817166e+06	
25	1.250000e+00	8.064339e+06	
26	1.300000e+00	1.056150e+07	
27	1.350000e+00	1.315716e+07	
28	1.400000e+00	1.572308e+07	
29	1.450000e+00	1.816908e+07	
30	1.500000e+00	2.044240e+07	
31	1.550000e+00	2.251961e+07	
32	1.600000e+00	2.439714e+07	
33	1.650000e+00	2.608341e+07	
34	1.700000e+00	2.759304e+07	
35	1.750000e+00	2.894322e+07	
36	1.800000e+00	3.015143e+07	
37	1.850000e+00	3.123432e+07	
38	1.900000e+00	3.220706e+07	
39	1.950000e+00	3.308322e+07	
40	2.000000e+00	3.387470e+07	
41	2.050000e+00	3.459186e+07	
42	2.100000e+00	3.524371e+07	
43	2.150000e+00	3.583801e+07	
44	2.200000e+00	3.638148e+07	
45	2.250000e+00	3.687993e+07	
46	2.300000e+00	3.733838e+07	
47	2.350000e+00	3.776119e+07	
48	2.400000e+00	3.815215e+07	
49	2.450000e+00	3.851454e+07	
50	2.500000e+00	3.885127e+07	
51	2.550000e+00	3.916485e+07	
52	2.600000e+00	3.945750e+07	
53	2.650000e+00	3.973118e+07	
54	2.700000e+00	3.998762e+07	

Index   v-sweep         rds             
--------------------------------------------------------------------------------
55	2.750000e+00	4.022835e+07	
56	2.800000e+00	4.045473e+07	
57	2.850000e+00	4.066797e+07	
58	2.900000e+00	4.086916e+07	
59	2.950000e+00	4.105928e+07	
60	3.000000e+00	4.123918e+07	
61	3.050000e+00	4.140966e+07	
62	3.100000e+00	4.157143e+07	
63	3.150000e+00	4.172512e+07	
64	3.200000e+00	4.187131e+07	
65	3.250000e+00	4.201054e+07	
66	3.300000e+00	4.214327e+07	
67	3.350000e+00	4.226996e+07	
68	3.400000e+00	4.239099e+07	
69	3.450000e+00	4.250674e+07	
70	3.500000e+00	4.261753e+07	
71	3.550000e+00	4.272368e+07	
72	3.600000e+00	4.282547e+07	
73	3.650000e+00	4.292315e+07	
74	3.700000e+00	4.301698e+07	
75	3.750000e+00	4.310717e+07	
76	3.800000e+00	4.319392e+07	
77	3.850000e+00	4.327744e+07	
78	3.900000e+00	4.335789e+07	
79	3.950000e+00	4.343543e+07	
80	4.000000e+00	4.351024e+07	
81	4.050000e+00	4.358243e+07	
82	4.100000e+00	4.365215e+07	
83	4.150000e+00	4.371953e+07	
84	4.200000e+00	4.378467e+07	
85	4.250000e+00	4.384769e+07	
86	4.300000e+00	4.390868e+07	
87	4.350000e+00	4.396775e+07	
88	4.400000e+00	4.402498e+07	
89	4.450000e+00	4.408046e+07	
90	4.500000e+00	4.413426e+07	
91	4.550000e+00	4.418646e+07	
92	4.600000e+00	4.423713e+07	
93	4.650000e+00	4.428634e+07	
94	4.700000e+00	4.433414e+07	
95	4.750000e+00	4.438060e+07	
96	4.800000e+00	4.442577e+07	
97	4.850000e+00	4.446970e+07	
98	4.900000e+00	4.451245e+07	
99	4.950000e+00	4.455406e+07	
100	5.000000e+00	4.459458e+07	
101	5.050000e+00	4.463405e+07	
102	5.100000e+00	4.467250e+07	
103	5.150000e+00	4.470998e+07	
104	5.200000e+00	4.474652e+07	
105	5.250000e+00	4.478216e+07	
106	5.300000e+00	4.481694e+07	
107	5.350000e+00	4.485087e+07	
108	5.400000e+00	4.488399e+07	
109	5.450000e+00	4.491634e+07	
110	5.500000e+00	4.494793e+07	
111	5.550000e+00	4.497880e+07	
112	5.600000e+00	4.500896e+07	

Index   v-sweep         rds             
--------------------------------------------------------------------------------
113	5.650000e+00	4.503844e+07	
114	5.700000e+00	4.506727e+07	
115	5.750000e+00	4.509546e+07	
116	5.800000e+00	4.512304e+07	
117	5.850000e+00	4.515003e+07	
118	5.900000e+00	4.517643e+07	
119	5.950000e+00	4.520229e+07	
120	6.000000e+00	4.522760e+07	
121	6.050000e+00	4.525239e+07	
122	6.100000e+00	4.527667e+07	
123	6.150000e+00	4.530046e+07	
124	6.200000e+00	4.532377e+07	
125	6.250000e+00	4.534662e+07	
126	6.300000e+00	4.536902e+07	
127	6.350000e+00	4.539098e+07	
128	6.400000e+00	4.541252e+07	
129	6.450000e+00	4.543365e+07	
130	6.500000e+00	4.545438e+07	
131	6.550000e+00	4.547472e+07	
132	6.600000e+00	4.549468e+07	
Reset re-loads circuit ***************************

Circuit: ***************************

Doing analysis at TEMP = 25.000000 and TNOM = 25.000000


No. of Data Rows : 133
                          ***************************
                          DC transfer characteristic  Mon Jan  9 13:57:42  2023
--------------------------------------------------------------------------------
Index   v-sweep         rds             
--------------------------------------------------------------------------------
0	0.000000e+00	4.599987e+04	
1	5.000000e-02	4.734303e+04	
2	1.000000e-01	4.876307e+04	
3	1.500000e-01	5.026678e+04	
4	2.000000e-01	5.186177e+04	
5	2.500000e-01	5.355662e+04	
6	3.000000e-01	5.536101e+04	
7	3.500000e-01	5.728590e+04	
8	4.000000e-01	5.934378e+04	
9	4.500000e-01	6.154891e+04	
10	5.000000e-01	6.391768e+04	
11	5.500000e-01	6.646900e+04	
12	6.000000e-01	6.922481e+04	
13	6.500000e-01	7.221070e+04	
14	7.000000e-01	7.545671e+04	
15	7.500000e-01	7.899837e+04	
16	8.000000e-01	8.287795e+04	
17	8.500000e-01	8.714617e+04	
18	9.000000e-01	9.186443e+04	
19	9.500000e-01	9.710774e+04	
20	1.000000e+00	1.029687e+05	
21	1.050000e+00	1.095629e+05	
22	1.100000e+00	1.170365e+05	
23	1.150000e+00	1.255772e+05	
24	1.200000e+00	1.354292e+05	
25	1.250000e+00	1.469167e+05	
26	1.300000e+00	1.604779e+05	
27	1.350000e+00	1.767187e+05	
28	1.400000e+00	1.964970e+05	
29	1.450000e+00	2.210605e+05	
30	1.500000e+00	2.522748e+05	
31	1.550000e+00	2.930065e+05	
32	1.600000e+00	3.477672e+05	
33	1.650000e+00	4.237514e+05	
34	1.700000e+00	5.323482e+05	
35	1.750000e+00	6.908370e+05	
36	1.800000e+00	9.230853e+05	
37	1.850000e+00	1.257171e+06	
38	1.900000e+00	1.718798e+06	
39	1.950000e+00	2.322870e+06	
40	2.000000e+00	3.068077e+06	
41	2.050000e+00	3.937254e+06	
42	2.100000e+00	4.902332e+06	
43	2.150000e+00	5.930733e+06	
44	2.200000e+00	6.990785e+06	
45	2.250000e+00	8.055102e+06	
46	2.300000e+00	9.102069e+06	
47	2.350000e+00	1.011594e+07	
48	2.400000e+00	1.108618e+07	
49	2.450000e+00	1.200650e+07	
50	2.500000e+00	1.287385e+07	
51	2.550000e+00	1.368751e+07	
52	2.600000e+00	1.444840e+07	
53	2.650000e+00	1.515847e+07	
54	2.700000e+00	1.582034e+07	

Index   v-sweep         rds             
--------------------------------------------------------------------------------
55	2.750000e+00	1.643693e+07	
56	2.800000e+00	1.701132e+07	
57	2.850000e+00	1.754659e+07	
58	2.900000e+00	1.804572e+07	
59	2.950000e+00	1.851153e+07	
60	3.000000e+00	1.894669e+07	
61	3.050000e+00	1.935367e+07	
62	3.100000e+00	1.973474e+07	
63	3.150000e+00	2.009199e+07	
64	3.200000e+00	2.042734e+07	
65	3.250000e+00	2.074254e+07	
66	3.300000e+00	2.103917e+07	
67	3.350000e+00	2.131869e+07	
68	3.400000e+00	2.158241e+07	
69	3.450000e+00	2.183153e+07	
70	3.500000e+00	2.206715e+07	
71	3.550000e+00	2.229026e+07	
72	3.600000e+00	2.250177e+07	
73	3.650000e+00	2.270250e+07	
74	3.700000e+00	2.289323e+07	
75	3.750000e+00	2.307463e+07	
76	3.800000e+00	2.324733e+07	
77	3.850000e+00	2.341193e+07	
78	3.900000e+00	2.356895e+07	
79	3.950000e+00	2.371888e+07	
80	4.000000e+00	2.386217e+07	
81	4.050000e+00	2.399924e+07	
82	4.100000e+00	2.413046e+07	
83	4.150000e+00	2.425619e+07	
84	4.200000e+00	2.437676e+07	
85	4.250000e+00	2.449246e+07	
86	4.300000e+00	2.460358e+07	
87	4.350000e+00	2.471037e+07	
88	4.400000e+00	2.481307e+07	
89	4.450000e+00	2.491192e+07	
90	4.500000e+00	2.500711e+07	
91	4.550000e+00	2.509884e+07	
92	4.600000e+00	2.518728e+07	
93	4.650000e+00	2.527262e+07	
94	4.700000e+00	2.535500e+07	
95	4.750000e+00	2.543458e+07	
96	4.800000e+00	2.551148e+07	
97	4.850000e+00	2.558585e+07	
98	4.900000e+00	2.565780e+07	
99	4.950000e+00	2.572744e+07	
100	5.000000e+00	2.579488e+07	
101	5.050000e+00	2.586023e+07	
102	5.100000e+00	2.592357e+07	
103	5.150000e+00	2.598500e+07	
104	5.200000e+00	2.604459e+07	
105	5.250000e+00	2.610244e+07	
106	5.300000e+00	2.615861e+07	
107	5.350000e+00	2.621317e+07	
108	5.400000e+00	2.626619e+07	
109	5.450000e+00	2.631774e+07	
110	5.500000e+00	2.636787e+07	
111	5.550000e+00	2.641664e+07	
112	5.600000e+00	2.646411e+07	

Index   v-sweep         rds             
--------------------------------------------------------------------------------
113	5.650000e+00	2.651032e+07	
114	5.700000e+00	2.655533e+07	
115	5.750000e+00	2.659917e+07	
116	5.800000e+00	2.664190e+07	
117	5.850000e+00	2.668355e+07	
118	5.900000e+00	2.672417e+07	
119	5.950000e+00	2.676379e+07	
120	6.000000e+00	2.680245e+07	
121	6.050000e+00	2.684018e+07	
122	6.100000e+00	2.687701e+07	
123	6.150000e+00	2.691298e+07	
124	6.200000e+00	2.694811e+07	
125	6.250000e+00	2.698244e+07	
126	6.300000e+00	2.701599e+07	
127	6.350000e+00	2.704879e+07	
128	6.400000e+00	2.708086e+07	
129	6.450000e+00	2.711222e+07	
130	6.500000e+00	2.714290e+07	
131	6.550000e+00	2.717293e+07	
132	6.600000e+00	2.720231e+07	
Reset re-loads circuit ***************************

Circuit: ***************************

Doing analysis at TEMP = 25.000000 and TNOM = 25.000000


No. of Data Rows : 133
                          ***************************
                          DC transfer characteristic  Mon Jan  9 13:57:42  2023
--------------------------------------------------------------------------------
Index   v-sweep         rds             
--------------------------------------------------------------------------------
0	0.000000e+00	3.509279e+04	
1	5.000000e-02	3.580093e+04	
2	1.000000e-01	3.653631e+04	
3	1.500000e-01	3.730053e+04	
4	2.000000e-01	3.809531e+04	
5	2.500000e-01	3.892253e+04	
6	3.000000e-01	3.978420e+04	
7	3.500000e-01	4.068254e+04	
8	4.000000e-01	4.161993e+04	
9	4.500000e-01	4.259896e+04	
10	5.000000e-01	4.362249e+04	
11	5.500000e-01	4.469361e+04	
12	6.000000e-01	4.581572e+04	
13	6.500000e-01	4.699254e+04	
14	7.000000e-01	4.822818e+04	
15	7.500000e-01	4.952717e+04	
16	8.000000e-01	5.089449e+04	
17	8.500000e-01	5.233569e+04	
18	9.000000e-01	5.385692e+04	
19	9.500000e-01	5.546504e+04	
20	1.000000e+00	5.716771e+04	
21	1.050000e+00	5.897351e+04	
22	1.100000e+00	6.089212e+04	
23	1.150000e+00	6.293444e+04	
24	1.200000e+00	6.511285e+04	
25	1.250000e+00	6.744140e+04	
26	1.300000e+00	6.993618e+04	
27	1.350000e+00	7.261565e+04	
28	1.400000e+00	7.550111e+04	
29	1.450000e+00	7.861726e+04	
30	1.500000e+00	8.199292e+04	
31	1.550000e+00	8.566191e+04	
32	1.600000e+00	8.966420e+04	
33	1.650000e+00	9.404735e+04	
34	1.700000e+00	9.886840e+04	
35	1.750000e+00	1.041964e+05	
36	1.800000e+00	1.101155e+05	
37	1.850000e+00	1.167297e+05	
38	1.900000e+00	1.241687e+05	
39	1.950000e+00	1.325961e+05	
40	2.000000e+00	1.422214e+05	
41	2.050000e+00	1.533169e+05	
42	2.100000e+00	1.662416e+05	
43	2.150000e+00	1.814779e+05	
44	2.200000e+00	1.996854e+05	
45	2.250000e+00	2.217830e+05	
46	2.300000e+00	2.490744e+05	
47	2.350000e+00	2.834379e+05	
48	2.400000e+00	3.276045e+05	
49	2.450000e+00	3.855407e+05	
50	2.500000e+00	4.628993e+05	
51	2.550000e+00	5.673841e+05	
52	2.600000e+00	7.086957e+05	
53	2.650000e+00	8.976387e+05	
54	2.700000e+00	1.144262e+06	

Index   v-sweep         rds             
--------------------------------------------------------------------------------
55	2.750000e+00	1.455557e+06	
56	2.800000e+00	1.833707e+06	
57	2.850000e+00	2.275621e+06	
58	2.900000e+00	2.773738e+06	
59	2.950000e+00	3.317559e+06	
60	3.000000e+00	3.895290e+06	
61	3.050000e+00	4.495190e+06	
62	3.100000e+00	5.106498e+06	
63	3.150000e+00	5.719944e+06	
64	3.200000e+00	6.327929e+06	
65	3.250000e+00	6.924505e+06	
66	3.300000e+00	7.505225e+06	
67	3.350000e+00	8.066926e+06	
68	3.400000e+00	8.607515e+06	
69	3.450000e+00	9.125750e+06	
70	3.500000e+00	9.621054e+06	
71	3.550000e+00	1.009336e+07	
72	3.600000e+00	1.054296e+07	
73	3.650000e+00	1.097042e+07	
74	3.700000e+00	1.137650e+07	
75	3.750000e+00	1.176207e+07	
76	3.800000e+00	1.212807e+07	
77	3.850000e+00	1.247548e+07	
78	3.900000e+00	1.280527e+07	
79	3.950000e+00	1.311844e+07	
80	4.000000e+00	1.341591e+07	
81	4.050000e+00	1.369861e+07	
82	4.100000e+00	1.396742e+07	
83	4.150000e+00	1.422315e+07	
84	4.200000e+00	1.446659e+07	
85	4.250000e+00	1.469849e+07	
86	4.300000e+00	1.491954e+07	
87	4.350000e+00	1.513040e+07	
88	4.400000e+00	1.533166e+07	
89	4.450000e+00	1.552390e+07	
90	4.500000e+00	1.570765e+07	
91	4.550000e+00	1.588342e+07	
92	4.600000e+00	1.605166e+07	
93	4.650000e+00	1.621280e+07	
94	4.700000e+00	1.636725e+07	
95	4.750000e+00	1.651539e+07	
96	4.800000e+00	1.665757e+07	
97	4.850000e+00	1.679411e+07	
98	4.900000e+00	1.692532e+07	
99	4.950000e+00	1.705149e+07	
100	5.000000e+00	1.717288e+07	
101	5.050000e+00	1.728975e+07	
102	5.100000e+00	1.740233e+07	
103	5.150000e+00	1.751084e+07	
104	5.200000e+00	1.761549e+07	
105	5.250000e+00	1.771646e+07	
106	5.300000e+00	1.781393e+07	
107	5.350000e+00	1.790809e+07	
108	5.400000e+00	1.799908e+07	
109	5.450000e+00	1.808706e+07	
110	5.500000e+00	1.817217e+07	
111	5.550000e+00	1.825454e+07	
112	5.600000e+00	1.833429e+07	

Index   v-sweep         rds             
--------------------------------------------------------------------------------
113	5.650000e+00	1.841155e+07	
114	5.700000e+00	1.848642e+07	
115	5.750000e+00	1.855901e+07	
116	5.800000e+00	1.862941e+07	
117	5.850000e+00	1.869773e+07	
118	5.900000e+00	1.876405e+07	
119	5.950000e+00	1.882845e+07	
120	6.000000e+00	1.889102e+07	
121	6.050000e+00	1.895183e+07	
122	6.100000e+00	1.901094e+07	
123	6.150000e+00	1.906843e+07	
124	6.200000e+00	1.912436e+07	
125	6.250000e+00	1.917879e+07	
126	6.300000e+00	1.923179e+07	
127	6.350000e+00	1.928339e+07	
128	6.400000e+00	1.933367e+07	
129	6.450000e+00	1.938266e+07	
130	6.500000e+00	1.943041e+07	
131	6.550000e+00	1.947697e+07	
132	6.600000e+00	1.952239e+07	
Reset re-loads circuit ***************************

Circuit: ***************************

Doing analysis at TEMP = 25.000000 and TNOM = 25.000000


No. of Data Rows : 133
                          ***************************
                          DC transfer characteristic  Mon Jan  9 13:57:42  2023
--------------------------------------------------------------------------------
Index   v-sweep         rds             
--------------------------------------------------------------------------------
0	0.000000e+00	2.974591e+04	
1	5.000000e-02	3.020017e+04	
2	1.000000e-01	3.066738e+04	
3	1.500000e-01	3.114810e+04	
4	2.000000e-01	3.164292e+04	
5	2.500000e-01	3.215247e+04	
6	3.000000e-01	3.267742e+04	
7	3.500000e-01	3.321848e+04	
8	4.000000e-01	3.377641e+04	
9	4.500000e-01	3.435199e+04	
10	5.000000e-01	3.494608e+04	
11	5.500000e-01	3.555960e+04	
12	6.000000e-01	3.619350e+04	
13	6.500000e-01	3.684882e+04	
14	7.000000e-01	3.752667e+04	
15	7.500000e-01	3.822822e+04	
16	8.000000e-01	3.895474e+04	
17	8.500000e-01	3.970759e+04	
18	9.000000e-01	4.048822e+04	
19	9.500000e-01	4.129820e+04	
20	1.000000e+00	4.213922e+04	
21	1.050000e+00	4.301310e+04	
22	1.100000e+00	4.392180e+04	
23	1.150000e+00	4.486744e+04	
24	1.200000e+00	4.585232e+04	
25	1.250000e+00	4.687894e+04	
26	1.300000e+00	4.795000e+04	
27	1.350000e+00	4.906847e+04	
28	1.400000e+00	5.023755e+04	
29	1.450000e+00	5.146076e+04	
30	1.500000e+00	5.274195e+04	
31	1.550000e+00	5.408535e+04	
32	1.600000e+00	5.549561e+04	
33	1.650000e+00	5.697783e+04	
34	1.700000e+00	5.853768e+04	
35	1.750000e+00	6.018142e+04	
36	1.800000e+00	6.191601e+04	
37	1.850000e+00	6.374921e+04	
38	1.900000e+00	6.568968e+04	
39	1.950000e+00	6.774712e+04	
40	2.000000e+00	6.993245e+04	
41	2.050000e+00	7.225800e+04	
42	2.100000e+00	7.473772e+04	
43	2.150000e+00	7.738749e+04	
44	2.200000e+00	8.022546e+04	
45	2.250000e+00	8.327244e+04	
46	2.300000e+00	8.655245e+04	
47	2.350000e+00	9.009335e+04	
48	2.400000e+00	9.392759e+04	
49	2.450000e+00	9.809330e+04	
50	2.500000e+00	1.026355e+05	
51	2.550000e+00	1.076077e+05	
52	2.600000e+00	1.130742e+05	
53	2.650000e+00	1.191125e+05	
54	2.700000e+00	1.258175e+05	

Index   v-sweep         rds             
--------------------------------------------------------------------------------
55	2.750000e+00	1.333059e+05	
56	2.800000e+00	1.417233e+05	
57	2.850000e+00	1.512530e+05	
58	2.900000e+00	1.621293e+05	
59	2.950000e+00	1.746550e+05	
60	3.000000e+00	1.892272e+05	
61	3.050000e+00	2.063739e+05	
62	3.100000e+00	2.268066e+05	
63	3.150000e+00	2.514947e+05	
64	3.200000e+00	2.817695e+05	
65	3.250000e+00	3.194604e+05	
66	3.300000e+00	3.670594e+05	
67	3.350000e+00	4.278808e+05	
68	3.400000e+00	5.061426e+05	
69	3.450000e+00	6.068548e+05	
70	3.500000e+00	7.353996e+05	
71	3.550000e+00	8.967973e+05	
72	3.600000e+00	1.094833e+06	
73	3.650000e+00	1.331343e+06	
74	3.700000e+00	1.605907e+06	
75	3.750000e+00	1.915991e+06	
76	3.800000e+00	2.257421e+06	
77	3.850000e+00	2.624987e+06	
78	3.900000e+00	3.013025e+06	
79	3.950000e+00	3.415886e+06	
80	4.000000e+00	3.828268e+06	
81	4.050000e+00	4.245419e+06	
82	4.100000e+00	4.663231e+06	
83	4.150000e+00	5.078266e+06	
84	4.200000e+00	5.487727e+06	
85	4.250000e+00	5.889403e+06	
86	4.300000e+00	6.281603e+06	
87	4.350000e+00	6.663081e+06	
88	4.400000e+00	7.032962e+06	
89	4.450000e+00	7.390681e+06	
90	4.500000e+00	7.735923e+06	
91	4.550000e+00	8.068572e+06	
92	4.600000e+00	8.388667e+06	
93	4.650000e+00	8.696370e+06	
94	4.700000e+00	8.991933e+06	
95	4.750000e+00	9.275675e+06	
96	4.800000e+00	9.547964e+06	
97	4.850000e+00	9.809198e+06	
98	4.900000e+00	1.005980e+07	
99	4.950000e+00	1.030019e+07	
100	5.000000e+00	1.053081e+07	
101	5.050000e+00	1.075209e+07	
102	5.100000e+00	1.096445e+07	
103	5.150000e+00	1.116830e+07	
104	5.200000e+00	1.136404e+07	
105	5.250000e+00	1.155206e+07	
106	5.300000e+00	1.173272e+07	
107	5.350000e+00	1.190638e+07	
108	5.400000e+00	1.207339e+07	
109	5.450000e+00	1.223405e+07	
110	5.500000e+00	1.238868e+07	
111	5.550000e+00	1.253757e+07	
112	5.600000e+00	1.268099e+07	

Index   v-sweep         rds             
--------------------------------------------------------------------------------
113	5.650000e+00	1.281921e+07	
114	5.700000e+00	1.295248e+07	
115	5.750000e+00	1.308102e+07	
116	5.800000e+00	1.320507e+07	
117	5.850000e+00	1.332483e+07	
118	5.900000e+00	1.344050e+07	
119	5.950000e+00	1.355227e+07	
120	6.000000e+00	1.366032e+07	
121	6.050000e+00	1.376482e+07	
122	6.100000e+00	1.386592e+07	
123	6.150000e+00	1.396378e+07	
124	6.200000e+00	1.405854e+07	
125	6.250000e+00	1.415033e+07	
126	6.300000e+00	1.423929e+07	
127	6.350000e+00	1.432553e+07	
128	6.400000e+00	1.440917e+07	
129	6.450000e+00	1.449032e+07	
130	6.500000e+00	1.456908e+07	
131	6.550000e+00	1.464555e+07	
132	6.600000e+00	1.471982e+07	
Reset re-loads circuit ***************************

Circuit: ***************************

Doing analysis at TEMP = 25.000000 and TNOM = 25.000000


No. of Data Rows : 133
                          ***************************
                          DC transfer characteristic  Mon Jan  9 13:57:42  2023
--------------------------------------------------------------------------------
Index   v-sweep         rds             
--------------------------------------------------------------------------------
0	0.000000e+00	2.682398e+04	
1	5.000000e-02	2.714998e+04	
2	1.000000e-01	2.748326e+04	
3	1.500000e-01	2.782406e+04	
4	2.000000e-01	2.817263e+04	
5	2.500000e-01	2.852926e+04	
6	3.000000e-01	2.889421e+04	
7	3.500000e-01	2.926779e+04	
8	4.000000e-01	2.965031e+04	
9	4.500000e-01	3.004208e+04	
10	5.000000e-01	3.044345e+04	
11	5.500000e-01	3.085477e+04	
12	6.000000e-01	3.127643e+04	
13	6.500000e-01	3.170881e+04	
14	7.000000e-01	3.215232e+04	
15	7.500000e-01	3.260741e+04	
16	8.000000e-01	3.307453e+04	
17	8.500000e-01	3.355416e+04	
18	9.000000e-01	3.404682e+04	
19	9.500000e-01	3.455304e+04	
20	1.000000e+00	3.507339e+04	
21	1.050000e+00	3.560846e+04	
22	1.100000e+00	3.615890e+04	
23	1.150000e+00	3.672538e+04	
24	1.200000e+00	3.730860e+04	
25	1.250000e+00	3.790931e+04	
26	1.300000e+00	3.852832e+04	
27	1.350000e+00	3.916648e+04	
28	1.400000e+00	3.982469e+04	
29	1.450000e+00	4.050390e+04	
30	1.500000e+00	4.120515e+04	
31	1.550000e+00	4.192951e+04	
32	1.600000e+00	4.267815e+04	
33	1.650000e+00	4.345232e+04	
34	1.700000e+00	4.425333e+04	
35	1.750000e+00	4.508262e+04	
36	1.800000e+00	4.594170e+04	
37	1.850000e+00	4.683221e+04	
38	1.900000e+00	4.775591e+04	
39	1.950000e+00	4.871469e+04	
40	2.000000e+00	4.971059e+04	
41	2.050000e+00	5.074581e+04	
42	2.100000e+00	5.182272e+04	
43	2.150000e+00	5.294389e+04	
44	2.200000e+00	5.411212e+04	
45	2.250000e+00	5.533043e+04	
46	2.300000e+00	5.660211e+04	
47	2.350000e+00	5.793076e+04	
48	2.400000e+00	5.932029e+04	
49	2.450000e+00	6.077500e+04	
50	2.500000e+00	6.229958e+04	
51	2.550000e+00	6.389920e+04	
52	2.600000e+00	6.557955e+04	
53	2.650000e+00	6.734691e+04	
54	2.700000e+00	6.920824e+04	

Index   v-sweep         rds             
--------------------------------------------------------------------------------
55	2.750000e+00	7.117124e+04	
56	2.800000e+00	7.324451e+04	
57	2.850000e+00	7.543762e+04	
58	2.900000e+00	7.776131e+04	
59	2.950000e+00	8.022764e+04	
60	3.000000e+00	8.285020e+04	
61	3.050000e+00	8.564438e+04	
62	3.100000e+00	8.862767e+04	
63	3.150000e+00	9.182003e+04	
64	3.200000e+00	9.524434e+04	
65	3.250000e+00	9.892696e+04	
66	3.300000e+00	1.028984e+05	
67	3.350000e+00	1.071944e+05	
68	3.400000e+00	1.118564e+05	
69	3.450000e+00	1.169338e+05	
70	3.500000e+00	1.224851e+05	
71	3.550000e+00	1.285802e+05	
72	3.600000e+00	1.353036e+05	
73	3.650000e+00	1.427584e+05	
74	3.700000e+00	1.510713e+05	
75	3.750000e+00	1.603994e+05	
76	3.800000e+00	1.709404e+05	
77	3.850000e+00	1.829450e+05	
78	3.900000e+00	1.967349e+05	
79	3.950000e+00	2.127275e+05	
80	4.000000e+00	2.314692e+05	
81	4.050000e+00	2.536802e+05	
82	4.100000e+00	2.803130e+05	
83	4.150000e+00	3.126233e+05	
84	4.200000e+00	3.522471e+05	
85	4.250000e+00	4.012661e+05	
86	4.300000e+00	4.622273e+05	
87	4.350000e+00	5.380714e+05	
88	4.400000e+00	6.319290e+05	
89	4.450000e+00	7.467862e+05	
90	4.500000e+00	8.850788e+05	
91	4.550000e+00	1.048329e+06	
92	4.600000e+00	1.236928e+06	
93	4.650000e+00	1.450117e+06	
94	4.700000e+00	1.686128e+06	
95	4.750000e+00	1.942439e+06	
96	4.800000e+00	2.216052e+06	
97	4.850000e+00	2.503751e+06	
98	4.900000e+00	2.802311e+06	
99	4.950000e+00	3.108657e+06	
100	5.000000e+00	3.419957e+06	
101	5.050000e+00	3.733681e+06	
102	5.100000e+00	4.047627e+06	
103	5.150000e+00	4.359918e+06	
104	5.200000e+00	4.668984e+06	
105	5.250000e+00	4.973545e+06	
106	5.300000e+00	5.272571e+06	
107	5.350000e+00	5.565262e+06	
108	5.400000e+00	5.851009e+06	
109	5.450000e+00	6.129369e+06	
110	5.500000e+00	6.400042e+06	
111	5.550000e+00	6.662839e+06	
112	5.600000e+00	6.917672e+06	

Index   v-sweep         rds             
--------------------------------------------------------------------------------
113	5.650000e+00	7.164527e+06	
114	5.700000e+00	7.403456e+06	
115	5.750000e+00	7.634559e+06	
116	5.800000e+00	7.857977e+06	
117	5.850000e+00	8.073878e+06	
118	5.900000e+00	8.282455e+06	
119	5.950000e+00	8.483918e+06	
120	6.000000e+00	8.678484e+06	
121	6.050000e+00	8.866382e+06	
122	6.100000e+00	9.047841e+06	
123	6.150000e+00	9.223092e+06	
124	6.200000e+00	9.392365e+06	
125	6.250000e+00	9.555886e+06	
126	6.300000e+00	9.713879e+06	
127	6.350000e+00	9.866559e+06	
128	6.400000e+00	1.001414e+07	
129	6.450000e+00	1.015683e+07	
130	6.500000e+00	1.029481e+07	
131	6.550000e+00	1.042829e+07	
132	6.600000e+00	1.055745e+07	
Reset re-loads circuit ***************************

Circuit: ***************************

Note: No ".plot", ".print", or ".fourier" lines; no simulations run
