
Note: Compatibility modes selected: hs

Warning: m=xx on .subckt line will override multiplier m hierarchy!


Circuit: ***************************

Doing analysis at TEMP = -40.000000 and TNOM = -40.000000


No. of Data Rows : 133
                          ***************************
                          DC transfer characteristic  Mon Jan  9 13:57:42  2023
--------------------------------------------------------------------------------
Index   v-sweep         rds             
--------------------------------------------------------------------------------
0	0.000000e+00	5.684673e+04	
1	5.000000e-02	7.686099e+04	
2	1.000000e-01	1.170800e+05	
3	1.500000e-01	2.233502e+05	
4	2.000000e-01	6.021502e+05	
5	2.500000e-01	1.900481e+06	
6	3.000000e-01	4.873558e+06	
7	3.500000e-01	9.305740e+06	
8	4.000000e-01	1.409023e+07	
9	4.500000e-01	1.829207e+07	
10	5.000000e-01	2.159166e+07	
11	5.500000e-01	2.405896e+07	
12	6.000000e-01	2.588039e+07	
13	6.500000e-01	2.723279e+07	
14	7.000000e-01	2.825149e+07	
15	7.500000e-01	2.903254e+07	
16	8.000000e-01	2.964251e+07	
17	8.500000e-01	3.012742e+07	
18	9.000000e-01	3.051935e+07	
19	9.500000e-01	3.084098e+07	
20	1.000000e+00	3.110860e+07	
21	1.050000e+00	3.133407e+07	
22	1.100000e+00	3.152617e+07	
23	1.150000e+00	3.169152e+07	
24	1.200000e+00	3.183514e+07	
25	1.250000e+00	3.196092e+07	
26	1.300000e+00	3.207191e+07	
27	1.350000e+00	3.217050e+07	
28	1.400000e+00	3.225864e+07	
29	1.450000e+00	3.233786e+07	
30	1.500000e+00	3.240945e+07	
31	1.550000e+00	3.247443e+07	
32	1.600000e+00	3.253368e+07	
33	1.650000e+00	3.258792e+07	
34	1.700000e+00	3.263774e+07	
35	1.750000e+00	3.268368e+07	
36	1.800000e+00	3.272616e+07	
37	1.850000e+00	3.276556e+07	
38	1.900000e+00	3.280220e+07	
39	1.950000e+00	3.283636e+07	
40	2.000000e+00	3.286829e+07	
41	2.050000e+00	3.289819e+07	
42	2.100000e+00	3.292626e+07	
43	2.150000e+00	3.295266e+07	
44	2.200000e+00	3.297753e+07	
45	2.250000e+00	3.300100e+07	
46	2.300000e+00	3.302320e+07	
47	2.350000e+00	3.304421e+07	
48	2.400000e+00	3.306413e+07	
49	2.450000e+00	3.308305e+07	
50	2.500000e+00	3.310103e+07	
51	2.550000e+00	3.311815e+07	
52	2.600000e+00	3.313447e+07	
53	2.650000e+00	3.315004e+07	
54	2.700000e+00	3.316491e+07	

Index   v-sweep         rds             
--------------------------------------------------------------------------------
55	2.750000e+00	3.317913e+07	
56	2.800000e+00	3.319274e+07	
57	2.850000e+00	3.320578e+07	
58	2.900000e+00	3.321828e+07	
59	2.950000e+00	3.323028e+07	
60	3.000000e+00	3.324181e+07	
61	3.050000e+00	3.325289e+07	
62	3.100000e+00	3.326354e+07	
63	3.150000e+00	3.327380e+07	
64	3.200000e+00	3.328369e+07	
65	3.250000e+00	3.329321e+07	
66	3.300000e+00	3.330241e+07	
67	3.350000e+00	3.331128e+07	
68	3.400000e+00	3.331985e+07	
69	3.450000e+00	3.332813e+07	
70	3.500000e+00	3.333613e+07	
71	3.550000e+00	3.334388e+07	
72	3.600000e+00	3.335138e+07	
73	3.650000e+00	3.335864e+07	
74	3.700000e+00	3.336568e+07	
75	3.750000e+00	3.337250e+07	
76	3.800000e+00	3.337912e+07	
77	3.850000e+00	3.338554e+07	
78	3.900000e+00	3.339177e+07	
79	3.950000e+00	3.339782e+07	
80	4.000000e+00	3.340370e+07	
81	4.050000e+00	3.340941e+07	
82	4.100000e+00	3.341497e+07	
83	4.150000e+00	3.342037e+07	
84	4.200000e+00	3.342563e+07	
85	4.250000e+00	3.343075e+07	
86	4.300000e+00	3.343573e+07	
87	4.350000e+00	3.344059e+07	
88	4.400000e+00	3.344532e+07	
89	4.450000e+00	3.344993e+07	
90	4.500000e+00	3.345442e+07	
91	4.550000e+00	3.345880e+07	
92	4.600000e+00	3.346308e+07	
93	4.650000e+00	3.346725e+07	
94	4.700000e+00	3.347133e+07	
95	4.750000e+00	3.347530e+07	
96	4.800000e+00	3.347919e+07	
97	4.850000e+00	3.348298e+07	
98	4.900000e+00	3.348669e+07	
99	4.950000e+00	3.349031e+07	
100	5.000000e+00	3.349385e+07	
101	5.050000e+00	3.349731e+07	
102	5.100000e+00	3.350070e+07	
103	5.150000e+00	3.350402e+07	
104	5.200000e+00	3.350726e+07	
105	5.250000e+00	3.351043e+07	
106	5.300000e+00	3.351354e+07	
107	5.350000e+00	3.351658e+07	
108	5.400000e+00	3.351956e+07	
109	5.450000e+00	3.352248e+07	
110	5.500000e+00	3.352534e+07	
111	5.550000e+00	3.352814e+07	
112	5.600000e+00	3.353089e+07	

Index   v-sweep         rds             
--------------------------------------------------------------------------------
113	5.650000e+00	3.353358e+07	
114	5.700000e+00	3.353622e+07	
115	5.750000e+00	3.353881e+07	
116	5.800000e+00	3.354135e+07	
117	5.850000e+00	3.354384e+07	
118	5.900000e+00	3.354628e+07	
119	5.950000e+00	3.354868e+07	
120	6.000000e+00	3.355104e+07	
121	6.050000e+00	3.355335e+07	
122	6.100000e+00	3.355561e+07	
123	6.150000e+00	3.355784e+07	
124	6.200000e+00	3.356003e+07	
125	6.250000e+00	3.356218e+07	
126	6.300000e+00	3.356429e+07	
127	6.350000e+00	3.356636e+07	
128	6.400000e+00	3.356840e+07	
129	6.450000e+00	3.357040e+07	
130	6.500000e+00	3.357237e+07	
131	6.550000e+00	3.357431e+07	
132	6.600000e+00	3.357621e+07	
Reset re-loads circuit ***************************

Circuit: ***************************

Doing analysis at TEMP = -40.000000 and TNOM = -40.000000


No. of Data Rows : 133
                          ***************************
                          DC transfer characteristic  Mon Jan  9 13:57:42  2023
--------------------------------------------------------------------------------
Index   v-sweep         rds             
--------------------------------------------------------------------------------
0	0.000000e+00	1.091038e+04	
1	5.000000e-02	1.153425e+04	
2	1.000000e-01	1.223165e+04	
3	1.500000e-01	1.301640e+04	
4	2.000000e-01	1.390597e+04	
5	2.500000e-01	1.492282e+04	
6	3.000000e-01	1.609632e+04	
7	3.500000e-01	1.746555e+04	
8	4.000000e-01	1.908368e+04	
9	4.500000e-01	2.102490e+04	
10	5.000000e-01	2.339572e+04	
11	5.500000e-01	2.635429e+04	
12	6.000000e-01	3.014494e+04	
13	6.500000e-01	3.516271e+04	
14	7.000000e-01	4.208076e+04	
15	7.500000e-01	5.211298e+04	
16	8.000000e-01	6.756865e+04	
17	8.500000e-01	9.298387e+04	
18	9.000000e-01	1.370583e+05	
19	9.500000e-01	2.145203e+05	
20	1.000000e+00	3.445728e+05	
21	1.050000e+00	5.432623e+05	
22	1.100000e+00	8.144132e+05	
23	1.150000e+00	1.146981e+06	
24	1.200000e+00	1.519950e+06	
25	1.250000e+00	1.909908e+06	
26	1.300000e+00	2.296792e+06	
27	1.350000e+00	2.666364e+06	
28	1.400000e+00	3.010195e+06	
29	1.450000e+00	3.324447e+06	
30	1.500000e+00	3.608414e+06	
31	1.550000e+00	3.863282e+06	
32	1.600000e+00	4.091234e+06	
33	1.650000e+00	4.294868e+06	
34	1.700000e+00	4.476849e+06	
35	1.750000e+00	4.639717e+06	
36	1.800000e+00	4.785798e+06	
37	1.850000e+00	4.917165e+06	
38	1.900000e+00	5.035643e+06	
39	1.950000e+00	5.142822e+06	
40	2.000000e+00	5.240079e+06	
41	2.050000e+00	5.328604e+06	
42	2.100000e+00	5.409425e+06	
43	2.150000e+00	5.483431e+06	
44	2.200000e+00	5.551389e+06	
45	2.250000e+00	5.613964e+06	
46	2.300000e+00	5.671736e+06	
47	2.350000e+00	5.725206e+06	
48	2.400000e+00	5.774814e+06	
49	2.450000e+00	5.820945e+06	
50	2.500000e+00	5.863935e+06	
51	2.550000e+00	5.904083e+06	
52	2.600000e+00	5.941650e+06	
53	2.650000e+00	5.976868e+06	
54	2.700000e+00	6.009945e+06	

Index   v-sweep         rds             
--------------------------------------------------------------------------------
55	2.750000e+00	6.041062e+06	
56	2.800000e+00	6.070385e+06	
57	2.850000e+00	6.098059e+06	
58	2.900000e+00	6.124216e+06	
59	2.950000e+00	6.148975e+06	
60	3.000000e+00	6.172441e+06	
61	3.050000e+00	6.194712e+06	
62	3.100000e+00	6.215874e+06	
63	3.150000e+00	6.236007e+06	
64	3.200000e+00	6.255182e+06	
65	3.250000e+00	6.273464e+06	
66	3.300000e+00	6.290914e+06	
67	3.350000e+00	6.307586e+06	
68	3.400000e+00	6.323530e+06	
69	3.450000e+00	6.338792e+06	
70	3.500000e+00	6.353415e+06	
71	3.550000e+00	6.367436e+06	
72	3.600000e+00	6.380892e+06	
73	3.650000e+00	6.393815e+06	
74	3.700000e+00	6.406237e+06	
75	3.750000e+00	6.418186e+06	
76	3.800000e+00	6.429687e+06	
77	3.850000e+00	6.440765e+06	
78	3.900000e+00	6.451443e+06	
79	3.950000e+00	6.461742e+06	
80	4.000000e+00	6.471682e+06	
81	4.050000e+00	6.481280e+06	
82	4.100000e+00	6.490554e+06	
83	4.150000e+00	6.499520e+06	
84	4.200000e+00	6.508192e+06	
85	4.250000e+00	6.516585e+06	
86	4.300000e+00	6.524713e+06	
87	4.350000e+00	6.532586e+06	
88	4.400000e+00	6.540217e+06	
89	4.450000e+00	6.547617e+06	
90	4.500000e+00	6.554796e+06	
91	4.550000e+00	6.561764e+06	
92	4.600000e+00	6.568530e+06	
93	4.650000e+00	6.575101e+06	
94	4.700000e+00	6.581488e+06	
95	4.750000e+00	6.587696e+06	
96	4.800000e+00	6.593734e+06	
97	4.850000e+00	6.599609e+06	
98	4.900000e+00	6.605326e+06	
99	4.950000e+00	6.610892e+06	
100	5.000000e+00	6.616313e+06	
101	5.050000e+00	6.621595e+06	
102	5.100000e+00	6.626742e+06	
103	5.150000e+00	6.631760e+06	
104	5.200000e+00	6.636653e+06	
105	5.250000e+00	6.641426e+06	
106	5.300000e+00	6.646084e+06	
107	5.350000e+00	6.650631e+06	
108	5.400000e+00	6.655069e+06	
109	5.450000e+00	6.659404e+06	
110	5.500000e+00	6.663639e+06	
111	5.550000e+00	6.667776e+06	
112	5.600000e+00	6.671821e+06	

Index   v-sweep         rds             
--------------------------------------------------------------------------------
113	5.650000e+00	6.675774e+06	
114	5.700000e+00	6.679640e+06	
115	5.750000e+00	6.683422e+06	
116	5.800000e+00	6.687122e+06	
117	5.850000e+00	6.690742e+06	
118	5.900000e+00	6.694285e+06	
119	5.950000e+00	6.697754e+06	
120	6.000000e+00	6.701152e+06	
121	6.050000e+00	6.704479e+06	
122	6.100000e+00	6.707738e+06	
123	6.150000e+00	6.710932e+06	
124	6.200000e+00	6.714062e+06	
125	6.250000e+00	6.717130e+06	
126	6.300000e+00	6.720137e+06	
127	6.350000e+00	6.723087e+06	
128	6.400000e+00	6.725980e+06	
129	6.450000e+00	6.728818e+06	
130	6.500000e+00	6.731602e+06	
131	6.550000e+00	6.734334e+06	
132	6.600000e+00	6.737016e+06	
Reset re-loads circuit ***************************

Circuit: ***************************

Doing analysis at TEMP = -40.000000 and TNOM = -40.000000


No. of Data Rows : 133
                          ***************************
                          DC transfer characteristic  Mon Jan  9 13:57:42  2023
--------------------------------------------------------------------------------
Index   v-sweep         rds             
--------------------------------------------------------------------------------
0	0.000000e+00	6.447031e+03	
1	5.000000e-02	6.647530e+03	
2	1.000000e-01	6.860232e+03	
3	1.500000e-01	7.086285e+03	
4	2.000000e-01	7.326986e+03	
5	2.500000e-01	7.583808e+03	
6	3.000000e-01	7.858426e+03	
7	3.500000e-01	8.152754e+03	
8	4.000000e-01	8.468993e+03	
9	4.500000e-01	8.809684e+03	
10	5.000000e-01	9.177777e+03	
11	5.500000e-01	9.576714e+03	
12	6.000000e-01	1.001054e+04	
13	6.500000e-01	1.048404e+04	
14	7.000000e-01	1.100292e+04	
15	7.500000e-01	1.157403e+04	
16	8.000000e-01	1.220565e+04	
17	8.500000e-01	1.290793e+04	
18	9.000000e-01	1.369344e+04	
19	9.500000e-01	1.457784e+04	
20	1.000000e+00	1.558104e+04	
21	1.050000e+00	1.672860e+04	
22	1.100000e+00	1.805394e+04	
23	1.150000e+00	1.960149e+04	
24	1.200000e+00	2.143166e+04	
25	1.250000e+00	2.362831e+04	
26	1.300000e+00	2.631104e+04	
27	1.350000e+00	2.965506e+04	
28	1.400000e+00	3.392489e+04	
29	1.450000e+00	3.953168e+04	
30	1.500000e+00	4.713081e+04	
31	1.550000e+00	5.778137e+04	
32	1.600000e+00	7.317828e+04	
33	1.650000e+00	9.590381e+04	
34	1.700000e+00	1.294966e+05	
35	1.750000e+00	1.780164e+05	
36	1.800000e+00	2.450015e+05	
37	1.850000e+00	3.322845e+05	
38	1.900000e+00	4.393712e+05	
39	1.950000e+00	5.636481e+05	
40	2.000000e+00	7.011355e+05	
41	2.050000e+00	8.473496e+05	
42	2.100000e+00	9.979865e+05	
43	2.150000e+00	1.149336e+06	
44	2.200000e+00	1.298455e+06	
45	2.250000e+00	1.443175e+06	
46	2.300000e+00	1.582016e+06	
47	2.350000e+00	1.714066e+06	
48	2.400000e+00	1.838848e+06	
49	2.450000e+00	1.956212e+06	
50	2.500000e+00	2.066232e+06	
51	2.550000e+00	2.169139e+06	
52	2.600000e+00	2.265256e+06	
53	2.650000e+00	2.354964e+06	
54	2.700000e+00	2.438670e+06	

Index   v-sweep         rds             
--------------------------------------------------------------------------------
55	2.750000e+00	2.516786e+06	
56	2.800000e+00	2.589719e+06	
57	2.850000e+00	2.657856e+06	
58	2.900000e+00	2.721566e+06	
59	2.950000e+00	2.781194e+06	
60	3.000000e+00	2.837061e+06	
61	3.050000e+00	2.889461e+06	
62	3.100000e+00	2.938666e+06	
63	3.150000e+00	2.984926e+06	
64	3.200000e+00	3.028469e+06	
65	3.250000e+00	3.069502e+06	
66	3.300000e+00	3.108217e+06	
67	3.350000e+00	3.144787e+06	
68	3.400000e+00	3.179371e+06	
69	3.450000e+00	3.212113e+06	
70	3.500000e+00	3.243147e+06	
71	3.550000e+00	3.272592e+06	
72	3.600000e+00	3.300560e+06	
73	3.650000e+00	3.327153e+06	
74	3.700000e+00	3.352462e+06	
75	3.750000e+00	3.376574e+06	
76	3.800000e+00	3.399567e+06	
77	3.850000e+00	3.421512e+06	
78	3.900000e+00	3.442477e+06	
79	3.950000e+00	3.462522e+06	
80	4.000000e+00	3.481704e+06	
81	4.050000e+00	3.500075e+06	
82	4.100000e+00	3.517683e+06	
83	4.150000e+00	3.534572e+06	
84	4.200000e+00	3.550784e+06	
85	4.250000e+00	3.566358e+06	
86	4.300000e+00	3.581328e+06	
87	4.350000e+00	3.595728e+06	
88	4.400000e+00	3.609589e+06	
89	4.450000e+00	3.622939e+06	
90	4.500000e+00	3.635806e+06	
91	4.550000e+00	3.648213e+06	
92	4.600000e+00	3.660186e+06	
93	4.650000e+00	3.671744e+06	
94	4.700000e+00	3.682910e+06	
95	4.750000e+00	3.693701e+06	
96	4.800000e+00	3.704136e+06	
97	4.850000e+00	3.714233e+06	
98	4.900000e+00	3.724005e+06	
99	4.950000e+00	3.733469e+06	
100	5.000000e+00	3.742639e+06	
101	5.050000e+00	3.751528e+06	
102	5.100000e+00	3.760147e+06	
103	5.150000e+00	3.768510e+06	
104	5.200000e+00	3.776626e+06	
105	5.250000e+00	3.784507e+06	
106	5.300000e+00	3.792162e+06	
107	5.350000e+00	3.799600e+06	
108	5.400000e+00	3.806832e+06	
109	5.450000e+00	3.813864e+06	
110	5.500000e+00	3.820704e+06	
111	5.550000e+00	3.827362e+06	
112	5.600000e+00	3.833842e+06	

Index   v-sweep         rds             
--------------------------------------------------------------------------------
113	5.650000e+00	3.840153e+06	
114	5.700000e+00	3.846301e+06	
115	5.750000e+00	3.852292e+06	
116	5.800000e+00	3.858131e+06	
117	5.850000e+00	3.863825e+06	
118	5.900000e+00	3.869378e+06	
119	5.950000e+00	3.874796e+06	
120	6.000000e+00	3.880083e+06	
121	6.050000e+00	3.885244e+06	
122	6.100000e+00	3.890284e+06	
123	6.150000e+00	3.895206e+06	
124	6.200000e+00	3.900014e+06	
125	6.250000e+00	3.904714e+06	
126	6.300000e+00	3.909307e+06	
127	6.350000e+00	3.913797e+06	
128	6.400000e+00	3.918189e+06	
129	6.450000e+00	3.922484e+06	
130	6.500000e+00	3.926687e+06	
131	6.550000e+00	3.930799e+06	
132	6.600000e+00	3.934825e+06	
Reset re-loads circuit ***************************

Circuit: ***************************

Doing analysis at TEMP = -40.000000 and TNOM = -40.000000


No. of Data Rows : 133
                          ***************************
                          DC transfer characteristic  Mon Jan  9 13:57:42  2023
--------------------------------------------------------------------------------
Index   v-sweep         rds             
--------------------------------------------------------------------------------
0	0.000000e+00	4.854326e+03	
1	5.000000e-02	4.957557e+03	
2	1.000000e-01	5.064945e+03	
3	1.500000e-01	5.176748e+03	
4	2.000000e-01	5.293243e+03	
5	2.500000e-01	5.414731e+03	
6	3.000000e-01	5.541540e+03	
7	3.500000e-01	5.674028e+03	
8	4.000000e-01	5.812585e+03	
9	4.500000e-01	5.957638e+03	
10	5.000000e-01	6.109654e+03	
11	5.500000e-01	6.269146e+03	
12	6.000000e-01	6.436681e+03	
13	6.500000e-01	6.612882e+03	
14	7.000000e-01	6.798440e+03	
15	7.500000e-01	6.994119e+03	
16	8.000000e-01	7.200773e+03	
17	8.500000e-01	7.419351e+03	
18	9.000000e-01	7.650915e+03	
19	9.500000e-01	7.896659e+03	
20	1.000000e+00	8.157927e+03	
21	1.050000e+00	8.436238e+03	
22	1.100000e+00	8.733318e+03	
23	1.150000e+00	9.051133e+03	
24	1.200000e+00	9.391934e+03	
25	1.250000e+00	9.758309e+03	
26	1.300000e+00	1.015325e+04	
27	1.350000e+00	1.058024e+04	
28	1.400000e+00	1.104336e+04	
29	1.450000e+00	1.154738e+04	
30	1.500000e+00	1.209798e+04	
31	1.550000e+00	1.270196e+04	
32	1.600000e+00	1.336746e+04	
33	1.650000e+00	1.410442e+04	
34	1.700000e+00	1.492498e+04	
35	1.750000e+00	1.584425e+04	
36	1.800000e+00	1.688115e+04	
37	1.850000e+00	1.805978e+04	
38	1.900000e+00	1.941119e+04	
39	1.950000e+00	2.097610e+04	
40	2.000000e+00	2.280881e+04	
41	2.050000e+00	2.498310e+04	
42	2.100000e+00	2.760115e+04	
43	2.150000e+00	3.080740e+04	
44	2.200000e+00	3.480969e+04	
45	2.250000e+00	3.991149e+04	
46	2.300000e+00	4.655847e+04	
47	2.350000e+00	5.539961e+04	
48	2.400000e+00	6.735067e+04	
49	2.450000e+00	8.362488e+04	
50	2.500000e+00	1.056718e+05	
51	2.550000e+00	1.349782e+05	
52	2.600000e+00	1.727632e+05	
53	2.650000e+00	2.196900e+05	
54	2.700000e+00	2.757216e+05	

Index   v-sweep         rds             
--------------------------------------------------------------------------------
55	2.750000e+00	3.401611e+05	
56	2.800000e+00	4.118181e+05	
57	2.850000e+00	4.892213e+05	
58	2.900000e+00	5.708110e+05	
59	2.950000e+00	6.550837e+05	
60	3.000000e+00	7.406836e+05	
61	3.050000e+00	8.264497e+05	
62	3.100000e+00	9.114297e+05	
63	3.150000e+00	9.948726e+05	
64	3.200000e+00	1.076209e+06	
65	3.250000e+00	1.155028e+06	
66	3.300000e+00	1.231049e+06	
67	3.350000e+00	1.304098e+06	
68	3.400000e+00	1.374085e+06	
69	3.450000e+00	1.440986e+06	
70	3.500000e+00	1.504825e+06	
71	3.550000e+00	1.565665e+06	
72	3.600000e+00	1.623591e+06	
73	3.650000e+00	1.678708e+06	
74	3.700000e+00	1.731134e+06	
75	3.750000e+00	1.780991e+06	
76	3.800000e+00	1.828403e+06	
77	3.850000e+00	1.873498e+06	
78	3.900000e+00	1.916398e+06	
79	3.950000e+00	1.957224e+06	
80	4.000000e+00	1.996092e+06	
81	4.050000e+00	2.033113e+06	
82	4.100000e+00	2.068392e+06	
83	4.150000e+00	2.102031e+06	
84	4.200000e+00	2.134123e+06	
85	4.250000e+00	2.164759e+06	
86	4.300000e+00	2.194021e+06	
87	4.350000e+00	2.221990e+06	
88	4.400000e+00	2.248738e+06	
89	4.450000e+00	2.274336e+06	
90	4.500000e+00	2.298848e+06	
91	4.550000e+00	2.322336e+06	
92	4.600000e+00	2.344855e+06	
93	4.650000e+00	2.366460e+06	
94	4.700000e+00	2.387200e+06	
95	4.750000e+00	2.407121e+06	
96	4.800000e+00	2.426268e+06	
97	4.850000e+00	2.444682e+06	
98	4.900000e+00	2.462400e+06	
99	4.950000e+00	2.479459e+06	
100	5.000000e+00	2.495891e+06	
101	5.050000e+00	2.511730e+06	
102	5.100000e+00	2.527004e+06	
103	5.150000e+00	2.541741e+06	
104	5.200000e+00	2.555968e+06	
105	5.250000e+00	2.569709e+06	
106	5.300000e+00	2.582987e+06	
107	5.350000e+00	2.595823e+06	
108	5.400000e+00	2.608239e+06	
109	5.450000e+00	2.620254e+06	
110	5.500000e+00	2.631885e+06	
111	5.550000e+00	2.643151e+06	
112	5.600000e+00	2.654067e+06	

Index   v-sweep         rds             
--------------------------------------------------------------------------------
113	5.650000e+00	2.664648e+06	
114	5.700000e+00	2.674909e+06	
115	5.750000e+00	2.684864e+06	
116	5.800000e+00	2.694526e+06	
117	5.850000e+00	2.703906e+06	
118	5.900000e+00	2.713017e+06	
119	5.950000e+00	2.721869e+06	
120	6.000000e+00	2.730473e+06	
121	6.050000e+00	2.738840e+06	
122	6.100000e+00	2.746977e+06	
123	6.150000e+00	2.754894e+06	
124	6.200000e+00	2.762600e+06	
125	6.250000e+00	2.770103e+06	
126	6.300000e+00	2.777410e+06	
127	6.350000e+00	2.784529e+06	
128	6.400000e+00	2.791466e+06	
129	6.450000e+00	2.798229e+06	
130	6.500000e+00	2.804823e+06	
131	6.550000e+00	2.811255e+06	
132	6.600000e+00	2.817530e+06	
Reset re-loads circuit ***************************

Circuit: ***************************

Doing analysis at TEMP = -40.000000 and TNOM = -40.000000


No. of Data Rows : 133
                          ***************************
                          DC transfer characteristic  Mon Jan  9 13:57:42  2023
--------------------------------------------------------------------------------
Index   v-sweep         rds             
--------------------------------------------------------------------------------
0	0.000000e+00	4.093996e+03	
1	5.000000e-02	4.159613e+03	
2	1.000000e-01	4.227173e+03	
3	1.500000e-01	4.296765e+03	
4	2.000000e-01	4.368481e+03	
5	2.500000e-01	4.442421e+03	
6	3.000000e-01	4.518689e+03	
7	3.500000e-01	4.597396e+03	
8	4.000000e-01	4.678662e+03	
9	4.500000e-01	4.762614e+03	
10	5.000000e-01	4.849386e+03	
11	5.500000e-01	4.939123e+03	
12	6.000000e-01	5.031980e+03	
13	6.500000e-01	5.128123e+03	
14	7.000000e-01	5.227728e+03	
15	7.500000e-01	5.330986e+03	
16	8.000000e-01	5.438102e+03	
17	8.500000e-01	5.549296e+03	
18	9.000000e-01	5.664805e+03	
19	9.500000e-01	5.784886e+03	
20	1.000000e+00	5.909816e+03	
21	1.050000e+00	6.039894e+03	
22	1.100000e+00	6.175444e+03	
23	1.150000e+00	6.316821e+03	
24	1.200000e+00	6.464408e+03	
25	1.250000e+00	6.618624e+03	
26	1.300000e+00	6.779925e+03	
27	1.350000e+00	6.948812e+03	
28	1.400000e+00	7.125832e+03	
29	1.450000e+00	7.311589e+03	
30	1.500000e+00	7.506747e+03	
31	1.550000e+00	7.712037e+03	
32	1.600000e+00	7.928272e+03	
33	1.650000e+00	8.156351e+03	
34	1.700000e+00	8.397276e+03	
35	1.750000e+00	8.652166e+03	
36	1.800000e+00	8.922274e+03	
37	1.850000e+00	9.209007e+03	
38	1.900000e+00	9.513951e+03	
39	1.950000e+00	9.838905e+03	
40	2.000000e+00	1.018591e+04	
41	2.050000e+00	1.055729e+04	
42	2.100000e+00	1.095573e+04	
43	2.150000e+00	1.138429e+04	
44	2.200000e+00	1.184655e+04	
45	2.250000e+00	1.234666e+04	
46	2.300000e+00	1.288949e+04	
47	2.350000e+00	1.348079e+04	
48	2.400000e+00	1.412739e+04	
49	2.450000e+00	1.483746e+04	
50	2.500000e+00	1.562091e+04	
51	2.550000e+00	1.648978e+04	
52	2.600000e+00	1.745894e+04	
53	2.650000e+00	1.854690e+04	
54	2.700000e+00	1.977701e+04	

Index   v-sweep         rds             
--------------------------------------------------------------------------------
55	2.750000e+00	2.117909e+04	
56	2.800000e+00	2.279176e+04	
57	2.850000e+00	2.466581e+04	
58	2.900000e+00	2.686894e+04	
59	2.950000e+00	2.949282e+04	
60	3.000000e+00	3.266300e+04	
61	3.050000e+00	3.655310e+04	
62	3.100000e+00	4.140366e+04	
63	3.150000e+00	4.754531e+04	
64	3.200000e+00	5.542186e+04	
65	3.250000e+00	6.560341e+04	
66	3.300000e+00	7.877276e+04	
67	3.350000e+00	9.566928e+04	
68	3.400000e+00	1.169895e+05	
69	3.450000e+00	1.432692e+05	
70	3.500000e+00	1.747888e+05	
71	3.550000e+00	2.115331e+05	
72	3.600000e+00	2.532098e+05	
73	3.650000e+00	2.993090e+05	
74	3.700000e+00	3.491790e+05	
75	3.750000e+00	4.020980e+05	
76	3.800000e+00	4.573342e+05	
77	3.850000e+00	5.141878e+05	
78	3.900000e+00	5.720188e+05	
79	3.950000e+00	6.302614e+05	
80	4.000000e+00	6.884305e+05	
81	4.050000e+00	7.461201e+05	
82	4.100000e+00	8.029989e+05	
83	4.150000e+00	8.588036e+05	
84	4.200000e+00	9.133304e+05	
85	4.250000e+00	9.664269e+05	
86	4.300000e+00	1.017985e+06	
87	4.350000e+00	1.067931e+06	
88	4.400000e+00	1.116224e+06	
89	4.450000e+00	1.162845e+06	
90	4.500000e+00	1.207795e+06	
91	4.550000e+00	1.251092e+06	
92	4.600000e+00	1.292762e+06	
93	4.650000e+00	1.332843e+06	
94	4.700000e+00	1.371379e+06	
95	4.750000e+00	1.408419e+06	
96	4.800000e+00	1.444013e+06	
97	4.850000e+00	1.478216e+06	
98	4.900000e+00	1.511081e+06	
99	4.950000e+00	1.542663e+06	
100	5.000000e+00	1.573016e+06	
101	5.050000e+00	1.602192e+06	
102	5.100000e+00	1.630245e+06	
103	5.150000e+00	1.657224e+06	
104	5.200000e+00	1.683177e+06	
105	5.250000e+00	1.708152e+06	
106	5.300000e+00	1.732193e+06	
107	5.350000e+00	1.755344e+06	
108	5.400000e+00	1.777645e+06	
109	5.450000e+00	1.799136e+06	
110	5.500000e+00	1.819854e+06	
111	5.550000e+00	1.839836e+06	
112	5.600000e+00	1.859113e+06	

Index   v-sweep         rds             
--------------------------------------------------------------------------------
113	5.650000e+00	1.877720e+06	
114	5.700000e+00	1.895686e+06	
115	5.750000e+00	1.913040e+06	
116	5.800000e+00	1.929811e+06	
117	5.850000e+00	1.946023e+06	
118	5.900000e+00	1.961702e+06	
119	5.950000e+00	1.976871e+06	
120	6.000000e+00	1.991552e+06	
121	6.050000e+00	2.005768e+06	
122	6.100000e+00	2.019537e+06	
123	6.150000e+00	2.032878e+06	
124	6.200000e+00	2.045811e+06	
125	6.250000e+00	2.058351e+06	
126	6.300000e+00	2.070516e+06	
127	6.350000e+00	2.082321e+06	
128	6.400000e+00	2.093779e+06	
129	6.450000e+00	2.104907e+06	
130	6.500000e+00	2.115715e+06	
131	6.550000e+00	2.126218e+06	
132	6.600000e+00	2.136428e+06	
Reset re-loads circuit ***************************

Circuit: ***************************

Doing analysis at TEMP = -40.000000 and TNOM = -40.000000


No. of Data Rows : 133
                          ***************************
                          DC transfer characteristic  Mon Jan  9 13:57:42  2023
--------------------------------------------------------------------------------
Index   v-sweep         rds             
--------------------------------------------------------------------------------
0	0.000000e+00	3.688045e+03	
1	5.000000e-02	3.734995e+03	
2	1.000000e-01	3.783030e+03	
3	1.500000e-01	3.832187e+03	
4	2.000000e-01	3.882506e+03	
5	2.500000e-01	3.934028e+03	
6	3.000000e-01	3.986798e+03	
7	3.500000e-01	4.040860e+03	
8	4.000000e-01	4.096264e+03	
9	4.500000e-01	4.153058e+03	
10	5.000000e-01	4.211298e+03	
11	5.500000e-01	4.271038e+03	
12	6.000000e-01	4.332336e+03	
13	6.500000e-01	4.395256e+03	
14	7.000000e-01	4.459861e+03	
15	7.500000e-01	4.526221e+03	
16	8.000000e-01	4.594407e+03	
17	8.500000e-01	4.664497e+03	
18	9.000000e-01	4.736571e+03	
19	9.500000e-01	4.810714e+03	
20	1.000000e+00	4.887017e+03	
21	1.050000e+00	4.965576e+03	
22	1.100000e+00	5.046491e+03	
23	1.150000e+00	5.129872e+03	
24	1.200000e+00	5.215831e+03	
25	1.250000e+00	5.304491e+03	
26	1.300000e+00	5.395980e+03	
27	1.350000e+00	5.490437e+03	
28	1.400000e+00	5.588008e+03	
29	1.450000e+00	5.688850e+03	
30	1.500000e+00	5.793130e+03	
31	1.550000e+00	5.901027e+03	
32	1.600000e+00	6.012732e+03	
33	1.650000e+00	6.128451e+03	
34	1.700000e+00	6.248405e+03	
35	1.750000e+00	6.372829e+03	
36	1.800000e+00	6.501979e+03	
37	1.850000e+00	6.636130e+03	
38	1.900000e+00	6.775577e+03	
39	1.950000e+00	6.920642e+03	
40	2.000000e+00	7.071671e+03	
41	2.050000e+00	7.229040e+03	
42	2.100000e+00	7.393157e+03	
43	2.150000e+00	7.564466e+03	
44	2.200000e+00	7.743452e+03	
45	2.250000e+00	7.930644e+03	
46	2.300000e+00	8.126619e+03	
47	2.350000e+00	8.332013e+03	
48	2.400000e+00	8.547523e+03	
49	2.450000e+00	8.773918e+03	
50	2.500000e+00	9.012045e+03	
51	2.550000e+00	9.262844e+03	
52	2.600000e+00	9.527359e+03	
53	2.650000e+00	9.806749e+03	
54	2.700000e+00	1.010231e+04	

Index   v-sweep         rds             
--------------------------------------------------------------------------------
55	2.750000e+00	1.041550e+04	
56	2.800000e+00	1.074795e+04	
57	2.850000e+00	1.110151e+04	
58	2.900000e+00	1.147825e+04	
59	2.950000e+00	1.188057e+04	
60	3.000000e+00	1.231116e+04	
61	3.050000e+00	1.277316e+04	
62	3.100000e+00	1.327015e+04	
63	3.150000e+00	1.380631e+04	
64	3.200000e+00	1.438652e+04	
65	3.250000e+00	1.501650e+04	
66	3.300000e+00	1.570302e+04	
67	3.350000e+00	1.645417e+04	
68	3.400000e+00	1.727965e+04	
69	3.450000e+00	1.819125e+04	
70	3.500000e+00	1.920337e+04	
71	3.550000e+00	2.033387e+04	
72	3.600000e+00	2.160504e+04	
73	3.650000e+00	2.304513e+04	
74	3.700000e+00	2.469026e+04	
75	3.750000e+00	2.658726e+04	
76	3.800000e+00	2.879742e+04	
77	3.850000e+00	3.140183e+04	
78	3.900000e+00	3.450830e+04	
79	3.950000e+00	3.826050e+04	
80	4.000000e+00	4.284853e+04	
81	4.050000e+00	4.851973e+04	
82	4.100000e+00	5.558606e+04	
83	4.150000e+00	6.442220e+04	
84	4.200000e+00	7.544803e+04	
85	4.250000e+00	8.909190e+04	
86	4.300000e+00	1.057391e+05	
87	4.350000e+00	1.256783e+05	
88	4.400000e+00	1.490621e+05	
89	4.450000e+00	1.758908e+05	
90	4.500000e+00	2.060216e+05	
91	4.550000e+00	2.391940e+05	
92	4.600000e+00	2.750641e+05	
93	4.650000e+00	3.132380e+05	
94	4.700000e+00	3.533020e+05	
95	4.750000e+00	3.948448e+05	
96	4.800000e+00	4.374747e+05	
97	4.850000e+00	4.808301e+05	
98	4.900000e+00	5.245856e+05	
99	4.950000e+00	5.684544e+05	
100	5.000000e+00	6.121888e+05	
101	5.050000e+00	6.555783e+05	
102	5.100000e+00	6.984475e+05	
103	5.150000e+00	7.406523e+05	
104	5.200000e+00	7.820771e+05	
105	5.250000e+00	8.226310e+05	
106	5.300000e+00	8.622448e+05	
107	5.350000e+00	9.008677e+05	
108	5.400000e+00	9.384648e+05	
109	5.450000e+00	9.750143e+05	
110	5.500000e+00	1.010505e+06	
111	5.550000e+00	1.044937e+06	
112	5.600000e+00	1.078314e+06	

Index   v-sweep         rds             
--------------------------------------------------------------------------------
113	5.650000e+00	1.110649e+06	
114	5.700000e+00	1.141959e+06	
115	5.750000e+00	1.172263e+06	
116	5.800000e+00	1.201586e+06	
117	5.850000e+00	1.229953e+06	
118	5.900000e+00	1.257391e+06	
119	5.950000e+00	1.283928e+06	
120	6.000000e+00	1.309593e+06	
121	6.050000e+00	1.334415e+06	
122	6.100000e+00	1.358422e+06	
123	6.150000e+00	1.381644e+06	
124	6.200000e+00	1.404109e+06	
125	6.250000e+00	1.425845e+06	
126	6.300000e+00	1.446880e+06	
127	6.350000e+00	1.467239e+06	
128	6.400000e+00	1.486948e+06	
129	6.450000e+00	1.506034e+06	
130	6.500000e+00	1.524519e+06	
131	6.550000e+00	1.542427e+06	
132	6.600000e+00	1.559780e+06	
Reset re-loads circuit ***************************

Circuit: ***************************

Note: No ".plot", ".print", or ".fourier" lines; no simulations run
