
Note: Compatibility modes selected: hs

Warning: m=xx on .subckt line will override multiplier m hierarchy!


Circuit: ***************************

Doing analysis at TEMP = 125.000000 and TNOM = 125.000000


No. of Data Rows : 133
                          ***************************
                          DC transfer characteristic  Mon Jan  9 13:57:43  2023
--------------------------------------------------------------------------------
Index   v-sweep         rds             
--------------------------------------------------------------------------------
0	0.000000e+00	4.634266e+05	
1	5.000000e-02	5.283600e+05	
2	1.000000e-01	6.137485e+05	
3	1.500000e-01	7.308978e+05	
4	2.000000e-01	9.010026e+05	
5	2.500000e-01	1.168055e+06	
6	3.000000e-01	1.635266e+06	
7	3.500000e-01	2.575603e+06	
8	4.000000e-01	4.731167e+06	
9	4.500000e-01	9.704463e+06	
10	5.000000e-01	1.934875e+07	
11	5.500000e-01	3.391339e+07	
12	6.000000e-01	5.163736e+07	
13	6.500000e-01	7.022122e+07	
14	7.000000e-01	8.801469e+07	
15	7.500000e-01	1.042110e+08	
16	8.000000e-01	1.185819e+08	
17	8.500000e-01	1.311954e+08	
18	9.000000e-01	1.422376e+08	
19	9.500000e-01	1.519217e+08	
20	1.000000e+00	1.604499e+08	
21	1.050000e+00	1.679987e+08	
22	1.100000e+00	1.747175e+08	
23	1.150000e+00	1.807306e+08	
24	1.200000e+00	1.861406e+08	
25	1.250000e+00	1.910325e+08	
26	1.300000e+00	1.954766e+08	
27	1.350000e+00	1.995314e+08	
28	1.400000e+00	2.032459e+08	
29	1.450000e+00	2.066614e+08	
30	1.500000e+00	2.098127e+08	
31	1.550000e+00	2.127296e+08	
32	1.600000e+00	2.154374e+08	
33	1.650000e+00	2.179580e+08	
34	1.700000e+00	2.203104e+08	
35	1.750000e+00	2.225109e+08	
36	1.800000e+00	2.245740e+08	
37	1.850000e+00	2.265123e+08	
38	1.900000e+00	2.283367e+08	
39	1.950000e+00	2.300572e+08	
40	2.000000e+00	2.316824e+08	
41	2.050000e+00	2.332201e+08	
42	2.100000e+00	2.346773e+08	
43	2.150000e+00	2.360601e+08	
44	2.200000e+00	2.373741e+08	
45	2.250000e+00	2.386243e+08	
46	2.300000e+00	2.398154e+08	
47	2.350000e+00	2.409513e+08	
48	2.400000e+00	2.420360e+08	
49	2.450000e+00	2.430728e+08	
50	2.500000e+00	2.440647e+08	
51	2.550000e+00	2.450147e+08	
52	2.600000e+00	2.459254e+08	
53	2.650000e+00	2.467992e+08	
54	2.700000e+00	2.476382e+08	

Index   v-sweep         rds             
--------------------------------------------------------------------------------
55	2.750000e+00	2.484445e+08	
56	2.800000e+00	2.492200e+08	
57	2.850000e+00	2.499664e+08	
58	2.900000e+00	2.506854e+08	
59	2.950000e+00	2.513783e+08	
60	3.000000e+00	2.520467e+08	
61	3.050000e+00	2.526917e+08	
62	3.100000e+00	2.533146e+08	
63	3.150000e+00	2.539165e+08	
64	3.200000e+00	2.544985e+08	
65	3.250000e+00	2.550614e+08	
66	3.300000e+00	2.556063e+08	
67	3.350000e+00	2.561340e+08	
68	3.400000e+00	2.566452e+08	
69	3.450000e+00	2.571408e+08	
70	3.500000e+00	2.576214e+08	
71	3.550000e+00	2.580877e+08	
72	3.600000e+00	2.585404e+08	
73	3.650000e+00	2.589799e+08	
74	3.700000e+00	2.594070e+08	
75	3.750000e+00	2.598220e+08	
76	3.800000e+00	2.602256e+08	
77	3.850000e+00	2.606181e+08	
78	3.900000e+00	2.610000e+08	
79	3.950000e+00	2.613718e+08	
80	4.000000e+00	2.617338e+08	
81	4.050000e+00	2.620864e+08	
82	4.100000e+00	2.624299e+08	
83	4.150000e+00	2.627648e+08	
84	4.200000e+00	2.630913e+08	
85	4.250000e+00	2.634097e+08	
86	4.300000e+00	2.637204e+08	
87	4.350000e+00	2.640235e+08	
88	4.400000e+00	2.643195e+08	
89	4.450000e+00	2.646085e+08	
90	4.500000e+00	2.648907e+08	
91	4.550000e+00	2.651665e+08	
92	4.600000e+00	2.654359e+08	
93	4.650000e+00	2.656993e+08	
94	4.700000e+00	2.659568e+08	
95	4.750000e+00	2.662087e+08	
96	4.800000e+00	2.664551e+08	
97	4.850000e+00	2.666961e+08	
98	4.900000e+00	2.669320e+08	
99	4.950000e+00	2.671629e+08	
100	5.000000e+00	2.673890e+08	
101	5.050000e+00	2.676104e+08	
102	5.100000e+00	2.678272e+08	
103	5.150000e+00	2.680397e+08	
104	5.200000e+00	2.682478e+08	
105	5.250000e+00	2.684519e+08	
106	5.300000e+00	2.686519e+08	
107	5.350000e+00	2.688480e+08	
108	5.400000e+00	2.690403e+08	
109	5.450000e+00	2.692289e+08	
110	5.500000e+00	2.694139e+08	
111	5.550000e+00	2.695955e+08	
112	5.600000e+00	2.697736e+08	

Index   v-sweep         rds             
--------------------------------------------------------------------------------
113	5.650000e+00	2.699485e+08	
114	5.700000e+00	2.701201e+08	
115	5.750000e+00	2.702887e+08	
116	5.800000e+00	2.704542e+08	
117	5.850000e+00	2.706167e+08	
118	5.900000e+00	2.707764e+08	
119	5.950000e+00	2.709332e+08	
120	6.000000e+00	2.710874e+08	
121	6.050000e+00	2.712388e+08	
122	6.100000e+00	2.713877e+08	
123	6.150000e+00	2.715341e+08	
124	6.200000e+00	2.716779e+08	
125	6.250000e+00	2.718194e+08	
126	6.300000e+00	2.719585e+08	
127	6.350000e+00	2.720954e+08	
128	6.400000e+00	2.722300e+08	
129	6.450000e+00	2.723624e+08	
130	6.500000e+00	2.724927e+08	
131	6.550000e+00	2.726209e+08	
132	6.600000e+00	2.727471e+08	
Reset re-loads circuit ***************************

Circuit: ***************************

Doing analysis at TEMP = 125.000000 and TNOM = 125.000000


No. of Data Rows : 133
                          ***************************
                          DC transfer characteristic  Mon Jan  9 13:57:43  2023
--------------------------------------------------------------------------------
Index   v-sweep         rds             
--------------------------------------------------------------------------------
0	0.000000e+00	1.634000e+05	
1	5.000000e-02	1.711638e+05	
2	1.000000e-01	1.796480e+05	
3	1.500000e-01	1.889576e+05	
4	2.000000e-01	1.992191e+05	
5	2.500000e-01	2.105863e+05	
6	3.000000e-01	2.232475e+05	
7	3.500000e-01	2.374368e+05	
8	4.000000e-01	2.534480e+05	
9	4.500000e-01	2.716551e+05	
10	5.000000e-01	2.925414e+05	
11	5.500000e-01	3.167427e+05	
12	6.000000e-01	3.451118e+05	
13	6.500000e-01	3.788175e+05	
14	7.000000e-01	4.195046e+05	
15	7.500000e-01	4.695553e+05	
16	8.000000e-01	5.325372e+05	
17	8.500000e-01	6.139984e+05	
18	9.000000e-01	7.229252e+05	
19	9.500000e-01	8.744744e+05	
20	1.000000e+00	1.095028e+06	
21	1.050000e+00	1.430720e+06	
22	1.100000e+00	1.958055e+06	
23	1.150000e+00	2.786140e+06	
24	1.200000e+00	4.030798e+06	
25	1.250000e+00	5.761078e+06	
26	1.300000e+00	7.961456e+06	
27	1.350000e+00	1.054332e+07	
28	1.400000e+00	1.338597e+07	
29	1.450000e+00	1.637255e+07	
30	1.500000e+00	1.940804e+07	
31	1.550000e+00	2.242303e+07	
32	1.600000e+00	2.537066e+07	
33	1.650000e+00	2.822158e+07	
34	1.700000e+00	3.095898e+07	
35	1.750000e+00	3.357473e+07	
36	1.800000e+00	3.606641e+07	
37	1.850000e+00	3.843536e+07	
38	1.900000e+00	4.068517e+07	
39	1.950000e+00	4.282082e+07	
40	2.000000e+00	4.484797e+07	
41	2.050000e+00	4.677260e+07	
42	2.100000e+00	4.860074e+07	
43	2.150000e+00	5.033826e+07	
44	2.200000e+00	5.199084e+07	
45	2.250000e+00	5.356383e+07	
46	2.300000e+00	5.506231e+07	
47	2.350000e+00	5.649100e+07	
48	2.400000e+00	5.785432e+07	
49	2.450000e+00	5.915637e+07	
50	2.500000e+00	6.040098e+07	
51	2.550000e+00	6.159167e+07	
52	2.600000e+00	6.273173e+07	
53	2.650000e+00	6.382419e+07	
54	2.700000e+00	6.487188e+07	

Index   v-sweep         rds             
--------------------------------------------------------------------------------
55	2.750000e+00	6.587740e+07	
56	2.800000e+00	6.684317e+07	
57	2.850000e+00	6.777145e+07	
58	2.900000e+00	6.866433e+07	
59	2.950000e+00	6.952375e+07	
60	3.000000e+00	7.035152e+07	
61	3.050000e+00	7.114933e+07	
62	3.100000e+00	7.191873e+07	
63	3.150000e+00	7.266121e+07	
64	3.200000e+00	7.337812e+07	
65	3.250000e+00	7.407075e+07	
66	3.300000e+00	7.474029e+07	
67	3.350000e+00	7.538787e+07	
68	3.400000e+00	7.601453e+07	
69	3.450000e+00	7.662127e+07	
70	3.500000e+00	7.720899e+07	
71	3.550000e+00	7.777859e+07	
72	3.600000e+00	7.833087e+07	
73	3.650000e+00	7.886660e+07	
74	3.700000e+00	7.938651e+07	
75	3.750000e+00	7.989129e+07	
76	3.800000e+00	8.038158e+07	
77	3.850000e+00	8.085798e+07	
78	3.900000e+00	8.132109e+07	
79	3.950000e+00	8.177143e+07	
80	4.000000e+00	8.220954e+07	
81	4.050000e+00	8.263589e+07	
82	4.100000e+00	8.305095e+07	
83	4.150000e+00	8.345516e+07	
84	4.200000e+00	8.384893e+07	
85	4.250000e+00	8.423267e+07	
86	4.300000e+00	8.460675e+07	
87	4.350000e+00	8.497152e+07	
88	4.400000e+00	8.532733e+07	
89	4.450000e+00	8.567450e+07	
90	4.500000e+00	8.601335e+07	
91	4.550000e+00	8.634415e+07	
92	4.600000e+00	8.666721e+07	
93	4.650000e+00	8.698277e+07	
94	4.700000e+00	8.729110e+07	
95	4.750000e+00	8.759245e+07	
96	4.800000e+00	8.788705e+07	
97	4.850000e+00	8.817511e+07	
98	4.900000e+00	8.845685e+07	
99	4.950000e+00	8.873249e+07	
100	5.000000e+00	8.900220e+07	
101	5.050000e+00	8.926619e+07	
102	5.100000e+00	8.952463e+07	
103	5.150000e+00	8.977769e+07	
104	5.200000e+00	9.002553e+07	
105	5.250000e+00	9.026832e+07	
106	5.300000e+00	9.050621e+07	
107	5.350000e+00	9.073935e+07	
108	5.400000e+00	9.096786e+07	
109	5.450000e+00	9.119190e+07	
110	5.500000e+00	9.141159e+07	
111	5.550000e+00	9.162705e+07	
112	5.600000e+00	9.183840e+07	

Index   v-sweep         rds             
--------------------------------------------------------------------------------
113	5.650000e+00	9.204576e+07	
114	5.700000e+00	9.224925e+07	
115	5.750000e+00	9.244896e+07	
116	5.800000e+00	9.264500e+07	
117	5.850000e+00	9.283748e+07	
118	5.900000e+00	9.302648e+07	
119	5.950000e+00	9.321210e+07	
120	6.000000e+00	9.339443e+07	
121	6.050000e+00	9.357355e+07	
122	6.100000e+00	9.374955e+07	
123	6.150000e+00	9.392252e+07	
124	6.200000e+00	9.409251e+07	
125	6.250000e+00	9.425962e+07	
126	6.300000e+00	9.442392e+07	
127	6.350000e+00	9.458546e+07	
128	6.400000e+00	9.474433e+07	
129	6.450000e+00	9.490059e+07	
130	6.500000e+00	9.505430e+07	
131	6.550000e+00	9.520552e+07	
132	6.600000e+00	9.535431e+07	
Reset re-loads circuit ***************************

Circuit: ***************************

Doing analysis at TEMP = 125.000000 and TNOM = 125.000000


No. of Data Rows : 133
                          ***************************
                          DC transfer characteristic  Mon Jan  9 13:57:43  2023
--------------------------------------------------------------------------------
Index   v-sweep         rds             
--------------------------------------------------------------------------------
0	0.000000e+00	1.060581e+05	
1	5.000000e-02	1.091494e+05	
2	1.000000e-01	1.124067e+05	
3	1.500000e-01	1.158437e+05	
4	2.000000e-01	1.194757e+05	
5	2.500000e-01	1.233197e+05	
6	3.000000e-01	1.273948e+05	
7	3.500000e-01	1.317225e+05	
8	4.000000e-01	1.363270e+05	
9	4.500000e-01	1.412356e+05	
10	5.000000e-01	1.464797e+05	
11	5.500000e-01	1.520946e+05	
12	6.000000e-01	1.581212e+05	
13	6.500000e-01	1.646064e+05	
14	7.000000e-01	1.716046e+05	
15	7.500000e-01	1.791791e+05	
16	8.000000e-01	1.874042e+05	
17	8.500000e-01	1.963674e+05	
18	9.000000e-01	2.061726e+05	
19	9.500000e-01	2.169444e+05	
20	1.000000e+00	2.288329e+05	
21	1.050000e+00	2.420213e+05	
22	1.100000e+00	2.567349e+05	
23	1.150000e+00	2.732542e+05	
24	1.200000e+00	2.919331e+05	
25	1.250000e+00	3.132235e+05	
26	1.300000e+00	3.377126e+05	
27	1.350000e+00	3.661758e+05	
28	1.400000e+00	3.996573e+05	
29	1.450000e+00	4.395935e+05	
30	1.500000e+00	4.880064e+05	
31	1.550000e+00	5.478113e+05	
32	1.600000e+00	6.233121e+05	
33	1.650000e+00	7.209859e+05	
34	1.700000e+00	8.506670e+05	
35	1.750000e+00	1.027107e+06	
36	1.800000e+00	1.271400e+06	
37	1.850000e+00	1.610784e+06	
38	1.900000e+00	2.074752e+06	
39	1.950000e+00	2.687194e+06	
40	2.000000e+00	3.458434e+06	
41	2.050000e+00	4.382343e+06	
42	2.100000e+00	5.439589e+06	
43	2.150000e+00	6.603809e+06	
44	2.200000e+00	7.847195e+06	
45	2.250000e+00	9.144052e+06	
46	2.300000e+00	1.047244e+07	
47	2.350000e+00	1.181457e+07	
48	2.400000e+00	1.315649e+07	
49	2.450000e+00	1.448760e+07	
50	2.500000e+00	1.580002e+07	
51	2.550000e+00	1.708803e+07	
52	2.600000e+00	1.834761e+07	
53	2.650000e+00	1.957606e+07	
54	2.700000e+00	2.077168e+07	

Index   v-sweep         rds             
--------------------------------------------------------------------------------
55	2.750000e+00	2.193353e+07	
56	2.800000e+00	2.306123e+07	
57	2.850000e+00	2.415484e+07	
58	2.900000e+00	2.521474e+07	
59	2.950000e+00	2.624152e+07	
60	3.000000e+00	2.723595e+07	
61	3.050000e+00	2.819891e+07	
62	3.100000e+00	2.913134e+07	
63	3.150000e+00	3.003424e+07	
64	3.200000e+00	3.090863e+07	
65	3.250000e+00	3.175553e+07	
66	3.300000e+00	3.257595e+07	
67	3.350000e+00	3.337091e+07	
68	3.400000e+00	3.414138e+07	
69	3.450000e+00	3.488832e+07	
70	3.500000e+00	3.561264e+07	
71	3.550000e+00	3.631524e+07	
72	3.600000e+00	3.699699e+07	
73	3.650000e+00	3.765869e+07	
74	3.700000e+00	3.830116e+07	
75	3.750000e+00	3.892514e+07	
76	3.800000e+00	3.953136e+07	
77	3.850000e+00	4.012052e+07	
78	3.900000e+00	4.069328e+07	
79	3.950000e+00	4.125026e+07	
80	4.000000e+00	4.179209e+07	
81	4.050000e+00	4.231933e+07	
82	4.100000e+00	4.283254e+07	
83	4.150000e+00	4.333224e+07	
84	4.200000e+00	4.381894e+07	
85	4.250000e+00	4.429312e+07	
86	4.300000e+00	4.475522e+07	
87	4.350000e+00	4.520570e+07	
88	4.400000e+00	4.564497e+07	
89	4.450000e+00	4.607343e+07	
90	4.500000e+00	4.649145e+07	
91	4.550000e+00	4.689941e+07	
92	4.600000e+00	4.729766e+07	
93	4.650000e+00	4.768652e+07	
94	4.700000e+00	4.806631e+07	
95	4.750000e+00	4.843734e+07	
96	4.800000e+00	4.879991e+07	
97	4.850000e+00	4.915429e+07	
98	4.900000e+00	4.950075e+07	
99	4.950000e+00	4.983954e+07	
100	5.000000e+00	5.017092e+07	
101	5.050000e+00	5.049511e+07	
102	5.100000e+00	5.081235e+07	
103	5.150000e+00	5.112285e+07	
104	5.200000e+00	5.142682e+07	
105	5.250000e+00	5.172446e+07	
106	5.300000e+00	5.201597e+07	
107	5.350000e+00	5.230152e+07	
108	5.400000e+00	5.258129e+07	
109	5.450000e+00	5.285546e+07	
110	5.500000e+00	5.312420e+07	
111	5.550000e+00	5.338764e+07	
112	5.600000e+00	5.364596e+07	

Index   v-sweep         rds             
--------------------------------------------------------------------------------
113	5.650000e+00	5.389929e+07	
114	5.700000e+00	5.414778e+07	
115	5.750000e+00	5.439156e+07	
116	5.800000e+00	5.463077e+07	
117	5.850000e+00	5.486552e+07	
118	5.900000e+00	5.509595e+07	
119	5.950000e+00	5.532216e+07	
120	6.000000e+00	5.554427e+07	
121	6.050000e+00	5.576239e+07	
122	6.100000e+00	5.597663e+07	
123	6.150000e+00	5.618708e+07	
124	6.200000e+00	5.639385e+07	
125	6.250000e+00	5.659702e+07	
126	6.300000e+00	5.679670e+07	
127	6.350000e+00	5.699297e+07	
128	6.400000e+00	5.718592e+07	
129	6.450000e+00	5.737562e+07	
130	6.500000e+00	5.756216e+07	
131	6.550000e+00	5.774562e+07	
132	6.600000e+00	5.792607e+07	
Reset re-loads circuit ***************************

Circuit: ***************************

Doing analysis at TEMP = 125.000000 and TNOM = 125.000000


No. of Data Rows : 133
                          ***************************
                          DC transfer characteristic  Mon Jan  9 13:57:43  2023
--------------------------------------------------------------------------------
Index   v-sweep         rds             
--------------------------------------------------------------------------------
0	0.000000e+00	8.279361e+04	
1	5.000000e-02	8.454064e+04	
2	1.000000e-01	8.635285e+04	
3	1.500000e-01	8.823393e+04	
4	2.000000e-01	9.018789e+04	
5	2.500000e-01	9.221902e+04	
6	3.000000e-01	9.433200e+04	
7	3.500000e-01	9.653185e+04	
8	4.000000e-01	9.882403e+04	
9	4.500000e-01	1.012145e+05	
10	5.000000e-01	1.037096e+05	
11	5.500000e-01	1.063165e+05	
12	6.000000e-01	1.090428e+05	
13	6.500000e-01	1.118968e+05	
14	7.000000e-01	1.148879e+05	
15	7.500000e-01	1.180260e+05	
16	8.000000e-01	1.213222e+05	
17	8.500000e-01	1.247889e+05	
18	9.000000e-01	1.284395e+05	
19	9.500000e-01	1.322892e+05	
20	1.000000e+00	1.363546e+05	
21	1.050000e+00	1.406544e+05	
22	1.100000e+00	1.452095e+05	
23	1.150000e+00	1.500433e+05	
24	1.200000e+00	1.551821e+05	
25	1.250000e+00	1.606559e+05	
26	1.300000e+00	1.664985e+05	
27	1.350000e+00	1.727485e+05	
28	1.400000e+00	1.794501e+05	
29	1.450000e+00	1.866542e+05	
30	1.500000e+00	1.944196e+05	
31	1.550000e+00	2.028147e+05	
32	1.600000e+00	2.119196e+05	
33	1.650000e+00	2.218287e+05	
34	1.700000e+00	2.326537e+05	
35	1.750000e+00	2.445284e+05	
36	1.800000e+00	2.576142e+05	
37	1.850000e+00	2.721074e+05	
38	1.900000e+00	2.882495e+05	
39	1.950000e+00	3.063410e+05	
40	2.000000e+00	3.267605e+05	
41	2.050000e+00	3.499918e+05	
42	2.100000e+00	3.766623e+05	
43	2.150000e+00	4.075996e+05	
44	2.200000e+00	4.439143e+05	
45	2.250000e+00	4.871234e+05	
46	2.300000e+00	5.393339e+05	
47	2.350000e+00	6.035097e+05	
48	2.400000e+00	6.838437e+05	
49	2.450000e+00	7.862187e+05	
50	2.500000e+00	9.186486e+05	
51	2.550000e+00	1.091409e+06	
52	2.600000e+00	1.316397e+06	
53	2.650000e+00	1.605403e+06	
54	2.700000e+00	1.967604e+06	

Index   v-sweep         rds             
--------------------------------------------------------------------------------
55	2.750000e+00	2.407394e+06	
56	2.800000e+00	2.923598e+06	
57	2.850000e+00	3.510252e+06	
58	2.900000e+00	4.158252e+06	
59	2.950000e+00	4.857073e+06	
60	3.000000e+00	5.596088e+06	
61	3.050000e+00	6.365386e+06	
62	3.100000e+00	7.156178e+06	
63	3.150000e+00	7.960930e+06	
64	3.200000e+00	8.773333e+06	
65	3.250000e+00	9.588196e+06	
66	3.300000e+00	1.040130e+07	
67	3.350000e+00	1.120928e+07	
68	3.400000e+00	1.200944e+07	
69	3.450000e+00	1.279968e+07	
70	3.500000e+00	1.357838e+07	
71	3.550000e+00	1.434432e+07	
72	3.600000e+00	1.509657e+07	
73	3.650000e+00	1.583449e+07	
74	3.700000e+00	1.655763e+07	
75	3.750000e+00	1.726573e+07	
76	3.800000e+00	1.795864e+07	
77	3.850000e+00	1.863635e+07	
78	3.900000e+00	1.929891e+07	
79	3.950000e+00	1.994647e+07	
80	4.000000e+00	2.057919e+07	
81	4.050000e+00	2.119733e+07	
82	4.100000e+00	2.180114e+07	
83	4.150000e+00	2.239090e+07	
84	4.200000e+00	2.296692e+07	
85	4.250000e+00	2.352953e+07	
86	4.300000e+00	2.407905e+07	
87	4.350000e+00	2.461581e+07	
88	4.400000e+00	2.514014e+07	
89	4.450000e+00	2.565238e+07	
90	4.500000e+00	2.615286e+07	
91	4.550000e+00	2.664190e+07	
92	4.600000e+00	2.711983e+07	
93	4.650000e+00	2.758696e+07	
94	4.700000e+00	2.804361e+07	
95	4.750000e+00	2.849007e+07	
96	4.800000e+00	2.892664e+07	
97	4.850000e+00	2.935361e+07	
98	4.900000e+00	2.977125e+07	
99	4.950000e+00	3.017984e+07	
100	5.000000e+00	3.057964e+07	
101	5.050000e+00	3.097090e+07	
102	5.100000e+00	3.135388e+07	
103	5.150000e+00	3.172881e+07	
104	5.200000e+00	3.209592e+07	
105	5.250000e+00	3.245544e+07	
106	5.300000e+00	3.280759e+07	
107	5.350000e+00	3.315257e+07	
108	5.400000e+00	3.349059e+07	
109	5.450000e+00	3.382185e+07	
110	5.500000e+00	3.414653e+07	
111	5.550000e+00	3.446482e+07	
112	5.600000e+00	3.477689e+07	

Index   v-sweep         rds             
--------------------------------------------------------------------------------
113	5.650000e+00	3.508292e+07	
114	5.700000e+00	3.538307e+07	
115	5.750000e+00	3.567750e+07	
116	5.800000e+00	3.596637e+07	
117	5.850000e+00	3.624983e+07	
118	5.900000e+00	3.652802e+07	
119	5.950000e+00	3.680107e+07	
120	6.000000e+00	3.706914e+07	
121	6.050000e+00	3.733234e+07	
122	6.100000e+00	3.759081e+07	
123	6.150000e+00	3.784466e+07	
124	6.200000e+00	3.809402e+07	
125	6.250000e+00	3.833900e+07	
126	6.300000e+00	3.857970e+07	
127	6.350000e+00	3.881625e+07	
128	6.400000e+00	3.904874e+07	
129	6.450000e+00	3.927727e+07	
130	6.500000e+00	3.950193e+07	
131	6.550000e+00	3.972284e+07	
132	6.600000e+00	3.994007e+07	
Reset re-loads circuit ***************************

Circuit: ***************************

Doing analysis at TEMP = 125.000000 and TNOM = 125.000000


No. of Data Rows : 133
                          ***************************
                          DC transfer characteristic  Mon Jan  9 13:57:43  2023
--------------------------------------------------------------------------------
Index   v-sweep         rds             
--------------------------------------------------------------------------------
0	0.000000e+00	7.087126e+04	
1	5.000000e-02	7.203947e+04	
2	1.000000e-01	7.324066e+04	
3	1.500000e-01	7.447627e+04	
4	2.000000e-01	7.574777e+04	
5	2.500000e-01	7.705676e+04	
6	3.000000e-01	7.840490e+04	
7	3.500000e-01	7.979399e+04	
8	4.000000e-01	8.122590e+04	
9	4.500000e-01	8.270264e+04	
10	5.000000e-01	8.422635e+04	
11	5.500000e-01	8.579929e+04	
12	6.000000e-01	8.742389e+04	
13	6.500000e-01	8.910273e+04	
14	7.000000e-01	9.083855e+04	
15	7.500000e-01	9.263431e+04	
16	8.000000e-01	9.449317e+04	
17	8.500000e-01	9.641849e+04	
18	9.000000e-01	9.841390e+04	
19	9.500000e-01	1.004833e+05	
20	1.000000e+00	1.026309e+05	
21	1.050000e+00	1.048611e+05	
22	1.100000e+00	1.071789e+05	
23	1.150000e+00	1.095895e+05	
24	1.200000e+00	1.120985e+05	
25	1.250000e+00	1.147122e+05	
26	1.300000e+00	1.174371e+05	
27	1.350000e+00	1.202807e+05	
28	1.400000e+00	1.232507e+05	
29	1.450000e+00	1.263558e+05	
30	1.500000e+00	1.296054e+05	
31	1.550000e+00	1.330099e+05	
32	1.600000e+00	1.365807e+05	
33	1.650000e+00	1.403301e+05	
34	1.700000e+00	1.442720e+05	
35	1.750000e+00	1.484216e+05	
36	1.800000e+00	1.527958e+05	
37	1.850000e+00	1.574134e+05	
38	1.900000e+00	1.622953e+05	
39	1.950000e+00	1.674649e+05	
40	2.000000e+00	1.729486e+05	
41	2.050000e+00	1.787760e+05	
42	2.100000e+00	1.849805e+05	
43	2.150000e+00	1.916003e+05	
44	2.200000e+00	1.986787e+05	
45	2.250000e+00	2.062655e+05	
46	2.300000e+00	2.144179e+05	
47	2.350000e+00	2.232023e+05	
48	2.400000e+00	2.326960e+05	
49	2.450000e+00	2.429895e+05	
50	2.500000e+00	2.541901e+05	
51	2.550000e+00	2.664250e+05	
52	2.600000e+00	2.798474e+05	
53	2.650000e+00	2.946428e+05	
54	2.700000e+00	3.110385e+05	

Index   v-sweep         rds             
--------------------------------------------------------------------------------
55	2.750000e+00	3.293160e+05	
56	2.800000e+00	3.498286e+05	
57	2.850000e+00	3.730254e+05	
58	2.900000e+00	3.994857e+05	
59	2.950000e+00	4.299674e+05	
60	3.000000e+00	4.654764e+05	
61	3.050000e+00	5.073637e+05	
62	3.100000e+00	5.574589e+05	
63	3.150000e+00	6.182416e+05	
64	3.200000e+00	6.930379e+05	
65	3.250000e+00	7.861901e+05	
66	3.300000e+00	9.030933e+05	
67	3.350000e+00	1.049947e+06	
68	3.400000e+00	1.233109e+06	
69	3.450000e+00	1.458115e+06	
70	3.500000e+00	1.728683e+06	
71	3.550000e+00	2.046088e+06	
72	3.600000e+00	2.409121e+06	
73	3.650000e+00	2.814545e+06	
74	3.700000e+00	3.257773e+06	
75	3.750000e+00	3.733552e+06	
76	3.800000e+00	4.236484e+06	
77	3.850000e+00	4.761386e+06	
78	3.900000e+00	5.303494e+06	
79	3.950000e+00	5.858556e+06	
80	4.000000e+00	6.422857e+06	
81	4.050000e+00	6.993196e+06	
82	4.100000e+00	7.566850e+06	
83	4.150000e+00	8.141520e+06	
84	4.200000e+00	8.715279e+06	
85	4.250000e+00	9.286526e+06	
86	4.300000e+00	9.853936e+06	
87	4.350000e+00	1.041642e+07	
88	4.400000e+00	1.097310e+07	
89	4.450000e+00	1.152325e+07	
90	4.500000e+00	1.206631e+07	
91	4.550000e+00	1.260182e+07	
92	4.600000e+00	1.312944e+07	
93	4.650000e+00	1.364892e+07	
94	4.700000e+00	1.416006e+07	
95	4.750000e+00	1.466274e+07	
96	4.800000e+00	1.515690e+07	
97	4.850000e+00	1.564249e+07	
98	4.900000e+00	1.611952e+07	
99	4.950000e+00	1.658803e+07	
100	5.000000e+00	1.704807e+07	
101	5.050000e+00	1.749973e+07	
102	5.100000e+00	1.794311e+07	
103	5.150000e+00	1.837831e+07	
104	5.200000e+00	1.880545e+07	
105	5.250000e+00	1.922467e+07	
106	5.300000e+00	1.963610e+07	
107	5.350000e+00	2.003987e+07	
108	5.400000e+00	2.043615e+07	
109	5.450000e+00	2.082507e+07	
110	5.500000e+00	2.120678e+07	
111	5.550000e+00	2.158144e+07	
112	5.600000e+00	2.194918e+07	

Index   v-sweep         rds             
--------------------------------------------------------------------------------
113	5.650000e+00	2.231017e+07	
114	5.700000e+00	2.266455e+07	
115	5.750000e+00	2.301247e+07	
116	5.800000e+00	2.335407e+07	
117	5.850000e+00	2.368950e+07	
118	5.900000e+00	2.401889e+07	
119	5.950000e+00	2.434239e+07	
120	6.000000e+00	2.466013e+07	
121	6.050000e+00	2.497224e+07	
122	6.100000e+00	2.527885e+07	
123	6.150000e+00	2.558010e+07	
124	6.200000e+00	2.587611e+07	
125	6.250000e+00	2.616699e+07	
126	6.300000e+00	2.645287e+07	
127	6.350000e+00	2.673386e+07	
128	6.400000e+00	2.701008e+07	
129	6.450000e+00	2.728164e+07	
130	6.500000e+00	2.754864e+07	
131	6.550000e+00	2.781119e+07	
132	6.600000e+00	2.806940e+07	
Reset re-loads circuit ***************************

Circuit: ***************************

Doing analysis at TEMP = 125.000000 and TNOM = 125.000000


No. of Data Rows : 133
                          ***************************
                          DC transfer characteristic  Mon Jan  9 13:57:43  2023
--------------------------------------------------------------------------------
Index   v-sweep         rds             
--------------------------------------------------------------------------------
0	0.000000e+00	6.409271e+04	
1	5.000000e-02	6.495380e+04	
2	1.000000e-01	6.583425e+04	
3	1.500000e-01	6.673469e+04	
4	2.000000e-01	6.765582e+04	
5	2.500000e-01	6.859835e+04	
6	3.000000e-01	6.956304e+04	
7	3.500000e-01	7.055067e+04	
8	4.000000e-01	7.156207e+04	
9	4.500000e-01	7.259811e+04	
10	5.000000e-01	7.365968e+04	
11	5.500000e-01	7.474775e+04	
12	6.000000e-01	7.586331e+04	
13	6.500000e-01	7.700742e+04	
14	7.000000e-01	7.818117e+04	
15	7.500000e-01	7.938575e+04	
16	8.000000e-01	8.062237e+04	
17	8.500000e-01	8.189231e+04	
18	9.000000e-01	8.319696e+04	
19	9.500000e-01	8.453774e+04	
20	1.000000e+00	8.591617e+04	
21	1.050000e+00	8.733385e+04	
22	1.100000e+00	8.879249e+04	
23	1.150000e+00	9.029388e+04	
24	1.200000e+00	9.183992e+04	
25	1.250000e+00	9.343263e+04	
26	1.300000e+00	9.507415e+04	
27	1.350000e+00	9.676675e+04	
28	1.400000e+00	9.851287e+04	
29	1.450000e+00	1.003151e+05	
30	1.500000e+00	1.021761e+05	
31	1.550000e+00	1.040988e+05	
32	1.600000e+00	1.060864e+05	
33	1.650000e+00	1.081422e+05	
34	1.700000e+00	1.102698e+05	
35	1.750000e+00	1.124730e+05	
36	1.800000e+00	1.147559e+05	
37	1.850000e+00	1.171228e+05	
38	1.900000e+00	1.195786e+05	
39	1.950000e+00	1.221283e+05	
40	2.000000e+00	1.247774e+05	
41	2.050000e+00	1.275319e+05	
42	2.100000e+00	1.303981e+05	
43	2.150000e+00	1.333830e+05	
44	2.200000e+00	1.364942e+05	
45	2.250000e+00	1.397399e+05	
46	2.300000e+00	1.431289e+05	
47	2.350000e+00	1.466711e+05	
48	2.400000e+00	1.503770e+05	
49	2.450000e+00	1.542584e+05	
50	2.500000e+00	1.583280e+05	
51	2.550000e+00	1.625999e+05	
52	2.600000e+00	1.670897e+05	
53	2.650000e+00	1.718146e+05	
54	2.700000e+00	1.767937e+05	

Index   v-sweep         rds             
--------------------------------------------------------------------------------
55	2.750000e+00	1.820482e+05	
56	2.800000e+00	1.876018e+05	
57	2.850000e+00	1.934810e+05	
58	2.900000e+00	1.997158e+05	
59	2.950000e+00	2.063397e+05	
60	3.000000e+00	2.133909e+05	
61	3.050000e+00	2.209128e+05	
62	3.100000e+00	2.289552e+05	
63	3.150000e+00	2.375750e+05	
64	3.200000e+00	2.468384e+05	
65	3.250000e+00	2.568222e+05	
66	3.300000e+00	2.676167e+05	
67	3.350000e+00	2.793282e+05	
68	3.400000e+00	2.920836e+05	
69	3.450000e+00	3.060355e+05	
70	3.500000e+00	3.213689e+05	
71	3.550000e+00	3.383112e+05	
72	3.600000e+00	3.571447e+05	
73	3.650000e+00	3.782244e+05	
74	3.700000e+00	4.020023e+05	
75	3.750000e+00	4.290609e+05	
76	3.800000e+00	4.601591e+05	
77	3.850000e+00	4.962934e+05	
78	3.900000e+00	5.387774e+05	
79	3.950000e+00	5.893360e+05	
80	4.000000e+00	6.502027e+05	
81	4.050000e+00	7.241898e+05	
82	4.100000e+00	8.146803e+05	
83	4.150000e+00	9.254764e+05	
84	4.200000e+00	1.060468e+06	
85	4.250000e+00	1.223152e+06	
86	4.300000e+00	1.416124e+06	
87	4.350000e+00	1.640717e+06	
88	4.400000e+00	1.896885e+06	
89	4.450000e+00	2.183339e+06	
90	4.500000e+00	2.497837e+06	
91	4.550000e+00	2.837535e+06	
92	4.600000e+00	3.199292e+06	
93	4.650000e+00	3.579913e+06	
94	4.700000e+00	3.976312e+06	
95	4.750000e+00	4.385614e+06	
96	4.800000e+00	4.805203e+06	
97	4.850000e+00	5.232743e+06	
98	4.900000e+00	5.666170e+06	
99	4.950000e+00	6.103683e+06	
100	5.000000e+00	6.543720e+06	
101	5.050000e+00	6.984931e+06	
102	5.100000e+00	7.426161e+06	
103	5.150000e+00	7.866422e+06	
104	5.200000e+00	8.304873e+06	
105	5.250000e+00	8.740803e+06	
106	5.300000e+00	9.173612e+06	
107	5.350000e+00	9.602796e+06	
108	5.400000e+00	1.002794e+07	
109	5.450000e+00	1.044869e+07	
110	5.500000e+00	1.086476e+07	
111	5.550000e+00	1.127593e+07	
112	5.600000e+00	1.168201e+07	

Index   v-sweep         rds             
--------------------------------------------------------------------------------
113	5.650000e+00	1.208285e+07	
114	5.700000e+00	1.247836e+07	
115	5.750000e+00	1.286844e+07	
116	5.800000e+00	1.325305e+07	
117	5.850000e+00	1.363214e+07	
118	5.900000e+00	1.400572e+07	
119	5.950000e+00	1.437379e+07	
120	6.000000e+00	1.473635e+07	
121	6.050000e+00	1.509344e+07	
122	6.100000e+00	1.544510e+07	
123	6.150000e+00	1.579138e+07	
124	6.200000e+00	1.613232e+07	
125	6.250000e+00	1.646799e+07	
126	6.300000e+00	1.679846e+07	
127	6.350000e+00	1.712380e+07	
128	6.400000e+00	1.744407e+07	
129	6.450000e+00	1.775935e+07	
130	6.500000e+00	1.806972e+07	
131	6.550000e+00	1.837526e+07	
132	6.600000e+00	1.867605e+07	
Reset re-loads circuit ***************************

Circuit: ***************************

Note: No ".plot", ".print", or ".fourier" lines; no simulations run
