
Note: Compatibility modes selected: hs

Warning: m=xx on .subckt line will override multiplier m hierarchy!


Circuit: ***************************

Doing analysis at TEMP = 25.000000 and TNOM = 25.000000


No. of Data Rows : 133
                          ***************************
                          DC transfer characteristic  Mon Jan  9 13:57:42  2023
--------------------------------------------------------------------------------
Index   v-sweep         rds             
--------------------------------------------------------------------------------
0	0.000000e+00	8.686771e+05	
1	5.000000e-02	1.036067e+06	
2	1.000000e-01	1.281599e+06	
3	1.500000e-01	1.673985e+06	
4	2.000000e-01	2.384986e+06	
5	2.500000e-01	3.926716e+06	
6	3.000000e-01	8.004864e+06	
7	3.500000e-01	1.941586e+07	
8	4.000000e-01	4.569726e+07	
9	4.500000e-01	9.021685e+07	
10	5.000000e-01	1.471808e+08	
11	5.500000e-01	2.062061e+08	
12	6.000000e-01	2.593922e+08	
13	6.500000e-01	3.035549e+08	
14	7.000000e-01	3.387460e+08	
15	7.500000e-01	3.663502e+08	
16	8.000000e-01	3.879812e+08	
17	8.500000e-01	4.050494e+08	
18	9.000000e-01	4.186639e+08	
19	9.500000e-01	4.296596e+08	
20	1.000000e+00	4.386546e+08	
21	1.050000e+00	4.461053e+08	
22	1.100000e+00	4.523499e+08	
23	1.150000e+00	4.576415e+08	
24	1.200000e+00	4.621710e+08	
25	1.250000e+00	4.660844e+08	
26	1.300000e+00	4.694942e+08	
27	1.350000e+00	4.724884e+08	
28	1.400000e+00	4.751361e+08	
29	1.450000e+00	4.774928e+08	
30	1.500000e+00	4.796027e+08	
31	1.550000e+00	4.815021e+08	
32	1.600000e+00	4.832203e+08	
33	1.650000e+00	4.847819e+08	
34	1.700000e+00	4.862070e+08	
35	1.750000e+00	4.875126e+08	
36	1.800000e+00	4.887131e+08	
37	1.850000e+00	4.898206e+08	
38	1.900000e+00	4.908455e+08	
39	1.950000e+00	4.917966e+08	
40	2.000000e+00	4.926817e+08	
41	2.050000e+00	4.935074e+08	
42	2.100000e+00	4.942794e+08	
43	2.150000e+00	4.950029e+08	
44	2.200000e+00	4.956823e+08	
45	2.250000e+00	4.963215e+08	
46	2.300000e+00	4.969240e+08	
47	2.350000e+00	4.974929e+08	
48	2.400000e+00	4.980309e+08	
49	2.450000e+00	4.985405e+08	
50	2.500000e+00	4.990239e+08	
51	2.550000e+00	4.994830e+08	
52	2.600000e+00	4.999197e+08	
53	2.650000e+00	5.003356e+08	
54	2.700000e+00	5.007321e+08	

Index   v-sweep         rds             
--------------------------------------------------------------------------------
55	2.750000e+00	5.011105e+08	
56	2.800000e+00	5.014721e+08	
57	2.850000e+00	5.018180e+08	
58	2.900000e+00	5.021491e+08	
59	2.950000e+00	5.024665e+08	
60	3.000000e+00	5.027709e+08	
61	3.050000e+00	5.030631e+08	
62	3.100000e+00	5.033438e+08	
63	3.150000e+00	5.036138e+08	
64	3.200000e+00	5.038736e+08	
65	3.250000e+00	5.041238e+08	
66	3.300000e+00	5.043649e+08	
67	3.350000e+00	5.045974e+08	
68	3.400000e+00	5.048217e+08	
69	3.450000e+00	5.050383e+08	
70	3.500000e+00	5.052476e+08	
71	3.550000e+00	5.054499e+08	
72	3.600000e+00	5.056455e+08	
73	3.650000e+00	5.058349e+08	
74	3.700000e+00	5.060183e+08	
75	3.750000e+00	5.061959e+08	
76	3.800000e+00	5.063681e+08	
77	3.850000e+00	5.065351e+08	
78	3.900000e+00	5.066970e+08	
79	3.950000e+00	5.068543e+08	
80	4.000000e+00	5.070069e+08	
81	4.050000e+00	5.071552e+08	
82	4.100000e+00	5.072993e+08	
83	4.150000e+00	5.074395e+08	
84	4.200000e+00	5.075757e+08	
85	4.250000e+00	5.077083e+08	
86	4.300000e+00	5.078374e+08	
87	4.350000e+00	5.079631e+08	
88	4.400000e+00	5.080854e+08	
89	4.450000e+00	5.082047e+08	
90	4.500000e+00	5.083209e+08	
91	4.550000e+00	5.084342e+08	
92	4.600000e+00	5.085447e+08	
93	4.650000e+00	5.086526e+08	
94	4.700000e+00	5.087578e+08	
95	4.750000e+00	5.088605e+08	
96	4.800000e+00	5.089607e+08	
97	4.850000e+00	5.090587e+08	
98	4.900000e+00	5.091543e+08	
99	4.950000e+00	5.092478e+08	
100	5.000000e+00	5.093392e+08	
101	5.050000e+00	5.094286e+08	
102	5.100000e+00	5.095159e+08	
103	5.150000e+00	5.096014e+08	
104	5.200000e+00	5.096850e+08	
105	5.250000e+00	5.097668e+08	
106	5.300000e+00	5.098469e+08	
107	5.350000e+00	5.099254e+08	
108	5.400000e+00	5.100022e+08	
109	5.450000e+00	5.100774e+08	
110	5.500000e+00	5.101511e+08	
111	5.550000e+00	5.102233e+08	
112	5.600000e+00	5.102940e+08	

Index   v-sweep         rds             
--------------------------------------------------------------------------------
113	5.650000e+00	5.103634e+08	
114	5.700000e+00	5.104314e+08	
115	5.750000e+00	5.104981e+08	
116	5.800000e+00	5.105635e+08	
117	5.850000e+00	5.106276e+08	
118	5.900000e+00	5.106906e+08	
119	5.950000e+00	5.107524e+08	
120	6.000000e+00	5.108130e+08	
121	6.050000e+00	5.108725e+08	
122	6.100000e+00	5.109309e+08	
123	6.150000e+00	5.109883e+08	
124	6.200000e+00	5.110447e+08	
125	6.250000e+00	5.111000e+08	
126	6.300000e+00	5.111544e+08	
127	6.350000e+00	5.112078e+08	
128	6.400000e+00	5.112603e+08	
129	6.450000e+00	5.113119e+08	
130	6.500000e+00	5.113627e+08	
131	6.550000e+00	5.114125e+08	
132	6.600000e+00	5.114616e+08	
Reset re-loads circuit ***************************

Circuit: ***************************

Doing analysis at TEMP = 25.000000 and TNOM = 25.000000


No. of Data Rows : 133
                          ***************************
                          DC transfer characteristic  Mon Jan  9 13:57:42  2023
--------------------------------------------------------------------------------
Index   v-sweep         rds             
--------------------------------------------------------------------------------
0	0.000000e+00	2.444050e+05	
1	5.000000e-02	2.565128e+05	
2	1.000000e-01	2.698454e+05	
3	1.500000e-01	2.845985e+05	
4	2.000000e-01	3.010116e+05	
5	2.500000e-01	3.193811e+05	
6	3.000000e-01	3.400783e+05	
7	3.500000e-01	3.635747e+05	
8	4.000000e-01	3.904775e+05	
9	4.500000e-01	4.215826e+05	
10	5.000000e-01	4.579527e+05	
11	5.500000e-01	5.010385e+05	
12	6.000000e-01	5.528706e+05	
13	6.500000e-01	6.163740e+05	
14	7.000000e-01	6.959058e+05	
15	7.500000e-01	7.982109e+05	
16	8.000000e-01	9.341989e+05	
17	8.500000e-01	1.122387e+06	
18	9.000000e-01	1.395780e+06	
19	9.500000e-01	1.815602e+06	
20	1.000000e+00	2.496679e+06	
21	1.050000e+00	3.643848e+06	
22	1.100000e+00	5.572410e+06	
23	1.150000e+00	8.651128e+06	
24	1.200000e+00	1.314768e+07	
25	1.250000e+00	1.907915e+07	
26	1.300000e+00	2.618910e+07	
27	1.350000e+00	3.405055e+07	
28	1.400000e+00	4.220613e+07	
29	1.450000e+00	5.026978e+07	
30	1.500000e+00	5.796895e+07	
31	1.550000e+00	6.514211e+07	
32	1.600000e+00	7.171539e+07	
33	1.650000e+00	7.767503e+07	
34	1.700000e+00	8.304392e+07	
35	1.750000e+00	8.786462e+07	
36	1.800000e+00	9.218811e+07	
37	1.850000e+00	9.606705e+07	
38	1.900000e+00	9.955194e+07	
39	1.950000e+00	1.026892e+08	
40	2.000000e+00	1.055207e+08	
41	2.050000e+00	1.080831e+08	
42	2.100000e+00	1.104089e+08	
43	2.150000e+00	1.125260e+08	
44	2.200000e+00	1.144588e+08	
45	2.250000e+00	1.162286e+08	
46	2.300000e+00	1.178536e+08	
47	2.350000e+00	1.193498e+08	
48	2.400000e+00	1.207310e+08	
49	2.450000e+00	1.220093e+08	
50	2.500000e+00	1.231951e+08	
51	2.550000e+00	1.242978e+08	
52	2.600000e+00	1.253254e+08	
53	2.650000e+00	1.262850e+08	
54	2.700000e+00	1.271829e+08	

Index   v-sweep         rds             
--------------------------------------------------------------------------------
55	2.750000e+00	1.280247e+08	
56	2.800000e+00	1.288153e+08	
57	2.850000e+00	1.295592e+08	
58	2.900000e+00	1.302602e+08	
59	2.950000e+00	1.309218e+08	
60	3.000000e+00	1.315473e+08	
61	3.050000e+00	1.321393e+08	
62	3.100000e+00	1.327006e+08	
63	3.150000e+00	1.332333e+08	
64	3.200000e+00	1.337395e+08	
65	3.250000e+00	1.342212e+08	
66	3.300000e+00	1.346801e+08	
67	3.350000e+00	1.351177e+08	
68	3.400000e+00	1.355354e+08	
69	3.450000e+00	1.359345e+08	
70	3.500000e+00	1.363163e+08	
71	3.550000e+00	1.366819e+08	
72	3.600000e+00	1.370321e+08	
73	3.650000e+00	1.373681e+08	
74	3.700000e+00	1.376905e+08	
75	3.750000e+00	1.380003e+08	
76	3.800000e+00	1.382981e+08	
77	3.850000e+00	1.385846e+08	
78	3.900000e+00	1.388604e+08	
79	3.950000e+00	1.391262e+08	
80	4.000000e+00	1.393824e+08	
81	4.050000e+00	1.396295e+08	
82	4.100000e+00	1.398680e+08	
83	4.150000e+00	1.400985e+08	
84	4.200000e+00	1.403211e+08	
85	4.250000e+00	1.405364e+08	
86	4.300000e+00	1.407448e+08	
87	4.350000e+00	1.409464e+08	
88	4.400000e+00	1.411417e+08	
89	4.450000e+00	1.413309e+08	
90	4.500000e+00	1.415144e+08	
91	4.550000e+00	1.416923e+08	
92	4.600000e+00	1.418649e+08	
93	4.650000e+00	1.420325e+08	
94	4.700000e+00	1.421952e+08	
95	4.750000e+00	1.423534e+08	
96	4.800000e+00	1.425070e+08	
97	4.850000e+00	1.426565e+08	
98	4.900000e+00	1.428018e+08	
99	4.950000e+00	1.429433e+08	
100	5.000000e+00	1.430809e+08	
101	5.050000e+00	1.432150e+08	
102	5.100000e+00	1.433456e+08	
103	5.150000e+00	1.434729e+08	
104	5.200000e+00	1.435969e+08	
105	5.250000e+00	1.437178e+08	
106	5.300000e+00	1.438358e+08	
107	5.350000e+00	1.439509e+08	
108	5.400000e+00	1.440632e+08	
109	5.450000e+00	1.441728e+08	
110	5.500000e+00	1.442799e+08	
111	5.550000e+00	1.443845e+08	
112	5.600000e+00	1.444866e+08	

Index   v-sweep         rds             
--------------------------------------------------------------------------------
113	5.650000e+00	1.445865e+08	
114	5.700000e+00	1.446841e+08	
115	5.750000e+00	1.447795e+08	
116	5.800000e+00	1.448729e+08	
117	5.850000e+00	1.449642e+08	
118	5.900000e+00	1.450535e+08	
119	5.950000e+00	1.451410e+08	
120	6.000000e+00	1.452266e+08	
121	6.050000e+00	1.453104e+08	
122	6.100000e+00	1.453925e+08	
123	6.150000e+00	1.454729e+08	
124	6.200000e+00	1.455517e+08	
125	6.250000e+00	1.456289e+08	
126	6.300000e+00	1.457045e+08	
127	6.350000e+00	1.457787e+08	
128	6.400000e+00	1.458515e+08	
129	6.450000e+00	1.459228e+08	
130	6.500000e+00	1.459928e+08	
131	6.550000e+00	1.460614e+08	
132	6.600000e+00	1.461288e+08	
Reset re-loads circuit ***************************

Circuit: ***************************

Doing analysis at TEMP = 25.000000 and TNOM = 25.000000


No. of Data Rows : 133
                          ***************************
                          DC transfer characteristic  Mon Jan  9 13:57:42  2023
--------------------------------------------------------------------------------
Index   v-sweep         rds             
--------------------------------------------------------------------------------
0	0.000000e+00	1.512762e+05	
1	5.000000e-02	1.555621e+05	
2	1.000000e-01	1.600855e+05	
3	1.500000e-01	1.648667e+05	
4	2.000000e-01	1.699283e+05	
5	2.500000e-01	1.752959e+05	
6	3.000000e-01	1.809979e+05	
7	3.500000e-01	1.870666e+05	
8	4.000000e-01	1.935386e+05	
9	4.500000e-01	2.004555e+05	
10	5.000000e-01	2.078646e+05	
11	5.500000e-01	2.158205e+05	
12	6.000000e-01	2.243860e+05	
13	6.500000e-01	2.336340e+05	
14	7.000000e-01	2.436492e+05	
15	7.500000e-01	2.545313e+05	
16	8.000000e-01	2.663978e+05	
17	8.500000e-01	2.793884e+05	
18	9.000000e-01	2.936708e+05	
19	9.500000e-01	3.094472e+05	
20	1.000000e+00	3.269648e+05	
21	1.050000e+00	3.465278e+05	
22	1.100000e+00	3.685155e+05	
23	1.150000e+00	3.934069e+05	
24	1.200000e+00	4.218144e+05	
25	1.250000e+00	4.545344e+05	
26	1.300000e+00	4.926195e+05	
27	1.350000e+00	5.374882e+05	
28	1.400000e+00	5.910938e+05	
29	1.450000e+00	6.561898e+05	
30	1.500000e+00	7.367577e+05	
31	1.550000e+00	8.387133e+05	
32	1.600000e+00	9.710816e+05	
33	1.650000e+00	1.147951e+06	
34	1.700000e+00	1.391601e+06	
35	1.750000e+00	1.737040e+06	
36	1.800000e+00	2.237143e+06	
37	1.850000e+00	2.965021e+06	
38	1.900000e+00	4.007544e+06	
39	1.950000e+00	5.446179e+06	
40	2.000000e+00	7.331329e+06	
41	2.050000e+00	9.664428e+06	
42	2.100000e+00	1.239721e+07	
43	2.150000e+00	1.544561e+07	
44	2.200000e+00	1.870917e+07	
45	2.250000e+00	2.208817e+07	
46	2.300000e+00	2.549483e+07	
47	2.350000e+00	2.885863e+07	
48	2.400000e+00	3.212723e+07	
49	2.450000e+00	3.526474e+07	
50	2.500000e+00	3.824895e+07	
51	2.550000e+00	4.106820e+07	
52	2.600000e+00	4.371865e+07	
53	2.650000e+00	4.620191e+07	
54	2.700000e+00	4.852325e+07	

Index   v-sweep         rds             
--------------------------------------------------------------------------------
55	2.750000e+00	5.069021e+07	
56	2.800000e+00	5.271164e+07	
57	2.850000e+00	5.459696e+07	
58	2.900000e+00	5.635571e+07	
59	2.950000e+00	5.799724e+07	
60	3.000000e+00	5.953049e+07	
61	3.050000e+00	6.096392e+07	
62	3.100000e+00	6.230541e+07	
63	3.150000e+00	6.356226e+07	
64	3.200000e+00	6.474120e+07	
65	3.250000e+00	6.584840e+07	
66	3.300000e+00	6.688951e+07	
67	3.350000e+00	6.786968e+07	
68	3.400000e+00	6.879362e+07	
69	3.450000e+00	6.966563e+07	
70	3.500000e+00	7.048962e+07	
71	3.550000e+00	7.126914e+07	
72	3.600000e+00	7.200746e+07	
73	3.650000e+00	7.270754e+07	
74	3.700000e+00	7.337210e+07	
75	3.750000e+00	7.400361e+07	
76	3.800000e+00	7.460436e+07	
77	3.850000e+00	7.517640e+07	
78	3.900000e+00	7.572166e+07	
79	3.950000e+00	7.624187e+07	
80	4.000000e+00	7.673866e+07	
81	4.050000e+00	7.721349e+07	
82	4.100000e+00	7.766774e+07	
83	4.150000e+00	7.810266e+07	
84	4.200000e+00	7.851942e+07	
85	4.250000e+00	7.891908e+07	
86	4.300000e+00	7.930264e+07	
87	4.350000e+00	7.967103e+07	
88	4.400000e+00	8.002509e+07	
89	4.450000e+00	8.036562e+07	
90	4.500000e+00	8.069336e+07	
91	4.550000e+00	8.100900e+07	
92	4.600000e+00	8.131317e+07	
93	4.650000e+00	8.160647e+07	
94	4.700000e+00	8.188947e+07	
95	4.750000e+00	8.216267e+07	
96	4.800000e+00	8.242657e+07	
97	4.850000e+00	8.268163e+07	
98	4.900000e+00	8.292826e+07	
99	4.950000e+00	8.316687e+07	
100	5.000000e+00	8.339785e+07	
101	5.050000e+00	8.362153e+07	
102	5.100000e+00	8.383826e+07	
103	5.150000e+00	8.404835e+07	
104	5.200000e+00	8.425208e+07	
105	5.250000e+00	8.444975e+07	
106	5.300000e+00	8.464161e+07	
107	5.350000e+00	8.482791e+07	
108	5.400000e+00	8.500888e+07	
109	5.450000e+00	8.518475e+07	
110	5.500000e+00	8.535573e+07	
111	5.550000e+00	8.552200e+07	
112	5.600000e+00	8.568377e+07	

Index   v-sweep         rds             
--------------------------------------------------------------------------------
113	5.650000e+00	8.584121e+07	
114	5.700000e+00	8.599448e+07	
115	5.750000e+00	8.614375e+07	
116	5.800000e+00	8.628918e+07	
117	5.850000e+00	8.643090e+07	
118	5.900000e+00	8.656905e+07	
119	5.950000e+00	8.670377e+07	
120	6.000000e+00	8.683517e+07	
121	6.050000e+00	8.696338e+07	
122	6.100000e+00	8.708852e+07	
123	6.150000e+00	8.721069e+07	
124	6.200000e+00	8.732998e+07	
125	6.250000e+00	8.744651e+07	
126	6.300000e+00	8.756037e+07	
127	6.350000e+00	8.767164e+07	
128	6.400000e+00	8.778041e+07	
129	6.450000e+00	8.788677e+07	
130	6.500000e+00	8.799078e+07	
131	6.550000e+00	8.809254e+07	
132	6.600000e+00	8.819210e+07	
Reset re-loads circuit ***************************

Circuit: ***************************

Doing analysis at TEMP = 25.000000 and TNOM = 25.000000


No. of Data Rows : 133
                          ***************************
                          DC transfer characteristic  Mon Jan  9 13:57:42  2023
--------------------------------------------------------------------------------
Index   v-sweep         rds             
--------------------------------------------------------------------------------
0	0.000000e+00	1.156147e+05	
1	5.000000e-02	1.178933e+05	
2	1.000000e-01	1.202573e+05	
3	1.500000e-01	1.227116e+05	
4	2.000000e-01	1.252616e+05	
5	2.500000e-01	1.279128e+05	
6	3.000000e-01	1.306715e+05	
7	3.500000e-01	1.335443e+05	
8	4.000000e-01	1.365385e+05	
9	4.500000e-01	1.396619e+05	
10	5.000000e-01	1.429230e+05	
11	5.500000e-01	1.463312e+05	
12	6.000000e-01	1.498966e+05	
13	6.500000e-01	1.536304e+05	
14	7.000000e-01	1.575448e+05	
15	7.500000e-01	1.616531e+05	
16	8.000000e-01	1.659703e+05	
17	8.500000e-01	1.705126e+05	
18	9.000000e-01	1.752981e+05	
19	9.500000e-01	1.803469e+05	
20	1.000000e+00	1.856812e+05	
21	1.050000e+00	1.913262e+05	
22	1.100000e+00	1.973096e+05	
23	1.150000e+00	2.036629e+05	
24	1.200000e+00	2.104214e+05	
25	1.250000e+00	2.176253e+05	
26	1.300000e+00	2.253200e+05	
27	1.350000e+00	2.335575e+05	
28	1.400000e+00	2.423973e+05	
29	1.450000e+00	2.519080e+05	
30	1.500000e+00	2.621690e+05	
31	1.550000e+00	2.732728e+05	
32	1.600000e+00	2.853275e+05	
33	1.650000e+00	2.984610e+05	
34	1.700000e+00	3.128246e+05	
35	1.750000e+00	3.285996e+05	
36	1.800000e+00	3.460048e+05	
37	1.850000e+00	3.653061e+05	
38	1.900000e+00	3.868307e+05	
39	1.950000e+00	4.109850e+05	
40	2.000000e+00	4.382801e+05	
41	2.050000e+00	4.693669e+05	
42	2.100000e+00	5.050865e+05	
43	2.150000e+00	5.465426e+05	
44	2.200000e+00	5.952080e+05	
45	2.250000e+00	6.530827e+05	
46	2.300000e+00	7.229329e+05	
47	2.350000e+00	8.086527e+05	
48	2.400000e+00	9.158104e+05	
49	2.450000e+00	1.052452e+06	
50	2.500000e+00	1.230216e+06	
51	2.550000e+00	1.465699e+06	
52	2.600000e+00	1.781693e+06	
53	2.650000e+00	2.207403e+06	
54	2.700000e+00	2.776383e+06	

Index   v-sweep         rds             
--------------------------------------------------------------------------------
55	2.750000e+00	3.521449e+06	
56	2.800000e+00	4.467667e+06	
57	2.850000e+00	5.626232e+06	
58	2.900000e+00	6.991883e+06	
59	2.950000e+00	8.544427e+06	
60	3.000000e+00	1.025304e+07	
61	3.050000e+00	1.208138e+07	
62	3.100000e+00	1.399211e+07	
63	3.150000e+00	1.595018e+07	
64	3.200000e+00	1.792476e+07	
65	3.250000e+00	1.989010e+07	
66	3.300000e+00	2.182569e+07	
67	3.350000e+00	2.371585e+07	
68	3.400000e+00	2.554917e+07	
69	3.450000e+00	2.731781e+07	
70	3.500000e+00	2.901683e+07	
71	3.550000e+00	3.064360e+07	
72	3.600000e+00	3.219726e+07	
73	3.650000e+00	3.367825e+07	
74	3.700000e+00	3.508800e+07	
75	3.750000e+00	3.642862e+07	
76	3.800000e+00	3.770267e+07	
77	3.850000e+00	3.891301e+07	
78	3.900000e+00	4.006266e+07	
79	3.950000e+00	4.115469e+07	
80	4.000000e+00	4.219219e+07	
81	4.050000e+00	4.317817e+07	
82	4.100000e+00	4.411557e+07	
83	4.150000e+00	4.500718e+07	
84	4.200000e+00	4.585571e+07	
85	4.250000e+00	4.666369e+07	
86	4.300000e+00	4.743353e+07	
87	4.350000e+00	4.816750e+07	
88	4.400000e+00	4.886772e+07	
89	4.450000e+00	4.953620e+07	
90	4.500000e+00	5.017481e+07	
91	4.550000e+00	5.078529e+07	
92	4.600000e+00	5.136928e+07	
93	4.650000e+00	5.192831e+07	
94	4.700000e+00	5.246380e+07	
95	4.750000e+00	5.297708e+07	
96	4.800000e+00	5.346940e+07	
97	4.850000e+00	5.394192e+07	
98	4.900000e+00	5.439573e+07	
99	4.950000e+00	5.483183e+07	
100	5.000000e+00	5.525117e+07	
101	5.050000e+00	5.565465e+07	
102	5.100000e+00	5.604309e+07	
103	5.150000e+00	5.641727e+07	
104	5.200000e+00	5.677791e+07	
105	5.250000e+00	5.712571e+07	
106	5.300000e+00	5.746128e+07	
107	5.350000e+00	5.778525e+07	
108	5.400000e+00	5.809816e+07	
109	5.450000e+00	5.840056e+07	
110	5.500000e+00	5.869293e+07	
111	5.550000e+00	5.897575e+07	
112	5.600000e+00	5.924946e+07	

Index   v-sweep         rds             
--------------------------------------------------------------------------------
113	5.650000e+00	5.951447e+07	
114	5.700000e+00	5.977118e+07	
115	5.750000e+00	6.001995e+07	
116	5.800000e+00	6.026113e+07	
117	5.850000e+00	6.049505e+07	
118	5.900000e+00	6.072203e+07	
119	5.950000e+00	6.094235e+07	
120	6.000000e+00	6.115630e+07	
121	6.050000e+00	6.136414e+07	
122	6.100000e+00	6.156611e+07	
123	6.150000e+00	6.176247e+07	
124	6.200000e+00	6.195342e+07	
125	6.250000e+00	6.213919e+07	
126	6.300000e+00	6.231998e+07	
127	6.350000e+00	6.249597e+07	
128	6.400000e+00	6.266735e+07	
129	6.450000e+00	6.283430e+07	
130	6.500000e+00	6.299698e+07	
131	6.550000e+00	6.315555e+07	
132	6.600000e+00	6.331015e+07	
Reset re-loads circuit ***************************

Circuit: ***************************

Doing analysis at TEMP = 25.000000 and TNOM = 25.000000


No. of Data Rows : 133
                          ***************************
                          DC transfer characteristic  Mon Jan  9 13:57:42  2023
--------------------------------------------------------------------------------
Index   v-sweep         rds             
--------------------------------------------------------------------------------
0	0.000000e+00	9.791592e+04	
1	5.000000e-02	9.938225e+04	
2	1.000000e-01	1.008895e+05	
3	1.500000e-01	1.024394e+05	
4	2.000000e-01	1.040338e+05	
5	2.500000e-01	1.056747e+05	
6	3.000000e-01	1.073640e+05	
7	3.500000e-01	1.091040e+05	
8	4.000000e-01	1.108970e+05	
9	4.500000e-01	1.127454e+05	
10	5.000000e-01	1.146519e+05	
11	5.500000e-01	1.166192e+05	
12	6.000000e-01	1.186503e+05	
13	6.500000e-01	1.207483e+05	
14	7.000000e-01	1.229167e+05	
15	7.500000e-01	1.251589e+05	
16	8.000000e-01	1.274789e+05	
17	8.500000e-01	1.298807e+05	
18	9.000000e-01	1.323688e+05	
19	9.500000e-01	1.349478e+05	
20	1.000000e+00	1.376229e+05	
21	1.050000e+00	1.403996e+05	
22	1.100000e+00	1.432837e+05	
23	1.150000e+00	1.462816e+05	
24	1.200000e+00	1.494001e+05	
25	1.250000e+00	1.526467e+05	
26	1.300000e+00	1.560295e+05	
27	1.350000e+00	1.595571e+05	
28	1.400000e+00	1.632392e+05	
29	1.450000e+00	1.670860e+05	
30	1.500000e+00	1.711089e+05	
31	1.550000e+00	1.753203e+05	
32	1.600000e+00	1.797337e+05	
33	1.650000e+00	1.843640e+05	
34	1.700000e+00	1.892277e+05	
35	1.750000e+00	1.943428e+05	
36	1.800000e+00	1.997294e+05	
37	1.850000e+00	2.054097e+05	
38	1.900000e+00	2.114084e+05	
39	1.950000e+00	2.177530e+05	
40	2.000000e+00	2.244745e+05	
41	2.050000e+00	2.316074e+05	
42	2.100000e+00	2.391908e+05	
43	2.150000e+00	2.472688e+05	
44	2.200000e+00	2.558915e+05	
45	2.250000e+00	2.651160e+05	
46	2.300000e+00	2.750078e+05	
47	2.350000e+00	2.856419e+05	
48	2.400000e+00	2.971056e+05	
49	2.450000e+00	3.095000e+05	
50	2.500000e+00	3.229434e+05	
51	2.550000e+00	3.375754e+05	
52	2.600000e+00	3.535612e+05	
53	2.650000e+00	3.710981e+05	
54	2.700000e+00	3.904240e+05	

Index   v-sweep         rds             
--------------------------------------------------------------------------------
55	2.750000e+00	4.118277e+05	
56	2.800000e+00	4.356633e+05	
57	2.850000e+00	4.623700e+05	
58	2.900000e+00	4.924980e+05	
59	2.950000e+00	5.267453e+05	
60	3.000000e+00	5.660086e+05	
61	3.050000e+00	6.114557e+05	
62	3.100000e+00	6.646277e+05	
63	3.150000e+00	7.275862e+05	
64	3.200000e+00	8.031211e+05	
65	3.250000e+00	8.950420e+05	
66	3.300000e+00	1.008569e+06	
67	3.350000e+00	1.150817e+06	
68	3.400000e+00	1.331316e+06	
69	3.450000e+00	1.562380e+06	
70	3.500000e+00	1.859023e+06	
71	3.550000e+00	2.238035e+06	
72	3.600000e+00	2.716042e+06	
73	3.650000e+00	3.306858e+06	
74	3.700000e+00	4.018963e+06	
75	3.750000e+00	4.853980e+06	
76	3.800000e+00	5.806567e+06	
77	3.850000e+00	6.865528e+06	
78	3.900000e+00	8.015586e+06	
79	3.950000e+00	9.239270e+06	
80	4.000000e+00	1.051855e+07	
81	4.050000e+00	1.183604e+07	
82	4.100000e+00	1.317586e+07	
83	4.150000e+00	1.452401e+07	
84	4.200000e+00	1.586856e+07	
85	4.250000e+00	1.719969e+07	
86	4.300000e+00	1.850946e+07	
87	4.350000e+00	1.979170e+07	
88	4.400000e+00	2.104173e+07	
89	4.450000e+00	2.225619e+07	
90	4.500000e+00	2.343276e+07	
91	4.550000e+00	2.457001e+07	
92	4.600000e+00	2.566722e+07	
93	4.650000e+00	2.672425e+07	
94	4.700000e+00	2.774139e+07	
95	4.750000e+00	2.871925e+07	
96	4.800000e+00	2.965873e+07	
97	4.850000e+00	3.056090e+07	
98	4.900000e+00	3.142694e+07	
99	4.950000e+00	3.225816e+07	
100	5.000000e+00	3.305588e+07	
101	5.050000e+00	3.382148e+07	
102	5.100000e+00	3.455630e+07	
103	5.150000e+00	3.526170e+07	
104	5.200000e+00	3.593901e+07	
105	5.250000e+00	3.658951e+07	
106	5.300000e+00	3.721446e+07	
107	5.350000e+00	3.781506e+07	
108	5.400000e+00	3.839247e+07	
109	5.450000e+00	3.894779e+07	
110	5.500000e+00	3.948207e+07	
111	5.550000e+00	3.999633e+07	
112	5.600000e+00	4.049153e+07	

Index   v-sweep         rds             
--------------------------------------------------------------------------------
113	5.650000e+00	4.096856e+07	
114	5.700000e+00	4.142831e+07	
115	5.750000e+00	4.187158e+07	
116	5.800000e+00	4.229915e+07	
117	5.850000e+00	4.271177e+07	
118	5.900000e+00	4.311012e+07	
119	5.950000e+00	4.349486e+07	
120	6.000000e+00	4.386662e+07	
121	6.050000e+00	4.422600e+07	
122	6.100000e+00	4.457354e+07	
123	6.150000e+00	4.490978e+07	
124	6.200000e+00	4.523523e+07	
125	6.250000e+00	4.555034e+07	
126	6.300000e+00	4.585559e+07	
127	6.350000e+00	4.615138e+07	
128	6.400000e+00	4.643813e+07	
129	6.450000e+00	4.671622e+07	
130	6.500000e+00	4.698601e+07	
131	6.550000e+00	4.724784e+07	
132	6.600000e+00	4.750205e+07	
Reset re-loads circuit ***************************

Circuit: ***************************

Doing analysis at TEMP = 25.000000 and TNOM = 25.000000


No. of Data Rows : 133
                          ***************************
                          DC transfer characteristic  Mon Jan  9 13:57:42  2023
--------------------------------------------------------------------------------
Index   v-sweep         rds             
--------------------------------------------------------------------------------
0	0.000000e+00	8.811865e+04	
1	5.000000e-02	8.917198e+04	
2	1.000000e-01	9.024840e+04	
3	1.500000e-01	9.134868e+04	
4	2.000000e-01	9.247361e+04	
5	2.500000e-01	9.362404e+04	
6	3.000000e-01	9.480084e+04	
7	3.500000e-01	9.600493e+04	
8	4.000000e-01	9.723726e+04	
9	4.500000e-01	9.849885e+04	
10	5.000000e-01	9.979074e+04	
11	5.500000e-01	1.011140e+05	
12	6.000000e-01	1.024699e+05	
13	6.500000e-01	1.038595e+05	
14	7.000000e-01	1.052843e+05	
15	7.500000e-01	1.067454e+05	
16	8.000000e-01	1.082443e+05	
17	8.500000e-01	1.097825e+05	
18	9.000000e-01	1.113616e+05	
19	9.500000e-01	1.129832e+05	
20	1.000000e+00	1.146491e+05	
21	1.050000e+00	1.163611e+05	
22	1.100000e+00	1.181211e+05	
23	1.150000e+00	1.199312e+05	
24	1.200000e+00	1.217935e+05	
25	1.250000e+00	1.237104e+05	
26	1.300000e+00	1.256842e+05	
27	1.350000e+00	1.277176e+05	
28	1.400000e+00	1.298133e+05	
29	1.450000e+00	1.319742e+05	
30	1.500000e+00	1.342033e+05	
31	1.550000e+00	1.365041e+05	
32	1.600000e+00	1.388799e+05	
33	1.650000e+00	1.413345e+05	
34	1.700000e+00	1.438719e+05	
35	1.750000e+00	1.464964e+05	
36	1.800000e+00	1.492125e+05	
37	1.850000e+00	1.520251e+05	
38	1.900000e+00	1.549394e+05	
39	1.950000e+00	1.579611e+05	
40	2.000000e+00	1.610962e+05	
41	2.050000e+00	1.643512e+05	
42	2.100000e+00	1.677331e+05	
43	2.150000e+00	1.712496e+05	
44	2.200000e+00	1.749088e+05	
45	2.250000e+00	1.787195e+05	
46	2.300000e+00	1.826914e+05	
47	2.350000e+00	1.868350e+05	
48	2.400000e+00	1.911617e+05	
49	2.450000e+00	1.956838e+05	
50	2.500000e+00	2.004150e+05	
51	2.550000e+00	2.053700e+05	
52	2.600000e+00	2.105652e+05	
53	2.650000e+00	2.160186e+05	
54	2.700000e+00	2.217498e+05	

Index   v-sweep         rds             
--------------------------------------------------------------------------------
55	2.750000e+00	2.277808e+05	
56	2.800000e+00	2.341357e+05	
57	2.850000e+00	2.408414e+05	
58	2.900000e+00	2.479279e+05	
59	2.950000e+00	2.554286e+05	
60	3.000000e+00	2.633811e+05	
61	3.050000e+00	2.718276e+05	
62	3.100000e+00	2.808158e+05	
63	3.150000e+00	2.903998e+05	
64	3.200000e+00	3.006410e+05	
65	3.250000e+00	3.116100e+05	
66	3.300000e+00	3.233875e+05	
67	3.350000e+00	3.360669e+05	
68	3.400000e+00	3.497565e+05	
69	3.450000e+00	3.645830e+05	
70	3.500000e+00	3.806950e+05	
71	3.550000e+00	3.982687e+05	
72	3.600000e+00	4.175139e+05	
73	3.650000e+00	4.386825e+05	
74	3.700000e+00	4.620802e+05	
75	3.750000e+00	4.880805e+05	
76	3.800000e+00	5.171446e+05	
77	3.850000e+00	5.498479e+05	
78	3.900000e+00	5.869162e+05	
79	3.950000e+00	6.292741e+05	
80	4.000000e+00	6.781133e+05	
81	4.050000e+00	7.349838e+05	
82	4.100000e+00	8.019185e+05	
83	4.150000e+00	8.815965e+05	
84	4.200000e+00	9.775485e+05	
85	4.250000e+00	1.094393e+06	
86	4.300000e+00	1.238067e+06	
87	4.350000e+00	1.415967e+06	
88	4.400000e+00	1.636879e+06	
89	4.450000e+00	1.910550e+06	
90	4.500000e+00	2.246827e+06	
91	4.550000e+00	2.654465e+06	
92	4.600000e+00	3.139879e+06	
93	4.650000e+00	3.706202e+06	
94	4.700000e+00	4.352900e+06	
95	4.750000e+00	5.075980e+06	
96	4.800000e+00	5.868622e+06	
97	4.850000e+00	6.722033e+06	
98	4.900000e+00	7.626303e+06	
99	4.950000e+00	8.571154e+06	
100	5.000000e+00	9.546515e+06	
101	5.050000e+00	1.054293e+07	
102	5.100000e+00	1.155179e+07	
103	5.150000e+00	1.256550e+07	
104	5.200000e+00	1.357748e+07	
105	5.250000e+00	1.458217e+07	
106	5.300000e+00	1.557494e+07	
107	5.350000e+00	1.655203e+07	
108	5.400000e+00	1.751045e+07	
109	5.450000e+00	1.844789e+07	
110	5.500000e+00	1.936259e+07	
111	5.550000e+00	2.025332e+07	
112	5.600000e+00	2.111924e+07	

Index   v-sweep         rds             
--------------------------------------------------------------------------------
113	5.650000e+00	2.195986e+07	
114	5.700000e+00	2.277497e+07	
115	5.750000e+00	2.356459e+07	
116	5.800000e+00	2.432894e+07	
117	5.850000e+00	2.506837e+07	
118	5.900000e+00	2.578335e+07	
119	5.950000e+00	2.647444e+07	
120	6.000000e+00	2.714226e+07	
121	6.050000e+00	2.778748e+07	
122	6.100000e+00	2.841080e+07	
123	6.150000e+00	2.901295e+07	
124	6.200000e+00	2.959466e+07	
125	6.250000e+00	3.015665e+07	
126	6.300000e+00	3.069965e+07	
127	6.350000e+00	3.122438e+07	
128	6.400000e+00	3.173154e+07	
129	6.450000e+00	3.222182e+07	
130	6.500000e+00	3.269588e+07	
131	6.550000e+00	3.315437e+07	
132	6.600000e+00	3.359792e+07	
Reset re-loads circuit ***************************

Circuit: ***************************

Note: No ".plot", ".print", or ".fourier" lines; no simulations run
