
Note: Compatibility modes selected: hs

Warning: m=xx on .subckt line will override multiplier m hierarchy!


Circuit: ***************************

Doing analysis at TEMP = 125.000000 and TNOM = 125.000000


No. of Data Rows : 133
                          ***************************
                          DC transfer characteristic  Mon Jan  9 13:57:43  2023
--------------------------------------------------------------------------------
Index   v-sweep         rds             
--------------------------------------------------------------------------------
0	0.000000e+00	4.788163e+04	
1	5.000000e-02	5.542835e+04	
2	1.000000e-01	6.554359e+04	
3	1.500000e-01	7.976193e+04	
4	2.000000e-01	1.010374e+05	
5	2.500000e-01	1.354978e+05	
6	3.000000e-01	1.958804e+05	
7	3.500000e-01	3.008968e+05	
8	4.000000e-01	4.463488e+05	
9	4.500000e-01	5.891816e+05	
10	5.000000e-01	7.074029e+05	
11	5.500000e-01	8.063391e+05	
12	6.000000e-01	8.934686e+05	
13	6.500000e-01	9.730064e+05	
14	7.000000e-01	1.047088e+06	
15	7.500000e-01	1.116850e+06	
16	8.000000e-01	1.182960e+06	
17	8.500000e-01	1.245851e+06	
18	9.000000e-01	1.305830e+06	
19	9.500000e-01	1.363138e+06	
20	1.000000e+00	1.417967e+06	
21	1.050000e+00	1.470484e+06	
22	1.100000e+00	1.520832e+06	
23	1.150000e+00	1.569142e+06	
24	1.200000e+00	1.615531e+06	
25	1.250000e+00	1.660104e+06	
26	1.300000e+00	1.702962e+06	
27	1.350000e+00	1.744194e+06	
28	1.400000e+00	1.783885e+06	
29	1.450000e+00	1.822114e+06	
30	1.500000e+00	1.858955e+06	
31	1.550000e+00	1.894476e+06	
32	1.600000e+00	1.928741e+06	
33	1.650000e+00	1.961810e+06	
34	1.700000e+00	1.993740e+06	
35	1.750000e+00	2.024585e+06	
36	1.800000e+00	2.054394e+06	
37	1.850000e+00	2.083214e+06	
38	1.900000e+00	2.111090e+06	
39	1.950000e+00	2.138064e+06	
40	2.000000e+00	2.164175e+06	
41	2.050000e+00	2.189460e+06	
42	2.100000e+00	2.213956e+06	
43	2.150000e+00	2.237694e+06	
44	2.200000e+00	2.260707e+06	
45	2.250000e+00	2.283025e+06	
46	2.300000e+00	2.304677e+06	
47	2.350000e+00	2.325688e+06	
48	2.400000e+00	2.346085e+06	
49	2.450000e+00	2.365891e+06	
50	2.500000e+00	2.385131e+06	
51	2.550000e+00	2.403826e+06	
52	2.600000e+00	2.421996e+06	
53	2.650000e+00	2.439661e+06	
54	2.700000e+00	2.456841e+06	

Index   v-sweep         rds             
--------------------------------------------------------------------------------
55	2.750000e+00	2.473554e+06	
56	2.800000e+00	2.489815e+06	
57	2.850000e+00	2.505643e+06	
58	2.900000e+00	2.521052e+06	
59	2.950000e+00	2.536058e+06	
60	3.000000e+00	2.550674e+06	
61	3.050000e+00	2.564914e+06	
62	3.100000e+00	2.578791e+06	
63	3.150000e+00	2.592318e+06	
64	3.200000e+00	2.605506e+06	
65	3.250000e+00	2.618367e+06	
66	3.300000e+00	2.630911e+06	
67	3.350000e+00	2.643150e+06	
68	3.400000e+00	2.655092e+06	
69	3.450000e+00	2.666749e+06	
70	3.500000e+00	2.678128e+06	
71	3.550000e+00	2.689239e+06	
72	3.600000e+00	2.700089e+06	
73	3.650000e+00	2.710688e+06	
74	3.700000e+00	2.721043e+06	
75	3.750000e+00	2.731162e+06	
76	3.800000e+00	2.741051e+06	
77	3.850000e+00	2.750717e+06	
78	3.900000e+00	2.760168e+06	
79	3.950000e+00	2.769410e+06	
80	4.000000e+00	2.778448e+06	
81	4.050000e+00	2.787289e+06	
82	4.100000e+00	2.795938e+06	
83	4.150000e+00	2.804402e+06	
84	4.200000e+00	2.812684e+06	
85	4.250000e+00	2.820791e+06	
86	4.300000e+00	2.828728e+06	
87	4.350000e+00	2.836498e+06	
88	4.400000e+00	2.844107e+06	
89	4.450000e+00	2.851559e+06	
90	4.500000e+00	2.858858e+06	
91	4.550000e+00	2.866009e+06	
92	4.600000e+00	2.873015e+06	
93	4.650000e+00	2.879880e+06	
94	4.700000e+00	2.886608e+06	
95	4.750000e+00	2.893203e+06	
96	4.800000e+00	2.899668e+06	
97	4.850000e+00	2.906006e+06	
98	4.900000e+00	2.912221e+06	
99	4.950000e+00	2.918316e+06	
100	5.000000e+00	2.924294e+06	
101	5.050000e+00	2.930157e+06	
102	5.100000e+00	2.935909e+06	
103	5.150000e+00	2.941552e+06	
104	5.200000e+00	2.947089e+06	
105	5.250000e+00	2.952523e+06	
106	5.300000e+00	2.957856e+06	
107	5.350000e+00	2.963091e+06	
108	5.400000e+00	2.968229e+06	
109	5.450000e+00	2.973274e+06	
110	5.500000e+00	2.978227e+06	
111	5.550000e+00	2.983091e+06	
112	5.600000e+00	2.987868e+06	

Index   v-sweep         rds             
--------------------------------------------------------------------------------
113	5.650000e+00	2.992559e+06	
114	5.700000e+00	2.997167e+06	
115	5.750000e+00	3.001693e+06	
116	5.800000e+00	3.006140e+06	
117	5.850000e+00	3.010510e+06	
118	5.900000e+00	3.014803e+06	
119	5.950000e+00	3.019021e+06	
120	6.000000e+00	3.023168e+06	
121	6.050000e+00	3.027243e+06	
122	6.100000e+00	3.031248e+06	
123	6.150000e+00	3.035186e+06	
124	6.200000e+00	3.039057e+06	
125	6.250000e+00	3.042863e+06	
126	6.300000e+00	3.046606e+06	
127	6.350000e+00	3.050286e+06	
128	6.400000e+00	3.053905e+06	
129	6.450000e+00	3.057464e+06	
130	6.500000e+00	3.060965e+06	
131	6.550000e+00	3.064409e+06	
132	6.600000e+00	3.067796e+06	
Reset re-loads circuit ***************************

Circuit: ***************************

Doing analysis at TEMP = 125.000000 and TNOM = 125.000000


No. of Data Rows : 133
                          ***************************
                          DC transfer characteristic  Mon Jan  9 13:57:43  2023
--------------------------------------------------------------------------------
Index   v-sweep         rds             
--------------------------------------------------------------------------------
0	0.000000e+00	1.903188e+04	
1	5.000000e-02	2.022066e+04	
2	1.000000e-01	2.153752e+04	
3	1.500000e-01	2.300417e+04	
4	2.000000e-01	2.464751e+04	
5	2.500000e-01	2.650124e+04	
6	3.000000e-01	2.860817e+04	
7	3.500000e-01	3.102341e+04	
8	4.000000e-01	3.381906e+04	
9	4.500000e-01	3.709107e+04	
10	5.000000e-01	4.096951e+04	
11	5.500000e-01	4.563411e+04	
12	6.000000e-01	5.133774e+04	
13	6.500000e-01	5.844039e+04	
14	7.000000e-01	6.745182e+04	
15	7.500000e-01	7.905829e+04	
16	8.000000e-01	9.404180e+04	
17	8.500000e-01	1.129139e+05	
18	9.000000e-01	1.353113e+05	
19	9.500000e-01	1.599275e+05	
20	1.000000e+00	1.853682e+05	
21	1.050000e+00	2.108086e+05	
22	1.100000e+00	2.359182e+05	
23	1.150000e+00	2.605967e+05	
24	1.200000e+00	2.848231e+05	
25	1.250000e+00	3.086003e+05	
26	1.300000e+00	3.319371e+05	
27	1.350000e+00	3.548436e+05	
28	1.400000e+00	3.773297e+05	
29	1.450000e+00	3.994051e+05	
30	1.500000e+00	4.210791e+05	
31	1.550000e+00	4.423609e+05	
32	1.600000e+00	4.632593e+05	
33	1.650000e+00	4.837830e+05	
34	1.700000e+00	5.039406e+05	
35	1.750000e+00	5.237403e+05	
36	1.800000e+00	5.431905e+05	
37	1.850000e+00	5.622990e+05	
38	1.900000e+00	5.810736e+05	
39	1.950000e+00	5.995221e+05	
40	2.000000e+00	6.176519e+05	
41	2.050000e+00	6.354702e+05	
42	2.100000e+00	6.529841e+05	
43	2.150000e+00	6.702007e+05	
44	2.200000e+00	6.871266e+05	
45	2.250000e+00	7.037684e+05	
46	2.300000e+00	7.201326e+05	
47	2.350000e+00	7.362253e+05	
48	2.400000e+00	7.520528e+05	
49	2.450000e+00	7.676209e+05	
50	2.500000e+00	7.829354e+05	
51	2.550000e+00	7.980019e+05	
52	2.600000e+00	8.128259e+05	
53	2.650000e+00	8.274127e+05	
54	2.700000e+00	8.417675e+05	

Index   v-sweep         rds             
--------------------------------------------------------------------------------
55	2.750000e+00	8.558955e+05	
56	2.800000e+00	8.698014e+05	
57	2.850000e+00	8.834901e+05	
58	2.900000e+00	8.969663e+05	
59	2.950000e+00	9.102344e+05	
60	3.000000e+00	9.232990e+05	
61	3.050000e+00	9.361644e+05	
62	3.100000e+00	9.488346e+05	
63	3.150000e+00	9.613139e+05	
64	3.200000e+00	9.736062e+05	
65	3.250000e+00	9.857154e+05	
66	3.300000e+00	9.976453e+05	
67	3.350000e+00	1.009399e+06	
68	3.400000e+00	1.020982e+06	
69	3.450000e+00	1.032395e+06	
70	3.500000e+00	1.043644e+06	
71	3.550000e+00	1.054730e+06	
72	3.600000e+00	1.065658e+06	
73	3.650000e+00	1.076431e+06	
74	3.700000e+00	1.087051e+06	
75	3.750000e+00	1.097521e+06	
76	3.800000e+00	1.107846e+06	
77	3.850000e+00	1.118027e+06	
78	3.900000e+00	1.128066e+06	
79	3.950000e+00	1.137968e+06	
80	4.000000e+00	1.147735e+06	
81	4.050000e+00	1.157368e+06	
82	4.100000e+00	1.166872e+06	
83	4.150000e+00	1.176247e+06	
84	4.200000e+00	1.185497e+06	
85	4.250000e+00	1.194624e+06	
86	4.300000e+00	1.203630e+06	
87	4.350000e+00	1.212517e+06	
88	4.400000e+00	1.221288e+06	
89	4.450000e+00	1.229945e+06	
90	4.500000e+00	1.238490e+06	
91	4.550000e+00	1.246924e+06	
92	4.600000e+00	1.255251e+06	
93	4.650000e+00	1.263471e+06	
94	4.700000e+00	1.271587e+06	
95	4.750000e+00	1.279600e+06	
96	4.800000e+00	1.287513e+06	
97	4.850000e+00	1.295327e+06	
98	4.900000e+00	1.303043e+06	
99	4.950000e+00	1.310664e+06	
100	5.000000e+00	1.318192e+06	
101	5.050000e+00	1.325627e+06	
102	5.100000e+00	1.332972e+06	
103	5.150000e+00	1.340228e+06	
104	5.200000e+00	1.347396e+06	
105	5.250000e+00	1.354478e+06	
106	5.300000e+00	1.361475e+06	
107	5.350000e+00	1.368390e+06	
108	5.400000e+00	1.375222e+06	
109	5.450000e+00	1.381974e+06	
110	5.500000e+00	1.388647e+06	
111	5.550000e+00	1.395243e+06	
112	5.600000e+00	1.401761e+06	

Index   v-sweep         rds             
--------------------------------------------------------------------------------
113	5.650000e+00	1.408205e+06	
114	5.700000e+00	1.414574e+06	
115	5.750000e+00	1.420871e+06	
116	5.800000e+00	1.427095e+06	
117	5.850000e+00	1.433250e+06	
118	5.900000e+00	1.439335e+06	
119	5.950000e+00	1.445351e+06	
120	6.000000e+00	1.451301e+06	
121	6.050000e+00	1.457184e+06	
122	6.100000e+00	1.463002e+06	
123	6.150000e+00	1.468756e+06	
124	6.200000e+00	1.474447e+06	
125	6.250000e+00	1.480075e+06	
126	6.300000e+00	1.485643e+06	
127	6.350000e+00	1.491150e+06	
128	6.400000e+00	1.496597e+06	
129	6.450000e+00	1.501987e+06	
130	6.500000e+00	1.507319e+06	
131	6.550000e+00	1.512594e+06	
132	6.600000e+00	1.517813e+06	
Reset re-loads circuit ***************************

Circuit: ***************************

Doing analysis at TEMP = 125.000000 and TNOM = 125.000000


No. of Data Rows : 133
                          ***************************
                          DC transfer characteristic  Mon Jan  9 13:57:43  2023
--------------------------------------------------------------------------------
Index   v-sweep         rds             
--------------------------------------------------------------------------------
0	0.000000e+00	1.303368e+04	
1	5.000000e-02	1.359083e+04	
2	1.000000e-01	1.418455e+04	
3	1.500000e-01	1.481852e+04	
4	2.000000e-01	1.549693e+04	
5	2.500000e-01	1.622456e+04	
6	3.000000e-01	1.700692e+04	
7	3.500000e-01	1.785040e+04	
8	4.000000e-01	1.876238e+04	
9	4.500000e-01	1.975150e+04	
10	5.000000e-01	2.082792e+04	
11	5.500000e-01	2.200362e+04	
12	6.000000e-01	2.329289e+04	
13	6.500000e-01	2.471282e+04	
14	7.000000e-01	2.628409e+04	
15	7.500000e-01	2.803191e+04	
16	8.000000e-01	2.998728e+04	
17	8.500000e-01	3.218876e+04	
18	9.000000e-01	3.468482e+04	
19	9.500000e-01	3.753700e+04	
20	1.000000e+00	4.082427e+04	
21	1.050000e+00	4.464876e+04	
22	1.100000e+00	4.914282e+04	
23	1.150000e+00	5.447589e+04	
24	1.200000e+00	6.085590e+04	
25	1.250000e+00	6.851120e+04	
26	1.300000e+00	7.763160e+04	
27	1.350000e+00	8.826871e+04	
28	1.400000e+00	1.002654e+05	
29	1.450000e+00	1.133034e+05	
30	1.500000e+00	1.270320e+05	
31	1.550000e+00	1.411643e+05	
32	1.600000e+00	1.555003e+05	
33	1.650000e+00	1.699109e+05	
34	1.700000e+00	1.843152e+05	
35	1.750000e+00	1.986626e+05	
36	1.800000e+00	2.129209e+05	
37	1.850000e+00	2.270698e+05	
38	1.900000e+00	2.410962e+05	
39	1.950000e+00	2.549916e+05	
40	2.000000e+00	2.687506e+05	
41	2.050000e+00	2.823700e+05	
42	2.100000e+00	2.958480e+05	
43	2.150000e+00	3.091836e+05	
44	2.200000e+00	3.223767e+05	
45	2.250000e+00	3.354276e+05	
46	2.300000e+00	3.483371e+05	
47	2.350000e+00	3.611063e+05	
48	2.400000e+00	3.737362e+05	
49	2.450000e+00	3.862282e+05	
50	2.500000e+00	3.985838e+05	
51	2.550000e+00	4.108045e+05	
52	2.600000e+00	4.228920e+05	
53	2.650000e+00	4.348479e+05	
54	2.700000e+00	4.466737e+05	

Index   v-sweep         rds             
--------------------------------------------------------------------------------
55	2.750000e+00	4.583713e+05	
56	2.800000e+00	4.699423e+05	
57	2.850000e+00	4.813883e+05	
58	2.900000e+00	4.927111e+05	
59	2.950000e+00	5.039124e+05	
60	3.000000e+00	5.149938e+05	
61	3.050000e+00	5.259570e+05	
62	3.100000e+00	5.368037e+05	
63	3.150000e+00	5.475354e+05	
64	3.200000e+00	5.581537e+05	
65	3.250000e+00	5.686603e+05	
66	3.300000e+00	5.790567e+05	
67	3.350000e+00	5.893445e+05	
68	3.400000e+00	5.995252e+05	
69	3.450000e+00	6.096003e+05	
70	3.500000e+00	6.195712e+05	
71	3.550000e+00	6.294395e+05	
72	3.600000e+00	6.392066e+05	
73	3.650000e+00	6.488739e+05	
74	3.700000e+00	6.584428e+05	
75	3.750000e+00	6.679146e+05	
76	3.800000e+00	6.772907e+05	
77	3.850000e+00	6.865725e+05	
78	3.900000e+00	6.957613e+05	
79	3.950000e+00	7.048583e+05	
80	4.000000e+00	7.138648e+05	
81	4.050000e+00	7.227821e+05	
82	4.100000e+00	7.316114e+05	
83	4.150000e+00	7.403539e+05	
84	4.200000e+00	7.490107e+05	
85	4.250000e+00	7.575831e+05	
86	4.300000e+00	7.660722e+05	
87	4.350000e+00	7.744791e+05	
88	4.400000e+00	7.828050e+05	
89	4.450000e+00	7.910509e+05	
90	4.500000e+00	7.992179e+05	
91	4.550000e+00	8.073070e+05	
92	4.600000e+00	8.153194e+05	
93	4.650000e+00	8.232560e+05	
94	4.700000e+00	8.311178e+05	
95	4.750000e+00	8.389059e+05	
96	4.800000e+00	8.466211e+05	
97	4.850000e+00	8.542645e+05	
98	4.900000e+00	8.618370e+05	
99	4.950000e+00	8.693395e+05	
100	5.000000e+00	8.767730e+05	
101	5.050000e+00	8.841382e+05	
102	5.100000e+00	8.914362e+05	
103	5.150000e+00	8.986678e+05	
104	5.200000e+00	9.058338e+05	
105	5.250000e+00	9.129351e+05	
106	5.300000e+00	9.199725e+05	
107	5.350000e+00	9.269468e+05	
108	5.400000e+00	9.338588e+05	
109	5.450000e+00	9.407093e+05	
110	5.500000e+00	9.474991e+05	
111	5.550000e+00	9.542290e+05	
112	5.600000e+00	9.608996e+05	

Index   v-sweep         rds             
--------------------------------------------------------------------------------
113	5.650000e+00	9.675118e+05	
114	5.700000e+00	9.740662e+05	
115	5.750000e+00	9.805636e+05	
116	5.800000e+00	9.870047e+05	
117	5.850000e+00	9.933902e+05	
118	5.900000e+00	9.997207e+05	
119	5.950000e+00	1.005997e+06	
120	6.000000e+00	1.012220e+06	
121	6.050000e+00	1.018389e+06	
122	6.100000e+00	1.024507e+06	
123	6.150000e+00	1.030572e+06	
124	6.200000e+00	1.036587e+06	
125	6.250000e+00	1.042551e+06	
126	6.300000e+00	1.048465e+06	
127	6.350000e+00	1.054331e+06	
128	6.400000e+00	1.060147e+06	
129	6.450000e+00	1.065915e+06	
130	6.500000e+00	1.071636e+06	
131	6.550000e+00	1.077310e+06	
132	6.600000e+00	1.082937e+06	
Reset re-loads circuit ***************************

Circuit: ***************************

Doing analysis at TEMP = 125.000000 and TNOM = 125.000000


No. of Data Rows : 133
                          ***************************
                          DC transfer characteristic  Mon Jan  9 13:57:43  2023
--------------------------------------------------------------------------------
Index   v-sweep         rds             
--------------------------------------------------------------------------------
0	0.000000e+00	1.052739e+04	
1	5.000000e-02	1.087974e+04	
2	1.000000e-01	1.124887e+04	
3	1.500000e-01	1.163598e+04	
4	2.000000e-01	1.204239e+04	
5	2.500000e-01	1.246956e+04	
6	3.000000e-01	1.291911e+04	
7	3.500000e-01	1.339281e+04	
8	4.000000e-01	1.389264e+04	
9	4.500000e-01	1.442083e+04	
10	5.000000e-01	1.497984e+04	
11	5.500000e-01	1.557244e+04	
12	6.000000e-01	1.620172e+04	
13	6.500000e-01	1.687120e+04	
14	7.000000e-01	1.758481e+04	
15	7.500000e-01	1.834704e+04	
16	8.000000e-01	1.916299e+04	
17	8.500000e-01	2.003848e+04	
18	9.000000e-01	2.098019e+04	
19	9.500000e-01	2.199582e+04	
20	1.000000e+00	2.309432e+04	
21	1.050000e+00	2.428610e+04	
22	1.100000e+00	2.558339e+04	
23	1.150000e+00	2.700064e+04	
24	1.200000e+00	2.855507e+04	
25	1.250000e+00	3.026738e+04	
26	1.300000e+00	3.216268e+04	
27	1.350000e+00	3.427179e+04	
28	1.400000e+00	3.663307e+04	
29	1.450000e+00	3.929488e+04	
30	1.500000e+00	4.231920e+04	
31	1.550000e+00	4.578618e+04	
32	1.600000e+00	4.979906e+04	
33	1.650000e+00	5.448530e+04	
34	1.700000e+00	5.998450e+04	
35	1.750000e+00	6.641188e+04	
36	1.800000e+00	7.380431e+04	
37	1.850000e+00	8.208812e+04	
38	1.900000e+00	9.110236e+04	
39	1.950000e+00	1.006570e+05	
40	2.000000e+00	1.105807e+05	
41	2.050000e+00	1.207402e+05	
42	2.100000e+00	1.310398e+05	
43	2.150000e+00	1.414132e+05	
44	2.200000e+00	1.518151e+05	
45	2.250000e+00	1.622143e+05	
46	2.300000e+00	1.725894e+05	
47	2.350000e+00	1.829256e+05	
48	2.400000e+00	1.932122e+05	
49	2.450000e+00	2.034419e+05	
50	2.500000e+00	2.136093e+05	
51	2.550000e+00	2.237104e+05	
52	2.600000e+00	2.337428e+05	
53	2.650000e+00	2.437042e+05	
54	2.700000e+00	2.535936e+05	

Index   v-sweep         rds             
--------------------------------------------------------------------------------
55	2.750000e+00	2.634098e+05	
56	2.800000e+00	2.731524e+05	
57	2.850000e+00	2.828211e+05	
58	2.900000e+00	2.924157e+05	
59	2.950000e+00	3.019364e+05	
60	3.000000e+00	3.113832e+05	
61	3.050000e+00	3.207566e+05	
62	3.100000e+00	3.300568e+05	
63	3.150000e+00	3.392842e+05	
64	3.200000e+00	3.484394e+05	
65	3.250000e+00	3.575228e+05	
66	3.300000e+00	3.665350e+05	
67	3.350000e+00	3.754765e+05	
68	3.400000e+00	3.843480e+05	
69	3.450000e+00	3.931500e+05	
70	3.500000e+00	4.018831e+05	
71	3.550000e+00	4.105480e+05	
72	3.600000e+00	4.191453e+05	
73	3.650000e+00	4.276756e+05	
74	3.700000e+00	4.361395e+05	
75	3.750000e+00	4.445378e+05	
76	3.800000e+00	4.528710e+05	
77	3.850000e+00	4.611397e+05	
78	3.900000e+00	4.693447e+05	
79	3.950000e+00	4.774865e+05	
80	4.000000e+00	4.855658e+05	
81	4.050000e+00	4.935831e+05	
82	4.100000e+00	5.015392e+05	
83	4.150000e+00	5.094347e+05	
84	4.200000e+00	5.172700e+05	
85	4.250000e+00	5.250460e+05	
86	4.300000e+00	5.327631e+05	
87	4.350000e+00	5.404219e+05	
88	4.400000e+00	5.480231e+05	
89	4.450000e+00	5.555673e+05	
90	4.500000e+00	5.630549e+05	
91	4.550000e+00	5.704867e+05	
92	4.600000e+00	5.778631e+05	
93	4.650000e+00	5.851848e+05	
94	4.700000e+00	5.924523e+05	
95	4.750000e+00	5.996660e+05	
96	4.800000e+00	6.068267e+05	
97	4.850000e+00	6.139348e+05	
98	4.900000e+00	6.209909e+05	
99	4.950000e+00	6.279954e+05	
100	5.000000e+00	6.349490e+05	
101	5.050000e+00	6.418521e+05	
102	5.100000e+00	6.487052e+05	
103	5.150000e+00	6.555088e+05	
104	5.200000e+00	6.622635e+05	
105	5.250000e+00	6.689697e+05	
106	5.300000e+00	6.756279e+05	
107	5.350000e+00	6.822387e+05	
108	5.400000e+00	6.888024e+05	
109	5.450000e+00	6.953195e+05	
110	5.500000e+00	7.017905e+05	
111	5.550000e+00	7.082159e+05	
112	5.600000e+00	7.145961e+05	

Index   v-sweep         rds             
--------------------------------------------------------------------------------
113	5.650000e+00	7.209316e+05	
114	5.700000e+00	7.272228e+05	
115	5.750000e+00	7.334701e+05	
116	5.800000e+00	7.396740e+05	
117	5.850000e+00	7.458349e+05	
118	5.900000e+00	7.519533e+05	
119	5.950000e+00	7.580294e+05	
120	6.000000e+00	7.640638e+05	
121	6.050000e+00	7.700569e+05	
122	6.100000e+00	7.760090e+05	
123	6.150000e+00	7.819206e+05	
124	6.200000e+00	7.877921e+05	
125	6.250000e+00	7.936238e+05	
126	6.300000e+00	7.994161e+05	
127	6.350000e+00	8.051694e+05	
128	6.400000e+00	8.108840e+05	
129	6.450000e+00	8.165604e+05	
130	6.500000e+00	8.221990e+05	
131	6.550000e+00	8.277999e+05	
132	6.600000e+00	8.333638e+05	
Reset re-loads circuit ***************************

Circuit: ***************************

Doing analysis at TEMP = 125.000000 and TNOM = 125.000000


No. of Data Rows : 133
                          ***************************
                          DC transfer characteristic  Mon Jan  9 13:57:43  2023
--------------------------------------------------------------------------------
Index   v-sweep         rds             
--------------------------------------------------------------------------------
0	0.000000e+00	9.230325e+03	
1	5.000000e-02	9.486024e+03	
2	1.000000e-01	9.751290e+03	
3	1.500000e-01	1.002665e+04	
4	2.000000e-01	1.031269e+04	
5	2.500000e-01	1.061001e+04	
6	3.000000e-01	1.091930e+04	
7	3.500000e-01	1.124127e+04	
8	4.000000e-01	1.157670e+04	
9	4.500000e-01	1.192647e+04	
10	5.000000e-01	1.229149e+04	
11	5.500000e-01	1.267278e+04	
12	6.000000e-01	1.307146e+04	
13	6.500000e-01	1.348875e+04	
14	7.000000e-01	1.392596e+04	
15	7.500000e-01	1.438456e+04	
16	8.000000e-01	1.486616e+04	
17	8.500000e-01	1.537252e+04	
18	9.000000e-01	1.590558e+04	
19	9.500000e-01	1.646751e+04	
20	1.000000e+00	1.706067e+04	
21	1.050000e+00	1.768773e+04	
22	1.100000e+00	1.835162e+04	
23	1.150000e+00	1.905564e+04	
24	1.200000e+00	1.980348e+04	
25	1.250000e+00	2.059928e+04	
26	1.300000e+00	2.144773e+04	
27	1.350000e+00	2.235415e+04	
28	1.400000e+00	2.332458e+04	
29	1.450000e+00	2.436597e+04	
30	1.500000e+00	2.548630e+04	
31	1.550000e+00	2.669485e+04	
32	1.600000e+00	2.800247e+04	
33	1.650000e+00	2.942201e+04	
34	1.700000e+00	3.096882e+04	
35	1.750000e+00	3.266153e+04	
36	1.800000e+00	3.452321e+04	
37	1.850000e+00	3.658297e+04	
38	1.900000e+00	3.887844e+04	
39	1.950000e+00	4.145908e+04	
40	2.000000e+00	4.439018e+04	
41	2.050000e+00	4.775537e+04	
42	2.100000e+00	5.165294e+04	
43	2.150000e+00	5.617887e+04	
44	2.200000e+00	6.139608e+04	
45	2.250000e+00	6.730495e+04	
46	2.300000e+00	7.383815e+04	
47	2.350000e+00	8.088423e+04	
48	2.400000e+00	8.832082e+04	
49	2.450000e+00	9.603827e+04	
50	2.500000e+00	1.039490e+05	
51	2.550000e+00	1.119873e+05	
52	2.600000e+00	1.201055e+05	
53	2.650000e+00	1.282694e+05	
54	2.700000e+00	1.364546e+05	

Index   v-sweep         rds             
--------------------------------------------------------------------------------
55	2.750000e+00	1.446435e+05	
56	2.800000e+00	1.528234e+05	
57	2.850000e+00	1.609849e+05	
58	2.900000e+00	1.691211e+05	
59	2.950000e+00	1.772269e+05	
60	3.000000e+00	1.852984e+05	
61	3.050000e+00	1.933327e+05	
62	3.100000e+00	2.013276e+05	
63	3.150000e+00	2.092814e+05	
64	3.200000e+00	2.171929e+05	
65	3.250000e+00	2.250610e+05	
66	3.300000e+00	2.328850e+05	
67	3.350000e+00	2.406645e+05	
68	3.400000e+00	2.483991e+05	
69	3.450000e+00	2.560885e+05	
70	3.500000e+00	2.637325e+05	
71	3.550000e+00	2.713312e+05	
72	3.600000e+00	2.788844e+05	
73	3.650000e+00	2.863924e+05	
74	3.700000e+00	2.938550e+05	
75	3.750000e+00	3.012726e+05	
76	3.800000e+00	3.086453e+05	
77	3.850000e+00	3.159732e+05	
78	3.900000e+00	3.232565e+05	
79	3.950000e+00	3.304955e+05	
80	4.000000e+00	3.376905e+05	
81	4.050000e+00	3.448417e+05	
82	4.100000e+00	3.519493e+05	
83	4.150000e+00	3.590137e+05	
84	4.200000e+00	3.660350e+05	
85	4.250000e+00	3.730137e+05	
86	4.300000e+00	3.799500e+05	
87	4.350000e+00	3.868441e+05	
88	4.400000e+00	3.936965e+05	
89	4.450000e+00	4.005073e+05	
90	4.500000e+00	4.072769e+05	
91	4.550000e+00	4.140057e+05	
92	4.600000e+00	4.206938e+05	
93	4.650000e+00	4.273417e+05	
94	4.700000e+00	4.339496e+05	
95	4.750000e+00	4.405178e+05	
96	4.800000e+00	4.470466e+05	
97	4.850000e+00	4.535364e+05	
98	4.900000e+00	4.599874e+05	
99	4.950000e+00	4.663999e+05	
100	5.000000e+00	4.727743e+05	
101	5.050000e+00	4.791108e+05	
102	5.100000e+00	4.854098e+05	
103	5.150000e+00	4.916715e+05	
104	5.200000e+00	4.978962e+05	
105	5.250000e+00	5.040842e+05	
106	5.300000e+00	5.102359e+05	
107	5.350000e+00	5.163514e+05	
108	5.400000e+00	5.224312e+05	
109	5.450000e+00	5.284754e+05	
110	5.500000e+00	5.344844e+05	
111	5.550000e+00	5.404584e+05	
112	5.600000e+00	5.463977e+05	

Index   v-sweep         rds             
--------------------------------------------------------------------------------
113	5.650000e+00	5.523027e+05	
114	5.700000e+00	5.581734e+05	
115	5.750000e+00	5.640104e+05	
116	5.800000e+00	5.698137e+05	
117	5.850000e+00	5.755837e+05	
118	5.900000e+00	5.813206e+05	
119	5.950000e+00	5.870248e+05	
120	6.000000e+00	5.926964e+05	
121	6.050000e+00	5.983357e+05	
122	6.100000e+00	6.039430e+05	
123	6.150000e+00	6.095185e+05	
124	6.200000e+00	6.150625e+05	
125	6.250000e+00	6.205753e+05	
126	6.300000e+00	6.260570e+05	
127	6.350000e+00	6.315080e+05	
128	6.400000e+00	6.369284e+05	
129	6.450000e+00	6.423185e+05	
130	6.500000e+00	6.476786e+05	
131	6.550000e+00	6.530088e+05	
132	6.600000e+00	6.583095e+05	
Reset re-loads circuit ***************************

Circuit: ***************************

Doing analysis at TEMP = 125.000000 and TNOM = 125.000000


No. of Data Rows : 133
                          ***************************
                          DC transfer characteristic  Mon Jan  9 13:57:43  2023
--------------------------------------------------------------------------------
Index   v-sweep         rds             
--------------------------------------------------------------------------------
0	0.000000e+00	8.495296e+03	
1	5.000000e-02	8.695820e+03	
2	1.000000e-01	8.902509e+03	
3	1.500000e-01	9.115644e+03	
4	2.000000e-01	9.335519e+03	
5	2.500000e-01	9.562452e+03	
6	3.000000e-01	9.796779e+03	
7	3.500000e-01	1.003886e+04	
8	4.000000e-01	1.028908e+04	
9	4.500000e-01	1.054784e+04	
10	5.000000e-01	1.081560e+04	
11	5.500000e-01	1.109283e+04	
12	6.000000e-01	1.138003e+04	
13	6.500000e-01	1.167775e+04	
14	7.000000e-01	1.198658e+04	
15	7.500000e-01	1.230717e+04	
16	8.000000e-01	1.264018e+04	
17	8.500000e-01	1.298637e+04	
18	9.000000e-01	1.334652e+04	
19	9.500000e-01	1.372151e+04	
20	1.000000e+00	1.411225e+04	
21	1.050000e+00	1.451977e+04	
22	1.100000e+00	1.494516e+04	
23	1.150000e+00	1.538961e+04	
24	1.200000e+00	1.585441e+04	
25	1.250000e+00	1.634098e+04	
26	1.300000e+00	1.685084e+04	
27	1.350000e+00	1.738569e+04	
28	1.400000e+00	1.794737e+04	
29	1.450000e+00	1.853791e+04	
30	1.500000e+00	1.915954e+04	
31	1.550000e+00	1.981473e+04	
32	1.600000e+00	2.050620e+04	
33	1.650000e+00	2.123700e+04	
34	1.700000e+00	2.201052e+04	
35	1.750000e+00	2.283054e+04	
36	1.800000e+00	2.370134e+04	
37	1.850000e+00	2.462776e+04	
38	1.900000e+00	2.561529e+04	
39	1.950000e+00	2.667026e+04	
40	2.000000e+00	2.779997e+04	
41	2.050000e+00	2.901299e+04	
42	2.100000e+00	3.031949e+04	
43	2.150000e+00	3.173180e+04	
44	2.200000e+00	3.326509e+04	
45	2.250000e+00	3.493859e+04	
46	2.300000e+00	3.677718e+04	
47	2.350000e+00	3.881371e+04	
48	2.400000e+00	4.109173e+04	
49	2.450000e+00	4.366782e+04	
50	2.500000e+00	4.661096e+04	
51	2.550000e+00	4.999515e+04	
52	2.600000e+00	5.388297e+04	
53	2.650000e+00	5.830463e+04	
54	2.700000e+00	6.324481e+04	

Index   v-sweep         rds             
--------------------------------------------------------------------------------
55	2.750000e+00	6.864661e+04	
56	2.800000e+00	7.442938e+04	
57	2.850000e+00	8.050829e+04	
58	2.900000e+00	8.680744e+04	
59	2.950000e+00	9.326497e+04	
60	3.000000e+00	9.983318e+04	
61	3.050000e+00	1.064763e+05	
62	3.100000e+00	1.131680e+05	
63	3.150000e+00	1.198887e+05	
64	3.200000e+00	1.266241e+05	
65	3.250000e+00	1.333635e+05	
66	3.300000e+00	1.400988e+05	
67	3.350000e+00	1.468239e+05	
68	3.400000e+00	1.535344e+05	
69	3.450000e+00	1.602265e+05	
70	3.500000e+00	1.668975e+05	
71	3.550000e+00	1.735454e+05	
72	3.600000e+00	1.801683e+05	
73	3.650000e+00	1.867650e+05	
74	3.700000e+00	1.933344e+05	
75	3.750000e+00	1.998758e+05	
76	3.800000e+00	2.063884e+05	
77	3.850000e+00	2.128718e+05	
78	3.900000e+00	2.193255e+05	
79	3.950000e+00	2.257493e+05	
80	4.000000e+00	2.321429e+05	
81	4.050000e+00	2.385062e+05	
82	4.100000e+00	2.448391e+05	
83	4.150000e+00	2.511415e+05	
84	4.200000e+00	2.574133e+05	
85	4.250000e+00	2.636546e+05	
86	4.300000e+00	2.698654e+05	
87	4.350000e+00	2.760457e+05	
88	4.400000e+00	2.821956e+05	
89	4.450000e+00	2.883152e+05	
90	4.500000e+00	2.944046e+05	
91	4.550000e+00	3.004638e+05	
92	4.600000e+00	3.064931e+05	
93	4.650000e+00	3.124924e+05	
94	4.700000e+00	3.184620e+05	
95	4.750000e+00	3.244020e+05	
96	4.800000e+00	3.303125e+05	
97	4.850000e+00	3.361937e+05	
98	4.900000e+00	3.420457e+05	
99	4.950000e+00	3.478687e+05	
100	5.000000e+00	3.536629e+05	
101	5.050000e+00	3.594283e+05	
102	5.100000e+00	3.651652e+05	
103	5.150000e+00	3.708737e+05	
104	5.200000e+00	3.765539e+05	
105	5.250000e+00	3.822062e+05	
106	5.300000e+00	3.878305e+05	
107	5.350000e+00	3.934271e+05	
108	5.400000e+00	3.989962e+05	
109	5.450000e+00	4.045379e+05	
110	5.500000e+00	4.100524e+05	
111	5.550000e+00	4.155399e+05	
112	5.600000e+00	4.210004e+05	

Index   v-sweep         rds             
--------------------------------------------------------------------------------
113	5.650000e+00	4.264343e+05	
114	5.700000e+00	4.318416e+05	
115	5.750000e+00	4.372226e+05	
116	5.800000e+00	4.425774e+05	
117	5.850000e+00	4.479061e+05	
118	5.900000e+00	4.532089e+05	
119	5.950000e+00	4.584861e+05	
120	6.000000e+00	4.637377e+05	
121	6.050000e+00	4.689639e+05	
122	6.100000e+00	4.741650e+05	
123	6.150000e+00	4.793409e+05	
124	6.200000e+00	4.844920e+05	
125	6.250000e+00	4.896184e+05	
126	6.300000e+00	4.947202e+05	
127	6.350000e+00	4.997976e+05	
128	6.400000e+00	5.048507e+05	
129	6.450000e+00	5.098798e+05	
130	6.500000e+00	5.148849e+05	
131	6.550000e+00	5.198663e+05	
132	6.600000e+00	5.248240e+05	
Reset re-loads circuit ***************************

Circuit: ***************************

Note: No ".plot", ".print", or ".fourier" lines; no simulations run
