
Note: Compatibility modes selected: hs

Warning: m=xx on .subckt line will override multiplier m hierarchy!


Circuit: ***************************

Doing analysis at TEMP = 25.000000 and TNOM = 25.000000


No. of Data Rows : 133
                          ***************************
                          DC transfer characteristic  Mon Jan  9 13:57:41  2023
--------------------------------------------------------------------------------
Index   v-sweep         rds             
--------------------------------------------------------------------------------
0	0.000000e+00	2.979044e+04	
1	5.000000e-02	3.705260e+04	
2	1.000000e-01	4.881390e+04	
3	1.500000e-01	7.066321e+04	
4	2.000000e-01	1.204413e+05	
5	2.500000e-01	2.628359e+05	
6	3.000000e-01	6.807140e+05	
7	3.500000e-01	1.600891e+06	
8	4.000000e-01	3.003588e+06	
9	4.500000e-01	4.618178e+06	
10	5.000000e-01	6.180659e+06	
11	5.500000e-01	7.558383e+06	
12	6.000000e-01	8.722081e+06	
13	6.500000e-01	9.690284e+06	
14	7.000000e-01	1.049528e+07	
15	7.500000e-01	1.116876e+07	
16	8.000000e-01	1.173737e+07	
17	8.500000e-01	1.222228e+07	
18	9.000000e-01	1.263993e+07	
19	9.500000e-01	1.300305e+07	
20	1.000000e+00	1.332149e+07	
21	1.050000e+00	1.360295e+07	
22	1.100000e+00	1.385351e+07	
23	1.150000e+00	1.407801e+07	
24	1.200000e+00	1.428033e+07	
25	1.250000e+00	1.446362e+07	
26	1.300000e+00	1.463048e+07	
27	1.350000e+00	1.478304e+07	
28	1.400000e+00	1.492308e+07	
29	1.450000e+00	1.505211e+07	
30	1.500000e+00	1.517137e+07	
31	1.550000e+00	1.528196e+07	
32	1.600000e+00	1.538479e+07	
33	1.650000e+00	1.548066e+07	
34	1.700000e+00	1.557026e+07	
35	1.750000e+00	1.565420e+07	
36	1.800000e+00	1.573299e+07	
37	1.850000e+00	1.580710e+07	
38	1.900000e+00	1.587694e+07	
39	1.950000e+00	1.594287e+07	
40	2.000000e+00	1.600521e+07	
41	2.050000e+00	1.606425e+07	
42	2.100000e+00	1.612024e+07	
43	2.150000e+00	1.617342e+07	
44	2.200000e+00	1.622398e+07	
45	2.250000e+00	1.627213e+07	
46	2.300000e+00	1.631803e+07	
47	2.350000e+00	1.636184e+07	
48	2.400000e+00	1.640369e+07	
49	2.450000e+00	1.644371e+07	
50	2.500000e+00	1.648202e+07	
51	2.550000e+00	1.651873e+07	
52	2.600000e+00	1.655394e+07	
53	2.650000e+00	1.658773e+07	
54	2.700000e+00	1.662019e+07	

Index   v-sweep         rds             
--------------------------------------------------------------------------------
55	2.750000e+00	1.665140e+07	
56	2.800000e+00	1.668142e+07	
57	2.850000e+00	1.671033e+07	
58	2.900000e+00	1.673819e+07	
59	2.950000e+00	1.676504e+07	
60	3.000000e+00	1.679095e+07	
61	3.050000e+00	1.681596e+07	
62	3.100000e+00	1.684011e+07	
63	3.150000e+00	1.686346e+07	
64	3.200000e+00	1.688604e+07	
65	3.250000e+00	1.690789e+07	
66	3.300000e+00	1.692903e+07	
67	3.350000e+00	1.694952e+07	
68	3.400000e+00	1.696936e+07	
69	3.450000e+00	1.698861e+07	
70	3.500000e+00	1.700727e+07	
71	3.550000e+00	1.702538e+07	
72	3.600000e+00	1.704296e+07	
73	3.650000e+00	1.706004e+07	
74	3.700000e+00	1.707663e+07	
75	3.750000e+00	1.709275e+07	
76	3.800000e+00	1.710843e+07	
77	3.850000e+00	1.712368e+07	
78	3.900000e+00	1.713853e+07	
79	3.950000e+00	1.715297e+07	
80	4.000000e+00	1.716704e+07	
81	4.050000e+00	1.718074e+07	
82	4.100000e+00	1.719409e+07	
83	4.150000e+00	1.720711e+07	
84	4.200000e+00	1.721980e+07	
85	4.250000e+00	1.723217e+07	
86	4.300000e+00	1.724424e+07	
87	4.350000e+00	1.725603e+07	
88	4.400000e+00	1.726753e+07	
89	4.450000e+00	1.727876e+07	
90	4.500000e+00	1.728973e+07	
91	4.550000e+00	1.730044e+07	
92	4.600000e+00	1.731091e+07	
93	4.650000e+00	1.732115e+07	
94	4.700000e+00	1.733115e+07	
95	4.750000e+00	1.734094e+07	
96	4.800000e+00	1.735051e+07	
97	4.850000e+00	1.735987e+07	
98	4.900000e+00	1.736904e+07	
99	4.950000e+00	1.737801e+07	
100	5.000000e+00	1.738679e+07	
101	5.050000e+00	1.739538e+07	
102	5.100000e+00	1.740381e+07	
103	5.150000e+00	1.741206e+07	
104	5.200000e+00	1.742014e+07	
105	5.250000e+00	1.742806e+07	
106	5.300000e+00	1.743582e+07	
107	5.350000e+00	1.744344e+07	
108	5.400000e+00	1.745090e+07	
109	5.450000e+00	1.745822e+07	
110	5.500000e+00	1.746540e+07	
111	5.550000e+00	1.747245e+07	
112	5.600000e+00	1.747936e+07	

Index   v-sweep         rds             
--------------------------------------------------------------------------------
113	5.650000e+00	1.748614e+07	
114	5.700000e+00	1.749280e+07	
115	5.750000e+00	1.749934e+07	
116	5.800000e+00	1.750575e+07	
117	5.850000e+00	1.751206e+07	
118	5.900000e+00	1.751825e+07	
119	5.950000e+00	1.752433e+07	
120	6.000000e+00	1.753030e+07	
121	6.050000e+00	1.753617e+07	
122	6.100000e+00	1.754194e+07	
123	6.150000e+00	1.754761e+07	
124	6.200000e+00	1.755319e+07	
125	6.250000e+00	1.755867e+07	
126	6.300000e+00	1.756405e+07	
127	6.350000e+00	1.756935e+07	
128	6.400000e+00	1.757456e+07	
129	6.450000e+00	1.757969e+07	
130	6.500000e+00	1.758473e+07	
131	6.550000e+00	1.758970e+07	
132	6.600000e+00	1.759458e+07	
Reset re-loads circuit ***************************

Circuit: ***************************

Doing analysis at TEMP = 25.000000 and TNOM = 25.000000


No. of Data Rows : 133
                          ***************************
                          DC transfer characteristic  Mon Jan  9 13:57:41  2023
--------------------------------------------------------------------------------
Index   v-sweep         rds             
--------------------------------------------------------------------------------
0	0.000000e+00	7.403735e+03	
1	5.000000e-02	7.813181e+03	
2	1.000000e-01	8.268016e+03	
3	1.500000e-01	8.776218e+03	
4	2.000000e-01	9.347752e+03	
5	2.500000e-01	9.995218e+03	
6	3.000000e-01	1.073479e+04	
7	3.500000e-01	1.158756e+04	
8	4.000000e-01	1.258158e+04	
9	4.500000e-01	1.375491e+04	
10	5.000000e-01	1.516049e+04	
11	5.500000e-01	1.687411e+04	
12	6.000000e-01	1.900779e+04	
13	6.500000e-01	2.173359e+04	
14	7.000000e-01	2.532745e+04	
15	7.500000e-01	3.025372e+04	
16	8.000000e-01	3.733296e+04	
17	8.500000e-01	4.807249e+04	
18	9.000000e-01	6.525488e+04	
19	9.500000e-01	9.366915e+04	
20	1.000000e+00	1.400853e+05	
21	1.050000e+00	2.110225e+05	
22	1.100000e+00	3.090804e+05	
23	1.150000e+00	4.313969e+05	
24	1.200000e+00	5.714549e+05	
25	1.250000e+00	7.219086e+05	
26	1.300000e+00	8.764312e+05	
27	1.350000e+00	1.030343e+06	
28	1.400000e+00	1.180526e+06	
29	1.450000e+00	1.325091e+06	
30	1.500000e+00	1.463014e+06	
31	1.550000e+00	1.593857e+06	
32	1.600000e+00	1.717551e+06	
33	1.650000e+00	1.834253e+06	
34	1.700000e+00	1.944254e+06	
35	1.750000e+00	2.047912e+06	
36	1.800000e+00	2.145613e+06	
37	1.850000e+00	2.237752e+06	
38	1.900000e+00	2.324713e+06	
39	1.950000e+00	2.406862e+06	
40	2.000000e+00	2.484545e+06	
41	2.050000e+00	2.558084e+06	
42	2.100000e+00	2.627776e+06	
43	2.150000e+00	2.693896e+06	
44	2.200000e+00	2.756697e+06	
45	2.250000e+00	2.816409e+06	
46	2.300000e+00	2.873247e+06	
47	2.350000e+00	2.927404e+06	
48	2.400000e+00	2.979061e+06	
49	2.450000e+00	3.028381e+06	
50	2.500000e+00	3.075515e+06	
51	2.550000e+00	3.120602e+06	
52	2.600000e+00	3.163771e+06	
53	2.650000e+00	3.205137e+06	
54	2.700000e+00	3.244810e+06	

Index   v-sweep         rds             
--------------------------------------------------------------------------------
55	2.750000e+00	3.282891e+06	
56	2.800000e+00	3.319471e+06	
57	2.850000e+00	3.354637e+06	
58	2.900000e+00	3.388467e+06	
59	2.950000e+00	3.421036e+06	
60	3.000000e+00	3.452413e+06	
61	3.050000e+00	3.482660e+06	
62	3.100000e+00	3.511837e+06	
63	3.150000e+00	3.539999e+06	
64	3.200000e+00	3.567199e+06	
65	3.250000e+00	3.593483e+06	
66	3.300000e+00	3.618897e+06	
67	3.350000e+00	3.643484e+06	
68	3.400000e+00	3.667282e+06	
69	3.450000e+00	3.690329e+06	
70	3.500000e+00	3.712660e+06	
71	3.550000e+00	3.734306e+06	
72	3.600000e+00	3.755300e+06	
73	3.650000e+00	3.775670e+06	
74	3.700000e+00	3.795442e+06	
75	3.750000e+00	3.814643e+06	
76	3.800000e+00	3.833298e+06	
77	3.850000e+00	3.851428e+06	
78	3.900000e+00	3.869056e+06	
79	3.950000e+00	3.886202e+06	
80	4.000000e+00	3.902885e+06	
81	4.050000e+00	3.919125e+06	
82	4.100000e+00	3.934937e+06	
83	4.150000e+00	3.950339e+06	
84	4.200000e+00	3.965347e+06	
85	4.250000e+00	3.979975e+06	
86	4.300000e+00	3.994237e+06	
87	4.350000e+00	4.008147e+06	
88	4.400000e+00	4.021718e+06	
89	4.450000e+00	4.034962e+06	
90	4.500000e+00	4.047890e+06	
91	4.550000e+00	4.060514e+06	
92	4.600000e+00	4.072844e+06	
93	4.650000e+00	4.084890e+06	
94	4.700000e+00	4.096663e+06	
95	4.750000e+00	4.108170e+06	
96	4.800000e+00	4.119421e+06	
97	4.850000e+00	4.130425e+06	
98	4.900000e+00	4.141189e+06	
99	4.950000e+00	4.151721e+06	
100	5.000000e+00	4.162028e+06	
101	5.050000e+00	4.172118e+06	
102	5.100000e+00	4.181997e+06	
103	5.150000e+00	4.191671e+06	
104	5.200000e+00	4.201148e+06	
105	5.250000e+00	4.210433e+06	
106	5.300000e+00	4.219531e+06	
107	5.350000e+00	4.228449e+06	
108	5.400000e+00	4.237191e+06	
109	5.450000e+00	4.245763e+06	
110	5.500000e+00	4.254170e+06	
111	5.550000e+00	4.262415e+06	
112	5.600000e+00	4.270505e+06	

Index   v-sweep         rds             
--------------------------------------------------------------------------------
113	5.650000e+00	4.278442e+06	
114	5.700000e+00	4.286232e+06	
115	5.750000e+00	4.293879e+06	
116	5.800000e+00	4.301385e+06	
117	5.850000e+00	4.308756e+06	
118	5.900000e+00	4.315995e+06	
119	5.950000e+00	4.323105e+06	
120	6.000000e+00	4.330089e+06	
121	6.050000e+00	4.336952e+06	
122	6.100000e+00	4.343695e+06	
123	6.150000e+00	4.350323e+06	
124	6.200000e+00	4.356837e+06	
125	6.250000e+00	4.363242e+06	
126	6.300000e+00	4.369539e+06	
127	6.350000e+00	4.375731e+06	
128	6.400000e+00	4.381821e+06	
129	6.450000e+00	4.387812e+06	
130	6.500000e+00	4.393705e+06	
131	6.550000e+00	4.399504e+06	
132	6.600000e+00	4.405210e+06	
Reset re-loads circuit ***************************

Circuit: ***************************

Doing analysis at TEMP = 25.000000 and TNOM = 25.000000


No. of Data Rows : 133
                          ***************************
                          DC transfer characteristic  Mon Jan  9 13:57:42  2023
--------------------------------------------------------------------------------
Index   v-sweep         rds             
--------------------------------------------------------------------------------
0	0.000000e+00	4.539501e+03	
1	5.000000e-02	4.683936e+03	
2	1.000000e-01	4.837014e+03	
3	1.500000e-01	4.999536e+03	
4	2.000000e-01	5.172401e+03	
5	2.500000e-01	5.356628e+03	
6	3.000000e-01	5.553376e+03	
7	3.500000e-01	5.763964e+03	
8	4.000000e-01	5.989905e+03	
9	4.500000e-01	6.232939e+03	
10	5.000000e-01	6.495082e+03	
11	5.500000e-01	6.778678e+03	
12	6.000000e-01	7.086471e+03	
13	6.500000e-01	7.421694e+03	
14	7.000000e-01	7.788182e+03	
15	7.500000e-01	8.190521e+03	
16	8.000000e-01	8.634238e+03	
17	8.500000e-01	9.126058e+03	
18	9.000000e-01	9.674243e+03	
19	9.500000e-01	1.028906e+04	
20	1.000000e+00	1.098343e+04	
21	1.050000e+00	1.177382e+04	
22	1.100000e+00	1.268156e+04	
23	1.150000e+00	1.373476e+04	
24	1.200000e+00	1.497118e+04	
25	1.250000e+00	1.644260e+04	
26	1.300000e+00	1.822184e+04	
27	1.350000e+00	2.041389e+04	
28	1.400000e+00	2.317430e+04	
29	1.450000e+00	2.673951e+04	
30	1.500000e+00	3.147587e+04	
31	1.550000e+00	3.795346e+04	
32	1.600000e+00	4.703736e+04	
33	1.650000e+00	5.994685e+04	
34	1.700000e+00	7.816895e+04	
35	1.750000e+00	1.031247e+05	
36	1.800000e+00	1.356893e+05	
37	1.850000e+00	1.758800e+05	
38	1.900000e+00	2.229123e+05	
39	1.950000e+00	2.755102e+05	
40	2.000000e+00	3.322425e+05	
41	2.050000e+00	3.917551e+05	
42	2.100000e+00	4.528851e+05	
43	2.150000e+00	5.146937e+05	
44	2.200000e+00	5.764535e+05	
45	2.250000e+00	6.376193e+05	
46	2.300000e+00	6.977938e+05	
47	2.350000e+00	7.566964e+05	
48	2.400000e+00	8.141359e+05	
49	2.450000e+00	8.699895e+05	
50	2.500000e+00	9.241855e+05	
51	2.550000e+00	9.766902e+05	
52	2.600000e+00	1.027498e+06	
53	2.650000e+00	1.076623e+06	
54	2.700000e+00	1.124095e+06	

Index   v-sweep         rds             
--------------------------------------------------------------------------------
55	2.750000e+00	1.169953e+06	
56	2.800000e+00	1.214244e+06	
57	2.850000e+00	1.257018e+06	
58	2.900000e+00	1.298328e+06	
59	2.950000e+00	1.338230e+06	
60	3.000000e+00	1.376777e+06	
61	3.050000e+00	1.414025e+06	
62	3.100000e+00	1.450027e+06	
63	3.150000e+00	1.484835e+06	
64	3.200000e+00	1.518498e+06	
65	3.250000e+00	1.551067e+06	
66	3.300000e+00	1.582587e+06	
67	3.350000e+00	1.613104e+06	
68	3.400000e+00	1.642659e+06	
69	3.450000e+00	1.671295e+06	
70	3.500000e+00	1.699050e+06	
71	3.550000e+00	1.725961e+06	
72	3.600000e+00	1.752063e+06	
73	3.650000e+00	1.777391e+06	
74	3.700000e+00	1.801976e+06	
75	3.750000e+00	1.825849e+06	
76	3.800000e+00	1.849038e+06	
77	3.850000e+00	1.871572e+06	
78	3.900000e+00	1.893476e+06	
79	3.950000e+00	1.914776e+06	
80	4.000000e+00	1.935496e+06	
81	4.050000e+00	1.955657e+06	
82	4.100000e+00	1.975281e+06	
83	4.150000e+00	1.994389e+06	
84	4.200000e+00	2.013000e+06	
85	4.250000e+00	2.031133e+06	
86	4.300000e+00	2.048805e+06	
87	4.350000e+00	2.066034e+06	
88	4.400000e+00	2.082835e+06	
89	4.450000e+00	2.099223e+06	
90	4.500000e+00	2.115214e+06	
91	4.550000e+00	2.130821e+06	
92	4.600000e+00	2.146058e+06	
93	4.650000e+00	2.160938e+06	
94	4.700000e+00	2.175472e+06	
95	4.750000e+00	2.189672e+06	
96	4.800000e+00	2.203549e+06	
97	4.850000e+00	2.217115e+06	
98	4.900000e+00	2.230379e+06	
99	4.950000e+00	2.243351e+06	
100	5.000000e+00	2.256040e+06	
101	5.050000e+00	2.268456e+06	
102	5.100000e+00	2.280607e+06	
103	5.150000e+00	2.292501e+06	
104	5.200000e+00	2.304146e+06	
105	5.250000e+00	2.315551e+06	
106	5.300000e+00	2.326721e+06	
107	5.350000e+00	2.337665e+06	
108	5.400000e+00	2.348388e+06	
109	5.450000e+00	2.358898e+06	
110	5.500000e+00	2.369201e+06	
111	5.550000e+00	2.379302e+06	
112	5.600000e+00	2.389207e+06	

Index   v-sweep         rds             
--------------------------------------------------------------------------------
113	5.650000e+00	2.398923e+06	
114	5.700000e+00	2.408454e+06	
115	5.750000e+00	2.417805e+06	
116	5.800000e+00	2.426982e+06	
117	5.850000e+00	2.435989e+06	
118	5.900000e+00	2.444831e+06	
119	5.950000e+00	2.453513e+06	
120	6.000000e+00	2.462038e+06	
121	6.050000e+00	2.470410e+06	
122	6.100000e+00	2.478635e+06	
123	6.150000e+00	2.486715e+06	
124	6.200000e+00	2.494654e+06	
125	6.250000e+00	2.502456e+06	
126	6.300000e+00	2.510125e+06	
127	6.350000e+00	2.517664e+06	
128	6.400000e+00	2.525075e+06	
129	6.450000e+00	2.532363e+06	
130	6.500000e+00	2.539530e+06	
131	6.550000e+00	2.546580e+06	
132	6.600000e+00	2.553514e+06	
Reset re-loads circuit ***************************

Circuit: ***************************

Doing analysis at TEMP = 25.000000 and TNOM = 25.000000


No. of Data Rows : 133
                          ***************************
                          DC transfer characteristic  Mon Jan  9 13:57:42  2023
--------------------------------------------------------------------------------
Index   v-sweep         rds             
--------------------------------------------------------------------------------
0	0.000000e+00	3.473531e+03	
1	5.000000e-02	3.551511e+03	
2	1.000000e-01	3.632644e+03	
3	1.500000e-01	3.717125e+03	
4	2.000000e-01	3.805167e+03	
5	2.500000e-01	3.896998e+03	
6	3.000000e-01	3.992868e+03	
7	3.500000e-01	4.093050e+03	
8	4.000000e-01	4.197840e+03	
9	4.500000e-01	4.307563e+03	
10	5.000000e-01	4.422575e+03	
11	5.500000e-01	4.543269e+03	
12	6.000000e-01	4.670076e+03	
13	6.500000e-01	4.803470e+03	
14	7.000000e-01	4.943980e+03	
15	7.500000e-01	5.092190e+03	
16	8.000000e-01	5.248750e+03	
17	8.500000e-01	5.414386e+03	
18	9.000000e-01	5.589910e+03	
19	9.500000e-01	5.776236e+03	
20	1.000000e+00	5.974391e+03	
21	1.050000e+00	6.185540e+03	
22	1.100000e+00	6.411004e+03	
23	1.150000e+00	6.652292e+03	
24	1.200000e+00	6.911131e+03	
25	1.250000e+00	7.189509e+03	
26	1.300000e+00	7.489731e+03	
27	1.350000e+00	7.814475e+03	
28	1.400000e+00	8.166881e+03	
29	1.450000e+00	8.550647e+03	
30	1.500000e+00	8.970168e+03	
31	1.550000e+00	9.430701e+03	
32	1.600000e+00	9.938590e+03	
33	1.650000e+00	1.050157e+04	
34	1.700000e+00	1.112916e+04	
35	1.750000e+00	1.183321e+04	
36	1.800000e+00	1.262869e+04	
37	1.850000e+00	1.353472e+04	
38	1.900000e+00	1.457617e+04	
39	1.950000e+00	1.578588e+04	
40	2.000000e+00	1.720808e+04	
41	2.050000e+00	1.890340e+04	
42	2.100000e+00	2.095659e+04	
43	2.150000e+00	2.348800e+04	
44	2.200000e+00	2.667022e+04	
45	2.250000e+00	3.075033e+04	
46	2.300000e+00	3.607424e+04	
47	2.350000e+00	4.310139e+04	
48	2.400000e+00	5.238675e+04	
49	2.450000e+00	6.450744e+04	
50	2.500000e+00	7.993993e+04	
51	2.550000e+00	9.893971e+04	
52	2.600000e+00	1.214866e+05	
53	2.650000e+00	1.473147e+05	
54	2.700000e+00	1.759942e+05	

Index   v-sweep         rds             
--------------------------------------------------------------------------------
55	2.750000e+00	2.070201e+05	
56	2.800000e+00	2.398814e+05	
57	2.850000e+00	2.741031e+05	
58	2.900000e+00	3.092670e+05	
59	2.950000e+00	3.450174e+05	
60	3.000000e+00	3.810595e+05	
61	3.050000e+00	4.171532e+05	
62	3.100000e+00	4.531062e+05	
63	3.150000e+00	4.887661e+05	
64	3.200000e+00	5.240138e+05	
65	3.250000e+00	5.587576e+05	
66	3.300000e+00	5.929282e+05	
67	3.350000e+00	6.264741e+05	
68	3.400000e+00	6.593587e+05	
69	3.450000e+00	6.915570e+05	
70	3.500000e+00	7.230535e+05	
71	3.550000e+00	7.538400e+05	
72	3.600000e+00	7.839144e+05	
73	3.650000e+00	8.132794e+05	
74	3.700000e+00	8.419414e+05	
75	3.750000e+00	8.699095e+05	
76	3.800000e+00	8.971952e+05	
77	3.850000e+00	9.238115e+05	
78	3.900000e+00	9.497730e+05	
79	3.950000e+00	9.750948e+05	
80	4.000000e+00	9.997928e+05	
81	4.050000e+00	1.023883e+06	
82	4.100000e+00	1.047383e+06	
83	4.150000e+00	1.070307e+06	
84	4.200000e+00	1.092674e+06	
85	4.250000e+00	1.114499e+06	
86	4.300000e+00	1.135798e+06	
87	4.350000e+00	1.156587e+06	
88	4.400000e+00	1.176881e+06	
89	4.450000e+00	1.196695e+06	
90	4.500000e+00	1.216045e+06	
91	4.550000e+00	1.234943e+06	
92	4.600000e+00	1.253405e+06	
93	4.650000e+00	1.271443e+06	
94	4.700000e+00	1.289071e+06	
95	4.750000e+00	1.306301e+06	
96	4.800000e+00	1.323146e+06	
97	4.850000e+00	1.339616e+06	
98	4.900000e+00	1.355724e+06	
99	4.950000e+00	1.371480e+06	
100	5.000000e+00	1.386896e+06	
101	5.050000e+00	1.401980e+06	
102	5.100000e+00	1.416744e+06	
103	5.150000e+00	1.431197e+06	
104	5.200000e+00	1.445347e+06	
105	5.250000e+00	1.459205e+06	
106	5.300000e+00	1.472777e+06	
107	5.350000e+00	1.486074e+06	
108	5.400000e+00	1.499102e+06	
109	5.450000e+00	1.511869e+06	
110	5.500000e+00	1.524383e+06	
111	5.550000e+00	1.536650e+06	
112	5.600000e+00	1.548679e+06	

Index   v-sweep         rds             
--------------------------------------------------------------------------------
113	5.650000e+00	1.560475e+06	
114	5.700000e+00	1.572045e+06	
115	5.750000e+00	1.583395e+06	
116	5.800000e+00	1.594531e+06	
117	5.850000e+00	1.605458e+06	
118	5.900000e+00	1.616184e+06	
119	5.950000e+00	1.626712e+06	
120	6.000000e+00	1.637048e+06	
121	6.050000e+00	1.647198e+06	
122	6.100000e+00	1.657166e+06	
123	6.150000e+00	1.666956e+06	
124	6.200000e+00	1.676574e+06	
125	6.250000e+00	1.686023e+06	
126	6.300000e+00	1.695308e+06	
127	6.350000e+00	1.704434e+06	
128	6.400000e+00	1.713404e+06	
129	6.450000e+00	1.722222e+06	
130	6.500000e+00	1.730891e+06	
131	6.550000e+00	1.739416e+06	
132	6.600000e+00	1.747800e+06	
Reset re-loads circuit ***************************

Circuit: ***************************

Doing analysis at TEMP = 25.000000 and TNOM = 25.000000


No. of Data Rows : 133
                          ***************************
                          DC transfer characteristic  Mon Jan  9 13:57:42  2023
--------------------------------------------------------------------------------
Index   v-sweep         rds             
--------------------------------------------------------------------------------
0	0.000000e+00	2.954612e+03	
1	5.000000e-02	3.005705e+03	
2	1.000000e-01	3.058339e+03	
3	1.500000e-01	3.112585e+03	
4	2.000000e-01	3.168517e+03	
5	2.500000e-01	3.226215e+03	
6	3.000000e-01	3.285764e+03	
7	3.500000e-01	3.347254e+03	
8	4.000000e-01	3.410782e+03	
9	4.500000e-01	3.476450e+03	
10	5.000000e-01	3.544368e+03	
11	5.500000e-01	3.614653e+03	
12	6.000000e-01	3.687432e+03	
13	6.500000e-01	3.762838e+03	
14	7.000000e-01	3.841018e+03	
15	7.500000e-01	3.922125e+03	
16	8.000000e-01	4.006328e+03	
17	8.500000e-01	4.093808e+03	
18	9.000000e-01	4.184758e+03	
19	9.500000e-01	4.279390e+03	
20	1.000000e+00	4.377930e+03	
21	1.050000e+00	4.480628e+03	
22	1.100000e+00	4.587750e+03	
23	1.150000e+00	4.699589e+03	
24	1.200000e+00	4.816464e+03	
25	1.250000e+00	4.938722e+03	
26	1.300000e+00	5.066743e+03	
27	1.350000e+00	5.200947e+03	
28	1.400000e+00	5.341790e+03	
29	1.450000e+00	5.489779e+03	
30	1.500000e+00	5.645473e+03	
31	1.550000e+00	5.809489e+03	
32	1.600000e+00	5.982513e+03	
33	1.650000e+00	6.165312e+03	
34	1.700000e+00	6.358737e+03	
35	1.750000e+00	6.563745e+03	
36	1.800000e+00	6.781413e+03	
37	1.850000e+00	7.012953e+03	
38	1.900000e+00	7.259741e+03	
39	1.950000e+00	7.523340e+03	
40	2.000000e+00	7.805539e+03	
41	2.050000e+00	8.108388e+03	
42	2.100000e+00	8.434256e+03	
43	2.150000e+00	8.785893e+03	
44	2.200000e+00	9.166509e+03	
45	2.250000e+00	9.579878e+03	
46	2.300000e+00	1.003047e+04	
47	2.350000e+00	1.052362e+04	
48	2.400000e+00	1.106574e+04	
49	2.450000e+00	1.166466e+04	
50	2.500000e+00	1.232996e+04	
51	2.550000e+00	1.307357e+04	
52	2.600000e+00	1.391051e+04	
53	2.650000e+00	1.485996e+04	
54	2.700000e+00	1.594674e+04	

Index   v-sweep         rds             
--------------------------------------------------------------------------------
55	2.750000e+00	1.720354e+04	
56	2.800000e+00	1.867397e+04	
57	2.850000e+00	2.041706e+04	
58	2.900000e+00	2.251341e+04	
59	2.950000e+00	2.507342e+04	
60	3.000000e+00	2.824680e+04	
61	3.050000e+00	3.223131e+04	
62	3.100000e+00	3.727530e+04	
63	3.150000e+00	4.366626e+04	
64	3.200000e+00	5.169934e+04	
65	3.250000e+00	6.162921e+04	
66	3.300000e+00	7.362132e+04	
67	3.350000e+00	8.772307e+04	
68	3.400000e+00	1.038645e+05	
69	3.450000e+00	1.218826e+05	
70	3.500000e+00	1.415557e+05	
71	3.550000e+00	1.626356e+05	
72	3.600000e+00	1.848720e+05	
73	3.650000e+00	2.080279e+05	
74	3.700000e+00	2.318882e+05	
75	3.750000e+00	2.562632e+05	
76	3.800000e+00	2.809887e+05	
77	3.850000e+00	3.059249e+05	
78	3.900000e+00	3.309537e+05	
79	3.950000e+00	3.559766e+05	
80	4.000000e+00	3.809118e+05	
81	4.050000e+00	4.056921e+05	
82	4.100000e+00	4.302624e+05	
83	4.150000e+00	4.545781e+05	
84	4.200000e+00	4.786035e+05	
85	4.250000e+00	5.023102e+05	
86	4.300000e+00	5.256760e+05	
87	4.350000e+00	5.486840e+05	
88	4.400000e+00	5.713214e+05	
89	4.450000e+00	5.935795e+05	
90	4.500000e+00	6.154522e+05	
91	4.550000e+00	6.369361e+05	
92	4.600000e+00	6.580299e+05	
93	4.650000e+00	6.787341e+05	
94	4.700000e+00	6.990506e+05	
95	4.750000e+00	7.189824e+05	
96	4.800000e+00	7.385336e+05	
97	4.850000e+00	7.577088e+05	
98	4.900000e+00	7.765136e+05	
99	4.950000e+00	7.949539e+05	
100	5.000000e+00	8.130360e+05	
101	5.050000e+00	8.307665e+05	
102	5.100000e+00	8.481522e+05	
103	5.150000e+00	8.652001e+05	
104	5.200000e+00	8.819172e+05	
105	5.250000e+00	8.983108e+05	
106	5.300000e+00	9.143879e+05	
107	5.350000e+00	9.301556e+05	
108	5.400000e+00	9.456211e+05	
109	5.450000e+00	9.607913e+05	
110	5.500000e+00	9.756731e+05	
111	5.550000e+00	9.902734e+05	
112	5.600000e+00	1.004599e+06	

Index   v-sweep         rds             
--------------------------------------------------------------------------------
113	5.650000e+00	1.018656e+06	
114	5.700000e+00	1.032452e+06	
115	5.750000e+00	1.045992e+06	
116	5.800000e+00	1.059283e+06	
117	5.850000e+00	1.072330e+06	
118	5.900000e+00	1.085141e+06	
119	5.950000e+00	1.097719e+06	
120	6.000000e+00	1.110072e+06	
121	6.050000e+00	1.122205e+06	
122	6.100000e+00	1.134122e+06	
123	6.150000e+00	1.145830e+06	
124	6.200000e+00	1.157332e+06	
125	6.250000e+00	1.168635e+06	
126	6.300000e+00	1.179743e+06	
127	6.350000e+00	1.190660e+06	
128	6.400000e+00	1.201391e+06	
129	6.450000e+00	1.211941e+06	
130	6.500000e+00	1.222314e+06	
131	6.550000e+00	1.232513e+06	
132	6.600000e+00	1.242544e+06	
Reset re-loads circuit ***************************

Circuit: ***************************

Doing analysis at TEMP = 25.000000 and TNOM = 25.000000


No. of Data Rows : 133
                          ***************************
                          DC transfer characteristic  Mon Jan  9 13:57:42  2023
--------------------------------------------------------------------------------
Index   v-sweep         rds             
--------------------------------------------------------------------------------
0	0.000000e+00	2.673795e+03	
1	5.000000e-02	2.711132e+03	
2	1.000000e-01	2.749356e+03	
3	1.500000e-01	2.788499e+03	
4	2.000000e-01	2.828594e+03	
5	2.500000e-01	2.869676e+03	
6	3.000000e-01	2.911783e+03	
7	3.500000e-01	2.954952e+03	
8	4.000000e-01	2.999224e+03	
9	4.500000e-01	3.044643e+03	
10	5.000000e-01	3.091252e+03	
11	5.500000e-01	3.139100e+03	
12	6.000000e-01	3.188236e+03	
13	6.500000e-01	3.238713e+03	
14	7.000000e-01	3.290585e+03	
15	7.500000e-01	3.343913e+03	
16	8.000000e-01	3.398758e+03	
17	8.500000e-01	3.455184e+03	
18	9.000000e-01	3.513263e+03	
19	9.500000e-01	3.573066e+03	
20	1.000000e+00	3.634672e+03	
21	1.050000e+00	3.698163e+03	
22	1.100000e+00	3.763628e+03	
23	1.150000e+00	3.831159e+03	
24	1.200000e+00	3.900856e+03	
25	1.250000e+00	3.972825e+03	
26	1.300000e+00	4.047177e+03	
27	1.350000e+00	4.124034e+03	
28	1.400000e+00	4.203525e+03	
29	1.450000e+00	4.285786e+03	
30	1.500000e+00	4.370964e+03	
31	1.550000e+00	4.459219e+03	
32	1.600000e+00	4.550719e+03	
33	1.650000e+00	4.645647e+03	
34	1.700000e+00	4.744199e+03	
35	1.750000e+00	4.846586e+03	
36	1.800000e+00	4.953037e+03	
37	1.850000e+00	5.063800e+03	
38	1.900000e+00	5.179140e+03	
39	1.950000e+00	5.299349e+03	
40	2.000000e+00	5.424742e+03	
41	2.050000e+00	5.555661e+03	
42	2.100000e+00	5.692481e+03	
43	2.150000e+00	5.835611e+03	
44	2.200000e+00	5.985499e+03	
45	2.250000e+00	6.142636e+03	
46	2.300000e+00	6.307563e+03	
47	2.350000e+00	6.480876e+03	
48	2.400000e+00	6.663234e+03	
49	2.450000e+00	6.855367e+03	
50	2.500000e+00	7.058088e+03	
51	2.550000e+00	7.272302e+03	
52	2.600000e+00	7.499022e+03	
53	2.650000e+00	7.739386e+03	
54	2.700000e+00	7.994675e+03	

Index   v-sweep         rds             
--------------------------------------------------------------------------------
55	2.750000e+00	8.266339e+03	
56	2.800000e+00	8.556026e+03	
57	2.850000e+00	8.865615e+03	
58	2.900000e+00	9.197265e+03	
59	2.950000e+00	9.553464e+03	
60	3.000000e+00	9.937100e+03	
61	3.050000e+00	1.035155e+04	
62	3.100000e+00	1.080077e+04	
63	3.150000e+00	1.128948e+04	
64	3.200000e+00	1.182330e+04	
65	3.250000e+00	1.240903e+04	
66	3.300000e+00	1.305494e+04	
67	3.350000e+00	1.377127e+04	
68	3.400000e+00	1.457076e+04	
69	3.450000e+00	1.546957e+04	
70	3.500000e+00	1.648833e+04	
71	3.550000e+00	1.765387e+04	
72	3.600000e+00	1.900131e+04	
73	3.650000e+00	2.057714e+04	
74	3.700000e+00	2.244301e+04	
75	3.750000e+00	2.468033e+04	
76	3.800000e+00	2.739487e+04	
77	3.850000e+00	3.071974e+04	
78	3.900000e+00	3.481404e+04	
79	3.950000e+00	3.985399e+04	
80	4.000000e+00	4.601512e+04	
81	4.050000e+00	5.344816e+04	
82	4.100000e+00	6.225584e+04	
83	4.150000e+00	7.247854e+04	
84	4.200000e+00	8.409282e+04	
85	4.250000e+00	9.702116e+04	
86	4.300000e+00	1.111476e+05	
87	4.350000e+00	1.263338e+05	
88	4.400000e+00	1.424334e+05	
89	4.450000e+00	1.593010e+05	
90	4.500000e+00	1.767994e+05	
91	4.550000e+00	1.948028e+05	
92	4.600000e+00	2.131981e+05	
93	4.650000e+00	2.318856e+05	
94	4.700000e+00	2.507781e+05	
95	4.750000e+00	2.698003e+05	
96	4.800000e+00	2.888873e+05	
97	4.850000e+00	3.079836e+05	
98	4.900000e+00	3.270422e+05	
99	4.950000e+00	3.460231e+05	
100	5.000000e+00	3.648926e+05	
101	5.050000e+00	3.836226e+05	
102	5.100000e+00	4.021896e+05	
103	5.150000e+00	4.205740e+05	
104	5.200000e+00	4.387600e+05	
105	5.250000e+00	4.567344e+05	
106	5.300000e+00	4.744868e+05	
107	5.350000e+00	4.920091e+05	
108	5.400000e+00	5.092947e+05	
109	5.450000e+00	5.263391e+05	
110	5.500000e+00	5.431389e+05	
111	5.550000e+00	5.596918e+05	
112	5.600000e+00	5.759968e+05	

Index   v-sweep         rds             
--------------------------------------------------------------------------------
113	5.650000e+00	5.920535e+05	
114	5.700000e+00	6.078624e+05	
115	5.750000e+00	6.234246e+05	
116	5.800000e+00	6.387416e+05	
117	5.850000e+00	6.538155e+05	
118	5.900000e+00	6.686487e+05	
119	5.950000e+00	6.832439e+05	
120	6.000000e+00	6.976042e+05	
121	6.050000e+00	7.117325e+05	
122	6.100000e+00	7.256325e+05	
123	6.150000e+00	7.393074e+05	
124	6.200000e+00	7.527609e+05	
125	6.250000e+00	7.659968e+05	
126	6.300000e+00	7.790186e+05	
127	6.350000e+00	7.918302e+05	
128	6.400000e+00	8.044354e+05	
129	6.450000e+00	8.168379e+05	
130	6.500000e+00	8.290416e+05	
131	6.550000e+00	8.410502e+05	
132	6.600000e+00	8.528675e+05	
Reset re-loads circuit ***************************

Circuit: ***************************

Note: No ".plot", ".print", or ".fourier" lines; no simulations run
