
Note: Compatibility modes selected: hs

Warning: m=xx on .subckt line will override multiplier m hierarchy!


Circuit: ***************************

Doing analysis at TEMP = -40.000000 and TNOM = -40.000000


No. of Data Rows : 133
                          ***************************
                          DC transfer characteristic  Mon Jan  9 13:57:42  2023
--------------------------------------------------------------------------------
Index   v-sweep         rds             
--------------------------------------------------------------------------------
0	0.000000e+00	2.835984e+04	
1	5.000000e-02	4.187287e+04	
2	1.000000e-01	7.445704e+04	
3	1.500000e-01	1.751364e+05	
4	2.000000e-01	4.164392e+05	
5	2.500000e-01	7.225047e+05	
6	3.000000e-01	1.007593e+06	
7	3.500000e-01	1.263525e+06	
8	4.000000e-01	1.497251e+06	
9	4.500000e-01	1.714038e+06	
10	5.000000e-01	1.917097e+06	
11	5.500000e-01	2.108462e+06	
12	6.000000e-01	2.289533e+06	
13	6.500000e-01	2.461350e+06	
14	7.000000e-01	2.624733e+06	
15	7.500000e-01	2.780359e+06	
16	8.000000e-01	2.928804e+06	
17	8.500000e-01	3.070575e+06	
18	9.000000e-01	3.206118e+06	
19	9.500000e-01	3.335833e+06	
20	1.000000e+00	3.460086e+06	
21	1.050000e+00	3.579206e+06	
22	1.100000e+00	3.693498e+06	
23	1.150000e+00	3.803239e+06	
24	1.200000e+00	3.908688e+06	
25	1.250000e+00	4.010081e+06	
26	1.300000e+00	4.107639e+06	
27	1.350000e+00	4.201567e+06	
28	1.400000e+00	4.292054e+06	
29	1.450000e+00	4.379279e+06	
30	1.500000e+00	4.463407e+06	
31	1.550000e+00	4.544591e+06	
32	1.600000e+00	4.622978e+06	
33	1.650000e+00	4.698702e+06	
34	1.700000e+00	4.771890e+06	
35	1.750000e+00	4.842662e+06	
36	1.800000e+00	4.911129e+06	
37	1.850000e+00	4.977396e+06	
38	1.900000e+00	5.041564e+06	
39	1.950000e+00	5.103724e+06	
40	2.000000e+00	5.163965e+06	
41	2.050000e+00	5.222371e+06	
42	2.100000e+00	5.279019e+06	
43	2.150000e+00	5.333983e+06	
44	2.200000e+00	5.387334e+06	
45	2.250000e+00	5.439138e+06	
46	2.300000e+00	5.489458e+06	
47	2.350000e+00	5.538353e+06	
48	2.400000e+00	5.585880e+06	
49	2.450000e+00	5.632093e+06	
50	2.500000e+00	5.677041e+06	
51	2.550000e+00	5.720775e+06	
52	2.600000e+00	5.763338e+06	
53	2.650000e+00	5.804777e+06	
54	2.700000e+00	5.845131e+06	

Index   v-sweep         rds             
--------------------------------------------------------------------------------
55	2.750000e+00	5.884440e+06	
56	2.800000e+00	5.922743e+06	
57	2.850000e+00	5.960075e+06	
58	2.900000e+00	5.996471e+06	
59	2.950000e+00	6.031964e+06	
60	3.000000e+00	6.066584e+06	
61	3.050000e+00	6.100362e+06	
62	3.100000e+00	6.133326e+06	
63	3.150000e+00	6.165504e+06	
64	3.200000e+00	6.196921e+06	
65	3.250000e+00	6.227604e+06	
66	3.300000e+00	6.257575e+06	
67	3.350000e+00	6.286858e+06	
68	3.400000e+00	6.315474e+06	
69	3.450000e+00	6.343446e+06	
70	3.500000e+00	6.370793e+06	
71	3.550000e+00	6.397534e+06	
72	3.600000e+00	6.423688e+06	
73	3.650000e+00	6.449273e+06	
74	3.700000e+00	6.474307e+06	
75	3.750000e+00	6.498806e+06	
76	3.800000e+00	6.522785e+06	
77	3.850000e+00	6.546260e+06	
78	3.900000e+00	6.569246e+06	
79	3.950000e+00	6.591756e+06	
80	4.000000e+00	6.613805e+06	
81	4.050000e+00	6.635406e+06	
82	4.100000e+00	6.656571e+06	
83	4.150000e+00	6.677312e+06	
84	4.200000e+00	6.697641e+06	
85	4.250000e+00	6.717570e+06	
86	4.300000e+00	6.737109e+06	
87	4.350000e+00	6.756268e+06	
88	4.400000e+00	6.775059e+06	
89	4.450000e+00	6.793491e+06	
90	4.500000e+00	6.811573e+06	
91	4.550000e+00	6.829315e+06	
92	4.600000e+00	6.846725e+06	
93	4.650000e+00	6.863811e+06	
94	4.700000e+00	6.880583e+06	
95	4.750000e+00	6.897048e+06	
96	4.800000e+00	6.913214e+06	
97	4.850000e+00	6.929089e+06	
98	4.900000e+00	6.944679e+06	
99	4.950000e+00	6.959991e+06	
100	5.000000e+00	6.975033e+06	
101	5.050000e+00	6.989811e+06	
102	5.100000e+00	7.004331e+06	
103	5.150000e+00	7.018600e+06	
104	5.200000e+00	7.032623e+06	
105	5.250000e+00	7.046407e+06	
106	5.300000e+00	7.059956e+06	
107	5.350000e+00	7.073277e+06	
108	5.400000e+00	7.086374e+06	
109	5.450000e+00	7.099253e+06	
110	5.500000e+00	7.111919e+06	
111	5.550000e+00	7.124376e+06	
112	5.600000e+00	7.136629e+06	

Index   v-sweep         rds             
--------------------------------------------------------------------------------
113	5.650000e+00	7.148684e+06	
114	5.700000e+00	7.160543e+06	
115	5.750000e+00	7.172212e+06	
116	5.800000e+00	7.183695e+06	
117	5.850000e+00	7.194995e+06	
118	5.900000e+00	7.206118e+06	
119	5.950000e+00	7.217065e+06	
120	6.000000e+00	7.227842e+06	
121	6.050000e+00	7.238452e+06	
122	6.100000e+00	7.248898e+06	
123	6.150000e+00	7.259184e+06	
124	6.200000e+00	7.269313e+06	
125	6.250000e+00	7.279288e+06	
126	6.300000e+00	7.289113e+06	
127	6.350000e+00	7.298791e+06	
128	6.400000e+00	7.308324e+06	
129	6.450000e+00	7.317716e+06	
130	6.500000e+00	7.326969e+06	
131	6.550000e+00	7.336086e+06	
132	6.600000e+00	7.345071e+06	
Reset re-loads circuit ***************************

Circuit: ***************************

Doing analysis at TEMP = -40.000000 and TNOM = -40.000000


No. of Data Rows : 133
                          ***************************
                          DC transfer characteristic  Mon Jan  9 13:57:42  2023
--------------------------------------------------------------------------------
Index   v-sweep         rds             
--------------------------------------------------------------------------------
0	0.000000e+00	5.575167e+03	
1	5.000000e-02	6.046179e+03	
2	1.000000e-01	6.585125e+03	
3	1.500000e-01	7.207731e+03	
4	2.000000e-01	7.934987e+03	
5	2.500000e-01	8.795559e+03	
6	3.000000e-01	9.829641e+03	
7	3.500000e-01	1.109540e+04	
8	4.000000e-01	1.268027e+04	
9	4.500000e-01	1.472179e+04	
10	5.000000e-01	1.744769e+04	
11	5.500000e-01	2.125245e+04	
12	6.000000e-01	2.681806e+04	
13	6.500000e-01	3.516344e+04	
14	7.000000e-01	4.724991e+04	
15	7.500000e-01	6.319511e+04	
16	8.000000e-01	8.218792e+04	
17	8.500000e-01	1.031824e+05	
18	9.000000e-01	1.253644e+05	
19	9.500000e-01	1.482061e+05	
20	1.000000e+00	1.713839e+05	
21	1.050000e+00	1.946990e+05	
22	1.100000e+00	2.180276e+05	
23	1.150000e+00	2.412904e+05	
24	1.200000e+00	2.644353e+05	
25	1.250000e+00	2.874278e+05	
26	1.300000e+00	3.102443e+05	
27	1.350000e+00	3.328690e+05	
28	1.400000e+00	3.552908e+05	
29	1.450000e+00	3.775027e+05	
30	1.500000e+00	3.994997e+05	
31	1.550000e+00	4.212790e+05	
32	1.600000e+00	4.428390e+05	
33	1.650000e+00	4.641791e+05	
34	1.700000e+00	4.852996e+05	
35	1.750000e+00	5.062013e+05	
36	1.800000e+00	5.268854e+05	
37	1.850000e+00	5.473534e+05	
38	1.900000e+00	5.676071e+05	
39	1.950000e+00	5.876485e+05	
40	2.000000e+00	6.074799e+05	
41	2.050000e+00	6.271035e+05	
42	2.100000e+00	6.465217e+05	
43	2.150000e+00	6.657368e+05	
44	2.200000e+00	6.847514e+05	
45	2.250000e+00	7.035680e+05	
46	2.300000e+00	7.221890e+05	
47	2.350000e+00	7.406171e+05	
48	2.400000e+00	7.588546e+05	
49	2.450000e+00	7.769042e+05	
50	2.500000e+00	7.947684e+05	
51	2.550000e+00	8.124496e+05	
52	2.600000e+00	8.299503e+05	
53	2.650000e+00	8.472730e+05	
54	2.700000e+00	8.644201e+05	

Index   v-sweep         rds             
--------------------------------------------------------------------------------
55	2.750000e+00	8.813940e+05	
56	2.800000e+00	8.981970e+05	
57	2.850000e+00	9.148314e+05	
58	2.900000e+00	9.312997e+05	
59	2.950000e+00	9.476040e+05	
60	3.000000e+00	9.637467e+05	
61	3.050000e+00	9.797299e+05	
62	3.100000e+00	9.955558e+05	
63	3.150000e+00	1.011226e+06	
64	3.200000e+00	1.026744e+06	
65	3.250000e+00	1.042111e+06	
66	3.300000e+00	1.057329e+06	
67	3.350000e+00	1.072400e+06	
68	3.400000e+00	1.087326e+06	
69	3.450000e+00	1.102109e+06	
70	3.500000e+00	1.116751e+06	
71	3.550000e+00	1.131254e+06	
72	3.600000e+00	1.145620e+06	
73	3.650000e+00	1.159851e+06	
74	3.700000e+00	1.173948e+06	
75	3.750000e+00	1.187913e+06	
76	3.800000e+00	1.201747e+06	
77	3.850000e+00	1.215454e+06	
78	3.900000e+00	1.229034e+06	
79	3.950000e+00	1.242489e+06	
80	4.000000e+00	1.255820e+06	
81	4.050000e+00	1.269030e+06	
82	4.100000e+00	1.282120e+06	
83	4.150000e+00	1.295091e+06	
84	4.200000e+00	1.307945e+06	
85	4.250000e+00	1.320683e+06	
86	4.300000e+00	1.333307e+06	
87	4.350000e+00	1.345819e+06	
88	4.400000e+00	1.358219e+06	
89	4.450000e+00	1.370510e+06	
90	4.500000e+00	1.382692e+06	
91	4.550000e+00	1.394768e+06	
92	4.600000e+00	1.406737e+06	
93	4.650000e+00	1.418603e+06	
94	4.700000e+00	1.430365e+06	
95	4.750000e+00	1.442025e+06	
96	4.800000e+00	1.453585e+06	
97	4.850000e+00	1.465046e+06	
98	4.900000e+00	1.476409e+06	
99	4.950000e+00	1.487675e+06	
100	5.000000e+00	1.498845e+06	
101	5.050000e+00	1.509921e+06	
102	5.100000e+00	1.520904e+06	
103	5.150000e+00	1.531794e+06	
104	5.200000e+00	1.542593e+06	
105	5.250000e+00	1.553302e+06	
106	5.300000e+00	1.563923e+06	
107	5.350000e+00	1.574455e+06	
108	5.400000e+00	1.584901e+06	
109	5.450000e+00	1.595261e+06	
110	5.500000e+00	1.605536e+06	
111	5.550000e+00	1.615728e+06	
112	5.600000e+00	1.625837e+06	

Index   v-sweep         rds             
--------------------------------------------------------------------------------
113	5.650000e+00	1.635864e+06	
114	5.700000e+00	1.645810e+06	
115	5.750000e+00	1.655676e+06	
116	5.800000e+00	1.665463e+06	
117	5.850000e+00	1.675172e+06	
118	5.900000e+00	1.684805e+06	
119	5.950000e+00	1.694360e+06	
120	6.000000e+00	1.703841e+06	
121	6.050000e+00	1.713246e+06	
122	6.100000e+00	1.722579e+06	
123	6.150000e+00	1.731838e+06	
124	6.200000e+00	1.741025e+06	
125	6.250000e+00	1.750141e+06	
126	6.300000e+00	1.759187e+06	
127	6.350000e+00	1.768163e+06	
128	6.400000e+00	1.777070e+06	
129	6.450000e+00	1.785908e+06	
130	6.500000e+00	1.794680e+06	
131	6.550000e+00	1.803385e+06	
132	6.600000e+00	1.812024e+06	
Reset re-loads circuit ***************************

Circuit: ***************************

Doing analysis at TEMP = -40.000000 and TNOM = -40.000000


No. of Data Rows : 133
                          ***************************
                          DC transfer characteristic  Mon Jan  9 13:57:42  2023
--------------------------------------------------------------------------------
Index   v-sweep         rds             
--------------------------------------------------------------------------------
0	0.000000e+00	3.444886e+03	
1	5.000000e-02	3.634214e+03	
2	1.000000e-01	3.838554e+03	
3	1.500000e-01	4.059734e+03	
4	2.000000e-01	4.299891e+03	
5	2.500000e-01	4.561552e+03	
6	3.000000e-01	4.847722e+03	
7	3.500000e-01	5.162003e+03	
8	4.000000e-01	5.508753e+03	
9	4.500000e-01	5.893297e+03	
10	5.000000e-01	6.322223e+03	
11	5.500000e-01	6.803800e+03	
12	6.000000e-01	7.348607e+03	
13	6.500000e-01	7.970487e+03	
14	7.000000e-01	8.688109e+03	
15	7.500000e-01	9.527633e+03	
16	8.000000e-01	1.052753e+04	
17	8.500000e-01	1.174759e+04	
18	9.000000e-01	1.328592e+04	
19	9.500000e-01	1.530796e+04	
20	1.000000e+00	1.808220e+04	
21	1.050000e+00	2.198145e+04	
22	1.100000e+00	2.737520e+04	
23	1.150000e+00	3.443819e+04	
24	1.200000e+00	4.306649e+04	
25	1.250000e+00	5.297873e+04	
26	1.300000e+00	6.386069e+04	
27	1.350000e+00	7.544398e+04	
28	1.400000e+00	8.752412e+04	
29	1.450000e+00	9.995234e+04	
30	1.500000e+00	1.126218e+05	
31	1.550000e+00	1.254557e+05	
32	1.600000e+00	1.383982e+05	
33	1.650000e+00	1.514081e+05	
34	1.700000e+00	1.644549e+05	
35	1.750000e+00	1.775153e+05	
36	1.800000e+00	1.905717e+05	
37	1.850000e+00	2.036102e+05	
38	1.900000e+00	2.166203e+05	
39	1.950000e+00	2.295935e+05	
40	2.000000e+00	2.425230e+05	
41	2.050000e+00	2.554035e+05	
42	2.100000e+00	2.682307e+05	
43	2.150000e+00	2.810011e+05	
44	2.200000e+00	2.937120e+05	
45	2.250000e+00	3.063611e+05	
46	2.300000e+00	3.189466e+05	
47	2.350000e+00	3.314671e+05	
48	2.400000e+00	3.439215e+05	
49	2.450000e+00	3.563087e+05	
50	2.500000e+00	3.686282e+05	
51	2.550000e+00	3.808794e+05	
52	2.600000e+00	3.930620e+05	
53	2.650000e+00	4.051756e+05	
54	2.700000e+00	4.172201e+05	

Index   v-sweep         rds             
--------------------------------------------------------------------------------
55	2.750000e+00	4.291955e+05	
56	2.800000e+00	4.411018e+05	
57	2.850000e+00	4.529390e+05	
58	2.900000e+00	4.647073e+05	
59	2.950000e+00	4.764069e+05	
60	3.000000e+00	4.880379e+05	
61	3.050000e+00	4.996007e+05	
62	3.100000e+00	5.110955e+05	
63	3.150000e+00	5.225226e+05	
64	3.200000e+00	5.338824e+05	
65	3.250000e+00	5.451752e+05	
66	3.300000e+00	5.564013e+05	
67	3.350000e+00	5.675613e+05	
68	3.400000e+00	5.786554e+05	
69	3.450000e+00	5.896841e+05	
70	3.500000e+00	6.006478e+05	
71	3.550000e+00	6.115469e+05	
72	3.600000e+00	6.223819e+05	
73	3.650000e+00	6.331532e+05	
74	3.700000e+00	6.438612e+05	
75	3.750000e+00	6.545063e+05	
76	3.800000e+00	6.650891e+05	
77	3.850000e+00	6.756099e+05	
78	3.900000e+00	6.860693e+05	
79	3.950000e+00	6.964676e+05	
80	4.000000e+00	7.068053e+05	
81	4.050000e+00	7.170829e+05	
82	4.100000e+00	7.273009e+05	
83	4.150000e+00	7.374595e+05	
84	4.200000e+00	7.475594e+05	
85	4.250000e+00	7.576010e+05	
86	4.300000e+00	7.675846e+05	
87	4.350000e+00	7.775108e+05	
88	4.400000e+00	7.873800e+05	
89	4.450000e+00	7.971926e+05	
90	4.500000e+00	8.069490e+05	
91	4.550000e+00	8.166498e+05	
92	4.600000e+00	8.262953e+05	
93	4.650000e+00	8.358859e+05	
94	4.700000e+00	8.454222e+05	
95	4.750000e+00	8.549044e+05	
96	4.800000e+00	8.643330e+05	
97	4.850000e+00	8.737085e+05	
98	4.900000e+00	8.830312e+05	
99	4.950000e+00	8.923016e+05	
100	5.000000e+00	9.015201e+05	
101	5.050000e+00	9.106871e+05	
102	5.100000e+00	9.198029e+05	
103	5.150000e+00	9.288680e+05	
104	5.200000e+00	9.378827e+05	
105	5.250000e+00	9.468476e+05	
106	5.300000e+00	9.557628e+05	
107	5.350000e+00	9.646289e+05	
108	5.400000e+00	9.734463e+05	
109	5.450000e+00	9.822152e+05	
110	5.500000e+00	9.909360e+05	
111	5.550000e+00	9.996093e+05	
112	5.600000e+00	1.008235e+06	

Index   v-sweep         rds             
--------------------------------------------------------------------------------
113	5.650000e+00	1.016814e+06	
114	5.700000e+00	1.025347e+06	
115	5.750000e+00	1.033833e+06	
116	5.800000e+00	1.042273e+06	
117	5.850000e+00	1.050668e+06	
118	5.900000e+00	1.059018e+06	
119	5.950000e+00	1.067323e+06	
120	6.000000e+00	1.075583e+06	
121	6.050000e+00	1.083799e+06	
122	6.100000e+00	1.091972e+06	
123	6.150000e+00	1.100101e+06	
124	6.200000e+00	1.108187e+06	
125	6.250000e+00	1.116230e+06	
126	6.300000e+00	1.124231e+06	
127	6.350000e+00	1.132190e+06	
128	6.400000e+00	1.140106e+06	
129	6.450000e+00	1.147981e+06	
130	6.500000e+00	1.155815e+06	
131	6.550000e+00	1.163609e+06	
132	6.600000e+00	1.171361e+06	
Reset re-loads circuit ***************************

Circuit: ***************************

Doing analysis at TEMP = -40.000000 and TNOM = -40.000000


No. of Data Rows : 133
                          ***************************
                          DC transfer characteristic  Mon Jan  9 13:57:42  2023
--------------------------------------------------------------------------------
Index   v-sweep         rds             
--------------------------------------------------------------------------------
0	0.000000e+00	2.664940e+03	
1	5.000000e-02	2.779230e+03	
2	1.000000e-01	2.899893e+03	
3	1.500000e-01	3.027459e+03	
4	2.000000e-01	3.162520e+03	
5	2.500000e-01	3.305743e+03	
6	3.000000e-01	3.457878e+03	
7	3.500000e-01	3.619776e+03	
8	4.000000e-01	3.792403e+03	
9	4.500000e-01	3.976862e+03	
10	5.000000e-01	4.174413e+03	
11	5.500000e-01	4.386510e+03	
12	6.000000e-01	4.614830e+03	
13	6.500000e-01	4.861326e+03	
14	7.000000e-01	5.128291e+03	
15	7.500000e-01	5.418437e+03	
16	8.000000e-01	5.735018e+03	
17	8.500000e-01	6.081995e+03	
18	9.000000e-01	6.464284e+03	
19	9.500000e-01	6.888143e+03	
20	1.000000e+00	7.361790e+03	
21	1.050000e+00	7.896445e+03	
22	1.100000e+00	8.508151e+03	
23	1.150000e+00	9.221015e+03	
24	1.200000e+00	1.007300e+04	
25	1.250000e+00	1.112584e+04	
26	1.300000e+00	1.247970e+04	
27	1.350000e+00	1.428805e+04	
28	1.400000e+00	1.675501e+04	
29	1.450000e+00	2.009047e+04	
30	1.500000e+00	2.443049e+04	
31	1.550000e+00	2.978409e+04	
32	1.600000e+00	3.605022e+04	
33	1.650000e+00	4.307522e+04	
34	1.700000e+00	5.070186e+04	
35	1.750000e+00	5.879366e+04	
36	1.800000e+00	6.724093e+04	
37	1.850000e+00	7.595862e+04	
38	1.900000e+00	8.488168e+04	
39	1.950000e+00	9.396041e+04	
40	2.000000e+00	1.031567e+05	
41	2.050000e+00	1.124410e+05	
42	2.100000e+00	1.217904e+05	
43	2.150000e+00	1.311868e+05	
44	2.200000e+00	1.406158e+05	
45	2.250000e+00	1.500657e+05	
46	2.300000e+00	1.595272e+05	
47	2.350000e+00	1.689928e+05	
48	2.400000e+00	1.784561e+05	
49	2.450000e+00	1.879120e+05	
50	2.500000e+00	1.973560e+05	
51	2.550000e+00	2.067848e+05	
52	2.600000e+00	2.161951e+05	
53	2.650000e+00	2.255844e+05	
54	2.700000e+00	2.349506e+05	

Index   v-sweep         rds             
--------------------------------------------------------------------------------
55	2.750000e+00	2.442918e+05	
56	2.800000e+00	2.536064e+05	
57	2.850000e+00	2.628931e+05	
58	2.900000e+00	2.721508e+05	
59	2.950000e+00	2.813785e+05	
60	3.000000e+00	2.905753e+05	
61	3.050000e+00	2.997405e+05	
62	3.100000e+00	3.088735e+05	
63	3.150000e+00	3.179739e+05	
64	3.200000e+00	3.270410e+05	
65	3.250000e+00	3.360747e+05	
66	3.300000e+00	3.450745e+05	
67	3.350000e+00	3.540402e+05	
68	3.400000e+00	3.629716e+05	
69	3.450000e+00	3.718686e+05	
70	3.500000e+00	3.807309e+05	
71	3.550000e+00	3.895585e+05	
72	3.600000e+00	3.983513e+05	
73	3.650000e+00	4.071092e+05	
74	3.700000e+00	4.158323e+05	
75	3.750000e+00	4.245205e+05	
76	3.800000e+00	4.331738e+05	
77	3.850000e+00	4.417923e+05	
78	3.900000e+00	4.503760e+05	
79	3.950000e+00	4.589249e+05	
80	4.000000e+00	4.674392e+05	
81	4.050000e+00	4.759188e+05	
82	4.100000e+00	4.843639e+05	
83	4.150000e+00	4.927746e+05	
84	4.200000e+00	5.011509e+05	
85	4.250000e+00	5.094930e+05	
86	4.300000e+00	5.178010e+05	
87	4.350000e+00	5.260750e+05	
88	4.400000e+00	5.343152e+05	
89	4.450000e+00	5.425216e+05	
90	4.500000e+00	5.506944e+05	
91	4.550000e+00	5.588337e+05	
92	4.600000e+00	5.669397e+05	
93	4.650000e+00	5.750125e+05	
94	4.700000e+00	5.830522e+05	
95	4.750000e+00	5.910591e+05	
96	4.800000e+00	5.990332e+05	
97	4.850000e+00	6.069747e+05	
98	4.900000e+00	6.148837e+05	
99	4.950000e+00	6.227605e+05	
100	5.000000e+00	6.306051e+05	
101	5.050000e+00	6.384177e+05	
102	5.100000e+00	6.461985e+05	
103	5.150000e+00	6.539477e+05	
104	5.200000e+00	6.616653e+05	
105	5.250000e+00	6.693515e+05	
106	5.300000e+00	6.770066e+05	
107	5.350000e+00	6.846306e+05	
108	5.400000e+00	6.922238e+05	
109	5.450000e+00	6.997862e+05	
110	5.500000e+00	7.073181e+05	
111	5.550000e+00	7.148196e+05	
112	5.600000e+00	7.222908e+05	

Index   v-sweep         rds             
--------------------------------------------------------------------------------
113	5.650000e+00	7.297320e+05	
114	5.700000e+00	7.371432e+05	
115	5.750000e+00	7.445246e+05	
116	5.800000e+00	7.518765e+05	
117	5.850000e+00	7.591989e+05	
118	5.900000e+00	7.664920e+05	
119	5.950000e+00	7.737560e+05	
120	6.000000e+00	7.809909e+05	
121	6.050000e+00	7.881971e+05	
122	6.100000e+00	7.953746e+05	
123	6.150000e+00	8.025236e+05	
124	6.200000e+00	8.096442e+05	
125	6.250000e+00	8.167366e+05	
126	6.300000e+00	8.238009e+05	
127	6.350000e+00	8.308374e+05	
128	6.400000e+00	8.378460e+05	
129	6.450000e+00	8.448271e+05	
130	6.500000e+00	8.517808e+05	
131	6.550000e+00	8.587071e+05	
132	6.600000e+00	8.656063e+05	
Reset re-loads circuit ***************************

Circuit: ***************************

Doing analysis at TEMP = -40.000000 and TNOM = -40.000000


No. of Data Rows : 133
                          ***************************
                          DC transfer characteristic  Mon Jan  9 13:57:42  2023
--------------------------------------------------------------------------------
Index   v-sweep         rds             
--------------------------------------------------------------------------------
0	0.000000e+00	2.287564e+03	
1	5.000000e-02	2.368962e+03	
2	1.000000e-01	2.453879e+03	
3	1.500000e-01	2.542535e+03	
4	2.000000e-01	2.635173e+03	
5	2.500000e-01	2.732058e+03	
6	3.000000e-01	2.833481e+03	
7	3.500000e-01	2.939762e+03	
8	4.000000e-01	3.051254e+03	
9	4.500000e-01	3.168349e+03	
10	5.000000e-01	3.291480e+03	
11	5.500000e-01	3.421128e+03	
12	6.000000e-01	3.557826e+03	
13	6.500000e-01	3.702171e+03	
14	7.000000e-01	3.854827e+03	
15	7.500000e-01	4.016539e+03	
16	8.000000e-01	4.188144e+03	
17	8.500000e-01	4.370587e+03	
18	9.000000e-01	4.564944e+03	
19	9.500000e-01	4.772443e+03	
20	1.000000e+00	4.994500e+03	
21	1.050000e+00	5.232771e+03	
22	1.100000e+00	5.489211e+03	
23	1.150000e+00	5.766171e+03	
24	1.200000e+00	6.066538e+03	
25	1.250000e+00	6.393956e+03	
26	1.300000e+00	6.753161e+03	
27	1.350000e+00	7.150550e+03	
28	1.400000e+00	7.595117e+03	
29	1.450000e+00	8.100052e+03	
30	1.500000e+00	8.685452e+03	
31	1.550000e+00	9.382780e+03	
32	1.600000e+00	1.024164e+04	
33	1.650000e+00	1.133822e+04	
34	1.700000e+00	1.278121e+04	
35	1.750000e+00	1.470525e+04	
36	1.800000e+00	1.724280e+04	
37	1.850000e+00	2.048208e+04	
38	1.900000e+00	2.443942e+04	
39	1.950000e+00	2.906482e+04	
40	2.000000e+00	3.426976e+04	
41	2.050000e+00	3.995517e+04	
42	2.100000e+00	4.602859e+04	
43	2.150000e+00	5.241118e+04	
44	2.200000e+00	5.903873e+04	
45	2.250000e+00	6.586008e+04	
46	2.300000e+00	7.283483e+04	
47	2.350000e+00	7.993108e+04	
48	2.400000e+00	8.712359e+04	
49	2.450000e+00	9.439225e+04	
50	2.500000e+00	1.017209e+05	
51	2.550000e+00	1.090965e+05	
52	2.600000e+00	1.165085e+05	
53	2.650000e+00	1.239482e+05	
54	2.700000e+00	1.314083e+05	

Index   v-sweep         rds             
--------------------------------------------------------------------------------
55	2.750000e+00	1.388828e+05	
56	2.800000e+00	1.463668e+05	
57	2.850000e+00	1.538560e+05	
58	2.900000e+00	1.613469e+05	
59	2.950000e+00	1.688364e+05	
60	3.000000e+00	1.763219e+05	
61	3.050000e+00	1.838011e+05	
62	3.100000e+00	1.912722e+05	
63	3.150000e+00	1.987335e+05	
64	3.200000e+00	2.061835e+05	
65	3.250000e+00	2.136210e+05	
66	3.300000e+00	2.210448e+05	
67	3.350000e+00	2.284541e+05	
68	3.400000e+00	2.358479e+05	
69	3.450000e+00	2.432255e+05	
70	3.500000e+00	2.505863e+05	
71	3.550000e+00	2.579296e+05	
72	3.600000e+00	2.652551e+05	
73	3.650000e+00	2.725622e+05	
74	3.700000e+00	2.798505e+05	
75	3.750000e+00	2.871198e+05	
76	3.800000e+00	2.943696e+05	
77	3.850000e+00	3.015997e+05	
78	3.900000e+00	3.088099e+05	
79	3.950000e+00	3.160001e+05	
80	4.000000e+00	3.231699e+05	
81	4.050000e+00	3.303192e+05	
82	4.100000e+00	3.374480e+05	
83	4.150000e+00	3.445560e+05	
84	4.200000e+00	3.516433e+05	
85	4.250000e+00	3.587096e+05	
86	4.300000e+00	3.657550e+05	
87	4.350000e+00	3.727794e+05	
88	4.400000e+00	3.797827e+05	
89	4.450000e+00	3.867649e+05	
90	4.500000e+00	3.937260e+05	
91	4.550000e+00	4.006660e+05	
92	4.600000e+00	4.075848e+05	
93	4.650000e+00	4.144824e+05	
94	4.700000e+00	4.213589e+05	
95	4.750000e+00	4.282142e+05	
96	4.800000e+00	4.350485e+05	
97	4.850000e+00	4.418616e+05	
98	4.900000e+00	4.486537e+05	
99	4.950000e+00	4.554247e+05	
100	5.000000e+00	4.621747e+05	
101	5.050000e+00	4.689037e+05	
102	5.100000e+00	4.756118e+05	
103	5.150000e+00	4.822990e+05	
104	5.200000e+00	4.889653e+05	
105	5.250000e+00	4.956109e+05	
106	5.300000e+00	5.022357e+05	
107	5.350000e+00	5.088399e+05	
108	5.400000e+00	5.154234e+05	
109	5.450000e+00	5.219863e+05	
110	5.500000e+00	5.285287e+05	
111	5.550000e+00	5.350507e+05	
112	5.600000e+00	5.415522e+05	

Index   v-sweep         rds             
--------------------------------------------------------------------------------
113	5.650000e+00	5.480335e+05	
114	5.700000e+00	5.544945e+05	
115	5.750000e+00	5.609352e+05	
116	5.800000e+00	5.673559e+05	
117	5.850000e+00	5.737565e+05	
118	5.900000e+00	5.801371e+05	
119	5.950000e+00	5.864977e+05	
120	6.000000e+00	5.928385e+05	
121	6.050000e+00	5.991596e+05	
122	6.100000e+00	6.054609e+05	
123	6.150000e+00	6.117425e+05	
124	6.200000e+00	6.180046e+05	
125	6.250000e+00	6.242472e+05	
126	6.300000e+00	6.304704e+05	
127	6.350000e+00	6.366742e+05	
128	6.400000e+00	6.428587e+05	
129	6.450000e+00	6.490241e+05	
130	6.500000e+00	6.551703e+05	
131	6.550000e+00	6.612974e+05	
132	6.600000e+00	6.674056e+05	
Reset re-loads circuit ***************************

Circuit: ***************************

Doing analysis at TEMP = -40.000000 and TNOM = -40.000000


No. of Data Rows : 133
                          ***************************
                          DC transfer characteristic  Mon Jan  9 13:57:42  2023
--------------------------------------------------------------------------------
Index   v-sweep         rds             
--------------------------------------------------------------------------------
0	0.000000e+00	2.085197e+03	
1	5.000000e-02	2.148493e+03	
2	1.000000e-01	2.214018e+03	
3	1.500000e-01	2.281886e+03	
4	2.000000e-01	2.352218e+03	
5	2.500000e-01	2.425143e+03	
6	3.000000e-01	2.500803e+03	
7	3.500000e-01	2.579350e+03	
8	4.000000e-01	2.660948e+03	
9	4.500000e-01	2.745777e+03	
10	5.000000e-01	2.834031e+03	
11	5.500000e-01	2.925923e+03	
12	6.000000e-01	3.021682e+03	
13	6.500000e-01	3.121561e+03	
14	7.000000e-01	3.225834e+03	
15	7.500000e-01	3.334800e+03	
16	8.000000e-01	3.448787e+03	
17	8.500000e-01	3.568154e+03	
18	9.000000e-01	3.693292e+03	
19	9.500000e-01	3.824634e+03	
20	1.000000e+00	3.962656e+03	
21	1.050000e+00	4.107882e+03	
22	1.100000e+00	4.260897e+03	
23	1.150000e+00	4.422352e+03	
24	1.200000e+00	4.592978e+03	
25	1.250000e+00	4.773602e+03	
26	1.300000e+00	4.965169e+03	
27	1.350000e+00	5.168770e+03	
28	1.400000e+00	5.385683e+03	
29	1.450000e+00	5.617432e+03	
30	1.500000e+00	5.865869e+03	
31	1.550000e+00	6.133309e+03	
32	1.600000e+00	6.422721e+03	
33	1.650000e+00	6.738050e+03	
34	1.700000e+00	7.084713e+03	
35	1.750000e+00	7.470423e+03	
36	1.800000e+00	7.906523e+03	
37	1.850000e+00	8.410114e+03	
38	1.900000e+00	9.007318e+03	
39	1.950000e+00	9.737773e+03	
40	2.000000e+00	1.065955e+04	
41	2.050000e+00	1.185155e+04	
42	2.100000e+00	1.340808e+04	
43	2.150000e+00	1.542137e+04	
44	2.200000e+00	1.795678e+04	
45	2.250000e+00	2.103498e+04	
46	2.300000e+00	2.463192e+04	
47	2.350000e+00	2.869332e+04	
48	2.400000e+00	3.315213e+04	
49	2.450000e+00	3.794147e+04	
50	2.500000e+00	4.300131e+04	
51	2.550000e+00	4.828075e+04	
52	2.600000e+00	5.373799e+04	
53	2.650000e+00	5.933914e+04	
54	2.700000e+00	6.505693e+04	

Index   v-sweep         rds             
--------------------------------------------------------------------------------
55	2.750000e+00	7.086941e+04	
56	2.800000e+00	7.675885e+04	
57	2.850000e+00	8.271087e+04	
58	2.900000e+00	8.871375e+04	
59	2.950000e+00	9.475785e+04	
60	3.000000e+00	1.008352e+05	
61	3.050000e+00	1.069392e+05	
62	3.100000e+00	1.130643e+05	
63	3.150000e+00	1.192059e+05	
64	3.200000e+00	1.253599e+05	
65	3.250000e+00	1.315230e+05	
66	3.300000e+00	1.376924e+05	
67	3.350000e+00	1.438656e+05	
68	3.400000e+00	1.500404e+05	
69	3.450000e+00	1.562150e+05	
70	3.500000e+00	1.623877e+05	
71	3.550000e+00	1.685572e+05	
72	3.600000e+00	1.747223e+05	
73	3.650000e+00	1.808817e+05	
74	3.700000e+00	1.870347e+05	
75	3.750000e+00	1.931803e+05	
76	3.800000e+00	1.993178e+05	
77	3.850000e+00	2.054465e+05	
78	3.900000e+00	2.115659e+05	
79	3.950000e+00	2.176753e+05	
80	4.000000e+00	2.237744e+05	
81	4.050000e+00	2.298627e+05	
82	4.100000e+00	2.359398e+05	
83	4.150000e+00	2.420054e+05	
84	4.200000e+00	2.480592e+05	
85	4.250000e+00	2.541010e+05	
86	4.300000e+00	2.601304e+05	
87	4.350000e+00	2.661472e+05	
88	4.400000e+00	2.721514e+05	
89	4.450000e+00	2.781426e+05	
90	4.500000e+00	2.841207e+05	
91	4.550000e+00	2.900856e+05	
92	4.600000e+00	2.960372e+05	
93	4.650000e+00	3.019753e+05	
94	4.700000e+00	3.078999e+05	
95	4.750000e+00	3.138108e+05	
96	4.800000e+00	3.197081e+05	
97	4.850000e+00	3.255915e+05	
98	4.900000e+00	3.314610e+05	
99	4.950000e+00	3.373167e+05	
100	5.000000e+00	3.431584e+05	
101	5.050000e+00	3.489861e+05	
102	5.100000e+00	3.547998e+05	
103	5.150000e+00	3.605994e+05	
104	5.200000e+00	3.663849e+05	
105	5.250000e+00	3.721564e+05	
106	5.300000e+00	3.779137e+05	
107	5.350000e+00	3.836570e+05	
108	5.400000e+00	3.893860e+05	
109	5.450000e+00	3.951010e+05	
110	5.500000e+00	4.008018e+05	
111	5.550000e+00	4.064886e+05	
112	5.600000e+00	4.121611e+05	

Index   v-sweep         rds             
--------------------------------------------------------------------------------
113	5.650000e+00	4.178196e+05	
114	5.700000e+00	4.234640e+05	
115	5.750000e+00	4.290943e+05	
116	5.800000e+00	4.347105e+05	
117	5.850000e+00	4.403127e+05	
118	5.900000e+00	4.459008e+05	
119	5.950000e+00	4.514749e+05	
120	6.000000e+00	4.570350e+05	
121	6.050000e+00	4.625811e+05	
122	6.100000e+00	4.681133e+05	
123	6.150000e+00	4.736316e+05	
124	6.200000e+00	4.791360e+05	
125	6.250000e+00	4.846265e+05	
126	6.300000e+00	4.901032e+05	
127	6.350000e+00	4.955661e+05	
128	6.400000e+00	5.010152e+05	
129	6.450000e+00	5.064505e+05	
130	6.500000e+00	5.118722e+05	
131	6.550000e+00	5.172801e+05	
132	6.600000e+00	5.226744e+05	
Reset re-loads circuit ***************************

Circuit: ***************************

Note: No ".plot", ".print", or ".fourier" lines; no simulations run
