
Note: Compatibility modes selected: hs

Warning: m=xx on .subckt line will override multiplier m hierarchy!


Circuit: ***************************

Doing analysis at TEMP = -40.000000 and TNOM = -40.000000


No. of Data Rows : 133
                          ***************************
                          DC transfer characteristic  Mon Jan  9 13:57:42  2023
--------------------------------------------------------------------------------
Index   v-sweep         rds             
--------------------------------------------------------------------------------
0	0.000000e+00	2.918799e+03	
1	5.000000e-02	4.397602e+03	
2	1.000000e-01	7.922551e+03	
3	1.500000e-01	1.668408e+04	
4	2.000000e-01	2.860483e+04	
5	2.500000e-01	3.806633e+04	
6	3.000000e-01	4.530336e+04	
7	3.500000e-01	5.118973e+04	
8	4.000000e-01	5.615221e+04	
9	4.500000e-01	6.041694e+04	
10	5.000000e-01	6.412599e+04	
11	5.500000e-01	6.737949e+04	
12	6.000000e-01	7.025280e+04	
13	6.500000e-01	7.280483e+04	
14	7.000000e-01	7.508278e+04	
15	7.500000e-01	7.712510e+04	
16	8.000000e-01	7.896347e+04	
17	8.500000e-01	8.062429e+04	
18	9.000000e-01	8.212970e+04	
19	9.500000e-01	8.349843e+04	
20	1.000000e+00	8.474642e+04	
21	1.050000e+00	8.588732e+04	
22	1.100000e+00	8.693287e+04	
23	1.150000e+00	8.789320e+04	
24	1.200000e+00	8.877715e+04	
25	1.250000e+00	8.959239e+04	
26	1.300000e+00	9.034567e+04	
27	1.350000e+00	9.104290e+04	
28	1.400000e+00	9.168931e+04	
29	1.450000e+00	9.228952e+04	
30	1.500000e+00	9.284763e+04	
31	1.550000e+00	9.336731e+04	
32	1.600000e+00	9.385180e+04	
33	1.650000e+00	9.430405e+04	
34	1.700000e+00	9.472667e+04	
35	1.750000e+00	9.512202e+04	
36	1.800000e+00	9.549224e+04	
37	1.850000e+00	9.583925e+04	
38	1.900000e+00	9.616481e+04	
39	1.950000e+00	9.647049e+04	
40	2.000000e+00	9.675773e+04	
41	2.050000e+00	9.702786e+04	
42	2.100000e+00	9.728208e+04	
43	2.150000e+00	9.752147e+04	
44	2.200000e+00	9.774706e+04	
45	2.250000e+00	9.795975e+04	
46	2.300000e+00	9.816041e+04	
47	2.350000e+00	9.834981e+04	
48	2.400000e+00	9.852867e+04	
49	2.450000e+00	9.869766e+04	
50	2.500000e+00	9.885740e+04	
51	2.550000e+00	9.900845e+04	
52	2.600000e+00	9.915134e+04	
53	2.650000e+00	9.928655e+04	
54	2.700000e+00	9.941456e+04	

Index   v-sweep         rds             
--------------------------------------------------------------------------------
55	2.750000e+00	9.953578e+04	
56	2.800000e+00	9.965060e+04	
57	2.850000e+00	9.975939e+04	
58	2.900000e+00	9.986249e+04	
59	2.950000e+00	9.996024e+04	
60	3.000000e+00	1.000529e+05	
61	3.050000e+00	1.001408e+05	
62	3.100000e+00	1.002242e+05	
63	3.150000e+00	1.003033e+05	
64	3.200000e+00	1.003784e+05	
65	3.250000e+00	1.004496e+05	
66	3.300000e+00	1.005172e+05	
67	3.350000e+00	1.005814e+05	
68	3.400000e+00	1.006424e+05	
69	3.450000e+00	1.007003e+05	
70	3.500000e+00	1.007552e+05	
71	3.550000e+00	1.008075e+05	
72	3.600000e+00	1.008571e+05	
73	3.650000e+00	1.009042e+05	
74	3.700000e+00	1.009490e+05	
75	3.750000e+00	1.009916e+05	
76	3.800000e+00	1.010321e+05	
77	3.850000e+00	1.010706e+05	
78	3.900000e+00	1.011072e+05	
79	3.950000e+00	1.011420e+05	
80	4.000000e+00	1.011751e+05	
81	4.050000e+00	1.012066e+05	
82	4.100000e+00	1.012366e+05	
83	4.150000e+00	1.012652e+05	
84	4.200000e+00	1.012925e+05	
85	4.250000e+00	1.013185e+05	
86	4.300000e+00	1.013432e+05	
87	4.350000e+00	1.013669e+05	
88	4.400000e+00	1.013894e+05	
89	4.450000e+00	1.014110e+05	
90	4.500000e+00	1.014317e+05	
91	4.550000e+00	1.014514e+05	
92	4.600000e+00	1.014703e+05	
93	4.650000e+00	1.014885e+05	
94	4.700000e+00	1.015060e+05	
95	4.750000e+00	1.015227e+05	
96	4.800000e+00	1.015389e+05	
97	4.850000e+00	1.015545e+05	
98	4.900000e+00	1.015696e+05	
99	4.950000e+00	1.015842e+05	
100	5.000000e+00	1.015983e+05	
101	5.050000e+00	1.016121e+05	
102	5.100000e+00	1.016255e+05	
103	5.150000e+00	1.016386e+05	
104	5.200000e+00	1.016514e+05	
105	5.250000e+00	1.016640e+05	
106	5.300000e+00	1.016764e+05	
107	5.350000e+00	1.016886e+05	
108	5.400000e+00	1.017007e+05	
109	5.450000e+00	1.017126e+05	
110	5.500000e+00	1.017245e+05	
111	5.550000e+00	1.017364e+05	
112	5.600000e+00	1.017482e+05	

Index   v-sweep         rds             
--------------------------------------------------------------------------------
113	5.650000e+00	1.017601e+05	
114	5.700000e+00	1.017721e+05	
115	5.750000e+00	1.017841e+05	
116	5.800000e+00	1.017962e+05	
117	5.850000e+00	1.018085e+05	
118	5.900000e+00	1.018209e+05	
119	5.950000e+00	1.018336e+05	
120	6.000000e+00	1.018465e+05	
121	6.050000e+00	1.018596e+05	
122	6.100000e+00	1.018730e+05	
123	6.150000e+00	1.018867e+05	
124	6.200000e+00	1.019008e+05	
125	6.250000e+00	1.019152e+05	
126	6.300000e+00	1.019300e+05	
127	6.350000e+00	1.019452e+05	
128	6.400000e+00	1.019608e+05	
129	6.450000e+00	1.019769e+05	
130	6.500000e+00	1.019935e+05	
131	6.550000e+00	1.020106e+05	
132	6.600000e+00	1.020282e+05	
Reset re-loads circuit ***************************

Circuit: ***************************

Doing analysis at TEMP = -40.000000 and TNOM = -40.000000


No. of Data Rows : 133
                          ***************************
                          DC transfer characteristic  Mon Jan  9 13:57:42  2023
--------------------------------------------------------------------------------
Index   v-sweep         rds             
--------------------------------------------------------------------------------
0	0.000000e+00	6.568808e+02	
1	5.000000e-02	7.242244e+02	
2	1.000000e-01	8.023657e+02	
3	1.500000e-01	8.940931e+02	
4	2.000000e-01	1.003263e+03	
5	2.500000e-01	1.135364e+03	
6	3.000000e-01	1.298488e+03	
7	3.500000e-01	1.505155e+03	
8	4.000000e-01	1.775997e+03	
9	4.500000e-01	2.147408e+03	
10	5.000000e-01	2.684061e+03	
11	5.500000e-01	3.478197e+03	
12	6.000000e-01	4.589152e+03	
13	6.500000e-01	5.973027e+03	
14	7.000000e-01	7.525106e+03	
15	7.500000e-01	9.154830e+03	
16	8.000000e-01	1.080550e+04	
17	8.500000e-01	1.244535e+04	
18	9.000000e-01	1.405719e+04	
19	9.500000e-01	1.563187e+04	
20	1.000000e+00	1.716474e+04	
21	1.050000e+00	1.865368e+04	
22	1.100000e+00	2.009809e+04	
23	1.150000e+00	2.149822e+04	
24	1.200000e+00	2.285487e+04	
25	1.250000e+00	2.416916e+04	
26	1.300000e+00	2.544235e+04	
27	1.350000e+00	2.667583e+04	
28	1.400000e+00	2.787103e+04	
29	1.450000e+00	2.902936e+04	
30	1.500000e+00	3.015225e+04	
31	1.550000e+00	3.124106e+04	
32	1.600000e+00	3.229715e+04	
33	1.650000e+00	3.332180e+04	
34	1.700000e+00	3.431626e+04	
35	1.750000e+00	3.528173e+04	
36	1.800000e+00	3.621935e+04	
37	1.850000e+00	3.713023e+04	
38	1.900000e+00	3.801540e+04	
39	1.950000e+00	3.887586e+04	
40	2.000000e+00	3.971258e+04	
41	2.050000e+00	4.052647e+04	
42	2.100000e+00	4.131838e+04	
43	2.150000e+00	4.208916e+04	
44	2.200000e+00	4.283959e+04	
45	2.250000e+00	4.357043e+04	
46	2.300000e+00	4.428240e+04	
47	2.350000e+00	4.497618e+04	
48	2.400000e+00	4.565244e+04	
49	2.450000e+00	4.631180e+04	
50	2.500000e+00	4.695486e+04	
51	2.550000e+00	4.758219e+04	
52	2.600000e+00	4.819434e+04	
53	2.650000e+00	4.879183e+04	
54	2.700000e+00	4.937517e+04	

Index   v-sweep         rds             
--------------------------------------------------------------------------------
55	2.750000e+00	4.994483e+04	
56	2.800000e+00	5.050127e+04	
57	2.850000e+00	5.104493e+04	
58	2.900000e+00	5.157623e+04	
59	2.950000e+00	5.209557e+04	
60	3.000000e+00	5.260335e+04	
61	3.050000e+00	5.309992e+04	
62	3.100000e+00	5.358565e+04	
63	3.150000e+00	5.406087e+04	
64	3.200000e+00	5.452592e+04	
65	3.250000e+00	5.498111e+04	
66	3.300000e+00	5.542673e+04	
67	3.350000e+00	5.586309e+04	
68	3.400000e+00	5.629045e+04	
69	3.450000e+00	5.670909e+04	
70	3.500000e+00	5.711927e+04	
71	3.550000e+00	5.752123e+04	
72	3.600000e+00	5.791521e+04	
73	3.650000e+00	5.830144e+04	
74	3.700000e+00	5.868014e+04	
75	3.750000e+00	5.905153e+04	
76	3.800000e+00	5.941582e+04	
77	3.850000e+00	5.977319e+04	
78	3.900000e+00	6.012385e+04	
79	3.950000e+00	6.046797e+04	
80	4.000000e+00	6.080573e+04	
81	4.050000e+00	6.113731e+04	
82	4.100000e+00	6.146288e+04	
83	4.150000e+00	6.178258e+04	
84	4.200000e+00	6.209658e+04	
85	4.250000e+00	6.240502e+04	
86	4.300000e+00	6.270806e+04	
87	4.350000e+00	6.300582e+04	
88	4.400000e+00	6.329845e+04	
89	4.450000e+00	6.358608e+04	
90	4.500000e+00	6.386882e+04	
91	4.550000e+00	6.414681e+04	
92	4.600000e+00	6.442016e+04	
93	4.650000e+00	6.468899e+04	
94	4.700000e+00	6.495340e+04	
95	4.750000e+00	6.521351e+04	
96	4.800000e+00	6.546942e+04	
97	4.850000e+00	6.572122e+04	
98	4.900000e+00	6.596903e+04	
99	4.950000e+00	6.621292e+04	
100	5.000000e+00	6.645301e+04	
101	5.050000e+00	6.668936e+04	
102	5.100000e+00	6.692207e+04	
103	5.150000e+00	6.715123e+04	
104	5.200000e+00	6.737691e+04	
105	5.250000e+00	6.759920e+04	
106	5.300000e+00	6.781817e+04	
107	5.350000e+00	6.803389e+04	
108	5.400000e+00	6.824644e+04	
109	5.450000e+00	6.845589e+04	
110	5.500000e+00	6.866231e+04	
111	5.550000e+00	6.886576e+04	
112	5.600000e+00	6.906631e+04	

Index   v-sweep         rds             
--------------------------------------------------------------------------------
113	5.650000e+00	6.926402e+04	
114	5.700000e+00	6.945896e+04	
115	5.750000e+00	6.965117e+04	
116	5.800000e+00	6.984072e+04	
117	5.850000e+00	7.002767e+04	
118	5.900000e+00	7.021207e+04	
119	5.950000e+00	7.039397e+04	
120	6.000000e+00	7.057343e+04	
121	6.050000e+00	7.075049e+04	
122	6.100000e+00	7.092521e+04	
123	6.150000e+00	7.109763e+04	
124	6.200000e+00	7.126781e+04	
125	6.250000e+00	7.143577e+04	
126	6.300000e+00	7.160158e+04	
127	6.350000e+00	7.176527e+04	
128	6.400000e+00	7.192689e+04	
129	6.450000e+00	7.208647e+04	
130	6.500000e+00	7.224405e+04	
131	6.550000e+00	7.239968e+04	
132	6.600000e+00	7.255340e+04	
Reset re-loads circuit ***************************

Circuit: ***************************

Doing analysis at TEMP = -40.000000 and TNOM = -40.000000


No. of Data Rows : 133
                          ***************************
                          DC transfer characteristic  Mon Jan  9 13:57:42  2023
--------------------------------------------------------------------------------
Index   v-sweep         rds             
--------------------------------------------------------------------------------
0	0.000000e+00	4.204297e+02	
1	5.000000e-02	4.501134e+02	
2	1.000000e-01	4.825081e+02	
3	1.500000e-01	5.179919e+02	
4	2.000000e-01	5.570237e+02	
5	2.500000e-01	6.001671e+02	
6	3.000000e-01	6.481208e+02	
7	3.500000e-01	7.017593e+02	
8	4.000000e-01	7.621921e+02	
9	4.500000e-01	8.308557e+02	
10	5.000000e-01	9.096707e+02	
11	5.500000e-01	1.001329e+03	
12	6.000000e-01	1.109863e+03	
13	6.500000e-01	1.241839e+03	
14	7.000000e-01	1.408859e+03	
15	7.500000e-01	1.632189e+03	
16	8.000000e-01	1.948010e+03	
17	8.500000e-01	2.403560e+03	
18	9.000000e-01	3.032964e+03	
19	9.500000e-01	3.832547e+03	
20	1.000000e+00	4.767480e+03	
21	1.050000e+00	5.795682e+03	
22	1.100000e+00	6.882221e+03	
23	1.150000e+00	8.002076e+03	
24	1.200000e+00	9.138292e+03	
25	1.250000e+00	1.027955e+04	
26	1.300000e+00	1.141828e+04	
27	1.350000e+00	1.254939e+04	
28	1.400000e+00	1.366944e+04	
29	1.450000e+00	1.477609e+04	
30	1.500000e+00	1.586777e+04	
31	1.550000e+00	1.694343e+04	
32	1.600000e+00	1.800242e+04	
33	1.650000e+00	1.904434e+04	
34	1.700000e+00	2.006898e+04	
35	1.750000e+00	2.107630e+04	
36	1.800000e+00	2.206634e+04	
37	1.850000e+00	2.303922e+04	
38	1.900000e+00	2.399514e+04	
39	1.950000e+00	2.493432e+04	
40	2.000000e+00	2.585702e+04	
41	2.050000e+00	2.676352e+04	
42	2.100000e+00	2.765411e+04	
43	2.150000e+00	2.852911e+04	
44	2.200000e+00	2.938882e+04	
45	2.250000e+00	3.023356e+04	
46	2.300000e+00	3.106365e+04	
47	2.350000e+00	3.187940e+04	
48	2.400000e+00	3.268113e+04	
49	2.450000e+00	3.346916e+04	
50	2.500000e+00	3.424378e+04	
51	2.550000e+00	3.500530e+04	
52	2.600000e+00	3.575401e+04	
53	2.650000e+00	3.649021e+04	
54	2.700000e+00	3.721418e+04	

Index   v-sweep         rds             
--------------------------------------------------------------------------------
55	2.750000e+00	3.792620e+04	
56	2.800000e+00	3.862653e+04	
57	2.850000e+00	3.931545e+04	
58	2.900000e+00	3.999322e+04	
59	2.950000e+00	4.066008e+04	
60	3.000000e+00	4.131628e+04	
61	3.050000e+00	4.196206e+04	
62	3.100000e+00	4.259766e+04	
63	3.150000e+00	4.322330e+04	
64	3.200000e+00	4.383921e+04	
65	3.250000e+00	4.444560e+04	
66	3.300000e+00	4.504269e+04	
67	3.350000e+00	4.563067e+04	
68	3.400000e+00	4.620974e+04	
69	3.450000e+00	4.678011e+04	
70	3.500000e+00	4.734195e+04	
71	3.550000e+00	4.789546e+04	
72	3.600000e+00	4.844080e+04	
73	3.650000e+00	4.897817e+04	
74	3.700000e+00	4.950772e+04	
75	3.750000e+00	5.002962e+04	
76	3.800000e+00	5.054403e+04	
77	3.850000e+00	5.105111e+04	
78	3.900000e+00	5.155101e+04	
79	3.950000e+00	5.204387e+04	
80	4.000000e+00	5.252986e+04	
81	4.050000e+00	5.300909e+04	
82	4.100000e+00	5.348172e+04	
83	4.150000e+00	5.394788e+04	
84	4.200000e+00	5.440769e+04	
85	4.250000e+00	5.486128e+04	
86	4.300000e+00	5.530878e+04	
87	4.350000e+00	5.575031e+04	
88	4.400000e+00	5.618598e+04	
89	4.450000e+00	5.661591e+04	
90	4.500000e+00	5.704021e+04	
91	4.550000e+00	5.745899e+04	
92	4.600000e+00	5.787236e+04	
93	4.650000e+00	5.828042e+04	
94	4.700000e+00	5.868328e+04	
95	4.750000e+00	5.908102e+04	
96	4.800000e+00	5.947375e+04	
97	4.850000e+00	5.986156e+04	
98	4.900000e+00	6.024454e+04	
99	4.950000e+00	6.062278e+04	
100	5.000000e+00	6.099637e+04	
101	5.050000e+00	6.136540e+04	
102	5.100000e+00	6.172994e+04	
103	5.150000e+00	6.209009e+04	
104	5.200000e+00	6.244591e+04	
105	5.250000e+00	6.279749e+04	
106	5.300000e+00	6.314490e+04	
107	5.350000e+00	6.348821e+04	
108	5.400000e+00	6.382751e+04	
109	5.450000e+00	6.416285e+04	
110	5.500000e+00	6.449431e+04	
111	5.550000e+00	6.482196e+04	
112	5.600000e+00	6.514586e+04	

Index   v-sweep         rds             
--------------------------------------------------------------------------------
113	5.650000e+00	6.546608e+04	
114	5.700000e+00	6.578267e+04	
115	5.750000e+00	6.609571e+04	
116	5.800000e+00	6.640525e+04	
117	5.850000e+00	6.671135e+04	
118	5.900000e+00	6.701407e+04	
119	5.950000e+00	6.731346e+04	
120	6.000000e+00	6.760959e+04	
121	6.050000e+00	6.790250e+04	
122	6.100000e+00	6.819224e+04	
123	6.150000e+00	6.847888e+04	
124	6.200000e+00	6.876246e+04	
125	6.250000e+00	6.904302e+04	
126	6.300000e+00	6.932063e+04	
127	6.350000e+00	6.959532e+04	
128	6.400000e+00	6.986714e+04	
129	6.450000e+00	7.013614e+04	
130	6.500000e+00	7.040237e+04	
131	6.550000e+00	7.066586e+04	
132	6.600000e+00	7.092666e+04	
Reset re-loads circuit ***************************

Circuit: ***************************

Doing analysis at TEMP = -40.000000 and TNOM = -40.000000


No. of Data Rows : 133
                          ***************************
                          DC transfer characteristic  Mon Jan  9 13:57:42  2023
--------------------------------------------------------------------------------
Index   v-sweep         rds             
--------------------------------------------------------------------------------
0	0.000000e+00	3.307773e+02	
1	5.000000e-02	3.495719e+02	
2	1.000000e-01	3.696052e+02	
3	1.500000e-01	3.909973e+02	
4	2.000000e-01	4.138871e+02	
5	2.500000e-01	4.384374e+02	
6	3.000000e-01	4.648399e+02	
7	3.500000e-01	4.933210e+02	
8	4.000000e-01	5.241487e+02	
9	4.500000e-01	5.576410e+02	
10	5.000000e-01	5.941768e+02	
11	5.500000e-01	6.342123e+02	
12	6.000000e-01	6.783049e+02	
13	6.500000e-01	7.271533e+02	
14	7.000000e-01	7.816641e+02	
15	7.500000e-01	8.430741e+02	
16	8.000000e-01	9.131810e+02	
17	8.500000e-01	9.947958e+02	
18	9.000000e-01	1.092635e+03	
19	9.500000e-01	1.214992e+03	
20	1.000000e+00	1.376366e+03	
21	1.050000e+00	1.599810e+03	
22	1.100000e+00	1.914508e+03	
23	1.150000e+00	2.344380e+03	
24	1.200000e+00	2.895004e+03	
25	1.250000e+00	3.552674e+03	
26	1.300000e+00	4.294342e+03	
27	1.350000e+00	5.097002e+03	
28	1.400000e+00	5.941804e+03	
29	1.450000e+00	6.814577e+03	
30	1.500000e+00	7.705025e+03	
31	1.550000e+00	8.605743e+03	
32	1.600000e+00	9.511393e+03	
33	1.650000e+00	1.041810e+04	
34	1.700000e+00	1.132303e+04	
35	1.750000e+00	1.222409e+04	
36	1.800000e+00	1.311972e+04	
37	1.850000e+00	1.400877e+04	
38	1.900000e+00	1.489036e+04	
39	1.950000e+00	1.576385e+04	
40	2.000000e+00	1.662877e+04	
41	2.050000e+00	1.748476e+04	
42	2.100000e+00	1.833157e+04	
43	2.150000e+00	1.916903e+04	
44	2.200000e+00	1.999703e+04	
45	2.250000e+00	2.081552e+04	
46	2.300000e+00	2.162446e+04	
47	2.350000e+00	2.242386e+04	
48	2.400000e+00	2.321376e+04	
49	2.450000e+00	2.399421e+04	
50	2.500000e+00	2.476528e+04	
51	2.550000e+00	2.552705e+04	
52	2.600000e+00	2.627961e+04	
53	2.650000e+00	2.702306e+04	
54	2.700000e+00	2.775751e+04	

Index   v-sweep         rds             
--------------------------------------------------------------------------------
55	2.750000e+00	2.848307e+04	
56	2.800000e+00	2.919985e+04	
57	2.850000e+00	2.990797e+04	
58	2.900000e+00	3.060755e+04	
59	2.950000e+00	3.129872e+04	
60	3.000000e+00	3.198159e+04	
61	3.050000e+00	3.265628e+04	
62	3.100000e+00	3.332292e+04	
63	3.150000e+00	3.398164e+04	
64	3.200000e+00	3.463255e+04	
65	3.250000e+00	3.527577e+04	
66	3.300000e+00	3.591142e+04	
67	3.350000e+00	3.653962e+04	
68	3.400000e+00	3.716049e+04	
69	3.450000e+00	3.777414e+04	
70	3.500000e+00	3.838069e+04	
71	3.550000e+00	3.898025e+04	
72	3.600000e+00	3.957293e+04	
73	3.650000e+00	4.015884e+04	
74	3.700000e+00	4.073809e+04	
75	3.750000e+00	4.131078e+04	
76	3.800000e+00	4.187702e+04	
77	3.850000e+00	4.243690e+04	
78	3.900000e+00	4.299054e+04	
79	3.950000e+00	4.353803e+04	
80	4.000000e+00	4.407946e+04	
81	4.050000e+00	4.461493e+04	
82	4.100000e+00	4.514454e+04	
83	4.150000e+00	4.566838e+04	
84	4.200000e+00	4.618654e+04	
85	4.250000e+00	4.669910e+04	
86	4.300000e+00	4.720615e+04	
87	4.350000e+00	4.770779e+04	
88	4.400000e+00	4.820409e+04	
89	4.450000e+00	4.869513e+04	
90	4.500000e+00	4.918100e+04	
91	4.550000e+00	4.966178e+04	
92	4.600000e+00	5.013754e+04	
93	4.650000e+00	5.060837e+04	
94	4.700000e+00	5.107432e+04	
95	4.750000e+00	5.153549e+04	
96	4.800000e+00	5.199194e+04	
97	4.850000e+00	5.244374e+04	
98	4.900000e+00	5.289096e+04	
99	4.950000e+00	5.333367e+04	
100	5.000000e+00	5.377195e+04	
101	5.050000e+00	5.420584e+04	
102	5.100000e+00	5.463542e+04	
103	5.150000e+00	5.506075e+04	
104	5.200000e+00	5.548190e+04	
105	5.250000e+00	5.589892e+04	
106	5.300000e+00	5.631188e+04	
107	5.350000e+00	5.672083e+04	
108	5.400000e+00	5.712583e+04	
109	5.450000e+00	5.752694e+04	
110	5.500000e+00	5.792421e+04	
111	5.550000e+00	5.831770e+04	
112	5.600000e+00	5.870746e+04	

Index   v-sweep         rds             
--------------------------------------------------------------------------------
113	5.650000e+00	5.909355e+04	
114	5.700000e+00	5.947602e+04	
115	5.750000e+00	5.985491e+04	
116	5.800000e+00	6.023028e+04	
117	5.850000e+00	6.060218e+04	
118	5.900000e+00	6.097065e+04	
119	5.950000e+00	6.133574e+04	
120	6.000000e+00	6.169751e+04	
121	6.050000e+00	6.205598e+04	
122	6.100000e+00	6.241122e+04	
123	6.150000e+00	6.276326e+04	
124	6.200000e+00	6.311215e+04	
125	6.250000e+00	6.345792e+04	
126	6.300000e+00	6.380063e+04	
127	6.350000e+00	6.414031e+04	
128	6.400000e+00	6.447700e+04	
129	6.450000e+00	6.481075e+04	
130	6.500000e+00	6.514158e+04	
131	6.550000e+00	6.546955e+04	
132	6.600000e+00	6.579468e+04	
Reset re-loads circuit ***************************

Circuit: ***************************

Doing analysis at TEMP = -40.000000 and TNOM = -40.000000


No. of Data Rows : 133
                          ***************************
                          DC transfer characteristic  Mon Jan  9 13:57:42  2023
--------------------------------------------------------------------------------
Index   v-sweep         rds             
--------------------------------------------------------------------------------
0	0.000000e+00	2.868217e+02	
1	5.000000e-02	3.005973e+02	
2	1.000000e-01	3.150906e+02	
3	1.500000e-01	3.303550e+02	
4	2.000000e-01	3.464507e+02	
5	2.500000e-01	3.634460e+02	
6	3.000000e-01	3.814196e+02	
7	3.500000e-01	4.004617e+02	
8	4.000000e-01	4.206764e+02	
9	4.500000e-01	4.421834e+02	
10	5.000000e-01	4.651198e+02	
11	5.500000e-01	4.896431e+02	
12	6.000000e-01	5.159341e+02	
13	6.500000e-01	5.442014e+02	
14	7.000000e-01	5.746875e+02	
15	7.500000e-01	6.076777e+02	
16	8.000000e-01	6.435146e+02	
17	8.500000e-01	6.826206e+02	
18	9.000000e-01	7.255363e+02	
19	9.500000e-01	7.729873e+02	
20	1.000000e+00	8.260047e+02	
21	1.050000e+00	8.861482e+02	
22	1.100000e+00	9.559205e+02	
23	1.150000e+00	1.039517e+03	
24	1.200000e+00	1.144067e+03	
25	1.250000e+00	1.281232e+03	
26	1.300000e+00	1.468032e+03	
27	1.350000e+00	1.724354e+03	
28	1.400000e+00	2.065862e+03	
29	1.450000e+00	2.496876e+03	
30	1.500000e+00	3.009750e+03	
31	1.550000e+00	3.590114e+03	
32	1.600000e+00	4.222482e+03	
33	1.650000e+00	4.893291e+03	
34	1.700000e+00	5.591750e+03	
35	1.750000e+00	6.309641e+03	
36	1.800000e+00	7.040811e+03	
37	1.850000e+00	7.780665e+03	
38	1.900000e+00	8.525762e+03	
39	1.950000e+00	9.273503e+03	
40	2.000000e+00	1.002191e+04	
41	2.050000e+00	1.076947e+04	
42	2.100000e+00	1.151500e+04	
43	2.150000e+00	1.225760e+04	
44	2.200000e+00	1.299655e+04	
45	2.250000e+00	1.373129e+04	
46	2.300000e+00	1.446138e+04	
47	2.350000e+00	1.518648e+04	
48	2.400000e+00	1.590630e+04	
49	2.450000e+00	1.662065e+04	
50	2.500000e+00	1.732935e+04	
51	2.550000e+00	1.803228e+04	
52	2.600000e+00	1.872935e+04	
53	2.650000e+00	1.942049e+04	
54	2.700000e+00	2.010567e+04	

Index   v-sweep         rds             
--------------------------------------------------------------------------------
55	2.750000e+00	2.078484e+04	
56	2.800000e+00	2.145801e+04	
57	2.850000e+00	2.212516e+04	
58	2.900000e+00	2.278631e+04	
59	2.950000e+00	2.344149e+04	
60	3.000000e+00	2.409071e+04	
61	3.050000e+00	2.473401e+04	
62	3.100000e+00	2.537143e+04	
63	3.150000e+00	2.600301e+04	
64	3.200000e+00	2.662879e+04	
65	3.250000e+00	2.724883e+04	
66	3.300000e+00	2.786317e+04	
67	3.350000e+00	2.847187e+04	
68	3.400000e+00	2.907498e+04	
69	3.450000e+00	2.967257e+04	
70	3.500000e+00	3.026467e+04	
71	3.550000e+00	3.085137e+04	
72	3.600000e+00	3.143270e+04	
73	3.650000e+00	3.200874e+04	
74	3.700000e+00	3.257953e+04	
75	3.750000e+00	3.314514e+04	
76	3.800000e+00	3.370564e+04	
77	3.850000e+00	3.426107e+04	
78	3.900000e+00	3.481149e+04	
79	3.950000e+00	3.535698e+04	
80	4.000000e+00	3.589757e+04	
81	4.050000e+00	3.643334e+04	
82	4.100000e+00	3.696434e+04	
83	4.150000e+00	3.749062e+04	
84	4.200000e+00	3.801225e+04	
85	4.250000e+00	3.852928e+04	
86	4.300000e+00	3.904176e+04	
87	4.350000e+00	3.954975e+04	
88	4.400000e+00	4.005331e+04	
89	4.450000e+00	4.055249e+04	
90	4.500000e+00	4.104733e+04	
91	4.550000e+00	4.153790e+04	
92	4.600000e+00	4.202425e+04	
93	4.650000e+00	4.250643e+04	
94	4.700000e+00	4.298448e+04	
95	4.750000e+00	4.345846e+04	
96	4.800000e+00	4.392842e+04	
97	4.850000e+00	4.439441e+04	
98	4.900000e+00	4.485647e+04	
99	4.950000e+00	4.531465e+04	
100	5.000000e+00	4.576900e+04	
101	5.050000e+00	4.621957e+04	
102	5.100000e+00	4.666639e+04	
103	5.150000e+00	4.710953e+04	
104	5.200000e+00	4.754901e+04	
105	5.250000e+00	4.798488e+04	
106	5.300000e+00	4.841719e+04	
107	5.350000e+00	4.884599e+04	
108	5.400000e+00	4.927130e+04	
109	5.450000e+00	4.969317e+04	
110	5.500000e+00	5.011165e+04	
111	5.550000e+00	5.052677e+04	
112	5.600000e+00	5.093857e+04	

Index   v-sweep         rds             
--------------------------------------------------------------------------------
113	5.650000e+00	5.134709e+04	
114	5.700000e+00	5.175238e+04	
115	5.750000e+00	5.215446e+04	
116	5.800000e+00	5.255338e+04	
117	5.850000e+00	5.294917e+04	
118	5.900000e+00	5.334186e+04	
119	5.950000e+00	5.373150e+04	
120	6.000000e+00	5.411812e+04	
121	6.050000e+00	5.450176e+04	
122	6.100000e+00	5.488244e+04	
123	6.150000e+00	5.526021e+04	
124	6.200000e+00	5.563509e+04	
125	6.250000e+00	5.600712e+04	
126	6.300000e+00	5.637633e+04	
127	6.350000e+00	5.674275e+04	
128	6.400000e+00	5.710641e+04	
129	6.450000e+00	5.746735e+04	
130	6.500000e+00	5.782560e+04	
131	6.550000e+00	5.818118e+04	
132	6.600000e+00	5.853413e+04	
Reset re-loads circuit ***************************

Circuit: ***************************

Doing analysis at TEMP = -40.000000 and TNOM = -40.000000


No. of Data Rows : 133
                          ***************************
                          DC transfer characteristic  Mon Jan  9 13:57:42  2023
--------------------------------------------------------------------------------
Index   v-sweep         rds             
--------------------------------------------------------------------------------
0	0.000000e+00	2.632457e+02	
1	5.000000e-02	2.741637e+02	
2	1.000000e-01	2.855527e+02	
3	1.500000e-01	2.974410e+02	
4	2.000000e-01	3.098601e+02	
5	2.500000e-01	3.228447e+02	
6	3.000000e-01	3.364342e+02	
7	3.500000e-01	3.506728e+02	
8	4.000000e-01	3.656106e+02	
9	4.500000e-01	3.813043e+02	
10	5.000000e-01	3.978177e+02	
11	5.500000e-01	4.152227e+02	
12	6.000000e-01	4.335996e+02	
13	6.500000e-01	4.530387e+02	
14	7.000000e-01	4.736409e+02	
15	7.500000e-01	4.955193e+02	
16	8.000000e-01	5.188012e+02	
17	8.500000e-01	5.436308e+02	
18	9.000000e-01	5.701731e+02	
19	9.500000e-01	5.986195e+02	
20	1.000000e+00	6.291965e+02	
21	1.050000e+00	6.621797e+02	
22	1.100000e+00	6.979163e+02	
23	1.150000e+00	7.368626e+02	
24	1.200000e+00	7.796487e+02	
25	1.250000e+00	8.271928e+02	
26	1.300000e+00	8.809026e+02	
27	1.350000e+00	9.430291e+02	
28	1.400000e+00	1.017256e+03	
29	1.450000e+00	1.109575e+03	
30	1.500000e+00	1.229235e+03	
31	1.550000e+00	1.388940e+03	
32	1.600000e+00	1.602856e+03	
33	1.650000e+00	1.882070e+03	
34	1.700000e+00	2.230220e+03	
35	1.750000e+00	2.642861e+03	
36	1.800000e+00	3.110441e+03	
37	1.850000e+00	3.621939e+03	
38	1.900000e+00	4.167178e+03	
39	1.950000e+00	4.737712e+03	
40	2.000000e+00	5.326890e+03	
41	2.050000e+00	5.929598e+03	
42	2.100000e+00	6.541935e+03	
43	2.150000e+00	7.160921e+03	
44	2.200000e+00	7.784275e+03	
45	2.250000e+00	8.410233e+03	
46	2.300000e+00	9.037421e+03	
47	2.350000e+00	9.664761e+03	
48	2.400000e+00	1.029140e+04	
49	2.450000e+00	1.091667e+04	
50	2.500000e+00	1.154001e+04	
51	2.550000e+00	1.216100e+04	
52	2.600000e+00	1.277927e+04	
53	2.650000e+00	1.339455e+04	
54	2.700000e+00	1.400660e+04	

Index   v-sweep         rds             
--------------------------------------------------------------------------------
55	2.750000e+00	1.461524e+04	
56	2.800000e+00	1.522031e+04	
57	2.850000e+00	1.582168e+04	
58	2.900000e+00	1.641927e+04	
59	2.950000e+00	1.701298e+04	
60	3.000000e+00	1.760277e+04	
61	3.050000e+00	1.818858e+04	
62	3.100000e+00	1.877038e+04	
63	3.150000e+00	1.934813e+04	
64	3.200000e+00	1.992184e+04	
65	3.250000e+00	2.049147e+04	
66	3.300000e+00	2.105704e+04	
67	3.350000e+00	2.161855e+04	
68	3.400000e+00	2.217600e+04	
69	3.450000e+00	2.272939e+04	
70	3.500000e+00	2.327876e+04	
71	3.550000e+00	2.382411e+04	
72	3.600000e+00	2.436546e+04	
73	3.650000e+00	2.490283e+04	
74	3.700000e+00	2.543626e+04	
75	3.750000e+00	2.596576e+04	
76	3.800000e+00	2.649135e+04	
77	3.850000e+00	2.701308e+04	
78	3.900000e+00	2.753096e+04	
79	3.950000e+00	2.804503e+04	
80	4.000000e+00	2.855531e+04	
81	4.050000e+00	2.906184e+04	
82	4.100000e+00	2.956465e+04	
83	4.150000e+00	3.006376e+04	
84	4.200000e+00	3.055922e+04	
85	4.250000e+00	3.105106e+04	
86	4.300000e+00	3.153929e+04	
87	4.350000e+00	3.202397e+04	
88	4.400000e+00	3.250512e+04	
89	4.450000e+00	3.298277e+04	
90	4.500000e+00	3.345696e+04	
91	4.550000e+00	3.392771e+04	
92	4.600000e+00	3.439507e+04	
93	4.650000e+00	3.485905e+04	
94	4.700000e+00	3.531971e+04	
95	4.750000e+00	3.577706e+04	
96	4.800000e+00	3.623114e+04	
97	4.850000e+00	3.668198e+04	
98	4.900000e+00	3.712961e+04	
99	4.950000e+00	3.757406e+04	
100	5.000000e+00	3.801537e+04	
101	5.050000e+00	3.845357e+04	
102	5.100000e+00	3.888867e+04	
103	5.150000e+00	3.932073e+04	
104	5.200000e+00	3.974975e+04	
105	5.250000e+00	4.017579e+04	
106	5.300000e+00	4.059885e+04	
107	5.350000e+00	4.101898e+04	
108	5.400000e+00	4.143620e+04	
109	5.450000e+00	4.185055e+04	
110	5.500000e+00	4.226204e+04	
111	5.550000e+00	4.267070e+04	
112	5.600000e+00	4.307657e+04	

Index   v-sweep         rds             
--------------------------------------------------------------------------------
113	5.650000e+00	4.347968e+04	
114	5.700000e+00	4.388004e+04	
115	5.750000e+00	4.427769e+04	
116	5.800000e+00	4.467265e+04	
117	5.850000e+00	4.506495e+04	
118	5.900000e+00	4.545461e+04	
119	5.950000e+00	4.584166e+04	
120	6.000000e+00	4.622613e+04	
121	6.050000e+00	4.660804e+04	
122	6.100000e+00	4.698741e+04	
123	6.150000e+00	4.736427e+04	
124	6.200000e+00	4.773865e+04	
125	6.250000e+00	4.811057e+04	
126	6.300000e+00	4.848004e+04	
127	6.350000e+00	4.884711e+04	
128	6.400000e+00	4.921178e+04	
129	6.450000e+00	4.957408e+04	
130	6.500000e+00	4.993404e+04	
131	6.550000e+00	5.029167e+04	
132	6.600000e+00	5.064700e+04	
Reset re-loads circuit ***************************

Circuit: ***************************

Note: No ".plot", ".print", or ".fourier" lines; no simulations run
