
Note: Compatibility modes selected: hs

Warning: m=xx on .subckt line will override multiplier m hierarchy!


Circuit: ***************************

Doing analysis at TEMP = -40.000000 and TNOM = -40.000000


No. of Data Rows : 133
                          ***************************
                          DC transfer characteristic  Mon Jan  9 13:57:42  2023
--------------------------------------------------------------------------------
Index   v-sweep         rds             
--------------------------------------------------------------------------------
0	0.000000e+00	3.790486e+03	
1	5.000000e-02	5.855148e+03	
2	1.000000e-01	1.112715e+04	
3	1.500000e-01	2.565630e+04	
4	2.000000e-01	4.778921e+04	
5	2.500000e-01	6.731743e+04	
6	3.000000e-01	8.326991e+04	
7	3.500000e-01	9.681241e+04	
8	4.000000e-01	1.086324e+05	
9	4.500000e-01	1.191113e+05	
10	5.000000e-01	1.284907e+05	
11	5.500000e-01	1.369425e+05	
12	6.000000e-01	1.445978e+05	
13	6.500000e-01	1.515612e+05	
14	7.000000e-01	1.579186e+05	
15	7.500000e-01	1.637419e+05	
16	8.000000e-01	1.690917e+05	
17	8.500000e-01	1.740199e+05	
18	9.000000e-01	1.785711e+05	
19	9.500000e-01	1.827840e+05	
20	1.000000e+00	1.866923e+05	
21	1.050000e+00	1.903253e+05	
22	1.100000e+00	1.937090e+05	
23	1.150000e+00	1.968661e+05	
24	1.200000e+00	1.998169e+05	
25	1.250000e+00	2.025792e+05	
26	1.300000e+00	2.051691e+05	
27	1.350000e+00	2.076009e+05	
28	1.400000e+00	2.098872e+05	
29	1.450000e+00	2.120397e+05	
30	1.500000e+00	2.140687e+05	
31	1.550000e+00	2.159834e+05	
32	1.600000e+00	2.177925e+05	
33	1.650000e+00	2.195035e+05	
34	1.700000e+00	2.211234e+05	
35	1.750000e+00	2.226587e+05	
36	1.800000e+00	2.241149e+05	
37	1.850000e+00	2.254976e+05	
38	1.900000e+00	2.268115e+05	
39	1.950000e+00	2.280610e+05	
40	2.000000e+00	2.292503e+05	
41	2.050000e+00	2.303831e+05	
42	2.100000e+00	2.314629e+05	
43	2.150000e+00	2.324929e+05	
44	2.200000e+00	2.334760e+05	
45	2.250000e+00	2.344150e+05	
46	2.300000e+00	2.353124e+05	
47	2.350000e+00	2.361706e+05	
48	2.400000e+00	2.369917e+05	
49	2.450000e+00	2.377779e+05	
50	2.500000e+00	2.385309e+05	
51	2.550000e+00	2.392525e+05	
52	2.600000e+00	2.399445e+05	
53	2.650000e+00	2.406082e+05	
54	2.700000e+00	2.412453e+05	

Index   v-sweep         rds             
--------------------------------------------------------------------------------
55	2.750000e+00	2.418569e+05	
56	2.800000e+00	2.424445e+05	
57	2.850000e+00	2.430091e+05	
58	2.900000e+00	2.435519e+05	
59	2.950000e+00	2.440739e+05	
60	3.000000e+00	2.445761e+05	
61	3.050000e+00	2.450595e+05	
62	3.100000e+00	2.455248e+05	
63	3.150000e+00	2.459729e+05	
64	3.200000e+00	2.464047e+05	
65	3.250000e+00	2.468207e+05	
66	3.300000e+00	2.472218e+05	
67	3.350000e+00	2.476085e+05	
68	3.400000e+00	2.479815e+05	
69	3.450000e+00	2.483413e+05	
70	3.500000e+00	2.486886e+05	
71	3.550000e+00	2.490238e+05	
72	3.600000e+00	2.493474e+05	
73	3.650000e+00	2.496600e+05	
74	3.700000e+00	2.499619e+05	
75	3.750000e+00	2.502535e+05	
76	3.800000e+00	2.505354e+05	
77	3.850000e+00	2.508078e+05	
78	3.900000e+00	2.510712e+05	
79	3.950000e+00	2.513258e+05	
80	4.000000e+00	2.515720e+05	
81	4.050000e+00	2.518102e+05	
82	4.100000e+00	2.520406e+05	
83	4.150000e+00	2.522635e+05	
84	4.200000e+00	2.524792e+05	
85	4.250000e+00	2.526880e+05	
86	4.300000e+00	2.528900e+05	
87	4.350000e+00	2.530856e+05	
88	4.400000e+00	2.532750e+05	
89	4.450000e+00	2.534584e+05	
90	4.500000e+00	2.536360e+05	
91	4.550000e+00	2.538079e+05	
92	4.600000e+00	2.539745e+05	
93	4.650000e+00	2.541359e+05	
94	4.700000e+00	2.542922e+05	
95	4.750000e+00	2.544436e+05	
96	4.800000e+00	2.545903e+05	
97	4.850000e+00	2.547325e+05	
98	4.900000e+00	2.548703e+05	
99	4.950000e+00	2.550038e+05	
100	5.000000e+00	2.551331e+05	
101	5.050000e+00	2.552585e+05	
102	5.100000e+00	2.553800e+05	
103	5.150000e+00	2.554978e+05	
104	5.200000e+00	2.556119e+05	
105	5.250000e+00	2.557225e+05	
106	5.300000e+00	2.558298e+05	
107	5.350000e+00	2.559337e+05	
108	5.400000e+00	2.560344e+05	
109	5.450000e+00	2.561321e+05	
110	5.500000e+00	2.562267e+05	
111	5.550000e+00	2.563184e+05	
112	5.600000e+00	2.564073e+05	

Index   v-sweep         rds             
--------------------------------------------------------------------------------
113	5.650000e+00	2.564934e+05	
114	5.700000e+00	2.565769e+05	
115	5.750000e+00	2.566578e+05	
116	5.800000e+00	2.567362e+05	
117	5.850000e+00	2.568122e+05	
118	5.900000e+00	2.568857e+05	
119	5.950000e+00	2.569570e+05	
120	6.000000e+00	2.570261e+05	
121	6.050000e+00	2.570930e+05	
122	6.100000e+00	2.571578e+05	
123	6.150000e+00	2.572206e+05	
124	6.200000e+00	2.572813e+05	
125	6.250000e+00	2.573402e+05	
126	6.300000e+00	2.573971e+05	
127	6.350000e+00	2.574523e+05	
128	6.400000e+00	2.575056e+05	
129	6.450000e+00	2.575572e+05	
130	6.500000e+00	2.576072e+05	
131	6.550000e+00	2.576555e+05	
132	6.600000e+00	2.577022e+05	
Reset re-loads circuit ***************************

Circuit: ***************************

Doing analysis at TEMP = -40.000000 and TNOM = -40.000000


No. of Data Rows : 133
                          ***************************
                          DC transfer characteristic  Mon Jan  9 13:57:42  2023
--------------------------------------------------------------------------------
Index   v-sweep         rds             
--------------------------------------------------------------------------------
0	0.000000e+00	7.743432e+02	
1	5.000000e-02	8.539625e+02	
2	1.000000e-01	9.463275e+02	
3	1.500000e-01	1.054722e+03	
4	2.000000e-01	1.183681e+03	
5	2.500000e-01	1.339659e+03	
6	3.000000e-01	1.532195e+03	
7	3.500000e-01	1.776117e+03	
8	4.000000e-01	2.096020e+03	
9	4.500000e-01	2.535852e+03	
10	5.000000e-01	3.176858e+03	
11	5.500000e-01	4.149957e+03	
12	6.000000e-01	5.579219e+03	
13	6.500000e-01	7.462644e+03	
14	7.000000e-01	9.675576e+03	
15	7.500000e-01	1.207945e+04	
16	8.000000e-01	1.457608e+04	
17	8.500000e-01	1.710577e+04	
18	9.000000e-01	1.963363e+04	
19	9.500000e-01	2.213931e+04	
20	1.000000e+00	2.461079e+04	
21	1.050000e+00	2.704100e+04	
22	1.100000e+00	2.942584e+04	
23	1.150000e+00	3.176306e+04	
24	1.200000e+00	3.405162e+04	
25	1.250000e+00	3.629122e+04	
26	1.300000e+00	3.848207e+04	
27	1.350000e+00	4.062473e+04	
28	1.400000e+00	4.271999e+04	
29	1.450000e+00	4.476876e+04	
30	1.500000e+00	4.677208e+04	
31	1.550000e+00	4.873102e+04	
32	1.600000e+00	5.064670e+04	
33	1.650000e+00	5.252025e+04	
34	1.700000e+00	5.435279e+04	
35	1.750000e+00	5.614546e+04	
36	1.800000e+00	5.789935e+04	
37	1.850000e+00	5.961555e+04	
38	1.900000e+00	6.129513e+04	
39	1.950000e+00	6.293911e+04	
40	2.000000e+00	6.454852e+04	
41	2.050000e+00	6.612432e+04	
42	2.100000e+00	6.766746e+04	
43	2.150000e+00	6.917888e+04	
44	2.200000e+00	7.065947e+04	
45	2.250000e+00	7.211009e+04	
46	2.300000e+00	7.353157e+04	
47	2.350000e+00	7.492474e+04	
48	2.400000e+00	7.629037e+04	
49	2.450000e+00	7.762923e+04	
50	2.500000e+00	7.894204e+04	
51	2.550000e+00	8.022952e+04	
52	2.600000e+00	8.149235e+04	
53	2.650000e+00	8.273120e+04	
54	2.700000e+00	8.394670e+04	

Index   v-sweep         rds             
--------------------------------------------------------------------------------
55	2.750000e+00	8.513948e+04	
56	2.800000e+00	8.631013e+04	
57	2.850000e+00	8.745924e+04	
58	2.900000e+00	8.858737e+04	
59	2.950000e+00	8.969506e+04	
60	3.000000e+00	9.078283e+04	
61	3.050000e+00	9.185119e+04	
62	3.100000e+00	9.290063e+04	
63	3.150000e+00	9.393164e+04	
64	3.200000e+00	9.494467e+04	
65	3.250000e+00	9.594016e+04	
66	3.300000e+00	9.691856e+04	
67	3.350000e+00	9.788027e+04	
68	3.400000e+00	9.882570e+04	
69	3.450000e+00	9.975525e+04	
70	3.500000e+00	1.006693e+05	
71	3.550000e+00	1.015682e+05	
72	3.600000e+00	1.024523e+05	
73	3.650000e+00	1.033221e+05	
74	3.700000e+00	1.041777e+05	
75	3.750000e+00	1.050195e+05	
76	3.800000e+00	1.058479e+05	
77	3.850000e+00	1.066632e+05	
78	3.900000e+00	1.074656e+05	
79	3.950000e+00	1.082555e+05	
80	4.000000e+00	1.090331e+05	
81	4.050000e+00	1.097987e+05	
82	4.100000e+00	1.105525e+05	
83	4.150000e+00	1.112949e+05	
84	4.200000e+00	1.120261e+05	
85	4.250000e+00	1.127463e+05	
86	4.300000e+00	1.134557e+05	
87	4.350000e+00	1.141546e+05	
88	4.400000e+00	1.148433e+05	
89	4.450000e+00	1.155218e+05	
90	4.500000e+00	1.161905e+05	
91	4.550000e+00	1.168496e+05	
92	4.600000e+00	1.174992e+05	
93	4.650000e+00	1.181395e+05	
94	4.700000e+00	1.187707e+05	
95	4.750000e+00	1.193931e+05	
96	4.800000e+00	1.200068e+05	
97	4.850000e+00	1.206119e+05	
98	4.900000e+00	1.212087e+05	
99	4.950000e+00	1.217973e+05	
100	5.000000e+00	1.223778e+05	
101	5.050000e+00	1.229505e+05	
102	5.100000e+00	1.235155e+05	
103	5.150000e+00	1.240728e+05	
104	5.200000e+00	1.246228e+05	
105	5.250000e+00	1.251655e+05	
106	5.300000e+00	1.257010e+05	
107	5.350000e+00	1.262295e+05	
108	5.400000e+00	1.267512e+05	
109	5.450000e+00	1.272661e+05	
110	5.500000e+00	1.277744e+05	
111	5.550000e+00	1.282762e+05	
112	5.600000e+00	1.287716e+05	

Index   v-sweep         rds             
--------------------------------------------------------------------------------
113	5.650000e+00	1.292607e+05	
114	5.700000e+00	1.297437e+05	
115	5.750000e+00	1.302207e+05	
116	5.800000e+00	1.306917e+05	
117	5.850000e+00	1.311569e+05	
118	5.900000e+00	1.316164e+05	
119	5.950000e+00	1.320703e+05	
120	6.000000e+00	1.325186e+05	
121	6.050000e+00	1.329616e+05	
122	6.100000e+00	1.333992e+05	
123	6.150000e+00	1.338316e+05	
124	6.200000e+00	1.342588e+05	
125	6.250000e+00	1.346810e+05	
126	6.300000e+00	1.350982e+05	
127	6.350000e+00	1.355106e+05	
128	6.400000e+00	1.359181e+05	
129	6.450000e+00	1.363209e+05	
130	6.500000e+00	1.367191e+05	
131	6.550000e+00	1.371127e+05	
132	6.600000e+00	1.375018e+05	
Reset re-loads circuit ***************************

Circuit: ***************************

Doing analysis at TEMP = -40.000000 and TNOM = -40.000000


No. of Data Rows : 133
                          ***************************
                          DC transfer characteristic  Mon Jan  9 13:57:42  2023
--------------------------------------------------------------------------------
Index   v-sweep         rds             
--------------------------------------------------------------------------------
0	0.000000e+00	4.880455e+02	
1	5.000000e-02	5.223539e+02	
2	1.000000e-01	5.597636e+02	
3	1.500000e-01	6.007009e+02	
4	2.000000e-01	6.456782e+02	
5	2.500000e-01	6.953188e+02	
6	3.000000e-01	7.503887e+02	
7	3.500000e-01	8.118411e+02	
8	4.000000e-01	8.808811e+02	
9	4.500000e-01	9.590658e+02	
10	5.000000e-01	1.048471e+03	
11	5.500000e-01	1.151987e+03	
12	6.000000e-01	1.273891e+03	
13	6.500000e-01	1.421012e+03	
14	7.000000e-01	1.605173e+03	
15	7.500000e-01	1.848029e+03	
16	8.000000e-01	2.188441e+03	
17	8.500000e-01	2.685671e+03	
18	9.000000e-01	3.401418e+03	
19	9.500000e-01	4.362348e+03	
20	1.000000e+00	5.545370e+03	
21	1.050000e+00	6.900312e+03	
22	1.100000e+00	8.376264e+03	
23	1.150000e+00	9.932740e+03	
24	1.200000e+00	1.154050e+04	
25	1.250000e+00	1.317911e+04	
26	1.300000e+00	1.483438e+04	
27	1.350000e+00	1.649636e+04	
28	1.400000e+00	1.815803e+04	
29	1.450000e+00	1.981436e+04	
30	1.500000e+00	2.146172e+04	
31	1.550000e+00	2.309745e+04	
32	1.600000e+00	2.471962e+04	
33	1.650000e+00	2.632681e+04	
34	1.700000e+00	2.791799e+04	
35	1.750000e+00	2.949243e+04	
36	1.800000e+00	3.104958e+04	
37	1.850000e+00	3.258911e+04	
38	1.900000e+00	3.411079e+04	
39	1.950000e+00	3.561448e+04	
40	2.000000e+00	3.710016e+04	
41	2.050000e+00	3.856783e+04	
42	2.100000e+00	4.001757e+04	
43	2.150000e+00	4.144948e+04	
44	2.200000e+00	4.286370e+04	
45	2.250000e+00	4.426039e+04	
46	2.300000e+00	4.563973e+04	
47	2.350000e+00	4.700193e+04	
48	2.400000e+00	4.834719e+04	
49	2.450000e+00	4.967573e+04	
50	2.500000e+00	5.098777e+04	
51	2.550000e+00	5.228354e+04	
52	2.600000e+00	5.356327e+04	
53	2.650000e+00	5.482721e+04	
54	2.700000e+00	5.607558e+04	

Index   v-sweep         rds             
--------------------------------------------------------------------------------
55	2.750000e+00	5.730862e+04	
56	2.800000e+00	5.852657e+04	
57	2.850000e+00	5.972966e+04	
58	2.900000e+00	6.091812e+04	
59	2.950000e+00	6.209219e+04	
60	3.000000e+00	6.325209e+04	
61	3.050000e+00	6.439805e+04	
62	3.100000e+00	6.553029e+04	
63	3.150000e+00	6.664904e+04	
64	3.200000e+00	6.775451e+04	
65	3.250000e+00	6.884690e+04	
66	3.300000e+00	6.992645e+04	
67	3.350000e+00	7.099334e+04	
68	3.400000e+00	7.204779e+04	
69	3.450000e+00	7.309000e+04	
70	3.500000e+00	7.412016e+04	
71	3.550000e+00	7.513846e+04	
72	3.600000e+00	7.614510e+04	
73	3.650000e+00	7.714027e+04	
74	3.700000e+00	7.812414e+04	
75	3.750000e+00	7.909689e+04	
76	3.800000e+00	8.005872e+04	
77	3.850000e+00	8.100977e+04	
78	3.900000e+00	8.195024e+04	
79	3.950000e+00	8.288028e+04	
80	4.000000e+00	8.380005e+04	
81	4.050000e+00	8.470973e+04	
82	4.100000e+00	8.560946e+04	
83	4.150000e+00	8.649941e+04	
84	4.200000e+00	8.737972e+04	
85	4.250000e+00	8.825054e+04	
86	4.300000e+00	8.911202e+04	
87	4.350000e+00	8.996430e+04	
88	4.400000e+00	9.080753e+04	
89	4.450000e+00	9.164183e+04	
90	4.500000e+00	9.246736e+04	
91	4.550000e+00	9.328423e+04	
92	4.600000e+00	9.409258e+04	
93	4.650000e+00	9.489254e+04	
94	4.700000e+00	9.568424e+04	
95	4.750000e+00	9.646779e+04	
96	4.800000e+00	9.724331e+04	
97	4.850000e+00	9.801094e+04	
98	4.900000e+00	9.877077e+04	
99	4.950000e+00	9.952293e+04	
100	5.000000e+00	1.002675e+05	
101	5.050000e+00	1.010047e+05	
102	5.100000e+00	1.017345e+05	
103	5.150000e+00	1.024571e+05	
104	5.200000e+00	1.031725e+05	
105	5.250000e+00	1.038809e+05	
106	5.300000e+00	1.045824e+05	
107	5.350000e+00	1.052770e+05	
108	5.400000e+00	1.059649e+05	
109	5.450000e+00	1.066462e+05	
110	5.500000e+00	1.073209e+05	
111	5.550000e+00	1.079892e+05	
112	5.600000e+00	1.086511e+05	

Index   v-sweep         rds             
--------------------------------------------------------------------------------
113	5.650000e+00	1.093067e+05	
114	5.700000e+00	1.099561e+05	
115	5.750000e+00	1.105994e+05	
116	5.800000e+00	1.112367e+05	
117	5.850000e+00	1.118681e+05	
118	5.900000e+00	1.124936e+05	
119	5.950000e+00	1.131133e+05	
120	6.000000e+00	1.137273e+05	
121	6.050000e+00	1.143357e+05	
122	6.100000e+00	1.149385e+05	
123	6.150000e+00	1.155359e+05	
124	6.200000e+00	1.161278e+05	
125	6.250000e+00	1.167145e+05	
126	6.300000e+00	1.172958e+05	
127	6.350000e+00	1.178720e+05	
128	6.400000e+00	1.184430e+05	
129	6.450000e+00	1.190090e+05	
130	6.500000e+00	1.195700e+05	
131	6.550000e+00	1.201261e+05	
132	6.600000e+00	1.206773e+05	
Reset re-loads circuit ***************************

Circuit: ***************************

Doing analysis at TEMP = -40.000000 and TNOM = -40.000000


No. of Data Rows : 133
                          ***************************
                          DC transfer characteristic  Mon Jan  9 13:57:42  2023
--------------------------------------------------------------------------------
Index   v-sweep         rds             
--------------------------------------------------------------------------------
0	0.000000e+00	3.816115e+02	
1	5.000000e-02	4.031157e+02	
2	1.000000e-01	4.260162e+02	
3	1.500000e-01	4.504456e+02	
4	2.000000e-01	4.765554e+02	
5	2.500000e-01	5.045204e+02	
6	3.000000e-01	5.345434e+02	
7	3.500000e-01	5.668608e+02	
8	4.000000e-01	6.017496e+02	
9	4.500000e-01	6.395362e+02	
10	5.000000e-01	6.806079e+02	
11	5.500000e-01	7.254306e+02	
12	6.000000e-01	7.745727e+02	
13	6.500000e-01	8.287455e+02	
14	7.000000e-01	8.888677e+02	
15	7.500000e-01	9.561787e+02	
16	8.000000e-01	1.032447e+03	
17	8.500000e-01	1.120366e+03	
18	9.000000e-01	1.224327e+03	
19	9.500000e-01	1.351906e+03	
20	1.000000e+00	1.516481e+03	
21	1.050000e+00	1.740812e+03	
22	1.100000e+00	2.058761e+03	
23	1.150000e+00	2.508722e+03	
24	1.200000e+00	3.117097e+03	
25	1.250000e+00	3.885463e+03	
26	1.300000e+00	4.794045e+03	
27	1.350000e+00	5.814330e+03	
28	1.400000e+00	6.918762e+03	
29	1.450000e+00	8.084626e+03	
30	1.500000e+00	9.294460e+03	
31	1.550000e+00	1.053520e+04	
32	1.600000e+00	1.179716e+04	
33	1.650000e+00	1.307310e+04	
34	1.700000e+00	1.435761e+04	
35	1.750000e+00	1.564659e+04	
36	1.800000e+00	1.693687e+04	
37	1.850000e+00	1.822606e+04	
38	1.900000e+00	1.951225e+04	
39	1.950000e+00	2.079397e+04	
40	2.000000e+00	2.207004e+04	
41	2.050000e+00	2.333956e+04	
42	2.100000e+00	2.460179e+04	
43	2.150000e+00	2.585614e+04	
44	2.200000e+00	2.710215e+04	
45	2.250000e+00	2.833946e+04	
46	2.300000e+00	2.956778e+04	
47	2.350000e+00	3.078689e+04	
48	2.400000e+00	3.199662e+04	
49	2.450000e+00	3.319684e+04	
50	2.500000e+00	3.438746e+04	
51	2.550000e+00	3.556841e+04	
52	2.600000e+00	3.673967e+04	
53	2.650000e+00	3.790121e+04	
54	2.700000e+00	3.905303e+04	

Index   v-sweep         rds             
--------------------------------------------------------------------------------
55	2.750000e+00	4.019516e+04	
56	2.800000e+00	4.132762e+04	
57	2.850000e+00	4.245045e+04	
58	2.900000e+00	4.356370e+04	
59	2.950000e+00	4.466742e+04	
60	3.000000e+00	4.576167e+04	
61	3.050000e+00	4.684653e+04	
62	3.100000e+00	4.792206e+04	
63	3.150000e+00	4.898834e+04	
64	3.200000e+00	5.004545e+04	
65	3.250000e+00	5.109347e+04	
66	3.300000e+00	5.213248e+04	
67	3.350000e+00	5.316257e+04	
68	3.400000e+00	5.418382e+04	
69	3.450000e+00	5.519633e+04	
70	3.500000e+00	5.620017e+04	
71	3.550000e+00	5.719543e+04	
72	3.600000e+00	5.818222e+04	
73	3.650000e+00	5.916061e+04	
74	3.700000e+00	6.013069e+04	
75	3.750000e+00	6.109256e+04	
76	3.800000e+00	6.204629e+04	
77	3.850000e+00	6.299199e+04	
78	3.900000e+00	6.392974e+04	
79	3.950000e+00	6.485962e+04	
80	4.000000e+00	6.578173e+04	
81	4.050000e+00	6.669614e+04	
82	4.100000e+00	6.760295e+04	
83	4.150000e+00	6.850224e+04	
84	4.200000e+00	6.939409e+04	
85	4.250000e+00	7.027858e+04	
86	4.300000e+00	7.115581e+04	
87	4.350000e+00	7.202585e+04	
88	4.400000e+00	7.288878e+04	
89	4.450000e+00	7.374468e+04	
90	4.500000e+00	7.459363e+04	
91	4.550000e+00	7.543571e+04	
92	4.600000e+00	7.627100e+04	
93	4.650000e+00	7.709957e+04	
94	4.700000e+00	7.792150e+04	
95	4.750000e+00	7.873686e+04	
96	4.800000e+00	7.954573e+04	
97	4.850000e+00	8.034817e+04	
98	4.900000e+00	8.114427e+04	
99	4.950000e+00	8.193409e+04	
100	5.000000e+00	8.271770e+04	
101	5.050000e+00	8.349517e+04	
102	5.100000e+00	8.426658e+04	
103	5.150000e+00	8.503198e+04	
104	5.200000e+00	8.579144e+04	
105	5.250000e+00	8.654503e+04	
106	5.300000e+00	8.729281e+04	
107	5.350000e+00	8.803486e+04	
108	5.400000e+00	8.877122e+04	
109	5.450000e+00	8.950197e+04	
110	5.500000e+00	9.022716e+04	
111	5.550000e+00	9.094686e+04	
112	5.600000e+00	9.166112e+04	

Index   v-sweep         rds             
--------------------------------------------------------------------------------
113	5.650000e+00	9.237001e+04	
114	5.700000e+00	9.307358e+04	
115	5.750000e+00	9.377189e+04	
116	5.800000e+00	9.446500e+04	
117	5.850000e+00	9.515296e+04	
118	5.900000e+00	9.583583e+04	
119	5.950000e+00	9.651366e+04	
120	6.000000e+00	9.718650e+04	
121	6.050000e+00	9.785442e+04	
122	6.100000e+00	9.851746e+04	
123	6.150000e+00	9.917567e+04	
124	6.200000e+00	9.982911e+04	
125	6.250000e+00	1.004778e+05	
126	6.300000e+00	1.011219e+05	
127	6.350000e+00	1.017613e+05	
128	6.400000e+00	1.023961e+05	
129	6.450000e+00	1.030264e+05	
130	6.500000e+00	1.036522e+05	
131	6.550000e+00	1.042736e+05	
132	6.600000e+00	1.048906e+05	
Reset re-loads circuit ***************************

Circuit: ***************************

Doing analysis at TEMP = -40.000000 and TNOM = -40.000000


No. of Data Rows : 133
                          ***************************
                          DC transfer characteristic  Mon Jan  9 13:57:42  2023
--------------------------------------------------------------------------------
Index   v-sweep         rds             
--------------------------------------------------------------------------------
0	0.000000e+00	3.299331e+02	
1	5.000000e-02	3.456019e+02	
2	1.000000e-01	3.620721e+02	
3	1.500000e-01	3.794018e+02	
4	2.000000e-01	3.976556e+02	
5	2.500000e-01	4.169060e+02	
6	3.000000e-01	4.372346e+02	
7	3.500000e-01	4.587335e+02	
8	4.000000e-01	4.815074e+02	
9	4.500000e-01	5.056747e+02	
10	5.000000e-01	5.313705e+02	
11	5.500000e-01	5.587486e+02	
12	6.000000e-01	5.879851e+02	
13	6.500000e-01	6.192827e+02	
14	7.000000e-01	6.528776e+02	
15	7.500000e-01	6.890476e+02	
16	8.000000e-01	7.281262e+02	
17	8.500000e-01	7.705236e+02	
18	9.000000e-01	8.167606e+02	
19	9.500000e-01	8.675266e+02	
20	1.000000e+00	9.237799e+02	
21	1.050000e+00	9.869289e+02	
22	1.100000e+00	1.059163e+03	
23	1.150000e+00	1.144058e+03	
24	1.200000e+00	1.247642e+03	
25	1.250000e+00	1.380076e+03	
26	1.300000e+00	1.557623e+03	
27	1.350000e+00	1.803216e+03	
28	1.400000e+00	2.142515e+03	
29	1.450000e+00	2.594850e+03	
30	1.500000e+00	3.165310e+03	
31	1.550000e+00	3.844800e+03	
32	1.600000e+00	4.616299e+03	
33	1.650000e+00	5.461194e+03	
34	1.700000e+00	6.362786e+03	
35	1.750000e+00	7.307403e+03	
36	1.800000e+00	8.284321e+03	
37	1.850000e+00	9.285274e+03	
38	1.900000e+00	1.030391e+04	
39	1.950000e+00	1.133535e+04	
40	2.000000e+00	1.237579e+04	
41	2.050000e+00	1.342228e+04	
42	2.100000e+00	1.447250e+04	
43	2.150000e+00	1.552458e+04	
44	2.200000e+00	1.657705e+04	
45	2.250000e+00	1.762871e+04	
46	2.300000e+00	1.867860e+04	
47	2.350000e+00	1.972593e+04	
48	2.400000e+00	2.077005e+04	
49	2.450000e+00	2.181042e+04	
50	2.500000e+00	2.284661e+04	
51	2.550000e+00	2.387825e+04	
52	2.600000e+00	2.490504e+04	
53	2.650000e+00	2.592674e+04	
54	2.700000e+00	2.694313e+04	

Index   v-sweep         rds             
--------------------------------------------------------------------------------
55	2.750000e+00	2.795405e+04	
56	2.800000e+00	2.895935e+04	
57	2.850000e+00	2.995892e+04	
58	2.900000e+00	3.095268e+04	
59	2.950000e+00	3.194053e+04	
60	3.000000e+00	3.292244e+04	
61	3.050000e+00	3.389835e+04	
62	3.100000e+00	3.486824e+04	
63	3.150000e+00	3.583207e+04	
64	3.200000e+00	3.678984e+04	
65	3.250000e+00	3.774154e+04	
66	3.300000e+00	3.868717e+04	
67	3.350000e+00	3.962674e+04	
68	3.400000e+00	4.056026e+04	
69	3.450000e+00	4.148774e+04	
70	3.500000e+00	4.240921e+04	
71	3.550000e+00	4.332469e+04	
72	3.600000e+00	4.423420e+04	
73	3.650000e+00	4.513778e+04	
74	3.700000e+00	4.603545e+04	
75	3.750000e+00	4.692725e+04	
76	3.800000e+00	4.781321e+04	
77	3.850000e+00	4.869336e+04	
78	3.900000e+00	4.956775e+04	
79	3.950000e+00	5.043642e+04	
80	4.000000e+00	5.129939e+04	
81	4.050000e+00	5.215672e+04	
82	4.100000e+00	5.300844e+04	
83	4.150000e+00	5.385459e+04	
84	4.200000e+00	5.469522e+04	
85	4.250000e+00	5.553037e+04	
86	4.300000e+00	5.636007e+04	
87	4.350000e+00	5.718438e+04	
88	4.400000e+00	5.800333e+04	
89	4.450000e+00	5.881697e+04	
90	4.500000e+00	5.962534e+04	
91	4.550000e+00	6.042849e+04	
92	4.600000e+00	6.122645e+04	
93	4.650000e+00	6.201926e+04	
94	4.700000e+00	6.280698e+04	
95	4.750000e+00	6.358965e+04	
96	4.800000e+00	6.436730e+04	
97	4.850000e+00	6.513998e+04	
98	4.900000e+00	6.590773e+04	
99	4.950000e+00	6.667059e+04	
100	5.000000e+00	6.742861e+04	
101	5.050000e+00	6.818182e+04	
102	5.100000e+00	6.893027e+04	
103	5.150000e+00	6.967399e+04	
104	5.200000e+00	7.041304e+04	
105	5.250000e+00	7.114744e+04	
106	5.300000e+00	7.187724e+04	
107	5.350000e+00	7.260248e+04	
108	5.400000e+00	7.332319e+04	
109	5.450000e+00	7.403942e+04	
110	5.500000e+00	7.475121e+04	
111	5.550000e+00	7.545858e+04	
112	5.600000e+00	7.616159e+04	

Index   v-sweep         rds             
--------------------------------------------------------------------------------
113	5.650000e+00	7.686027e+04	
114	5.700000e+00	7.755465e+04	
115	5.750000e+00	7.824478e+04	
116	5.800000e+00	7.893068e+04	
117	5.850000e+00	7.961240e+04	
118	5.900000e+00	8.028998e+04	
119	5.950000e+00	8.096344e+04	
120	6.000000e+00	8.163282e+04	
121	6.050000e+00	8.229816e+04	
122	6.100000e+00	8.295950e+04	
123	6.150000e+00	8.361686e+04	
124	6.200000e+00	8.427028e+04	
125	6.250000e+00	8.491979e+04	
126	6.300000e+00	8.556544e+04	
127	6.350000e+00	8.620724e+04	
128	6.400000e+00	8.684524e+04	
129	6.450000e+00	8.747947e+04	
130	6.500000e+00	8.810995e+04	
131	6.550000e+00	8.873672e+04	
132	6.600000e+00	8.935981e+04	
Reset re-loads circuit ***************************

Circuit: ***************************

Doing analysis at TEMP = -40.000000 and TNOM = -40.000000


No. of Data Rows : 133
                          ***************************
                          DC transfer characteristic  Mon Jan  9 13:57:42  2023
--------------------------------------------------------------------------------
Index   v-sweep         rds             
--------------------------------------------------------------------------------
0	0.000000e+00	3.023870e+02	
1	5.000000e-02	3.147560e+02	
2	1.000000e-01	3.276471e+02	
3	1.500000e-01	3.410909e+02	
4	2.000000e-01	3.551206e+02	
5	2.500000e-01	3.697730e+02	
6	3.000000e-01	3.850885e+02	
7	3.500000e-01	4.011117e+02	
8	4.000000e-01	4.178926e+02	
9	4.500000e-01	4.354863e+02	
10	5.000000e-01	4.539544e+02	
11	5.500000e-01	4.733654e+02	
12	6.000000e-01	4.937953e+02	
13	6.500000e-01	5.153290e+02	
14	7.000000e-01	5.380612e+02	
15	7.500000e-01	5.620979e+02	
16	8.000000e-01	5.875587e+02	
17	8.500000e-01	6.145790e+02	
18	9.000000e-01	6.433138e+02	
19	9.500000e-01	6.739434e+02	
20	1.000000e+00	7.066808e+02	
21	1.050000e+00	7.417839e+02	
22	1.100000e+00	7.795744e+02	
23	1.150000e+00	8.204682e+02	
24	1.200000e+00	8.650264e+02	
25	1.250000e+00	9.140418e+02	
26	1.300000e+00	9.686903e+02	
27	1.350000e+00	1.030793e+03	
28	1.400000e+00	1.103271e+03	
29	1.450000e+00	1.190891e+03	
30	1.500000e+00	1.301346e+03	
31	1.550000e+00	1.446433e+03	
32	1.600000e+00	1.642316e+03	
33	1.650000e+00	1.907251e+03	
34	1.700000e+00	2.256267e+03	
35	1.750000e+00	2.695789e+03	
36	1.800000e+00	3.222334e+03	
37	1.850000e+00	3.825540e+03	
38	1.900000e+00	4.492394e+03	
39	1.950000e+00	5.210216e+03	
40	2.000000e+00	5.968030e+03	
41	2.050000e+00	6.756875e+03	
42	2.100000e+00	7.569642e+03	
43	2.150000e+00	8.400755e+03	
44	2.200000e+00	9.245849e+03	
45	2.250000e+00	1.010150e+04	
46	2.300000e+00	1.096499e+04	
47	2.350000e+00	1.183419e+04	
48	2.400000e+00	1.270736e+04	
49	2.450000e+00	1.358311e+04	
50	2.500000e+00	1.446032e+04	
51	2.550000e+00	1.533805e+04	
52	2.600000e+00	1.621555e+04	
53	2.650000e+00	1.709219e+04	
54	2.700000e+00	1.796744e+04	

Index   v-sweep         rds             
--------------------------------------------------------------------------------
55	2.750000e+00	1.884085e+04	
56	2.800000e+00	1.971207e+04	
57	2.850000e+00	2.058078e+04	
58	2.900000e+00	2.144672e+04	
59	2.950000e+00	2.230966e+04	
60	3.000000e+00	2.316942e+04	
61	3.050000e+00	2.402583e+04	
62	3.100000e+00	2.487876e+04	
63	3.150000e+00	2.572810e+04	
64	3.200000e+00	2.657375e+04	
65	3.250000e+00	2.741562e+04	
66	3.300000e+00	2.825365e+04	
67	3.350000e+00	2.908777e+04	
68	3.400000e+00	2.991795e+04	
69	3.450000e+00	3.074413e+04	
70	3.500000e+00	3.156629e+04	
71	3.550000e+00	3.238441e+04	
72	3.600000e+00	3.319846e+04	
73	3.650000e+00	3.400842e+04	
74	3.700000e+00	3.481429e+04	
75	3.750000e+00	3.561607e+04	
76	3.800000e+00	3.641374e+04	
77	3.850000e+00	3.720731e+04	
78	3.900000e+00	3.799678e+04	
79	3.950000e+00	3.878216e+04	
80	4.000000e+00	3.956346e+04	
81	4.050000e+00	4.034068e+04	
82	4.100000e+00	4.111383e+04	
83	4.150000e+00	4.188293e+04	
84	4.200000e+00	4.264800e+04	
85	4.250000e+00	4.340904e+04	
86	4.300000e+00	4.416608e+04	
87	4.350000e+00	4.491913e+04	
88	4.400000e+00	4.566821e+04	
89	4.450000e+00	4.641334e+04	
90	4.500000e+00	4.715454e+04	
91	4.550000e+00	4.789182e+04	
92	4.600000e+00	4.862522e+04	
93	4.650000e+00	4.935475e+04	
94	4.700000e+00	5.008043e+04	
95	4.750000e+00	5.080228e+04	
96	4.800000e+00	5.152033e+04	
97	4.850000e+00	5.223460e+04	
98	4.900000e+00	5.294512e+04	
99	4.950000e+00	5.365190e+04	
100	5.000000e+00	5.435496e+04	
101	5.050000e+00	5.505434e+04	
102	5.100000e+00	5.575006e+04	
103	5.150000e+00	5.644213e+04	
104	5.200000e+00	5.713059e+04	
105	5.250000e+00	5.781545e+04	
106	5.300000e+00	5.849674e+04	
107	5.350000e+00	5.917448e+04	
108	5.400000e+00	5.984870e+04	
109	5.450000e+00	6.051942e+04	
110	5.500000e+00	6.118667e+04	
111	5.550000e+00	6.185046e+04	
112	5.600000e+00	6.251082e+04	

Index   v-sweep         rds             
--------------------------------------------------------------------------------
113	5.650000e+00	6.316777e+04	
114	5.700000e+00	6.382134e+04	
115	5.750000e+00	6.447155e+04	
116	5.800000e+00	6.511843e+04	
117	5.850000e+00	6.576199e+04	
118	5.900000e+00	6.640226e+04	
119	5.950000e+00	6.703926e+04	
120	6.000000e+00	6.767301e+04	
121	6.050000e+00	6.830354e+04	
122	6.100000e+00	6.893087e+04	
123	6.150000e+00	6.955503e+04	
124	6.200000e+00	7.017602e+04	
125	6.250000e+00	7.079388e+04	
126	6.300000e+00	7.140863e+04	
127	6.350000e+00	7.202029e+04	
128	6.400000e+00	7.262888e+04	
129	6.450000e+00	7.323442e+04	
130	6.500000e+00	7.383693e+04	
131	6.550000e+00	7.443644e+04	
132	6.600000e+00	7.503296e+04	
Reset re-loads circuit ***************************

Circuit: ***************************

Note: No ".plot", ".print", or ".fourier" lines; no simulations run
