
Note: Compatibility modes selected: hs

Warning: m=xx on .subckt line will override multiplier m hierarchy!


Circuit: ***************************

Doing analysis at TEMP = -40.000000 and TNOM = -40.000000


No. of Data Rows : 133
                          ***************************
                          DC transfer characteristic  Mon Jan  9 13:57:42  2023
--------------------------------------------------------------------------------
Index   v-sweep         rds             
--------------------------------------------------------------------------------
0	0.000000e+00	1.466507e+03	
1	5.000000e-02	2.217536e+03	
2	1.000000e-01	4.019916e+03	
3	1.500000e-01	8.496070e+03	
4	2.000000e-01	1.450833e+04	
5	2.500000e-01	1.925896e+04	
6	3.000000e-01	2.289654e+04	
7	3.500000e-01	2.585689e+04	
8	4.000000e-01	2.835253e+04	
9	4.500000e-01	3.049669e+04	
10	5.000000e-01	3.236083e+04	
11	5.500000e-01	3.399544e+04	
12	6.000000e-01	3.543852e+04	
13	6.500000e-01	3.671981e+04	
14	7.000000e-01	3.786314e+04	
15	7.500000e-01	3.888789e+04	
16	8.000000e-01	3.981005e+04	
17	8.500000e-01	4.064292e+04	
18	9.000000e-01	4.139766e+04	
19	9.500000e-01	4.208371e+04	
20	1.000000e+00	4.270910e+04	
21	1.050000e+00	4.328070e+04	
22	1.100000e+00	4.380441e+04	
23	1.150000e+00	4.428533e+04	
24	1.200000e+00	4.472791e+04	
25	1.250000e+00	4.513602e+04	
26	1.300000e+00	4.551302e+04	
27	1.350000e+00	4.586192e+04	
28	1.400000e+00	4.618532e+04	
29	1.450000e+00	4.648555e+04	
30	1.500000e+00	4.676467e+04	
31	1.550000e+00	4.702452e+04	
32	1.600000e+00	4.726673e+04	
33	1.650000e+00	4.749278e+04	
34	1.700000e+00	4.770399e+04	
35	1.750000e+00	4.790153e+04	
36	1.800000e+00	4.808648e+04	
37	1.850000e+00	4.825980e+04	
38	1.900000e+00	4.842238e+04	
39	1.950000e+00	4.857500e+04	
40	2.000000e+00	4.871839e+04	
41	2.050000e+00	4.885321e+04	
42	2.100000e+00	4.898006e+04	
43	2.150000e+00	4.909949e+04	
44	2.200000e+00	4.921201e+04	
45	2.250000e+00	4.931808e+04	
46	2.300000e+00	4.941812e+04	
47	2.350000e+00	4.951252e+04	
48	2.400000e+00	4.960166e+04	
49	2.450000e+00	4.968585e+04	
50	2.500000e+00	4.976542e+04	
51	2.550000e+00	4.984063e+04	
52	2.600000e+00	4.991177e+04	
53	2.650000e+00	4.997907e+04	
54	2.700000e+00	5.004276e+04	

Index   v-sweep         rds             
--------------------------------------------------------------------------------
55	2.750000e+00	5.010306e+04	
56	2.800000e+00	5.016015e+04	
57	2.850000e+00	5.021423e+04	
58	2.900000e+00	5.026547e+04	
59	2.950000e+00	5.031403e+04	
60	3.000000e+00	5.036005e+04	
61	3.050000e+00	5.040369e+04	
62	3.100000e+00	5.044506e+04	
63	3.150000e+00	5.048430e+04	
64	3.200000e+00	5.052152e+04	
65	3.250000e+00	5.055682e+04	
66	3.300000e+00	5.059032e+04	
67	3.350000e+00	5.062211e+04	
68	3.400000e+00	5.065227e+04	
69	3.450000e+00	5.068091e+04	
70	3.500000e+00	5.070808e+04	
71	3.550000e+00	5.073389e+04	
72	3.600000e+00	5.075838e+04	
73	3.650000e+00	5.078165e+04	
74	3.700000e+00	5.080374e+04	
75	3.750000e+00	5.082472e+04	
76	3.800000e+00	5.084465e+04	
77	3.850000e+00	5.086359e+04	
78	3.900000e+00	5.088158e+04	
79	3.950000e+00	5.089868e+04	
80	4.000000e+00	5.091494e+04	
81	4.050000e+00	5.093040e+04	
82	4.100000e+00	5.094510e+04	
83	4.150000e+00	5.095909e+04	
84	4.200000e+00	5.097241e+04	
85	4.250000e+00	5.098508e+04	
86	4.300000e+00	5.099716e+04	
87	4.350000e+00	5.100868e+04	
88	4.400000e+00	5.101966e+04	
89	4.450000e+00	5.103014e+04	
90	4.500000e+00	5.104015e+04	
91	4.550000e+00	5.104972e+04	
92	4.600000e+00	5.105888e+04	
93	4.650000e+00	5.106765e+04	
94	4.700000e+00	5.107607e+04	
95	4.750000e+00	5.108415e+04	
96	4.800000e+00	5.109192e+04	
97	4.850000e+00	5.109941e+04	
98	4.900000e+00	5.110663e+04	
99	4.950000e+00	5.111362e+04	
100	5.000000e+00	5.112038e+04	
101	5.050000e+00	5.112695e+04	
102	5.100000e+00	5.113333e+04	
103	5.150000e+00	5.113956e+04	
104	5.200000e+00	5.114565e+04	
105	5.250000e+00	5.115162e+04	
106	5.300000e+00	5.115748e+04	
107	5.350000e+00	5.116325e+04	
108	5.400000e+00	5.116896e+04	
109	5.450000e+00	5.117461e+04	
110	5.500000e+00	5.118023e+04	
111	5.550000e+00	5.118583e+04	
112	5.600000e+00	5.119142e+04	

Index   v-sweep         rds             
--------------------------------------------------------------------------------
113	5.650000e+00	5.119702e+04	
114	5.700000e+00	5.120265e+04	
115	5.750000e+00	5.120832e+04	
116	5.800000e+00	5.121404e+04	
117	5.850000e+00	5.121983e+04	
118	5.900000e+00	5.122570e+04	
119	5.950000e+00	5.123167e+04	
120	6.000000e+00	5.123776e+04	
121	6.050000e+00	5.124396e+04	
122	6.100000e+00	5.125030e+04	
123	6.150000e+00	5.125679e+04	
124	6.200000e+00	5.126345e+04	
125	6.250000e+00	5.127028e+04	
126	6.300000e+00	5.127730e+04	
127	6.350000e+00	5.128452e+04	
128	6.400000e+00	5.129196e+04	
129	6.450000e+00	5.129962e+04	
130	6.500000e+00	5.130752e+04	
131	6.550000e+00	5.131567e+04	
132	6.600000e+00	5.132409e+04	
Reset re-loads circuit ***************************

Circuit: ***************************

Doing analysis at TEMP = -40.000000 and TNOM = -40.000000


No. of Data Rows : 133
                          ***************************
                          DC transfer characteristic  Mon Jan  9 13:57:42  2023
--------------------------------------------------------------------------------
Index   v-sweep         rds             
--------------------------------------------------------------------------------
0	0.000000e+00	3.282420e+02	
1	5.000000e-02	3.620951e+02	
2	1.000000e-01	4.013974e+02	
3	1.500000e-01	4.475619e+02	
4	2.000000e-01	5.025453e+02	
5	2.500000e-01	5.691370e+02	
6	3.000000e-01	6.514611e+02	
7	3.500000e-01	7.559208e+02	
8	4.000000e-01	8.931254e+02	
9	4.500000e-01	1.081900e+03	
10	5.000000e-01	1.355748e+03	
11	5.500000e-01	1.761776e+03	
12	6.000000e-01	2.328494e+03	
13	6.500000e-01	3.031565e+03	
14	7.000000e-01	3.817661e+03	
15	7.500000e-01	4.641650e+03	
16	8.000000e-01	5.475479e+03	
17	8.500000e-01	6.303459e+03	
18	9.000000e-01	7.117088e+03	
19	9.500000e-01	7.911844e+03	
20	1.000000e+00	8.685424e+03	
21	1.050000e+00	9.436793e+03	
22	1.100000e+00	1.016566e+04	
23	1.150000e+00	1.087215e+04	
24	1.200000e+00	1.155669e+04	
25	1.250000e+00	1.221984e+04	
26	1.300000e+00	1.286223e+04	
27	1.350000e+00	1.348458e+04	
28	1.400000e+00	1.408760e+04	
29	1.450000e+00	1.467200e+04	
30	1.500000e+00	1.523852e+04	
31	1.550000e+00	1.578783e+04	
32	1.600000e+00	1.632062e+04	
33	1.650000e+00	1.683754e+04	
34	1.700000e+00	1.733922e+04	
35	1.750000e+00	1.782627e+04	
36	1.800000e+00	1.829927e+04	
37	1.850000e+00	1.875876e+04	
38	1.900000e+00	1.920527e+04	
39	1.950000e+00	1.963932e+04	
40	2.000000e+00	2.006138e+04	
41	2.050000e+00	2.047192e+04	
42	2.100000e+00	2.087137e+04	
43	2.150000e+00	2.126015e+04	
44	2.200000e+00	2.163866e+04	
45	2.250000e+00	2.200728e+04	
46	2.300000e+00	2.236638e+04	
47	2.350000e+00	2.271630e+04	
48	2.400000e+00	2.305738e+04	
49	2.450000e+00	2.338993e+04	
50	2.500000e+00	2.371425e+04	
51	2.550000e+00	2.403063e+04	
52	2.600000e+00	2.433936e+04	
53	2.650000e+00	2.464068e+04	
54	2.700000e+00	2.493486e+04	

Index   v-sweep         rds             
--------------------------------------------------------------------------------
55	2.750000e+00	2.522214e+04	
56	2.800000e+00	2.550275e+04	
57	2.850000e+00	2.577691e+04	
58	2.900000e+00	2.604483e+04	
59	2.950000e+00	2.630672e+04	
60	3.000000e+00	2.656277e+04	
61	3.050000e+00	2.681316e+04	
62	3.100000e+00	2.705809e+04	
63	3.150000e+00	2.729771e+04	
64	3.200000e+00	2.753220e+04	
65	3.250000e+00	2.776171e+04	
66	3.300000e+00	2.798639e+04	
67	3.350000e+00	2.820640e+04	
68	3.400000e+00	2.842187e+04	
69	3.450000e+00	2.863294e+04	
70	3.500000e+00	2.883974e+04	
71	3.550000e+00	2.904239e+04	
72	3.600000e+00	2.924101e+04	
73	3.650000e+00	2.943573e+04	
74	3.700000e+00	2.962664e+04	
75	3.750000e+00	2.981387e+04	
76	3.800000e+00	2.999750e+04	
77	3.850000e+00	3.017766e+04	
78	3.900000e+00	3.035442e+04	
79	3.950000e+00	3.052788e+04	
80	4.000000e+00	3.069814e+04	
81	4.050000e+00	3.086527e+04	
82	4.100000e+00	3.102937e+04	
83	4.150000e+00	3.119051e+04	
84	4.200000e+00	3.134877e+04	
85	4.250000e+00	3.150423e+04	
86	4.300000e+00	3.165696e+04	
87	4.350000e+00	3.180703e+04	
88	4.400000e+00	3.195450e+04	
89	4.450000e+00	3.209946e+04	
90	4.500000e+00	3.224195e+04	
91	4.550000e+00	3.238203e+04	
92	4.600000e+00	3.251978e+04	
93	4.650000e+00	3.265525e+04	
94	4.700000e+00	3.278848e+04	
95	4.750000e+00	3.291955e+04	
96	4.800000e+00	3.304849e+04	
97	4.850000e+00	3.317537e+04	
98	4.900000e+00	3.330022e+04	
99	4.950000e+00	3.342310e+04	
100	5.000000e+00	3.354406e+04	
101	5.050000e+00	3.366313e+04	
102	5.100000e+00	3.378037e+04	
103	5.150000e+00	3.389581e+04	
104	5.200000e+00	3.400950e+04	
105	5.250000e+00	3.412148e+04	
106	5.300000e+00	3.423178e+04	
107	5.350000e+00	3.434044e+04	
108	5.400000e+00	3.444750e+04	
109	5.450000e+00	3.455299e+04	
110	5.500000e+00	3.465696e+04	
111	5.550000e+00	3.475942e+04	
112	5.600000e+00	3.486043e+04	

Index   v-sweep         rds             
--------------------------------------------------------------------------------
113	5.650000e+00	3.495999e+04	
114	5.700000e+00	3.505816e+04	
115	5.750000e+00	3.515495e+04	
116	5.800000e+00	3.525040e+04	
117	5.850000e+00	3.534454e+04	
118	5.900000e+00	3.543739e+04	
119	5.950000e+00	3.552897e+04	
120	6.000000e+00	3.561933e+04	
121	6.050000e+00	3.570847e+04	
122	6.100000e+00	3.579643e+04	
123	6.150000e+00	3.588323e+04	
124	6.200000e+00	3.596890e+04	
125	6.250000e+00	3.605345e+04	
126	6.300000e+00	3.613691e+04	
127	6.350000e+00	3.621930e+04	
128	6.400000e+00	3.630065e+04	
129	6.450000e+00	3.638096e+04	
130	6.500000e+00	3.646027e+04	
131	6.550000e+00	3.653859e+04	
132	6.600000e+00	3.661595e+04	
Reset re-loads circuit ***************************

Circuit: ***************************

Doing analysis at TEMP = -40.000000 and TNOM = -40.000000


No. of Data Rows : 133
                          ***************************
                          DC transfer characteristic  Mon Jan  9 13:57:42  2023
--------------------------------------------------------------------------------
Index   v-sweep         rds             
--------------------------------------------------------------------------------
0	0.000000e+00	2.100181e+02	
1	5.000000e-02	2.249426e+02	
2	1.000000e-01	2.412355e+02	
3	1.500000e-01	2.590883e+02	
4	2.000000e-01	2.787336e+02	
5	2.500000e-01	3.004572e+02	
6	3.000000e-01	3.246136e+02	
7	3.500000e-01	3.516471e+02	
8	4.000000e-01	3.821221e+02	
9	4.500000e-01	4.167717e+02	
10	5.000000e-01	4.565797e+02	
11	5.500000e-01	5.029329e+02	
12	6.000000e-01	5.579249e+02	
13	6.500000e-01	6.249959e+02	
14	7.000000e-01	7.102721e+02	
15	7.500000e-01	8.250068e+02	
16	8.000000e-01	9.881568e+02	
17	8.500000e-01	1.223763e+03	
18	9.000000e-01	1.548010e+03	
19	9.500000e-01	1.957517e+03	
20	1.000000e+00	2.433964e+03	
21	1.050000e+00	2.956175e+03	
22	1.100000e+00	3.506860e+03	
23	1.150000e+00	4.073709e+03	
24	1.200000e+00	4.648392e+03	
25	1.250000e+00	5.225342e+03	
26	1.300000e+00	5.800835e+03	
27	1.350000e+00	6.372357e+03	
28	1.400000e+00	6.938209e+03	
29	1.450000e+00	7.497235e+03	
30	1.500000e+00	8.048658e+03	
31	1.550000e+00	8.591963e+03	
32	1.600000e+00	9.126821e+03	
33	1.650000e+00	9.653038e+03	
34	1.700000e+00	1.017052e+04	
35	1.750000e+00	1.067923e+04	
36	1.800000e+00	1.117921e+04	
37	1.850000e+00	1.167052e+04	
38	1.900000e+00	1.215325e+04	
39	1.950000e+00	1.262752e+04	
40	2.000000e+00	1.309345e+04	
41	2.050000e+00	1.355120e+04	
42	2.100000e+00	1.400092e+04	
43	2.150000e+00	1.444274e+04	
44	2.200000e+00	1.487685e+04	
45	2.250000e+00	1.530339e+04	
46	2.300000e+00	1.572252e+04	
47	2.350000e+00	1.613441e+04	
48	2.400000e+00	1.653922e+04	
49	2.450000e+00	1.693710e+04	
50	2.500000e+00	1.732820e+04	
51	2.550000e+00	1.771268e+04	
52	2.600000e+00	1.809070e+04	
53	2.650000e+00	1.846239e+04	
54	2.700000e+00	1.882789e+04	

Index   v-sweep         rds             
--------------------------------------------------------------------------------
55	2.750000e+00	1.918736e+04	
56	2.800000e+00	1.954093e+04	
57	2.850000e+00	1.988873e+04	
58	2.900000e+00	2.023089e+04	
59	2.950000e+00	2.056754e+04	
60	3.000000e+00	2.089880e+04	
61	3.050000e+00	2.122481e+04	
62	3.100000e+00	2.154566e+04	
63	3.150000e+00	2.186149e+04	
64	3.200000e+00	2.217239e+04	
65	3.250000e+00	2.247849e+04	
66	3.300000e+00	2.277988e+04	
67	3.350000e+00	2.307667e+04	
68	3.400000e+00	2.336897e+04	
69	3.450000e+00	2.365686e+04	
70	3.500000e+00	2.394045e+04	
71	3.550000e+00	2.421982e+04	
72	3.600000e+00	2.449507e+04	
73	3.650000e+00	2.476629e+04	
74	3.700000e+00	2.503356e+04	
75	3.750000e+00	2.529697e+04	
76	3.800000e+00	2.555659e+04	
77	3.850000e+00	2.581250e+04	
78	3.900000e+00	2.606479e+04	
79	3.950000e+00	2.631353e+04	
80	4.000000e+00	2.655878e+04	
81	4.050000e+00	2.680063e+04	
82	4.100000e+00	2.703914e+04	
83	4.150000e+00	2.727438e+04	
84	4.200000e+00	2.750641e+04	
85	4.250000e+00	2.773530e+04	
86	4.300000e+00	2.796111e+04	
87	4.350000e+00	2.818390e+04	
88	4.400000e+00	2.840374e+04	
89	4.450000e+00	2.862068e+04	
90	4.500000e+00	2.883477e+04	
91	4.550000e+00	2.904607e+04	
92	4.600000e+00	2.925464e+04	
93	4.650000e+00	2.946052e+04	
94	4.700000e+00	2.966377e+04	
95	4.750000e+00	2.986444e+04	
96	4.800000e+00	3.006258e+04	
97	4.850000e+00	3.025823e+04	
98	4.900000e+00	3.045145e+04	
99	4.950000e+00	3.064226e+04	
100	5.000000e+00	3.083073e+04	
101	5.050000e+00	3.101689e+04	
102	5.100000e+00	3.120079e+04	
103	5.150000e+00	3.138246e+04	
104	5.200000e+00	3.156195e+04	
105	5.250000e+00	3.173930e+04	
106	5.300000e+00	3.191454e+04	
107	5.350000e+00	3.208771e+04	
108	5.400000e+00	3.225885e+04	
109	5.450000e+00	3.242799e+04	
110	5.500000e+00	3.259517e+04	
111	5.550000e+00	3.276043e+04	
112	5.600000e+00	3.292379e+04	

Index   v-sweep         rds             
--------------------------------------------------------------------------------
113	5.650000e+00	3.308528e+04	
114	5.700000e+00	3.324495e+04	
115	5.750000e+00	3.340282e+04	
116	5.800000e+00	3.355893e+04	
117	5.850000e+00	3.371329e+04	
118	5.900000e+00	3.386595e+04	
119	5.950000e+00	3.401693e+04	
120	6.000000e+00	3.416625e+04	
121	6.050000e+00	3.431395e+04	
122	6.100000e+00	3.446006e+04	
123	6.150000e+00	3.460459e+04	
124	6.200000e+00	3.474757e+04	
125	6.250000e+00	3.488904e+04	
126	6.300000e+00	3.502900e+04	
127	6.350000e+00	3.516750e+04	
128	6.400000e+00	3.530454e+04	
129	6.450000e+00	3.544016e+04	
130	6.500000e+00	3.557438e+04	
131	6.550000e+00	3.570721e+04	
132	6.600000e+00	3.583869e+04	
Reset re-loads circuit ***************************

Circuit: ***************************

Doing analysis at TEMP = -40.000000 and TNOM = -40.000000


No. of Data Rows : 133
                          ***************************
                          DC transfer characteristic  Mon Jan  9 13:57:42  2023
--------------------------------------------------------------------------------
Index   v-sweep         rds             
--------------------------------------------------------------------------------
0	0.000000e+00	1.652480e+02	
1	5.000000e-02	1.747008e+02	
2	1.000000e-01	1.847792e+02	
3	1.500000e-01	1.955439e+02	
4	2.000000e-01	2.070656e+02	
5	2.500000e-01	2.194267e+02	
6	3.000000e-01	2.327242e+02	
7	3.500000e-01	2.470730e+02	
8	4.000000e-01	2.626089e+02	
9	4.500000e-01	2.794932e+02	
10	5.000000e-01	2.979185e+02	
11	5.500000e-01	3.181168e+02	
12	6.000000e-01	3.403729e+02	
13	6.500000e-01	3.650448e+02	
14	7.000000e-01	3.926000e+02	
15	7.500000e-01	4.236811e+02	
16	8.000000e-01	4.592305e+02	
17	8.500000e-01	5.007367e+02	
18	9.000000e-01	5.507189e+02	
19	9.500000e-01	6.136278e+02	
20	1.000000e+00	6.972207e+02	
21	1.050000e+00	8.136435e+02	
22	1.100000e+00	9.777673e+02	
23	1.150000e+00	1.200990e+03	
24	1.200000e+00	1.484983e+03	
25	1.250000e+00	1.822022e+03	
26	1.300000e+00	2.200276e+03	
27	1.350000e+00	2.608284e+03	
28	1.400000e+00	3.036780e+03	
29	1.450000e+00	3.478828e+03	
30	1.500000e+00	3.929400e+03	
31	1.550000e+00	4.384876e+03	
32	1.600000e+00	4.842641e+03	
33	1.650000e+00	5.300797e+03	
34	1.700000e+00	5.757949e+03	
35	1.750000e+00	6.213069e+03	
36	1.800000e+00	6.665391e+03	
37	1.850000e+00	7.114341e+03	
38	1.900000e+00	7.559493e+03	
39	1.950000e+00	8.000528e+03	
40	2.000000e+00	8.437209e+03	
41	2.050000e+00	8.869364e+03	
42	2.100000e+00	9.296871e+03	
43	2.150000e+00	9.719643e+03	
44	2.200000e+00	1.013763e+04	
45	2.250000e+00	1.055080e+04	
46	2.300000e+00	1.095914e+04	
47	2.350000e+00	1.136266e+04	
48	2.400000e+00	1.176137e+04	
49	2.450000e+00	1.215531e+04	
50	2.500000e+00	1.254450e+04	
51	2.550000e+00	1.292899e+04	
52	2.600000e+00	1.330883e+04	
53	2.650000e+00	1.368407e+04	
54	2.700000e+00	1.405475e+04	

Index   v-sweep         rds             
--------------------------------------------------------------------------------
55	2.750000e+00	1.442094e+04	
56	2.800000e+00	1.478270e+04	
57	2.850000e+00	1.514008e+04	
58	2.900000e+00	1.549314e+04	
59	2.950000e+00	1.584195e+04	
60	3.000000e+00	1.618657e+04	
61	3.050000e+00	1.652706e+04	
62	3.100000e+00	1.686348e+04	
63	3.150000e+00	1.719589e+04	
64	3.200000e+00	1.752436e+04	
65	3.250000e+00	1.784895e+04	
66	3.300000e+00	1.816971e+04	
67	3.350000e+00	1.848670e+04	
68	3.400000e+00	1.880000e+04	
69	3.450000e+00	1.910964e+04	
70	3.500000e+00	1.941570e+04	
71	3.550000e+00	1.971823e+04	
72	3.600000e+00	2.001728e+04	
73	3.650000e+00	2.031290e+04	
74	3.700000e+00	2.060517e+04	
75	3.750000e+00	2.089412e+04	
76	3.800000e+00	2.117981e+04	
77	3.850000e+00	2.146229e+04	
78	3.900000e+00	2.174162e+04	
79	3.950000e+00	2.201783e+04	
80	4.000000e+00	2.229099e+04	
81	4.050000e+00	2.256114e+04	
82	4.100000e+00	2.282833e+04	
83	4.150000e+00	2.309260e+04	
84	4.200000e+00	2.335399e+04	
85	4.250000e+00	2.361257e+04	
86	4.300000e+00	2.386836e+04	
87	4.350000e+00	2.412141e+04	
88	4.400000e+00	2.437177e+04	
89	4.450000e+00	2.461947e+04	
90	4.500000e+00	2.486456e+04	
91	4.550000e+00	2.510708e+04	
92	4.600000e+00	2.534706e+04	
93	4.650000e+00	2.558455e+04	
94	4.700000e+00	2.581958e+04	
95	4.750000e+00	2.605219e+04	
96	4.800000e+00	2.628242e+04	
97	4.850000e+00	2.651029e+04	
98	4.900000e+00	2.673586e+04	
99	4.950000e+00	2.695915e+04	
100	5.000000e+00	2.718019e+04	
101	5.050000e+00	2.739902e+04	
102	5.100000e+00	2.761568e+04	
103	5.150000e+00	2.783018e+04	
104	5.200000e+00	2.804258e+04	
105	5.250000e+00	2.825289e+04	
106	5.300000e+00	2.846114e+04	
107	5.350000e+00	2.866737e+04	
108	5.400000e+00	2.887161e+04	
109	5.450000e+00	2.907388e+04	
110	5.500000e+00	2.927421e+04	
111	5.550000e+00	2.947264e+04	
112	5.600000e+00	2.966917e+04	

Index   v-sweep         rds             
--------------------------------------------------------------------------------
113	5.650000e+00	2.986386e+04	
114	5.700000e+00	3.005671e+04	
115	5.750000e+00	3.024776e+04	
116	5.800000e+00	3.043703e+04	
117	5.850000e+00	3.062454e+04	
118	5.900000e+00	3.081032e+04	
119	5.950000e+00	3.099440e+04	
120	6.000000e+00	3.117680e+04	
121	6.050000e+00	3.135753e+04	
122	6.100000e+00	3.153663e+04	
123	6.150000e+00	3.171411e+04	
124	6.200000e+00	3.189000e+04	
125	6.250000e+00	3.206432e+04	
126	6.300000e+00	3.223709e+04	
127	6.350000e+00	3.240833e+04	
128	6.400000e+00	3.257806e+04	
129	6.450000e+00	3.274630e+04	
130	6.500000e+00	3.291307e+04	
131	6.550000e+00	3.307840e+04	
132	6.600000e+00	3.324229e+04	
Reset re-loads circuit ***************************

Circuit: ***************************

Doing analysis at TEMP = -40.000000 and TNOM = -40.000000


No. of Data Rows : 133
                          ***************************
                          DC transfer characteristic  Mon Jan  9 13:57:42  2023
--------------------------------------------------------------------------------
Index   v-sweep         rds             
--------------------------------------------------------------------------------
0	0.000000e+00	1.433285e+02	
1	5.000000e-02	1.502590e+02	
2	1.000000e-01	1.575523e+02	
3	1.500000e-01	1.652352e+02	
4	2.000000e-01	1.733384e+02	
5	2.500000e-01	1.818964e+02	
6	3.000000e-01	1.909491e+02	
7	3.500000e-01	2.005422e+02	
8	4.000000e-01	2.107284e+02	
9	4.500000e-01	2.215682e+02	
10	5.000000e-01	2.331311e+02	
11	5.500000e-01	2.454967e+02	
12	6.000000e-01	2.587569e+02	
13	6.500000e-01	2.730174e+02	
14	7.000000e-01	2.884015e+02	
15	7.500000e-01	3.050550e+02	
16	8.000000e-01	3.231533e+02	
17	8.500000e-01	3.429140e+02	
18	9.000000e-01	3.646175e+02	
19	9.500000e-01	3.886435e+02	
20	1.000000e+00	4.155369e+02	
21	1.050000e+00	4.461300e+02	
22	1.100000e+00	4.817704e+02	
23	1.150000e+00	5.247308e+02	
24	1.200000e+00	5.788725e+02	
25	1.250000e+00	6.504589e+02	
26	1.300000e+00	7.484370e+02	
27	1.350000e+00	8.828471e+02	
28	1.400000e+00	1.061013e+03	
29	1.450000e+00	1.284230e+03	
30	1.500000e+00	1.547975e+03	
31	1.550000e+00	1.844766e+03	
32	1.600000e+00	2.166852e+03	
33	1.650000e+00	2.507565e+03	
34	1.700000e+00	2.861642e+03	
35	1.750000e+00	3.225089e+03	
36	1.800000e+00	3.594914e+03	
37	1.850000e+00	3.968884e+03	
38	1.900000e+00	4.345324e+03	
39	1.950000e+00	4.722965e+03	
40	2.000000e+00	5.100841e+03	
41	2.050000e+00	5.478211e+03	
42	2.100000e+00	5.854498e+03	
43	2.150000e+00	6.229256e+03	
44	2.200000e+00	6.602133e+03	
45	2.250000e+00	6.972855e+03	
46	2.300000e+00	7.341204e+03	
47	2.350000e+00	7.707009e+03	
48	2.400000e+00	8.070139e+03	
49	2.450000e+00	8.430487e+03	
50	2.500000e+00	8.787974e+03	
51	2.550000e+00	9.142538e+03	
52	2.600000e+00	9.494135e+03	
53	2.650000e+00	9.842732e+03	
54	2.700000e+00	1.018831e+04	

Index   v-sweep         rds             
--------------------------------------------------------------------------------
55	2.750000e+00	1.053085e+04	
56	2.800000e+00	1.087035e+04	
57	2.850000e+00	1.120681e+04	
58	2.900000e+00	1.154024e+04	
59	2.950000e+00	1.187065e+04	
60	3.000000e+00	1.219805e+04	
61	3.050000e+00	1.252246e+04	
62	3.100000e+00	1.284389e+04	
63	3.150000e+00	1.316238e+04	
64	3.200000e+00	1.347794e+04	
65	3.250000e+00	1.379059e+04	
66	3.300000e+00	1.410037e+04	
67	3.350000e+00	1.440729e+04	
68	3.400000e+00	1.471140e+04	
69	3.450000e+00	1.501271e+04	
70	3.500000e+00	1.531126e+04	
71	3.550000e+00	1.560707e+04	
72	3.600000e+00	1.590017e+04	
73	3.650000e+00	1.619060e+04	
74	3.700000e+00	1.647838e+04	
75	3.750000e+00	1.676355e+04	
76	3.800000e+00	1.704613e+04	
77	3.850000e+00	1.732615e+04	
78	3.900000e+00	1.760365e+04	
79	3.950000e+00	1.787865e+04	
80	4.000000e+00	1.815118e+04	
81	4.050000e+00	1.842127e+04	
82	4.100000e+00	1.868896e+04	
83	4.150000e+00	1.895427e+04	
84	4.200000e+00	1.921722e+04	
85	4.250000e+00	1.947785e+04	
86	4.300000e+00	1.973619e+04	
87	4.350000e+00	1.999226e+04	
88	4.400000e+00	2.024609e+04	
89	4.450000e+00	2.049771e+04	
90	4.500000e+00	2.074714e+04	
91	4.550000e+00	2.099441e+04	
92	4.600000e+00	2.123955e+04	
93	4.650000e+00	2.148259e+04	
94	4.700000e+00	2.172354e+04	
95	4.750000e+00	2.196244e+04	
96	4.800000e+00	2.219931e+04	
97	4.850000e+00	2.243417e+04	
98	4.900000e+00	2.266705e+04	
99	4.950000e+00	2.289797e+04	
100	5.000000e+00	2.312696e+04	
101	5.050000e+00	2.335403e+04	
102	5.100000e+00	2.357922e+04	
103	5.150000e+00	2.380255e+04	
104	5.200000e+00	2.402403e+04	
105	5.250000e+00	2.424369e+04	
106	5.300000e+00	2.446155e+04	
107	5.350000e+00	2.467763e+04	
108	5.400000e+00	2.489196e+04	
109	5.450000e+00	2.510455e+04	
110	5.500000e+00	2.531543e+04	
111	5.550000e+00	2.552461e+04	
112	5.600000e+00	2.573212e+04	

Index   v-sweep         rds             
--------------------------------------------------------------------------------
113	5.650000e+00	2.593797e+04	
114	5.700000e+00	2.614219e+04	
115	5.750000e+00	2.634479e+04	
116	5.800000e+00	2.654579e+04	
117	5.850000e+00	2.674521e+04	
118	5.900000e+00	2.694308e+04	
119	5.950000e+00	2.713940e+04	
120	6.000000e+00	2.733419e+04	
121	6.050000e+00	2.752748e+04	
122	6.100000e+00	2.771928e+04	
123	6.150000e+00	2.790960e+04	
124	6.200000e+00	2.809847e+04	
125	6.250000e+00	2.828590e+04	
126	6.300000e+00	2.847191e+04	
127	6.350000e+00	2.865651e+04	
128	6.400000e+00	2.883972e+04	
129	6.450000e+00	2.902155e+04	
130	6.500000e+00	2.920202e+04	
131	6.550000e+00	2.938115e+04	
132	6.600000e+00	2.955894e+04	
Reset re-loads circuit ***************************

Circuit: ***************************

Doing analysis at TEMP = -40.000000 and TNOM = -40.000000


No. of Data Rows : 133
                          ***************************
                          DC transfer characteristic  Mon Jan  9 13:57:42  2023
--------------------------------------------------------------------------------
Index   v-sweep         rds             
--------------------------------------------------------------------------------
0	0.000000e+00	1.315974e+02	
1	5.000000e-02	1.370919e+02	
2	1.000000e-01	1.428244e+02	
3	1.500000e-01	1.488094e+02	
4	2.000000e-01	1.550627e+02	
5	2.500000e-01	1.616021e+02	
6	3.000000e-01	1.684473e+02	
7	3.500000e-01	1.756209e+02	
8	4.000000e-01	1.831483e+02	
9	4.500000e-01	1.910579e+02	
10	5.000000e-01	1.993822e+02	
11	5.500000e-01	2.081573e+02	
12	6.000000e-01	2.174240e+02	
13	6.500000e-01	2.272278e+02	
14	7.000000e-01	2.376198e+02	
15	7.500000e-01	2.486572e+02	
16	8.000000e-01	2.604047e+02	
17	8.500000e-01	2.729355e+02	
18	9.000000e-01	2.863337e+02	
19	9.500000e-01	3.006971e+02	
20	1.000000e+00	3.161422e+02	
21	1.050000e+00	3.328116e+02	
22	1.100000e+00	3.508859e+02	
23	1.150000e+00	3.706051e+02	
24	1.200000e+00	3.923036e+02	
25	1.250000e+00	4.164737e+02	
26	1.300000e+00	4.438769e+02	
27	1.350000e+00	4.757394e+02	
28	1.400000e+00	5.140737e+02	
29	1.450000e+00	5.621422e+02	
30	1.500000e+00	6.249196e+02	
31	1.550000e+00	7.090653e+02	
32	1.600000e+00	8.216817e+02	
33	1.650000e+00	9.678878e+02	
34	1.700000e+00	1.148818e+03	
35	1.750000e+00	1.361668e+03	
36	1.800000e+00	1.601375e+03	
37	1.850000e+00	1.862384e+03	
38	1.900000e+00	2.139683e+03	
39	1.950000e+00	2.429162e+03	
40	2.000000e+00	2.727598e+03	
41	2.050000e+00	3.032521e+03	
42	2.100000e+00	3.342045e+03	
43	2.150000e+00	3.654729e+03	
44	2.200000e+00	3.969467e+03	
45	2.250000e+00	4.285402e+03	
46	2.300000e+00	4.601868e+03	
47	2.350000e+00	4.918340e+03	
48	2.400000e+00	5.234402e+03	
49	2.450000e+00	5.549722e+03	
50	2.500000e+00	5.864037e+03	
51	2.550000e+00	6.177131e+03	
52	2.600000e+00	6.488832e+03	
53	2.650000e+00	6.798999e+03	
54	2.700000e+00	7.107520e+03	

Index   v-sweep         rds             
--------------------------------------------------------------------------------
55	2.750000e+00	7.414302e+03	
56	2.800000e+00	7.719271e+03	
57	2.850000e+00	8.022365e+03	
58	2.900000e+00	8.323537e+03	
59	2.950000e+00	8.622748e+03	
60	3.000000e+00	8.919969e+03	
61	3.050000e+00	9.215176e+03	
62	3.100000e+00	9.508352e+03	
63	3.150000e+00	9.799486e+03	
64	3.200000e+00	1.008857e+04	
65	3.250000e+00	1.037560e+04	
66	3.300000e+00	1.066057e+04	
67	3.350000e+00	1.094349e+04	
68	3.400000e+00	1.122435e+04	
69	3.450000e+00	1.150317e+04	
70	3.500000e+00	1.177996e+04	
71	3.550000e+00	1.205471e+04	
72	3.600000e+00	1.232745e+04	
73	3.650000e+00	1.259817e+04	
74	3.700000e+00	1.286691e+04	
75	3.750000e+00	1.313366e+04	
76	3.800000e+00	1.339844e+04	
77	3.850000e+00	1.366126e+04	
78	3.900000e+00	1.392215e+04	
79	3.950000e+00	1.418110e+04	
80	4.000000e+00	1.443815e+04	
81	4.050000e+00	1.469331e+04	
82	4.100000e+00	1.494658e+04	
83	4.150000e+00	1.519799e+04	
84	4.200000e+00	1.544756e+04	
85	4.250000e+00	1.569530e+04	
86	4.300000e+00	1.594122e+04	
87	4.350000e+00	1.618534e+04	
88	4.400000e+00	1.642768e+04	
89	4.450000e+00	1.666826e+04	
90	4.500000e+00	1.690709e+04	
91	4.550000e+00	1.714419e+04	
92	4.600000e+00	1.737957e+04	
93	4.650000e+00	1.761326e+04	
94	4.700000e+00	1.784526e+04	
95	4.750000e+00	1.807559e+04	
96	4.800000e+00	1.830428e+04	
97	4.850000e+00	1.853132e+04	
98	4.900000e+00	1.875675e+04	
99	4.950000e+00	1.898058e+04	
100	5.000000e+00	1.920282e+04	
101	5.050000e+00	1.942349e+04	
102	5.100000e+00	1.964260e+04	
103	5.150000e+00	1.986017e+04	
104	5.200000e+00	2.007621e+04	
105	5.250000e+00	2.029074e+04	
106	5.300000e+00	2.050378e+04	
107	5.350000e+00	2.071533e+04	
108	5.400000e+00	2.092542e+04	
109	5.450000e+00	2.113405e+04	
110	5.500000e+00	2.134125e+04	
111	5.550000e+00	2.154702e+04	
112	5.600000e+00	2.175138e+04	

Index   v-sweep         rds             
--------------------------------------------------------------------------------
113	5.650000e+00	2.195435e+04	
114	5.700000e+00	2.215593e+04	
115	5.750000e+00	2.235614e+04	
116	5.800000e+00	2.255499e+04	
117	5.850000e+00	2.275251e+04	
118	5.900000e+00	2.294869e+04	
119	5.950000e+00	2.314356e+04	
120	6.000000e+00	2.333712e+04	
121	6.050000e+00	2.352939e+04	
122	6.100000e+00	2.372039e+04	
123	6.150000e+00	2.391011e+04	
124	6.200000e+00	2.409859e+04	
125	6.250000e+00	2.428582e+04	
126	6.300000e+00	2.447182e+04	
127	6.350000e+00	2.465660e+04	
128	6.400000e+00	2.484018e+04	
129	6.450000e+00	2.502256e+04	
130	6.500000e+00	2.520376e+04	
131	6.550000e+00	2.538379e+04	
132	6.600000e+00	2.556265e+04	
Reset re-loads circuit ***************************

Circuit: ***************************

Note: No ".plot", ".print", or ".fourier" lines; no simulations run
