
Note: Compatibility modes selected: hs

Warning: m=xx on .subckt line will override multiplier m hierarchy!


Circuit: ***************************

Doing analysis at TEMP = -40.000000 and TNOM = -40.000000


No. of Data Rows : 133
                          ***************************
                          DC transfer characteristic  Mon Jan  9 13:57:42  2023
--------------------------------------------------------------------------------
Index   v-sweep         rds             
--------------------------------------------------------------------------------
0	0.000000e+00	1.905226e+03	
1	5.000000e-02	2.954393e+03	
2	1.000000e-01	5.654242e+03	
3	1.500000e-01	1.309438e+04	
4	2.000000e-01	2.428769e+04	
5	2.500000e-01	3.411144e+04	
6	3.000000e-01	4.213756e+04	
7	3.500000e-01	4.895305e+04	
8	4.000000e-01	5.490121e+04	
9	4.500000e-01	6.017314e+04	
10	5.000000e-01	6.489050e+04	
11	5.500000e-01	6.913989e+04	
12	6.000000e-01	7.298755e+04	
13	6.500000e-01	7.648637e+04	
14	7.000000e-01	7.967977e+04	
15	7.500000e-01	8.260401e+04	
16	8.000000e-01	8.528977e+04	
17	8.500000e-01	8.776324e+04	
18	9.000000e-01	9.004696e+04	
19	9.500000e-01	9.216043e+04	
20	1.000000e+00	9.412064e+04	
21	1.050000e+00	9.594243e+04	
22	1.100000e+00	9.763885e+04	
23	1.150000e+00	9.922138e+04	
24	1.200000e+00	1.007002e+05	
25	1.250000e+00	1.020844e+05	
26	1.300000e+00	1.033819e+05	
27	1.350000e+00	1.046000e+05	
28	1.400000e+00	1.057451e+05	
29	1.450000e+00	1.068229e+05	
30	1.500000e+00	1.078388e+05	
31	1.550000e+00	1.087974e+05	
32	1.600000e+00	1.097029e+05	
33	1.650000e+00	1.105592e+05	
34	1.700000e+00	1.113698e+05	
35	1.750000e+00	1.121379e+05	
36	1.800000e+00	1.128665e+05	
37	1.850000e+00	1.135581e+05	
38	1.900000e+00	1.142152e+05	
39	1.950000e+00	1.148401e+05	
40	2.000000e+00	1.154348e+05	
41	2.050000e+00	1.160012e+05	
42	2.100000e+00	1.165410e+05	
43	2.150000e+00	1.170558e+05	
44	2.200000e+00	1.175472e+05	
45	2.250000e+00	1.180165e+05	
46	2.300000e+00	1.184649e+05	
47	2.350000e+00	1.188937e+05	
48	2.400000e+00	1.193039e+05	
49	2.450000e+00	1.196966e+05	
50	2.500000e+00	1.200727e+05	
51	2.550000e+00	1.204331e+05	
52	2.600000e+00	1.207786e+05	
53	2.650000e+00	1.211101e+05	
54	2.700000e+00	1.214281e+05	

Index   v-sweep         rds             
--------------------------------------------------------------------------------
55	2.750000e+00	1.217335e+05	
56	2.800000e+00	1.220267e+05	
57	2.850000e+00	1.223085e+05	
58	2.900000e+00	1.225794e+05	
59	2.950000e+00	1.228399e+05	
60	3.000000e+00	1.230905e+05	
61	3.050000e+00	1.233316e+05	
62	3.100000e+00	1.235637e+05	
63	3.150000e+00	1.237872e+05	
64	3.200000e+00	1.240026e+05	
65	3.250000e+00	1.242100e+05	
66	3.300000e+00	1.244100e+05	
67	3.350000e+00	1.246028e+05	
68	3.400000e+00	1.247887e+05	
69	3.450000e+00	1.249681e+05	
70	3.500000e+00	1.251412e+05	
71	3.550000e+00	1.253082e+05	
72	3.600000e+00	1.254695e+05	
73	3.650000e+00	1.256252e+05	
74	3.700000e+00	1.257756e+05	
75	3.750000e+00	1.259208e+05	
76	3.800000e+00	1.260612e+05	
77	3.850000e+00	1.261969e+05	
78	3.900000e+00	1.263280e+05	
79	3.950000e+00	1.264548e+05	
80	4.000000e+00	1.265773e+05	
81	4.050000e+00	1.266959e+05	
82	4.100000e+00	1.268105e+05	
83	4.150000e+00	1.269214e+05	
84	4.200000e+00	1.270287e+05	
85	4.250000e+00	1.271326e+05	
86	4.300000e+00	1.272331e+05	
87	4.350000e+00	1.273304e+05	
88	4.400000e+00	1.274245e+05	
89	4.450000e+00	1.275157e+05	
90	4.500000e+00	1.276040e+05	
91	4.550000e+00	1.276894e+05	
92	4.600000e+00	1.277722e+05	
93	4.650000e+00	1.278524e+05	
94	4.700000e+00	1.279300e+05	
95	4.750000e+00	1.280052e+05	
96	4.800000e+00	1.280781e+05	
97	4.850000e+00	1.281487e+05	
98	4.900000e+00	1.282171e+05	
99	4.950000e+00	1.282833e+05	
100	5.000000e+00	1.283475e+05	
101	5.050000e+00	1.284097e+05	
102	5.100000e+00	1.284700e+05	
103	5.150000e+00	1.285284e+05	
104	5.200000e+00	1.285850e+05	
105	5.250000e+00	1.286399e+05	
106	5.300000e+00	1.286930e+05	
107	5.350000e+00	1.287445e+05	
108	5.400000e+00	1.287944e+05	
109	5.450000e+00	1.288428e+05	
110	5.500000e+00	1.288896e+05	
111	5.550000e+00	1.289350e+05	
112	5.600000e+00	1.289790e+05	

Index   v-sweep         rds             
--------------------------------------------------------------------------------
113	5.650000e+00	1.290216e+05	
114	5.700000e+00	1.290629e+05	
115	5.750000e+00	1.291030e+05	
116	5.800000e+00	1.291417e+05	
117	5.850000e+00	1.291793e+05	
118	5.900000e+00	1.292156e+05	
119	5.950000e+00	1.292508e+05	
120	6.000000e+00	1.292850e+05	
121	6.050000e+00	1.293180e+05	
122	6.100000e+00	1.293500e+05	
123	6.150000e+00	1.293809e+05	
124	6.200000e+00	1.294109e+05	
125	6.250000e+00	1.294399e+05	
126	6.300000e+00	1.294680e+05	
127	6.350000e+00	1.294951e+05	
128	6.400000e+00	1.295214e+05	
129	6.450000e+00	1.295468e+05	
130	6.500000e+00	1.295714e+05	
131	6.550000e+00	1.295952e+05	
132	6.600000e+00	1.296181e+05	
Reset re-loads circuit ***************************

Circuit: ***************************

Doing analysis at TEMP = -40.000000 and TNOM = -40.000000


No. of Data Rows : 133
                          ***************************
                          DC transfer characteristic  Mon Jan  9 13:57:42  2023
--------------------------------------------------------------------------------
Index   v-sweep         rds             
--------------------------------------------------------------------------------
0	0.000000e+00	3.868730e+02	
1	5.000000e-02	4.268496e+02	
2	1.000000e-01	4.732483e+02	
3	1.500000e-01	5.277298e+02	
4	2.000000e-01	5.925905e+02	
5	2.500000e-01	6.711038e+02	
6	3.000000e-01	7.681193e+02	
7	3.500000e-01	8.911967e+02	
8	4.000000e-01	1.052933e+03	
9	4.500000e-01	1.275951e+03	
10	5.000000e-01	1.602167e+03	
11	5.500000e-01	2.098571e+03	
12	6.000000e-01	2.826653e+03	
13	6.500000e-01	3.782471e+03	
14	7.000000e-01	4.901842e+03	
15	7.500000e-01	6.115404e+03	
16	8.000000e-01	7.374466e+03	
17	8.500000e-01	8.649496e+03	
18	9.000000e-01	9.923233e+03	
19	9.500000e-01	1.118558e+04	
20	1.000000e+00	1.243056e+04	
21	1.050000e+00	1.365469e+04	
22	1.100000e+00	1.485590e+04	
23	1.150000e+00	1.603310e+04	
24	1.200000e+00	1.718575e+04	
25	1.250000e+00	1.831372e+04	
26	1.300000e+00	1.941713e+04	
27	1.350000e+00	2.049624e+04	
28	1.400000e+00	2.155146e+04	
29	1.450000e+00	2.258326e+04	
30	1.500000e+00	2.359215e+04	
31	1.550000e+00	2.457867e+04	
32	1.600000e+00	2.554340e+04	
33	1.650000e+00	2.648690e+04	
34	1.700000e+00	2.740973e+04	
35	1.750000e+00	2.831248e+04	
36	1.800000e+00	2.919568e+04	
37	1.850000e+00	3.005989e+04	
38	1.900000e+00	3.090565e+04	
39	1.950000e+00	3.173348e+04	
40	2.000000e+00	3.254388e+04	
41	2.050000e+00	3.333735e+04	
42	2.100000e+00	3.411437e+04	
43	2.150000e+00	3.487541e+04	
44	2.200000e+00	3.562091e+04	
45	2.250000e+00	3.635131e+04	
46	2.300000e+00	3.706704e+04	
47	2.350000e+00	3.776850e+04	
48	2.400000e+00	3.845609e+04	
49	2.450000e+00	3.913019e+04	
50	2.500000e+00	3.979117e+04	
51	2.550000e+00	4.043939e+04	
52	2.600000e+00	4.107519e+04	
53	2.650000e+00	4.169892e+04	
54	2.700000e+00	4.231088e+04	

Index   v-sweep         rds             
--------------------------------------------------------------------------------
55	2.750000e+00	4.291139e+04	
56	2.800000e+00	4.350076e+04	
57	2.850000e+00	4.407928e+04	
58	2.900000e+00	4.464723e+04	
59	2.950000e+00	4.520489e+04	
60	3.000000e+00	4.575251e+04	
61	3.050000e+00	4.629036e+04	
62	3.100000e+00	4.681868e+04	
63	3.150000e+00	4.733771e+04	
64	3.200000e+00	4.784769e+04	
65	3.250000e+00	4.834883e+04	
66	3.300000e+00	4.884137e+04	
67	3.350000e+00	4.932550e+04	
68	3.400000e+00	4.980143e+04	
69	3.450000e+00	5.026937e+04	
70	3.500000e+00	5.072950e+04	
71	3.550000e+00	5.118200e+04	
72	3.600000e+00	5.162707e+04	
73	3.650000e+00	5.206486e+04	
74	3.700000e+00	5.249556e+04	
75	3.750000e+00	5.291933e+04	
76	3.800000e+00	5.333633e+04	
77	3.850000e+00	5.374671e+04	
78	3.900000e+00	5.415062e+04	
79	3.950000e+00	5.454821e+04	
80	4.000000e+00	5.493962e+04	
81	4.050000e+00	5.532498e+04	
82	4.100000e+00	5.570444e+04	
83	4.150000e+00	5.607812e+04	
84	4.200000e+00	5.644615e+04	
85	4.250000e+00	5.680865e+04	
86	4.300000e+00	5.716574e+04	
87	4.350000e+00	5.751754e+04	
88	4.400000e+00	5.786415e+04	
89	4.450000e+00	5.820569e+04	
90	4.500000e+00	5.854227e+04	
91	4.550000e+00	5.887398e+04	
92	4.600000e+00	5.920093e+04	
93	4.650000e+00	5.952322e+04	
94	4.700000e+00	5.984094e+04	
95	4.750000e+00	6.015419e+04	
96	4.800000e+00	6.046306e+04	
97	4.850000e+00	6.076763e+04	
98	4.900000e+00	6.106799e+04	
99	4.950000e+00	6.136422e+04	
100	5.000000e+00	6.165641e+04	
101	5.050000e+00	6.194464e+04	
102	5.100000e+00	6.222897e+04	
103	5.150000e+00	6.250950e+04	
104	5.200000e+00	6.278629e+04	
105	5.250000e+00	6.305941e+04	
106	5.300000e+00	6.332894e+04	
107	5.350000e+00	6.359493e+04	
108	5.400000e+00	6.385747e+04	
109	5.450000e+00	6.411661e+04	
110	5.500000e+00	6.437241e+04	
111	5.550000e+00	6.462494e+04	
112	5.600000e+00	6.487426e+04	

Index   v-sweep         rds             
--------------------------------------------------------------------------------
113	5.650000e+00	6.512043e+04	
114	5.700000e+00	6.536351e+04	
115	5.750000e+00	6.560354e+04	
116	5.800000e+00	6.584059e+04	
117	5.850000e+00	6.607471e+04	
118	5.900000e+00	6.630595e+04	
119	5.950000e+00	6.653437e+04	
120	6.000000e+00	6.676000e+04	
121	6.050000e+00	6.698291e+04	
122	6.100000e+00	6.720314e+04	
123	6.150000e+00	6.742073e+04	
124	6.200000e+00	6.763573e+04	
125	6.250000e+00	6.784819e+04	
126	6.300000e+00	6.805815e+04	
127	6.350000e+00	6.826565e+04	
128	6.400000e+00	6.847073e+04	
129	6.450000e+00	6.867343e+04	
130	6.500000e+00	6.887380e+04	
131	6.550000e+00	6.907187e+04	
132	6.600000e+00	6.926769e+04	
Reset re-loads circuit ***************************

Circuit: ***************************

Doing analysis at TEMP = -40.000000 and TNOM = -40.000000


No. of Data Rows : 133
                          ***************************
                          DC transfer characteristic  Mon Jan  9 13:57:42  2023
--------------------------------------------------------------------------------
Index   v-sweep         rds             
--------------------------------------------------------------------------------
0	0.000000e+00	2.437489e+02	
1	5.000000e-02	2.609753e+02	
2	1.000000e-01	2.797642e+02	
3	1.500000e-01	3.003310e+02	
4	2.000000e-01	3.229350e+02	
5	2.500000e-01	3.478915e+02	
6	3.000000e-01	3.755885e+02	
7	3.500000e-01	4.065092e+02	
8	4.000000e-01	4.412657e+02	
9	4.500000e-01	4.806502e+02	
10	5.000000e-01	5.257222e+02	
11	5.500000e-01	5.779638e+02	
12	6.000000e-01	6.395805e+02	
13	6.500000e-01	7.141182e+02	
14	7.000000e-01	8.077599e+02	
15	7.500000e-01	9.318733e+02	
16	8.000000e-01	1.106787e+03	
17	8.500000e-01	1.363007e+03	
18	9.000000e-01	1.731180e+03	
19	9.500000e-01	2.223107e+03	
20	1.000000e+00	2.825745e+03	
21	1.050000e+00	3.513423e+03	
22	1.100000e+00	4.260723e+03	
23	1.150000e+00	5.047622e+03	
24	1.200000e+00	5.859702e+03	
25	1.250000e+00	6.686891e+03	
26	1.300000e+00	7.522182e+03	
27	1.350000e+00	8.360664e+03	
28	1.400000e+00	9.198856e+03	
29	1.450000e+00	1.003426e+04	
30	1.500000e+00	1.086508e+04	
31	1.550000e+00	1.169000e+04	
32	1.600000e+00	1.250804e+04	
33	1.650000e+00	1.331851e+04	
34	1.700000e+00	1.412089e+04	
35	1.750000e+00	1.491482e+04	
36	1.800000e+00	1.570002e+04	
37	1.850000e+00	1.647632e+04	
38	1.900000e+00	1.724362e+04	
39	1.950000e+00	1.800184e+04	
40	2.000000e+00	1.875097e+04	
41	2.050000e+00	1.949103e+04	
42	2.100000e+00	2.022203e+04	
43	2.150000e+00	2.094404e+04	
44	2.200000e+00	2.165713e+04	
45	2.250000e+00	2.236138e+04	
46	2.300000e+00	2.305688e+04	
47	2.350000e+00	2.374372e+04	
48	2.400000e+00	2.442203e+04	
49	2.450000e+00	2.509190e+04	
50	2.500000e+00	2.575345e+04	
51	2.550000e+00	2.640679e+04	
52	2.600000e+00	2.705205e+04	
53	2.650000e+00	2.768933e+04	
54	2.700000e+00	2.831877e+04	

Index   v-sweep         rds             
--------------------------------------------------------------------------------
55	2.750000e+00	2.894047e+04	
56	2.800000e+00	2.955456e+04	
57	2.850000e+00	3.016116e+04	
58	2.900000e+00	3.076038e+04	
59	2.950000e+00	3.135234e+04	
60	3.000000e+00	3.193715e+04	
61	3.050000e+00	3.251493e+04	
62	3.100000e+00	3.308579e+04	
63	3.150000e+00	3.364985e+04	
64	3.200000e+00	3.420720e+04	
65	3.250000e+00	3.475797e+04	
66	3.300000e+00	3.530225e+04	
67	3.350000e+00	3.584015e+04	
68	3.400000e+00	3.637177e+04	
69	3.450000e+00	3.689722e+04	
70	3.500000e+00	3.741660e+04	
71	3.550000e+00	3.792999e+04	
72	3.600000e+00	3.843750e+04	
73	3.650000e+00	3.893922e+04	
74	3.700000e+00	3.943525e+04	
75	3.750000e+00	3.992567e+04	
76	3.800000e+00	4.041058e+04	
77	3.850000e+00	4.089006e+04	
78	3.900000e+00	4.136419e+04	
79	3.950000e+00	4.183307e+04	
80	4.000000e+00	4.229677e+04	
81	4.050000e+00	4.275537e+04	
82	4.100000e+00	4.320896e+04	
83	4.150000e+00	4.365762e+04	
84	4.200000e+00	4.410141e+04	
85	4.250000e+00	4.454042e+04	
86	4.300000e+00	4.497472e+04	
87	4.350000e+00	4.540438e+04	
88	4.400000e+00	4.582947e+04	
89	4.450000e+00	4.625006e+04	
90	4.500000e+00	4.666622e+04	
91	4.550000e+00	4.707803e+04	
92	4.600000e+00	4.748553e+04	
93	4.650000e+00	4.788880e+04	
94	4.700000e+00	4.828790e+04	
95	4.750000e+00	4.868290e+04	
96	4.800000e+00	4.907385e+04	
97	4.850000e+00	4.946081e+04	
98	4.900000e+00	4.984384e+04	
99	4.950000e+00	5.022301e+04	
100	5.000000e+00	5.059836e+04	
101	5.050000e+00	5.096995e+04	
102	5.100000e+00	5.133785e+04	
103	5.150000e+00	5.170209e+04	
104	5.200000e+00	5.206273e+04	
105	5.250000e+00	5.241983e+04	
106	5.300000e+00	5.277343e+04	
107	5.350000e+00	5.312359e+04	
108	5.400000e+00	5.347034e+04	
109	5.450000e+00	5.381375e+04	
110	5.500000e+00	5.415386e+04	
111	5.550000e+00	5.449072e+04	
112	5.600000e+00	5.482436e+04	

Index   v-sweep         rds             
--------------------------------------------------------------------------------
113	5.650000e+00	5.515483e+04	
114	5.700000e+00	5.548219e+04	
115	5.750000e+00	5.580646e+04	
116	5.800000e+00	5.612770e+04	
117	5.850000e+00	5.644594e+04	
118	5.900000e+00	5.676123e+04	
119	5.950000e+00	5.707360e+04	
120	6.000000e+00	5.738309e+04	
121	6.050000e+00	5.768975e+04	
122	6.100000e+00	5.799361e+04	
123	6.150000e+00	5.829471e+04	
124	6.200000e+00	5.859308e+04	
125	6.250000e+00	5.888877e+04	
126	6.300000e+00	5.918180e+04	
127	6.350000e+00	5.947221e+04	
128	6.400000e+00	5.976004e+04	
129	6.450000e+00	6.004531e+04	
130	6.500000e+00	6.032807e+04	
131	6.550000e+00	6.060834e+04	
132	6.600000e+00	6.088616e+04	
Reset re-loads circuit ***************************

Circuit: ***************************

Doing analysis at TEMP = -40.000000 and TNOM = -40.000000


No. of Data Rows : 133
                          ***************************
                          DC transfer characteristic  Mon Jan  9 13:57:42  2023
--------------------------------------------------------------------------------
Index   v-sweep         rds             
--------------------------------------------------------------------------------
0	0.000000e+00	1.906043e+02	
1	5.000000e-02	2.014046e+02	
2	1.000000e-01	2.129087e+02	
3	1.500000e-01	2.251835e+02	
4	2.000000e-01	2.383059e+02	
5	2.500000e-01	2.523641e+02	
6	3.000000e-01	2.674608e+02	
7	3.500000e-01	2.837157e+02	
8	4.000000e-01	3.012691e+02	
9	4.500000e-01	3.202863e+02	
10	5.000000e-01	3.409641e+02	
11	5.500000e-01	3.635392e+02	
12	6.000000e-01	3.883013e+02	
13	6.500000e-01	4.156138e+02	
14	7.000000e-01	4.459484e+02	
15	7.500000e-01	4.799447e+02	
16	8.000000e-01	5.185216e+02	
17	8.500000e-01	5.630895e+02	
18	9.000000e-01	6.159650e+02	
19	9.500000e-01	6.811667e+02	
20	1.000000e+00	7.658010e+02	
21	1.050000e+00	8.818824e+02	
22	1.100000e+00	1.046975e+03	
23	1.150000e+00	1.280332e+03	
24	1.200000e+00	1.594300e+03	
25	1.250000e+00	1.988474e+03	
26	1.300000e+00	2.452186e+03	
27	1.350000e+00	2.970944e+03	
28	1.400000e+00	3.531040e+03	
29	1.450000e+00	4.121275e+03	
30	1.500000e+00	4.733069e+03	
31	1.550000e+00	5.360009e+03	
32	1.600000e+00	5.997330e+03	
33	1.650000e+00	6.641479e+03	
34	1.700000e+00	7.289784e+03	
35	1.750000e+00	7.940219e+03	
36	1.800000e+00	8.591229e+03	
37	1.850000e+00	9.241616e+03	
38	1.900000e+00	9.890444e+03	
39	1.950000e+00	1.053698e+04	
40	2.000000e+00	1.118064e+04	
41	2.050000e+00	1.182097e+04	
42	2.100000e+00	1.245761e+04	
43	2.150000e+00	1.309025e+04	
44	2.200000e+00	1.371869e+04	
45	2.250000e+00	1.434272e+04	
46	2.300000e+00	1.496222e+04	
47	2.350000e+00	1.557706e+04	
48	2.400000e+00	1.618717e+04	
49	2.450000e+00	1.679248e+04	
50	2.500000e+00	1.739294e+04	
51	2.550000e+00	1.798852e+04	
52	2.600000e+00	1.857921e+04	
53	2.650000e+00	1.916500e+04	
54	2.700000e+00	1.974589e+04	

Index   v-sweep         rds             
--------------------------------------------------------------------------------
55	2.750000e+00	2.032188e+04	
56	2.800000e+00	2.089299e+04	
57	2.850000e+00	2.145925e+04	
58	2.900000e+00	2.202067e+04	
59	2.950000e+00	2.257729e+04	
60	3.000000e+00	2.312913e+04	
61	3.050000e+00	2.367623e+04	
62	3.100000e+00	2.421862e+04	
63	3.150000e+00	2.475635e+04	
64	3.200000e+00	2.528945e+04	
65	3.250000e+00	2.581796e+04	
66	3.300000e+00	2.634193e+04	
67	3.350000e+00	2.686140e+04	
68	3.400000e+00	2.737641e+04	
69	3.450000e+00	2.788701e+04	
70	3.500000e+00	2.839324e+04	
71	3.550000e+00	2.889514e+04	
72	3.600000e+00	2.939276e+04	
73	3.650000e+00	2.988615e+04	
74	3.700000e+00	3.037534e+04	
75	3.750000e+00	3.086040e+04	
76	3.800000e+00	3.134135e+04	
77	3.850000e+00	3.181824e+04	
78	3.900000e+00	3.229113e+04	
79	3.950000e+00	3.276004e+04	
80	4.000000e+00	3.322503e+04	
81	4.050000e+00	3.368615e+04	
82	4.100000e+00	3.414342e+04	
83	4.150000e+00	3.459690e+04	
84	4.200000e+00	3.504663e+04	
85	4.250000e+00	3.549265e+04	
86	4.300000e+00	3.593501e+04	
87	4.350000e+00	3.637373e+04	
88	4.400000e+00	3.680887e+04	
89	4.450000e+00	3.724047e+04	
90	4.500000e+00	3.766856e+04	
91	4.550000e+00	3.809318e+04	
92	4.600000e+00	3.851437e+04	
93	4.650000e+00	3.893218e+04	
94	4.700000e+00	3.934664e+04	
95	4.750000e+00	3.975778e+04	
96	4.800000e+00	4.016565e+04	
97	4.850000e+00	4.057027e+04	
98	4.900000e+00	4.097170e+04	
99	4.950000e+00	4.136996e+04	
100	5.000000e+00	4.176508e+04	
101	5.050000e+00	4.215711e+04	
102	5.100000e+00	4.254608e+04	
103	5.150000e+00	4.293202e+04	
104	5.200000e+00	4.331496e+04	
105	5.250000e+00	4.369494e+04	
106	5.300000e+00	4.407200e+04	
107	5.350000e+00	4.444615e+04	
108	5.400000e+00	4.481745e+04	
109	5.450000e+00	4.518590e+04	
110	5.500000e+00	4.555156e+04	
111	5.550000e+00	4.591444e+04	
112	5.600000e+00	4.627459e+04	

Index   v-sweep         rds             
--------------------------------------------------------------------------------
113	5.650000e+00	4.663202e+04	
114	5.700000e+00	4.698677e+04	
115	5.750000e+00	4.733886e+04	
116	5.800000e+00	4.768833e+04	
117	5.850000e+00	4.803520e+04	
118	5.900000e+00	4.837951e+04	
119	5.950000e+00	4.872127e+04	
120	6.000000e+00	4.906052e+04	
121	6.050000e+00	4.939729e+04	
122	6.100000e+00	4.973159e+04	
123	6.150000e+00	5.006346e+04	
124	6.200000e+00	5.039291e+04	
125	6.250000e+00	5.071999e+04	
126	6.300000e+00	5.104471e+04	
127	6.350000e+00	5.136709e+04	
128	6.400000e+00	5.168716e+04	
129	6.450000e+00	5.200495e+04	
130	6.500000e+00	5.232048e+04	
131	6.550000e+00	5.263376e+04	
132	6.600000e+00	5.294484e+04	
Reset re-loads circuit ***************************

Circuit: ***************************

Doing analysis at TEMP = -40.000000 and TNOM = -40.000000


No. of Data Rows : 133
                          ***************************
                          DC transfer characteristic  Mon Jan  9 13:57:42  2023
--------------------------------------------------------------------------------
Index   v-sweep         rds             
--------------------------------------------------------------------------------
0	0.000000e+00	1.648337e+02	
1	5.000000e-02	1.727054e+02	
2	1.000000e-01	1.809811e+02	
3	1.500000e-01	1.896904e+02	
4	2.000000e-01	1.988658e+02	
5	2.500000e-01	2.085441e+02	
6	3.000000e-01	2.187665e+02	
7	3.500000e-01	2.295796e+02	
8	4.000000e-01	2.410363e+02	
9	4.500000e-01	2.531968e+02	
10	5.000000e-01	2.661292e+02	
11	5.500000e-01	2.799115e+02	
12	6.000000e-01	2.946330e+02	
13	6.500000e-01	3.103968e+02	
14	7.000000e-01	3.273227e+02	
15	7.500000e-01	3.455524e+02	
16	8.000000e-01	3.652565e+02	
17	8.500000e-01	3.866455e+02	
18	9.000000e-01	4.099880e+02	
19	9.500000e-01	4.356419e+02	
20	1.000000e+00	4.641081e+02	
21	1.050000e+00	4.961286e+02	
22	1.100000e+00	5.328655e+02	
23	1.150000e+00	5.762285e+02	
24	1.200000e+00	6.294481e+02	
25	1.250000e+00	6.979600e+02	
26	1.300000e+00	7.903865e+02	
27	1.350000e+00	9.186441e+02	
28	1.400000e+00	1.095598e+03	
29	1.450000e+00	1.330320e+03	
30	1.500000e+00	1.624444e+03	
31	1.550000e+00	1.972713e+03	
32	1.600000e+00	2.366308e+03	
33	1.650000e+00	2.795894e+03	
34	1.700000e+00	3.253224e+03	
35	1.750000e+00	3.731589e+03	
36	1.800000e+00	4.225743e+03	
37	1.850000e+00	4.731641e+03	
38	1.900000e+00	5.246177e+03	
39	1.950000e+00	5.766954e+03	
40	2.000000e+00	6.292115e+03	
41	2.050000e+00	6.820206e+03	
42	2.100000e+00	7.350078e+03	
43	2.150000e+00	7.880821e+03	
44	2.200000e+00	8.411702e+03	
45	2.250000e+00	8.942133e+03	
46	2.300000e+00	9.471634e+03	
47	2.350000e+00	9.999814e+03	
48	2.400000e+00	1.052635e+04	
49	2.450000e+00	1.105098e+04	
50	2.500000e+00	1.157349e+04	
51	2.550000e+00	1.209369e+04	
52	2.600000e+00	1.261143e+04	
53	2.650000e+00	1.312660e+04	
54	2.700000e+00	1.363908e+04	

Index   v-sweep         rds             
--------------------------------------------------------------------------------
55	2.750000e+00	1.414880e+04	
56	2.800000e+00	1.465568e+04	
57	2.850000e+00	1.515967e+04	
58	2.900000e+00	1.566072e+04	
59	2.950000e+00	1.615879e+04	
60	3.000000e+00	1.665386e+04	
61	3.050000e+00	1.714590e+04	
62	3.100000e+00	1.763490e+04	
63	3.150000e+00	1.812085e+04	
64	3.200000e+00	1.860373e+04	
65	3.250000e+00	1.908356e+04	
66	3.300000e+00	1.956032e+04	
67	3.350000e+00	2.003403e+04	
68	3.400000e+00	2.050468e+04	
69	3.450000e+00	2.097229e+04	
70	3.500000e+00	2.143686e+04	
71	3.550000e+00	2.189842e+04	
72	3.600000e+00	2.235696e+04	
73	3.650000e+00	2.281251e+04	
74	3.700000e+00	2.326508e+04	
75	3.750000e+00	2.371468e+04	
76	3.800000e+00	2.416135e+04	
77	3.850000e+00	2.460508e+04	
78	3.900000e+00	2.504591e+04	
79	3.950000e+00	2.548385e+04	
80	4.000000e+00	2.591892e+04	
81	4.050000e+00	2.635114e+04	
82	4.100000e+00	2.678053e+04	
83	4.150000e+00	2.720711e+04	
84	4.200000e+00	2.763091e+04	
85	4.250000e+00	2.805194e+04	
86	4.300000e+00	2.847023e+04	
87	4.350000e+00	2.888580e+04	
88	4.400000e+00	2.929866e+04	
89	4.450000e+00	2.970885e+04	
90	4.500000e+00	3.011637e+04	
91	4.550000e+00	3.052127e+04	
92	4.600000e+00	3.092354e+04	
93	4.650000e+00	3.132323e+04	
94	4.700000e+00	3.172034e+04	
95	4.750000e+00	3.211490e+04	
96	4.800000e+00	3.250693e+04	
97	4.850000e+00	3.289646e+04	
98	4.900000e+00	3.328350e+04	
99	4.950000e+00	3.366807e+04	
100	5.000000e+00	3.405021e+04	
101	5.050000e+00	3.442991e+04	
102	5.100000e+00	3.480722e+04	
103	5.150000e+00	3.518214e+04	
104	5.200000e+00	3.555470e+04	
105	5.250000e+00	3.592492e+04	
106	5.300000e+00	3.629282e+04	
107	5.350000e+00	3.665842e+04	
108	5.400000e+00	3.702174e+04	
109	5.450000e+00	3.738279e+04	
110	5.500000e+00	3.774161e+04	
111	5.550000e+00	3.809820e+04	
112	5.600000e+00	3.845259e+04	

Index   v-sweep         rds             
--------------------------------------------------------------------------------
113	5.650000e+00	3.880479e+04	
114	5.700000e+00	3.915483e+04	
115	5.750000e+00	3.950272e+04	
116	5.800000e+00	3.984848e+04	
117	5.850000e+00	4.019213e+04	
118	5.900000e+00	4.053369e+04	
119	5.950000e+00	4.087317e+04	
120	6.000000e+00	4.121060e+04	
121	6.050000e+00	4.154599e+04	
122	6.100000e+00	4.187936e+04	
123	6.150000e+00	4.221073e+04	
124	6.200000e+00	4.254010e+04	
125	6.250000e+00	4.286751e+04	
126	6.300000e+00	4.319297e+04	
127	6.350000e+00	4.351649e+04	
128	6.400000e+00	4.383809e+04	
129	6.450000e+00	4.415779e+04	
130	6.500000e+00	4.447560e+04	
131	6.550000e+00	4.479153e+04	
132	6.600000e+00	4.510562e+04	
Reset re-loads circuit ***************************

Circuit: ***************************

Doing analysis at TEMP = -40.000000 and TNOM = -40.000000


No. of Data Rows : 133
                          ***************************
                          DC transfer characteristic  Mon Jan  9 13:57:42  2023
--------------------------------------------------------------------------------
Index   v-sweep         rds             
--------------------------------------------------------------------------------
0	0.000000e+00	1.511248e+02	
1	5.000000e-02	1.573404e+02	
2	1.000000e-01	1.638193e+02	
3	1.500000e-01	1.705770e+02	
4	2.000000e-01	1.776304e+02	
5	2.500000e-01	1.849980e+02	
6	3.000000e-01	1.927003e+02	
7	3.500000e-01	2.007599e+02	
8	4.000000e-01	2.092020e+02	
9	4.500000e-01	2.180545e+02	
10	5.000000e-01	2.273486e+02	
11	5.500000e-01	2.371189e+02	
12	6.000000e-01	2.474039e+02	
13	6.500000e-01	2.582465e+02	
14	7.000000e-01	2.696947e+02	
15	7.500000e-01	2.818023e+02	
16	8.000000e-01	2.946298e+02	
17	8.500000e-01	3.082463e+02	
18	9.000000e-01	3.227306e+02	
19	9.500000e-01	3.381749e+02	
20	1.000000e+00	3.546884e+02	
21	1.050000e+00	3.724038e+02	
22	1.100000e+00	3.914875e+02	
23	1.150000e+00	4.121563e+02	
24	1.200000e+00	4.347044e+02	
25	1.250000e+00	4.595508e+02	
26	1.300000e+00	4.873215e+02	
27	1.350000e+00	5.189929e+02	
28	1.400000e+00	5.561380e+02	
29	1.450000e+00	6.013280e+02	
30	1.500000e+00	6.587012e+02	
31	1.550000e+00	7.345349e+02	
32	1.600000e+00	8.372555e+02	
33	1.650000e+00	9.760489e+02	
34	1.700000e+00	1.158032e+03	
35	1.750000e+00	1.385719e+03	
36	1.800000e+00	1.656731e+03	
37	1.850000e+00	1.965528e+03	
38	1.900000e+00	2.305500e+03	
39	1.950000e+00	2.670354e+03	
40	2.000000e+00	3.054698e+03	
41	2.050000e+00	3.454158e+03	
42	2.100000e+00	3.865268e+03	
43	2.150000e+00	4.285312e+03	
44	2.200000e+00	4.712162e+03	
45	2.250000e+00	5.144145e+03	
46	2.300000e+00	5.579939e+03	
47	2.350000e+00	6.018491e+03	
48	2.400000e+00	6.458957e+03	
49	2.450000e+00	6.900654e+03	
50	2.500000e+00	7.343027e+03	
51	2.550000e+00	7.785619e+03	
52	2.600000e+00	8.228056e+03	
53	2.650000e+00	8.670027e+03	
54	2.700000e+00	9.111271e+03	

Index   v-sweep         rds             
--------------------------------------------------------------------------------
55	2.750000e+00	9.551572e+03	
56	2.800000e+00	9.990746e+03	
57	2.850000e+00	1.042864e+04	
58	2.900000e+00	1.086512e+04	
59	2.950000e+00	1.130009e+04	
60	3.000000e+00	1.173344e+04	
61	3.050000e+00	1.216509e+04	
62	3.100000e+00	1.259499e+04	
63	3.150000e+00	1.302306e+04	
64	3.200000e+00	1.344928e+04	
65	3.250000e+00	1.387358e+04	
66	3.300000e+00	1.429594e+04	
67	3.350000e+00	1.471633e+04	
68	3.400000e+00	1.513472e+04	
69	3.450000e+00	1.555111e+04	
70	3.500000e+00	1.596546e+04	
71	3.550000e+00	1.637776e+04	
72	3.600000e+00	1.678802e+04	
73	3.650000e+00	1.719622e+04	
74	3.700000e+00	1.760235e+04	
75	3.750000e+00	1.800641e+04	
76	3.800000e+00	1.840841e+04	
77	3.850000e+00	1.880833e+04	
78	3.900000e+00	1.920619e+04	
79	3.950000e+00	1.960199e+04	
80	4.000000e+00	1.999572e+04	
81	4.050000e+00	2.038740e+04	
82	4.100000e+00	2.077703e+04	
83	4.150000e+00	2.116461e+04	
84	4.200000e+00	2.155016e+04	
85	4.250000e+00	2.193368e+04	
86	4.300000e+00	2.231518e+04	
87	4.350000e+00	2.269467e+04	
88	4.400000e+00	2.307216e+04	
89	4.450000e+00	2.344766e+04	
90	4.500000e+00	2.382117e+04	
91	4.550000e+00	2.419271e+04	
92	4.600000e+00	2.456229e+04	
93	4.650000e+00	2.492992e+04	
94	4.700000e+00	2.529561e+04	
95	4.750000e+00	2.565937e+04	
96	4.800000e+00	2.602121e+04	
97	4.850000e+00	2.638115e+04	
98	4.900000e+00	2.673919e+04	
99	4.950000e+00	2.709535e+04	
100	5.000000e+00	2.744964e+04	
101	5.050000e+00	2.780207e+04	
102	5.100000e+00	2.815265e+04	
103	5.150000e+00	2.850139e+04	
104	5.200000e+00	2.884831e+04	
105	5.250000e+00	2.919342e+04	
106	5.300000e+00	2.953673e+04	
107	5.350000e+00	2.987825e+04	
108	5.400000e+00	3.021799e+04	
109	5.450000e+00	3.055597e+04	
110	5.500000e+00	3.089219e+04	
111	5.550000e+00	3.122668e+04	
112	5.600000e+00	3.155943e+04	

Index   v-sweep         rds             
--------------------------------------------------------------------------------
113	5.650000e+00	3.189047e+04	
114	5.700000e+00	3.221980e+04	
115	5.750000e+00	3.254744e+04	
116	5.800000e+00	3.287340e+04	
117	5.850000e+00	3.319768e+04	
118	5.900000e+00	3.352031e+04	
119	5.950000e+00	3.384129e+04	
120	6.000000e+00	3.416063e+04	
121	6.050000e+00	3.447835e+04	
122	6.100000e+00	3.479445e+04	
123	6.150000e+00	3.510895e+04	
124	6.200000e+00	3.542186e+04	
125	6.250000e+00	3.573319e+04	
126	6.300000e+00	3.604295e+04	
127	6.350000e+00	3.635115e+04	
128	6.400000e+00	3.665780e+04	
129	6.450000e+00	3.696292e+04	
130	6.500000e+00	3.726651e+04	
131	6.550000e+00	3.756859e+04	
132	6.600000e+00	3.786916e+04	
Reset re-loads circuit ***************************

Circuit: ***************************

Note: No ".plot", ".print", or ".fourier" lines; no simulations run
