
Note: Compatibility modes selected: hs

Warning: m=xx on .subckt line will override multiplier m hierarchy!


Circuit: ***************************

Doing analysis at TEMP = 125.000000 and TNOM = 125.000000


No. of Data Rows : 133
                          ***************************
                          DC transfer characteristic  Mon Jan  9 13:57:43  2023
--------------------------------------------------------------------------------
Index   v-sweep         rds             
--------------------------------------------------------------------------------
0	0.000000e+00	3.483514e+04	
1	5.000000e-02	3.993386e+04	
2	1.000000e-01	4.657727e+04	
3	1.500000e-01	5.556968e+04	
4	2.000000e-01	6.834736e+04	
5	2.500000e-01	8.762371e+04	
6	3.000000e-01	1.185304e+05	
7	3.500000e-01	1.685704e+05	
8	4.000000e-01	2.380828e+05	
9	4.500000e-01	3.091639e+05	
10	5.000000e-01	3.683617e+05	
11	5.500000e-01	4.171785e+05	
12	6.000000e-01	4.595797e+05	
13	6.500000e-01	4.978520e+05	
14	7.000000e-01	5.331231e+05	
15	7.500000e-01	5.659850e+05	
16	8.000000e-01	5.967893e+05	
17	8.500000e-01	6.257728e+05	
18	9.000000e-01	6.531122e+05	
19	9.500000e-01	6.789495e+05	
20	1.000000e+00	7.034041e+05	
21	1.050000e+00	7.265801e+05	
22	1.100000e+00	7.485693e+05	
23	1.150000e+00	7.694546e+05	
24	1.200000e+00	7.893106e+05	
25	1.250000e+00	8.082053e+05	
26	1.300000e+00	8.262011e+05	
27	1.350000e+00	8.433550e+05	
28	1.400000e+00	8.597195e+05	
29	1.450000e+00	8.753428e+05	
30	1.500000e+00	8.902697e+05	
31	1.550000e+00	9.045413e+05	
32	1.600000e+00	9.181959e+05	
33	1.650000e+00	9.312689e+05	
34	1.700000e+00	9.437931e+05	
35	1.750000e+00	9.557992e+05	
36	1.800000e+00	9.673155e+05	
37	1.850000e+00	9.783685e+05	
38	1.900000e+00	9.889829e+05	
39	1.950000e+00	9.991818e+05	
40	2.000000e+00	1.008987e+06	
41	2.050000e+00	1.018418e+06	
42	2.100000e+00	1.027494e+06	
43	2.150000e+00	1.036233e+06	
44	2.200000e+00	1.044650e+06	
45	2.250000e+00	1.052763e+06	
46	2.300000e+00	1.060585e+06	
47	2.350000e+00	1.068130e+06	
48	2.400000e+00	1.075411e+06	
49	2.450000e+00	1.082441e+06	
50	2.500000e+00	1.089230e+06	
51	2.550000e+00	1.095789e+06	
52	2.600000e+00	1.102129e+06	
53	2.650000e+00	1.108259e+06	
54	2.700000e+00	1.114189e+06	

Index   v-sweep         rds             
--------------------------------------------------------------------------------
55	2.750000e+00	1.119927e+06	
56	2.800000e+00	1.125480e+06	
57	2.850000e+00	1.130858e+06	
58	2.900000e+00	1.136067e+06	
59	2.950000e+00	1.141113e+06	
60	3.000000e+00	1.146005e+06	
61	3.050000e+00	1.150747e+06	
62	3.100000e+00	1.155346e+06	
63	3.150000e+00	1.159808e+06	
64	3.200000e+00	1.164137e+06	
65	3.250000e+00	1.168339e+06	
66	3.300000e+00	1.172419e+06	
67	3.350000e+00	1.176381e+06	
68	3.400000e+00	1.180230e+06	
69	3.450000e+00	1.183970e+06	
70	3.500000e+00	1.187605e+06	
71	3.550000e+00	1.191138e+06	
72	3.600000e+00	1.194574e+06	
73	3.650000e+00	1.197916e+06	
74	3.700000e+00	1.201166e+06	
75	3.750000e+00	1.204330e+06	
76	3.800000e+00	1.207408e+06	
77	3.850000e+00	1.210405e+06	
78	3.900000e+00	1.213323e+06	
79	3.950000e+00	1.216165e+06	
80	4.000000e+00	1.218933e+06	
81	4.050000e+00	1.221630e+06	
82	4.100000e+00	1.224258e+06	
83	4.150000e+00	1.226819e+06	
84	4.200000e+00	1.229316e+06	
85	4.250000e+00	1.231751e+06	
86	4.300000e+00	1.234125e+06	
87	4.350000e+00	1.236440e+06	
88	4.400000e+00	1.238699e+06	
89	4.450000e+00	1.240903e+06	
90	4.500000e+00	1.243054e+06	
91	4.550000e+00	1.245153e+06	
92	4.600000e+00	1.247202e+06	
93	4.650000e+00	1.249203e+06	
94	4.700000e+00	1.251156e+06	
95	4.750000e+00	1.253064e+06	
96	4.800000e+00	1.254928e+06	
97	4.850000e+00	1.256749e+06	
98	4.900000e+00	1.258528e+06	
99	4.950000e+00	1.260266e+06	
100	5.000000e+00	1.261966e+06	
101	5.050000e+00	1.263627e+06	
102	5.100000e+00	1.265251e+06	
103	5.150000e+00	1.266838e+06	
104	5.200000e+00	1.268391e+06	
105	5.250000e+00	1.269910e+06	
106	5.300000e+00	1.271395e+06	
107	5.350000e+00	1.272849e+06	
108	5.400000e+00	1.274271e+06	
109	5.450000e+00	1.275662e+06	
110	5.500000e+00	1.277024e+06	
111	5.550000e+00	1.278357e+06	
112	5.600000e+00	1.279662e+06	

Index   v-sweep         rds             
--------------------------------------------------------------------------------
113	5.650000e+00	1.280940e+06	
114	5.700000e+00	1.282191e+06	
115	5.750000e+00	1.283416e+06	
116	5.800000e+00	1.284616e+06	
117	5.850000e+00	1.285791e+06	
118	5.900000e+00	1.286943e+06	
119	5.950000e+00	1.288071e+06	
120	6.000000e+00	1.289176e+06	
121	6.050000e+00	1.290260e+06	
122	6.100000e+00	1.291321e+06	
123	6.150000e+00	1.292362e+06	
124	6.200000e+00	1.293383e+06	
125	6.250000e+00	1.294383e+06	
126	6.300000e+00	1.295364e+06	
127	6.350000e+00	1.296326e+06	
128	6.400000e+00	1.297269e+06	
129	6.450000e+00	1.298195e+06	
130	6.500000e+00	1.299103e+06	
131	6.550000e+00	1.299993e+06	
132	6.600000e+00	1.300867e+06	
Reset re-loads circuit ***************************

Circuit: ***************************

Doing analysis at TEMP = 125.000000 and TNOM = 125.000000


No. of Data Rows : 133
                          ***************************
                          DC transfer characteristic  Mon Jan  9 13:57:43  2023
--------------------------------------------------------------------------------
Index   v-sweep         rds             
--------------------------------------------------------------------------------
0	0.000000e+00	1.518685e+04	
1	5.000000e-02	1.616918e+04	
2	1.000000e-01	1.725644e+04	
3	1.500000e-01	1.846621e+04	
4	2.000000e-01	1.982019e+04	
5	2.500000e-01	2.134555e+04	
6	3.000000e-01	2.307663e+04	
7	3.500000e-01	2.505750e+04	
8	4.000000e-01	2.734545e+04	
9	4.500000e-01	3.001618e+04	
10	5.000000e-01	3.317131e+04	
11	5.500000e-01	3.694936e+04	
12	6.000000e-01	4.154128e+04	
13	6.500000e-01	4.721028e+04	
14	7.000000e-01	5.430825e+04	
15	7.500000e-01	6.325837e+04	
16	8.000000e-01	7.442915e+04	
17	8.500000e-01	8.784618e+04	
18	9.000000e-01	1.029783e+05	
19	9.500000e-01	1.190050e+05	
20	1.000000e+00	1.352819e+05	
21	1.050000e+00	1.514651e+05	
22	1.100000e+00	1.674007e+05	
23	1.150000e+00	1.830228e+05	
24	1.200000e+00	1.983038e+05	
25	1.250000e+00	2.132335e+05	
26	1.300000e+00	2.278106e+05	
27	1.350000e+00	2.420383e+05	
28	1.400000e+00	2.559223e+05	
29	1.450000e+00	2.694701e+05	
30	1.500000e+00	2.826898e+05	
31	1.550000e+00	2.955900e+05	
32	1.600000e+00	3.081796e+05	
33	1.650000e+00	3.204675e+05	
34	1.700000e+00	3.324626e+05	
35	1.750000e+00	3.441736e+05	
36	1.800000e+00	3.556090e+05	
37	1.850000e+00	3.667772e+05	
38	1.900000e+00	3.776863e+05	
39	1.950000e+00	3.883442e+05	
40	2.000000e+00	3.987585e+05	
41	2.050000e+00	4.089365e+05	
42	2.100000e+00	4.188856e+05	
43	2.150000e+00	4.286125e+05	
44	2.200000e+00	4.381240e+05	
45	2.250000e+00	4.474264e+05	
46	2.300000e+00	4.565261e+05	
47	2.350000e+00	4.654290e+05	
48	2.400000e+00	4.741410e+05	
49	2.450000e+00	4.826676e+05	
50	2.500000e+00	4.910141e+05	
51	2.550000e+00	4.991860e+05	
52	2.600000e+00	5.071880e+05	
53	2.650000e+00	5.150252e+05	
54	2.700000e+00	5.227022e+05	

Index   v-sweep         rds             
--------------------------------------------------------------------------------
55	2.750000e+00	5.302234e+05	
56	2.800000e+00	5.375934e+05	
57	2.850000e+00	5.448162e+05	
58	2.900000e+00	5.518959e+05	
59	2.950000e+00	5.588366e+05	
60	3.000000e+00	5.656419e+05	
61	3.050000e+00	5.723155e+05	
62	3.100000e+00	5.788610e+05	
63	3.150000e+00	5.852818e+05	
64	3.200000e+00	5.915812e+05	
65	3.250000e+00	5.977624e+05	
66	3.300000e+00	6.038285e+05	
67	3.350000e+00	6.097825e+05	
68	3.400000e+00	6.156272e+05	
69	3.450000e+00	6.213656e+05	
70	3.500000e+00	6.270003e+05	
71	3.550000e+00	6.325339e+05	
72	3.600000e+00	6.379689e+05	
73	3.650000e+00	6.433079e+05	
74	3.700000e+00	6.485531e+05	
75	3.750000e+00	6.537070e+05	
76	3.800000e+00	6.587717e+05	
77	3.850000e+00	6.637495e+05	
78	3.900000e+00	6.686423e+05	
79	3.950000e+00	6.734524e+05	
80	4.000000e+00	6.781815e+05	
81	4.050000e+00	6.828317e+05	
82	4.100000e+00	6.874048e+05	
83	4.150000e+00	6.919026e+05	
84	4.200000e+00	6.963268e+05	
85	4.250000e+00	7.006792e+05	
86	4.300000e+00	7.049614e+05	
87	4.350000e+00	7.091751e+05	
88	4.400000e+00	7.133216e+05	
89	4.450000e+00	7.174027e+05	
90	4.500000e+00	7.214196e+05	
91	4.550000e+00	7.253740e+05	
92	4.600000e+00	7.292670e+05	
93	4.650000e+00	7.331002e+05	
94	4.700000e+00	7.368748e+05	
95	4.750000e+00	7.405920e+05	
96	4.800000e+00	7.442531e+05	
97	4.850000e+00	7.478594e+05	
98	4.900000e+00	7.514119e+05	
99	4.950000e+00	7.549119e+05	
100	5.000000e+00	7.583604e+05	
101	5.050000e+00	7.617585e+05	
102	5.100000e+00	7.651073e+05	
103	5.150000e+00	7.684077e+05	
104	5.200000e+00	7.716608e+05	
105	5.250000e+00	7.748676e+05	
106	5.300000e+00	7.780290e+05	
107	5.350000e+00	7.811459e+05	
108	5.400000e+00	7.842192e+05	
109	5.450000e+00	7.872498e+05	
110	5.500000e+00	7.902385e+05	
111	5.550000e+00	7.931862e+05	
112	5.600000e+00	7.960936e+05	

Index   v-sweep         rds             
--------------------------------------------------------------------------------
113	5.650000e+00	7.989617e+05	
114	5.700000e+00	8.017910e+05	
115	5.750000e+00	8.045825e+05	
116	5.800000e+00	8.073367e+05	
117	5.850000e+00	8.100545e+05	
118	5.900000e+00	8.127365e+05	
119	5.950000e+00	8.153835e+05	
120	6.000000e+00	8.179960e+05	
121	6.050000e+00	8.205747e+05	
122	6.100000e+00	8.231203e+05	
123	6.150000e+00	8.256333e+05	
124	6.200000e+00	8.281144e+05	
125	6.250000e+00	8.305642e+05	
126	6.300000e+00	8.329832e+05	
127	6.350000e+00	8.353721e+05	
128	6.400000e+00	8.377312e+05	
129	6.450000e+00	8.400613e+05	
130	6.500000e+00	8.423627e+05	
131	6.550000e+00	8.446361e+05	
132	6.600000e+00	8.468819e+05	
Reset re-loads circuit ***************************

Circuit: ***************************

Doing analysis at TEMP = 125.000000 and TNOM = 125.000000


No. of Data Rows : 133
                          ***************************
                          DC transfer characteristic  Mon Jan  9 13:57:43  2023
--------------------------------------------------------------------------------
Index   v-sweep         rds             
--------------------------------------------------------------------------------
0	0.000000e+00	1.063941e+04	
1	5.000000e-02	1.112564e+04	
2	1.000000e-01	1.164437e+04	
3	1.500000e-01	1.219892e+04	
4	2.000000e-01	1.279306e+04	
5	2.500000e-01	1.343114e+04	
6	3.000000e-01	1.411818e+04	
7	3.500000e-01	1.485998e+04	
8	4.000000e-01	1.566334e+04	
9	4.500000e-01	1.653619e+04	
10	5.000000e-01	1.748789e+04	
11	5.500000e-01	1.852951e+04	
12	6.000000e-01	1.967427e+04	
13	6.500000e-01	2.093802e+04	
14	7.000000e-01	2.233999e+04	
15	7.500000e-01	2.390361e+04	
16	8.000000e-01	2.565782e+04	
17	8.500000e-01	2.763862e+04	
18	9.000000e-01	2.989129e+04	
19	9.500000e-01	3.247336e+04	
20	1.000000e+00	3.545850e+04	
21	1.050000e+00	3.894136e+04	
22	1.100000e+00	4.304233e+04	
23	1.150000e+00	4.790822e+04	
24	1.200000e+00	5.369743e+04	
25	1.250000e+00	6.053183e+04	
26	1.300000e+00	6.841987e+04	
27	1.350000e+00	7.721577e+04	
28	1.400000e+00	8.667342e+04	
29	1.450000e+00	9.654354e+04	
30	1.500000e+00	1.066313e+05	
31	1.550000e+00	1.168040e+05	
32	1.600000e+00	1.269765e+05	
33	1.650000e+00	1.370955e+05	
34	1.700000e+00	1.471280e+05	
35	1.750000e+00	1.570534e+05	
36	1.800000e+00	1.668587e+05	
37	1.850000e+00	1.765361e+05	
38	1.900000e+00	1.860811e+05	
39	1.950000e+00	1.954911e+05	
40	2.000000e+00	2.047653e+05	
41	2.050000e+00	2.139036e+05	
42	2.100000e+00	2.229066e+05	
43	2.150000e+00	2.317756e+05	
44	2.200000e+00	2.405121e+05	
45	2.250000e+00	2.491178e+05	
46	2.300000e+00	2.575945e+05	
47	2.350000e+00	2.659445e+05	
48	2.400000e+00	2.741697e+05	
49	2.450000e+00	2.822722e+05	
50	2.500000e+00	2.902544e+05	
51	2.550000e+00	2.981182e+05	
52	2.600000e+00	3.058661e+05	
53	2.650000e+00	3.135000e+05	
54	2.700000e+00	3.210221e+05	

Index   v-sweep         rds             
--------------------------------------------------------------------------------
55	2.750000e+00	3.284346e+05	
56	2.800000e+00	3.357395e+05	
57	2.850000e+00	3.429390e+05	
58	2.900000e+00	3.500350e+05	
59	2.950000e+00	3.570295e+05	
60	3.000000e+00	3.639246e+05	
61	3.050000e+00	3.707220e+05	
62	3.100000e+00	3.774237e+05	
63	3.150000e+00	3.840316e+05	
64	3.200000e+00	3.905473e+05	
65	3.250000e+00	3.969728e+05	
66	3.300000e+00	4.033097e+05	
67	3.350000e+00	4.095597e+05	
68	3.400000e+00	4.157245e+05	
69	3.450000e+00	4.218056e+05	
70	3.500000e+00	4.278047e+05	
71	3.550000e+00	4.337233e+05	
72	3.600000e+00	4.395630e+05	
73	3.650000e+00	4.453251e+05	
74	3.700000e+00	4.510112e+05	
75	3.750000e+00	4.566226e+05	
76	3.800000e+00	4.621608e+05	
77	3.850000e+00	4.676271e+05	
78	3.900000e+00	4.730227e+05	
79	3.950000e+00	4.783491e+05	
80	4.000000e+00	4.836074e+05	
81	4.050000e+00	4.887990e+05	
82	4.100000e+00	4.939249e+05	
83	4.150000e+00	4.989864e+05	
84	4.200000e+00	5.039846e+05	
85	4.250000e+00	5.089207e+05	
86	4.300000e+00	5.137958e+05	
87	4.350000e+00	5.186109e+05	
88	4.400000e+00	5.233671e+05	
89	4.450000e+00	5.280654e+05	
90	4.500000e+00	5.327069e+05	
91	4.550000e+00	5.372925e+05	
92	4.600000e+00	5.418231e+05	
93	4.650000e+00	5.462998e+05	
94	4.700000e+00	5.507235e+05	
95	4.750000e+00	5.550951e+05	
96	4.800000e+00	5.594153e+05	
97	4.850000e+00	5.636852e+05	
98	4.900000e+00	5.679056e+05	
99	4.950000e+00	5.720773e+05	
100	5.000000e+00	5.762011e+05	
101	5.050000e+00	5.802777e+05	
102	5.100000e+00	5.843081e+05	
103	5.150000e+00	5.882929e+05	
104	5.200000e+00	5.922329e+05	
105	5.250000e+00	5.961288e+05	
106	5.300000e+00	5.999814e+05	
107	5.350000e+00	6.037913e+05	
108	5.400000e+00	6.075592e+05	
109	5.450000e+00	6.112859e+05	
110	5.500000e+00	6.149719e+05	
111	5.550000e+00	6.186179e+05	
112	5.600000e+00	6.222245e+05	

Index   v-sweep         rds             
--------------------------------------------------------------------------------
113	5.650000e+00	6.257924e+05	
114	5.700000e+00	6.293222e+05	
115	5.750000e+00	6.328145e+05	
116	5.800000e+00	6.362698e+05	
117	5.850000e+00	6.396887e+05	
118	5.900000e+00	6.430718e+05	
119	5.950000e+00	6.464197e+05	
120	6.000000e+00	6.497328e+05	
121	6.050000e+00	6.530118e+05	
122	6.100000e+00	6.562570e+05	
123	6.150000e+00	6.594691e+05	
124	6.200000e+00	6.626486e+05	
125	6.250000e+00	6.657958e+05	
126	6.300000e+00	6.689114e+05	
127	6.350000e+00	6.719957e+05	
128	6.400000e+00	6.750493e+05	
129	6.450000e+00	6.780726e+05	
130	6.500000e+00	6.810660e+05	
131	6.550000e+00	6.840300e+05	
132	6.600000e+00	6.869650e+05	
Reset re-loads circuit ***************************

Circuit: ***************************

Doing analysis at TEMP = 125.000000 and TNOM = 125.000000


No. of Data Rows : 133
                          ***************************
                          DC transfer characteristic  Mon Jan  9 13:57:43  2023
--------------------------------------------------------------------------------
Index   v-sweep         rds             
--------------------------------------------------------------------------------
0	0.000000e+00	8.686994e+03	
1	5.000000e-02	9.002935e+03	
2	1.000000e-01	9.334419e+03	
3	1.500000e-01	9.682590e+03	
4	2.000000e-01	1.004871e+04	
5	2.500000e-01	1.043417e+04	
6	3.000000e-01	1.084054e+04	
7	3.500000e-01	1.126953e+04	
8	4.000000e-01	1.172309e+04	
9	4.500000e-01	1.220338e+04	
10	5.000000e-01	1.271285e+04	
11	5.500000e-01	1.325422e+04	
12	6.000000e-01	1.383061e+04	
13	6.500000e-01	1.444550e+04	
14	7.000000e-01	1.510285e+04	
15	7.500000e-01	1.580719e+04	
16	8.000000e-01	1.656365e+04	
17	8.500000e-01	1.737817e+04	
18	9.000000e-01	1.825753e+04	
19	9.500000e-01	1.920964e+04	
20	1.000000e+00	2.024369e+04	
21	1.050000e+00	2.137047e+04	
22	1.100000e+00	2.260276e+04	
23	1.150000e+00	2.395581e+04	
24	1.200000e+00	2.544799e+04	
25	1.250000e+00	2.710183e+04	
26	1.300000e+00	2.894528e+04	
27	1.350000e+00	3.101384e+04	
28	1.400000e+00	3.335359e+04	
29	1.450000e+00	3.602561e+04	
30	1.500000e+00	3.911107e+04	
31	1.550000e+00	4.271314e+04	
32	1.600000e+00	4.694553e+04	
33	1.650000e+00	5.189698e+04	
34	1.700000e+00	5.758278e+04	
35	1.750000e+00	6.392459e+04	
36	1.800000e+00	7.078125e+04	
37	1.850000e+00	7.800023e+04	
38	1.900000e+00	8.545190e+04	
39	1.950000e+00	9.303936e+04	
40	2.000000e+00	1.006948e+05	
41	2.050000e+00	1.083719e+05	
42	2.100000e+00	1.160397e+05	
43	2.150000e+00	1.236768e+05	
44	2.200000e+00	1.312691e+05	
45	2.250000e+00	1.388066e+05	
46	2.300000e+00	1.462825e+05	
47	2.350000e+00	1.536921e+05	
48	2.400000e+00	1.610325e+05	
49	2.450000e+00	1.683013e+05	
50	2.500000e+00	1.754973e+05	
51	2.550000e+00	1.826197e+05	
52	2.600000e+00	1.896680e+05	
53	2.650000e+00	1.966424e+05	
54	2.700000e+00	2.035428e+05	

Index   v-sweep         rds             
--------------------------------------------------------------------------------
55	2.750000e+00	2.103697e+05	
56	2.800000e+00	2.171234e+05	
57	2.850000e+00	2.238047e+05	
58	2.900000e+00	2.304142e+05	
59	2.950000e+00	2.369525e+05	
60	3.000000e+00	2.434204e+05	
61	3.050000e+00	2.498188e+05	
62	3.100000e+00	2.561484e+05	
63	3.150000e+00	2.624102e+05	
64	3.200000e+00	2.686049e+05	
65	3.250000e+00	2.747334e+05	
66	3.300000e+00	2.807966e+05	
67	3.350000e+00	2.867953e+05	
68	3.400000e+00	2.927305e+05	
69	3.450000e+00	2.986030e+05	
70	3.500000e+00	3.044135e+05	
71	3.550000e+00	3.101631e+05	
72	3.600000e+00	3.158525e+05	
73	3.650000e+00	3.214826e+05	
74	3.700000e+00	3.270542e+05	
75	3.750000e+00	3.325681e+05	
76	3.800000e+00	3.380251e+05	
77	3.850000e+00	3.434261e+05	
78	3.900000e+00	3.487717e+05	
79	3.950000e+00	3.540629e+05	
80	4.000000e+00	3.593003e+05	
81	4.050000e+00	3.644847e+05	
82	4.100000e+00	3.696169e+05	
83	4.150000e+00	3.746975e+05	
84	4.200000e+00	3.797274e+05	
85	4.250000e+00	3.847072e+05	
86	4.300000e+00	3.896376e+05	
87	4.350000e+00	3.945193e+05	
88	4.400000e+00	3.993530e+05	
89	4.450000e+00	4.041394e+05	
90	4.500000e+00	4.088790e+05	
91	4.550000e+00	4.135727e+05	
92	4.600000e+00	4.182209e+05	
93	4.650000e+00	4.228243e+05	
94	4.700000e+00	4.273836e+05	
95	4.750000e+00	4.318993e+05	
96	4.800000e+00	4.363720e+05	
97	4.850000e+00	4.408024e+05	
98	4.900000e+00	4.451909e+05	
99	4.950000e+00	4.495383e+05	
100	5.000000e+00	4.538449e+05	
101	5.050000e+00	4.581114e+05	
102	5.100000e+00	4.623383e+05	
103	5.150000e+00	4.665261e+05	
104	5.200000e+00	4.706754e+05	
105	5.250000e+00	4.747867e+05	
106	5.300000e+00	4.788605e+05	
107	5.350000e+00	4.828972e+05	
108	5.400000e+00	4.868974e+05	
109	5.450000e+00	4.908615e+05	
110	5.500000e+00	4.947901e+05	
111	5.550000e+00	4.986835e+05	
112	5.600000e+00	5.025423e+05	

Index   v-sweep         rds             
--------------------------------------------------------------------------------
113	5.650000e+00	5.063669e+05	
114	5.700000e+00	5.101577e+05	
115	5.750000e+00	5.139152e+05	
116	5.800000e+00	5.176397e+05	
117	5.850000e+00	5.213318e+05	
118	5.900000e+00	5.249919e+05	
119	5.950000e+00	5.286203e+05	
120	6.000000e+00	5.322174e+05	
121	6.050000e+00	5.357836e+05	
122	6.100000e+00	5.393195e+05	
123	6.150000e+00	5.428252e+05	
124	6.200000e+00	5.463012e+05	
125	6.250000e+00	5.497479e+05	
126	6.300000e+00	5.531656e+05	
127	6.350000e+00	5.565547e+05	
128	6.400000e+00	5.599155e+05	
129	6.450000e+00	5.632485e+05	
130	6.500000e+00	5.665538e+05	
131	6.550000e+00	5.698320e+05	
132	6.600000e+00	5.730833e+05	
Reset re-loads circuit ***************************

Circuit: ***************************

Doing analysis at TEMP = 125.000000 and TNOM = 125.000000


No. of Data Rows : 133
                          ***************************
                          DC transfer characteristic  Mon Jan  9 13:57:43  2023
--------------------------------------------------------------------------------
Index   v-sweep         rds             
--------------------------------------------------------------------------------
0	0.000000e+00	7.665128e+03	
1	5.000000e-02	7.898142e+03	
2	1.000000e-01	8.140248e+03	
3	1.500000e-01	8.391971e+03	
4	2.000000e-01	8.653875e+03	
5	2.500000e-01	8.926574e+03	
6	3.000000e-01	9.210735e+03	
7	3.500000e-01	9.507085e+03	
8	4.000000e-01	9.816422e+03	
9	4.500000e-01	1.013961e+04	
10	5.000000e-01	1.047762e+04	
11	5.500000e-01	1.083149e+04	
12	6.000000e-01	1.120237e+04	
13	6.500000e-01	1.159153e+04	
14	7.000000e-01	1.200037e+04	
15	7.500000e-01	1.243041e+04	
16	8.000000e-01	1.288337e+04	
17	8.500000e-01	1.336111e+04	
18	9.000000e-01	1.386570e+04	
19	9.500000e-01	1.439945e+04	
20	1.000000e+00	1.496491e+04	
21	1.050000e+00	1.556494e+04	
22	1.100000e+00	1.620274e+04	
23	1.150000e+00	1.688187e+04	
24	1.200000e+00	1.760638e+04	
25	1.250000e+00	1.838083e+04	
26	1.300000e+00	1.921044e+04	
27	1.350000e+00	2.010116e+04	
28	1.400000e+00	2.105985e+04	
29	1.450000e+00	2.209451e+04	
30	1.500000e+00	2.321454e+04	
31	1.550000e+00	2.443115e+04	
32	1.600000e+00	2.575797e+04	
33	1.650000e+00	2.721192e+04	
34	1.700000e+00	2.881462e+04	
35	1.750000e+00	3.059456e+04	
36	1.800000e+00	3.259027e+04	
37	1.850000e+00	3.485435e+04	
38	1.900000e+00	3.745633e+04	
39	1.950000e+00	4.047952e+04	
40	2.000000e+00	4.400468e+04	
41	2.050000e+00	4.808058e+04	
42	2.100000e+00	5.269862e+04	
43	2.150000e+00	5.779288e+04	
44	2.200000e+00	6.326521e+04	
45	2.250000e+00	6.901432e+04	
46	2.300000e+00	7.495350e+04	
47	2.350000e+00	8.101578e+04	
48	2.400000e+00	8.715219e+04	
49	2.450000e+00	9.332784e+04	
50	2.500000e+00	9.951810e+04	
51	2.550000e+00	1.057055e+05	
52	2.600000e+00	1.118777e+05	
53	2.650000e+00	1.180258e+05	
54	2.700000e+00	1.241434e+05	

Index   v-sweep         rds             
--------------------------------------------------------------------------------
55	2.750000e+00	1.302258e+05	
56	2.800000e+00	1.362696e+05	
57	2.850000e+00	1.422724e+05	
58	2.900000e+00	1.482322e+05	
59	2.950000e+00	1.541479e+05	
60	3.000000e+00	1.600185e+05	
61	3.050000e+00	1.658434e+05	
62	3.100000e+00	1.716221e+05	
63	3.150000e+00	1.773544e+05	
64	3.200000e+00	1.830403e+05	
65	3.250000e+00	1.886797e+05	
66	3.300000e+00	1.942727e+05	
67	3.350000e+00	1.998195e+05	
68	3.400000e+00	2.053204e+05	
69	3.450000e+00	2.107755e+05	
70	3.500000e+00	2.161853e+05	
71	3.550000e+00	2.215499e+05	
72	3.600000e+00	2.268699e+05	
73	3.650000e+00	2.321455e+05	
74	3.700000e+00	2.373771e+05	
75	3.750000e+00	2.425651e+05	
76	3.800000e+00	2.477100e+05	
77	3.850000e+00	2.528121e+05	
78	3.900000e+00	2.578719e+05	
79	3.950000e+00	2.628897e+05	
80	4.000000e+00	2.678661e+05	
81	4.050000e+00	2.728014e+05	
82	4.100000e+00	2.776961e+05	
83	4.150000e+00	2.825506e+05	
84	4.200000e+00	2.873653e+05	
85	4.250000e+00	2.921406e+05	
86	4.300000e+00	2.968770e+05	
87	4.350000e+00	3.015749e+05	
88	4.400000e+00	3.062346e+05	
89	4.450000e+00	3.108567e+05	
90	4.500000e+00	3.154415e+05	
91	4.550000e+00	3.199894e+05	
92	4.600000e+00	3.245009e+05	
93	4.650000e+00	3.289763e+05	
94	4.700000e+00	3.334160e+05	
95	4.750000e+00	3.378204e+05	
96	4.800000e+00	3.421900e+05	
97	4.850000e+00	3.465250e+05	
98	4.900000e+00	3.508259e+05	
99	4.950000e+00	3.550930e+05	
100	5.000000e+00	3.593268e+05	
101	5.050000e+00	3.635275e+05	
102	5.100000e+00	3.676956e+05	
103	5.150000e+00	3.718314e+05	
104	5.200000e+00	3.759353e+05	
105	5.250000e+00	3.800076e+05	
106	5.300000e+00	3.840486e+05	
107	5.350000e+00	3.880587e+05	
108	5.400000e+00	3.920382e+05	
109	5.450000e+00	3.959875e+05	
110	5.500000e+00	3.999069e+05	
111	5.550000e+00	4.037967e+05	
112	5.600000e+00	4.076573e+05	

Index   v-sweep         rds             
--------------------------------------------------------------------------------
113	5.650000e+00	4.114889e+05	
114	5.700000e+00	4.152919e+05	
115	5.750000e+00	4.190666e+05	
116	5.800000e+00	4.228132e+05	
117	5.850000e+00	4.265322e+05	
118	5.900000e+00	4.302237e+05	
119	5.950000e+00	4.338881e+05	
120	6.000000e+00	4.375256e+05	
121	6.050000e+00	4.411366e+05	
122	6.100000e+00	4.447213e+05	
123	6.150000e+00	4.482801e+05	
124	6.200000e+00	4.518131e+05	
125	6.250000e+00	4.553207e+05	
126	6.300000e+00	4.588031e+05	
127	6.350000e+00	4.622606e+05	
128	6.400000e+00	4.656935e+05	
129	6.450000e+00	4.691020e+05	
130	6.500000e+00	4.724863e+05	
131	6.550000e+00	4.758468e+05	
132	6.600000e+00	4.791836e+05	
Reset re-loads circuit ***************************

Circuit: ***************************

Doing analysis at TEMP = 125.000000 and TNOM = 125.000000


No. of Data Rows : 133
                          ***************************
                          DC transfer characteristic  Mon Jan  9 13:57:43  2023
--------------------------------------------------------------------------------
Index   v-sweep         rds             
--------------------------------------------------------------------------------
0	0.000000e+00	7.083773e+03	
1	5.000000e-02	7.268462e+03	
2	1.000000e-01	7.459116e+03	
3	1.500000e-01	7.656016e+03	
4	2.000000e-01	7.859461e+03	
5	2.500000e-01	8.069772e+03	
6	3.000000e-01	8.287293e+03	
7	3.500000e-01	8.512392e+03	
8	4.000000e-01	8.745468e+03	
9	4.500000e-01	8.986949e+03	
10	5.000000e-01	9.237299e+03	
11	5.500000e-01	9.497019e+03	
12	6.000000e-01	9.766649e+03	
13	6.500000e-01	1.004678e+04	
14	7.000000e-01	1.033804e+04	
15	7.500000e-01	1.064112e+04	
16	8.000000e-01	1.095676e+04	
17	8.500000e-01	1.128577e+04	
18	9.000000e-01	1.162903e+04	
19	9.500000e-01	1.198748e+04	
20	1.000000e+00	1.236215e+04	
21	1.050000e+00	1.275417e+04	
22	1.100000e+00	1.316475e+04	
23	1.150000e+00	1.359523e+04	
24	1.200000e+00	1.404704e+04	
25	1.250000e+00	1.452179e+04	
26	1.300000e+00	1.502120e+04	
27	1.350000e+00	1.554720e+04	
28	1.400000e+00	1.610188e+04	
29	1.450000e+00	1.668757e+04	
30	1.500000e+00	1.730685e+04	
31	1.550000e+00	1.796259e+04	
32	1.600000e+00	1.865801e+04	
33	1.650000e+00	1.939672e+04	
34	1.700000e+00	2.018281e+04	
35	1.750000e+00	2.102094e+04	
36	1.800000e+00	2.191649e+04	
37	1.850000e+00	2.287571e+04	
38	1.900000e+00	2.390604e+04	
39	1.950000e+00	2.501646e+04	
40	2.000000e+00	2.621814e+04	
41	2.050000e+00	2.752533e+04	
42	2.100000e+00	2.895685e+04	
43	2.150000e+00	3.053816e+04	
44	2.200000e+00	3.230406e+04	
45	2.250000e+00	3.430121e+04	
46	2.300000e+00	3.658809e+04	
47	2.350000e+00	3.922842e+04	
48	2.400000e+00	4.227565e+04	
49	2.450000e+00	4.575329e+04	
50	2.500000e+00	4.964369e+04	
51	2.550000e+00	5.389380e+04	
52	2.600000e+00	5.843275e+04	
53	2.650000e+00	6.318920e+04	
54	2.700000e+00	6.810147e+04	

Index   v-sweep         rds             
--------------------------------------------------------------------------------
55	2.750000e+00	7.312078e+04	
56	2.800000e+00	7.821034e+04	
57	2.850000e+00	8.334312e+04	
58	2.900000e+00	8.849940e+04	
59	2.950000e+00	9.366485e+04	
60	3.000000e+00	9.882898e+04	
61	3.050000e+00	1.039841e+05	
62	3.100000e+00	1.091244e+05	
63	3.150000e+00	1.142457e+05	
64	3.200000e+00	1.193448e+05	
65	3.250000e+00	1.244191e+05	
66	3.300000e+00	1.294669e+05	
67	3.350000e+00	1.344867e+05	
68	3.400000e+00	1.394775e+05	
69	3.450000e+00	1.444385e+05	
70	3.500000e+00	1.493690e+05	
71	3.550000e+00	1.542686e+05	
72	3.600000e+00	1.591369e+05	
73	3.650000e+00	1.639739e+05	
74	3.700000e+00	1.687793e+05	
75	3.750000e+00	1.735531e+05	
76	3.800000e+00	1.782952e+05	
77	3.850000e+00	1.830057e+05	
78	3.900000e+00	1.876847e+05	
79	3.950000e+00	1.923323e+05	
80	4.000000e+00	1.969485e+05	
81	4.050000e+00	2.015336e+05	
82	4.100000e+00	2.060876e+05	
83	4.150000e+00	2.106108e+05	
84	4.200000e+00	2.151034e+05	
85	4.250000e+00	2.195655e+05	
86	4.300000e+00	2.239974e+05	
87	4.350000e+00	2.283993e+05	
88	4.400000e+00	2.327714e+05	
89	4.450000e+00	2.371139e+05	
90	4.500000e+00	2.414270e+05	
91	4.550000e+00	2.457110e+05	
92	4.600000e+00	2.499661e+05	
93	4.650000e+00	2.541926e+05	
94	4.700000e+00	2.583907e+05	
95	4.750000e+00	2.625606e+05	
96	4.800000e+00	2.667025e+05	
97	4.850000e+00	2.708167e+05	
98	4.900000e+00	2.749035e+05	
99	4.950000e+00	2.789630e+05	
100	5.000000e+00	2.829956e+05	
101	5.050000e+00	2.870014e+05	
102	5.100000e+00	2.909806e+05	
103	5.150000e+00	2.949336e+05	
104	5.200000e+00	2.988605e+05	
105	5.250000e+00	3.027616e+05	
106	5.300000e+00	3.066371e+05	
107	5.350000e+00	3.104872e+05	
108	5.400000e+00	3.143122e+05	
109	5.450000e+00	3.181123e+05	
110	5.500000e+00	3.218877e+05	
111	5.550000e+00	3.256386e+05	
112	5.600000e+00	3.293653e+05	

Index   v-sweep         rds             
--------------------------------------------------------------------------------
113	5.650000e+00	3.330679e+05	
114	5.700000e+00	3.367467e+05	
115	5.750000e+00	3.404019e+05	
116	5.800000e+00	3.440337e+05	
117	5.850000e+00	3.476424e+05	
118	5.900000e+00	3.512280e+05	
119	5.950000e+00	3.547909e+05	
120	6.000000e+00	3.583313e+05	
121	6.050000e+00	3.618493e+05	
122	6.100000e+00	3.653451e+05	
123	6.150000e+00	3.688190e+05	
124	6.200000e+00	3.722711e+05	
125	6.250000e+00	3.757016e+05	
126	6.300000e+00	3.791108e+05	
127	6.350000e+00	3.824988e+05	
128	6.400000e+00	3.858658e+05	
129	6.450000e+00	3.892120e+05	
130	6.500000e+00	3.925376e+05	
131	6.550000e+00	3.958427e+05	
132	6.600000e+00	3.991276e+05	
Reset re-loads circuit ***************************

Circuit: ***************************

Note: No ".plot", ".print", or ".fourier" lines; no simulations run
