
Note: Compatibility modes selected: hs

Warning: m=xx on .subckt line will override multiplier m hierarchy!


Circuit: ***************************

Doing analysis at TEMP = 25.000000 and TNOM = 25.000000


No. of Data Rows : 133
                          ***************************
                          DC transfer characteristic  Mon Jan  9 13:57:42  2023
--------------------------------------------------------------------------------
Index   v-sweep         rds             
--------------------------------------------------------------------------------
0	0.000000e+00	2.858270e+04	
1	5.000000e-02	3.739607e+04	
2	1.000000e-01	5.316812e+04	
3	1.500000e-01	8.704545e+04	
4	2.000000e-01	1.735090e+05	
5	2.500000e-01	3.620356e+05	
6	3.000000e-01	6.100939e+05	
7	3.500000e-01	8.454806e+05	
8	4.000000e-01	1.055768e+06	
9	4.500000e-01	1.247261e+06	
10	5.000000e-01	1.425396e+06	
11	5.500000e-01	1.593383e+06	
12	6.000000e-01	1.753099e+06	
13	6.500000e-01	1.905716e+06	
14	7.000000e-01	2.052022e+06	
15	7.500000e-01	2.192593e+06	
16	8.000000e-01	2.327873e+06	
17	8.500000e-01	2.458224e+06	
18	9.000000e-01	2.583951e+06	
19	9.500000e-01	2.705321e+06	
20	1.000000e+00	2.822569e+06	
21	1.050000e+00	2.935911e+06	
22	1.100000e+00	3.045540e+06	
23	1.150000e+00	3.151637e+06	
24	1.200000e+00	3.254367e+06	
25	1.250000e+00	3.353884e+06	
26	1.300000e+00	3.450334e+06	
27	1.350000e+00	3.543851e+06	
28	1.400000e+00	3.634562e+06	
29	1.450000e+00	3.722588e+06	
30	1.500000e+00	3.808041e+06	
31	1.550000e+00	3.891028e+06	
32	1.600000e+00	3.971648e+06	
33	1.650000e+00	4.049998e+06	
34	1.700000e+00	4.126168e+06	
35	1.750000e+00	4.200242e+06	
36	1.800000e+00	4.272303e+06	
37	1.850000e+00	4.342428e+06	
38	1.900000e+00	4.410689e+06	
39	1.950000e+00	4.477156e+06	
40	2.000000e+00	4.541896e+06	
41	2.050000e+00	4.604972e+06	
42	2.100000e+00	4.666444e+06	
43	2.150000e+00	4.726370e+06	
44	2.200000e+00	4.784803e+06	
45	2.250000e+00	4.841797e+06	
46	2.300000e+00	4.897401e+06	
47	2.350000e+00	4.951663e+06	
48	2.400000e+00	5.004628e+06	
49	2.450000e+00	5.056340e+06	
50	2.500000e+00	5.106841e+06	
51	2.550000e+00	5.156171e+06	
52	2.600000e+00	5.204367e+06	
53	2.650000e+00	5.251466e+06	
54	2.700000e+00	5.297504e+06	

Index   v-sweep         rds             
--------------------------------------------------------------------------------
55	2.750000e+00	5.342513e+06	
56	2.800000e+00	5.386527e+06	
57	2.850000e+00	5.429576e+06	
58	2.900000e+00	5.471690e+06	
59	2.950000e+00	5.512898e+06	
60	3.000000e+00	5.553226e+06	
61	3.050000e+00	5.592701e+06	
62	3.100000e+00	5.631349e+06	
63	3.150000e+00	5.669194e+06	
64	3.200000e+00	5.706259e+06	
65	3.250000e+00	5.742567e+06	
66	3.300000e+00	5.778139e+06	
67	3.350000e+00	5.812997e+06	
68	3.400000e+00	5.847160e+06	
69	3.450000e+00	5.880648e+06	
70	3.500000e+00	5.913480e+06	
71	3.550000e+00	5.945674e+06	
72	3.600000e+00	5.977247e+06	
73	3.650000e+00	6.008216e+06	
74	3.700000e+00	6.038597e+06	
75	3.750000e+00	6.068405e+06	
76	3.800000e+00	6.097657e+06	
77	3.850000e+00	6.126366e+06	
78	3.900000e+00	6.154546e+06	
79	3.950000e+00	6.182212e+06	
80	4.000000e+00	6.209376e+06	
81	4.050000e+00	6.236051e+06	
82	4.100000e+00	6.262249e+06	
83	4.150000e+00	6.287983e+06	
84	4.200000e+00	6.313263e+06	
85	4.250000e+00	6.338102e+06	
86	4.300000e+00	6.362509e+06	
87	4.350000e+00	6.386496e+06	
88	4.400000e+00	6.410071e+06	
89	4.450000e+00	6.433247e+06	
90	4.500000e+00	6.456031e+06	
91	4.550000e+00	6.478432e+06	
92	4.600000e+00	6.500461e+06	
93	4.650000e+00	6.522126e+06	
94	4.700000e+00	6.543434e+06	
95	4.750000e+00	6.564394e+06	
96	4.800000e+00	6.585015e+06	
97	4.850000e+00	6.605303e+06	
98	4.900000e+00	6.625267e+06	
99	4.950000e+00	6.644913e+06	
100	5.000000e+00	6.664248e+06	
101	5.050000e+00	6.683280e+06	
102	5.100000e+00	6.702015e+06	
103	5.150000e+00	6.720460e+06	
104	5.200000e+00	6.738620e+06	
105	5.250000e+00	6.756502e+06	
106	5.300000e+00	6.774111e+06	
107	5.350000e+00	6.791454e+06	
108	5.400000e+00	6.808537e+06	
109	5.450000e+00	6.825364e+06	
110	5.500000e+00	6.841940e+06	
111	5.550000e+00	6.858272e+06	
112	5.600000e+00	6.874364e+06	

Index   v-sweep         rds             
--------------------------------------------------------------------------------
113	5.650000e+00	6.890221e+06	
114	5.700000e+00	6.905847e+06	
115	5.750000e+00	6.921248e+06	
116	5.800000e+00	6.936428e+06	
117	5.850000e+00	6.951391e+06	
118	5.900000e+00	6.966142e+06	
119	5.950000e+00	6.980684e+06	
120	6.000000e+00	6.995022e+06	
121	6.050000e+00	7.009160e+06	
122	6.100000e+00	7.023102e+06	
123	6.150000e+00	7.036851e+06	
124	6.200000e+00	7.050412e+06	
125	6.250000e+00	7.063787e+06	
126	6.300000e+00	7.076980e+06	
127	6.350000e+00	7.089995e+06	
128	6.400000e+00	7.102834e+06	
129	6.450000e+00	7.115503e+06	
130	6.500000e+00	7.128002e+06	
131	6.550000e+00	7.140336e+06	
132	6.600000e+00	7.152507e+06	
Reset re-loads circuit ***************************

Circuit: ***************************

Doing analysis at TEMP = 25.000000 and TNOM = 25.000000


No. of Data Rows : 133
                          ***************************
                          DC transfer characteristic  Mon Jan  9 13:57:42  2023
--------------------------------------------------------------------------------
Index   v-sweep         rds             
--------------------------------------------------------------------------------
0	0.000000e+00	7.151031e+03	
1	5.000000e-02	7.691252e+03	
2	1.000000e-01	8.302263e+03	
3	1.500000e-01	8.998841e+03	
4	2.000000e-01	9.800180e+03	
5	2.500000e-01	1.073165e+04	
6	3.000000e-01	1.182748e+04	
7	3.500000e-01	1.313496e+04	
8	4.000000e-01	1.472116e+04	
9	4.500000e-01	1.668424e+04	
10	5.000000e-01	1.917281e+04	
11	5.500000e-01	2.241995e+04	
12	6.000000e-01	2.680164e+04	
13	6.500000e-01	3.292185e+04	
14	7.000000e-01	4.166127e+04	
15	7.500000e-01	5.395273e+04	
16	8.000000e-01	7.012817e+04	
17	8.500000e-01	8.954113e+04	
18	9.000000e-01	1.110886e+05	
19	9.500000e-01	1.338418e+05	
20	1.000000e+00	1.572075e+05	
21	1.050000e+00	1.808429e+05	
22	1.100000e+00	2.045532e+05	
23	1.150000e+00	2.282257e+05	
24	1.200000e+00	2.517934e+05	
25	1.250000e+00	2.752155e+05	
26	1.300000e+00	2.984661e+05	
27	1.350000e+00	3.215290e+05	
28	1.400000e+00	3.443939e+05	
29	1.450000e+00	3.670543e+05	
30	1.500000e+00	3.895062e+05	
31	1.550000e+00	4.117475e+05	
32	1.600000e+00	4.337773e+05	
33	1.650000e+00	4.555954e+05	
34	1.700000e+00	4.772026e+05	
35	1.750000e+00	4.985999e+05	
36	1.800000e+00	5.197887e+05	
37	1.850000e+00	5.407707e+05	
38	1.900000e+00	5.615477e+05	
39	1.950000e+00	5.821217e+05	
40	2.000000e+00	6.024949e+05	
41	2.050000e+00	6.226693e+05	
42	2.100000e+00	6.426473e+05	
43	2.150000e+00	6.624311e+05	
44	2.200000e+00	6.820230e+05	
45	2.250000e+00	7.014252e+05	
46	2.300000e+00	7.206402e+05	
47	2.350000e+00	7.396702e+05	
48	2.400000e+00	7.585174e+05	
49	2.450000e+00	7.771842e+05	
50	2.500000e+00	7.956729e+05	
51	2.550000e+00	8.139857e+05	
52	2.600000e+00	8.321249e+05	
53	2.650000e+00	8.500925e+05	
54	2.700000e+00	8.678909e+05	

Index   v-sweep         rds             
--------------------------------------------------------------------------------
55	2.750000e+00	8.855222e+05	
56	2.800000e+00	9.029885e+05	
57	2.850000e+00	9.202919e+05	
58	2.900000e+00	9.374346e+05	
59	2.950000e+00	9.544185e+05	
60	3.000000e+00	9.712457e+05	
61	3.050000e+00	9.879181e+05	
62	3.100000e+00	1.004438e+06	
63	3.150000e+00	1.020807e+06	
64	3.200000e+00	1.037027e+06	
65	3.250000e+00	1.053100e+06	
66	3.300000e+00	1.069028e+06	
67	3.350000e+00	1.084812e+06	
68	3.400000e+00	1.100455e+06	
69	3.450000e+00	1.115959e+06	
70	3.500000e+00	1.131324e+06	
71	3.550000e+00	1.146553e+06	
72	3.600000e+00	1.161647e+06	
73	3.650000e+00	1.176609e+06	
74	3.700000e+00	1.191439e+06	
75	3.750000e+00	1.206140e+06	
76	3.800000e+00	1.220713e+06	
77	3.850000e+00	1.235159e+06	
78	3.900000e+00	1.249481e+06	
79	3.950000e+00	1.263679e+06	
80	4.000000e+00	1.277755e+06	
81	4.050000e+00	1.291711e+06	
82	4.100000e+00	1.305548e+06	
83	4.150000e+00	1.319268e+06	
84	4.200000e+00	1.332871e+06	
85	4.250000e+00	1.346360e+06	
86	4.300000e+00	1.359735e+06	
87	4.350000e+00	1.372999e+06	
88	4.400000e+00	1.386152e+06	
89	4.450000e+00	1.399196e+06	
90	4.500000e+00	1.412131e+06	
91	4.550000e+00	1.424960e+06	
92	4.600000e+00	1.437684e+06	
93	4.650000e+00	1.450303e+06	
94	4.700000e+00	1.462819e+06	
95	4.750000e+00	1.475234e+06	
96	4.800000e+00	1.487548e+06	
97	4.850000e+00	1.499762e+06	
98	4.900000e+00	1.511878e+06	
99	4.950000e+00	1.523897e+06	
100	5.000000e+00	1.535820e+06	
101	5.050000e+00	1.547648e+06	
102	5.100000e+00	1.559382e+06	
103	5.150000e+00	1.571023e+06	
104	5.200000e+00	1.582573e+06	
105	5.250000e+00	1.594031e+06	
106	5.300000e+00	1.605400e+06	
107	5.350000e+00	1.616680e+06	
108	5.400000e+00	1.627873e+06	
109	5.450000e+00	1.638979e+06	
110	5.500000e+00	1.649999e+06	
111	5.550000e+00	1.660934e+06	
112	5.600000e+00	1.671785e+06	

Index   v-sweep         rds             
--------------------------------------------------------------------------------
113	5.650000e+00	1.682554e+06	
114	5.700000e+00	1.693240e+06	
115	5.750000e+00	1.703845e+06	
116	5.800000e+00	1.714370e+06	
117	5.850000e+00	1.724815e+06	
118	5.900000e+00	1.735182e+06	
119	5.950000e+00	1.745472e+06	
120	6.000000e+00	1.755684e+06	
121	6.050000e+00	1.765820e+06	
122	6.100000e+00	1.775881e+06	
123	6.150000e+00	1.785868e+06	
124	6.200000e+00	1.795781e+06	
125	6.250000e+00	1.805621e+06	
126	6.300000e+00	1.815390e+06	
127	6.350000e+00	1.825086e+06	
128	6.400000e+00	1.834713e+06	
129	6.450000e+00	1.844269e+06	
130	6.500000e+00	1.853757e+06	
131	6.550000e+00	1.863176e+06	
132	6.600000e+00	1.872527e+06	
Reset re-loads circuit ***************************

Circuit: ***************************

Doing analysis at TEMP = 25.000000 and TNOM = 25.000000


No. of Data Rows : 133
                          ***************************
                          DC transfer characteristic  Mon Jan  9 13:57:42  2023
--------------------------------------------------------------------------------
Index   v-sweep         rds             
--------------------------------------------------------------------------------
0	0.000000e+00	4.518757e+03	
1	5.000000e-02	4.741041e+03	
2	1.000000e-01	4.979754e+03	
3	1.500000e-01	5.236756e+03	
4	2.000000e-01	5.514205e+03	
5	2.500000e-01	5.814611e+03	
6	3.000000e-01	6.140916e+03	
7	3.500000e-01	6.496591e+03	
8	4.000000e-01	6.885757e+03	
9	4.500000e-01	7.313349e+03	
10	5.000000e-01	7.785325e+03	
11	5.500000e-01	8.308955e+03	
12	6.000000e-01	8.893202e+03	
13	6.500000e-01	9.549262e+03	
14	7.000000e-01	1.029133e+04	
15	7.500000e-01	1.113775e+04	
16	8.000000e-01	1.211267e+04	
17	8.500000e-01	1.324882e+04	
18	9.000000e-01	1.459194e+04	
19	9.500000e-01	1.620832e+04	
20	1.000000e+00	1.819781e+04	
21	1.050000e+00	2.071437e+04	
22	1.100000e+00	2.399078e+04	
23	1.150000e+00	2.834180e+04	
24	1.200000e+00	3.409142e+04	
25	1.250000e+00	4.141643e+04	
26	1.300000e+00	5.024049e+04	
27	1.350000e+00	6.029547e+04	
28	1.400000e+00	7.126295e+04	
29	1.450000e+00	8.286764e+04	
30	1.500000e+00	9.490320e+04	
31	1.550000e+00	1.072242e+05	
32	1.600000e+00	1.197302e+05	
33	1.650000e+00	1.323519e+05	
34	1.700000e+00	1.450408e+05	
35	1.750000e+00	1.577628e+05	
36	1.800000e+00	1.704930e+05	
37	1.850000e+00	1.832136e+05	
38	1.900000e+00	1.959112e+05	
39	1.950000e+00	2.085757e+05	
40	2.000000e+00	2.211997e+05	
41	2.050000e+00	2.337771e+05	
42	2.100000e+00	2.463036e+05	
43	2.150000e+00	2.587756e+05	
44	2.200000e+00	2.711905e+05	
45	2.250000e+00	2.835461e+05	
46	2.300000e+00	2.958408e+05	
47	2.350000e+00	3.080733e+05	
48	2.400000e+00	3.202425e+05	
49	2.450000e+00	3.323479e+05	
50	2.500000e+00	3.443888e+05	
51	2.550000e+00	3.563649e+05	
52	2.600000e+00	3.682759e+05	
53	2.650000e+00	3.801217e+05	
54	2.700000e+00	3.919021e+05	

Index   v-sweep         rds             
--------------------------------------------------------------------------------
55	2.750000e+00	4.036173e+05	
56	2.800000e+00	4.152673e+05	
57	2.850000e+00	4.268523e+05	
58	2.900000e+00	4.383724e+05	
59	2.950000e+00	4.498279e+05	
60	3.000000e+00	4.612190e+05	
61	3.050000e+00	4.725460e+05	
62	3.100000e+00	4.838092e+05	
63	3.150000e+00	4.950089e+05	
64	3.200000e+00	5.061455e+05	
65	3.250000e+00	5.172192e+05	
66	3.300000e+00	5.282306e+05	
67	3.350000e+00	5.391799e+05	
68	3.400000e+00	5.500675e+05	
69	3.450000e+00	5.608938e+05	
70	3.500000e+00	5.716593e+05	
71	3.550000e+00	5.823643e+05	
72	3.600000e+00	5.930092e+05	
73	3.650000e+00	6.035944e+05	
74	3.700000e+00	6.141204e+05	
75	3.750000e+00	6.245875e+05	
76	3.800000e+00	6.349962e+05	
77	3.850000e+00	6.453468e+05	
78	3.900000e+00	6.556399e+05	
79	3.950000e+00	6.658757e+05	
80	4.000000e+00	6.760547e+05	
81	4.050000e+00	6.861774e+05	
82	4.100000e+00	6.962441e+05	
83	4.150000e+00	7.062552e+05	
84	4.200000e+00	7.162112e+05	
85	4.250000e+00	7.261124e+05	
86	4.300000e+00	7.359593e+05	
87	4.350000e+00	7.457522e+05	
88	4.400000e+00	7.554916e+05	
89	4.450000e+00	7.651779e+05	
90	4.500000e+00	7.748113e+05	
91	4.550000e+00	7.843924e+05	
92	4.600000e+00	7.939216e+05	
93	4.650000e+00	8.033991e+05	
94	4.700000e+00	8.128254e+05	
95	4.750000e+00	8.222009e+05	
96	4.800000e+00	8.315260e+05	
97	4.850000e+00	8.408010e+05	
98	4.900000e+00	8.500262e+05	
99	4.950000e+00	8.592022e+05	
100	5.000000e+00	8.683292e+05	
101	5.050000e+00	8.774076e+05	
102	5.100000e+00	8.864377e+05	
103	5.150000e+00	8.954200e+05	
104	5.200000e+00	9.043547e+05	
105	5.250000e+00	9.132423e+05	
106	5.300000e+00	9.220830e+05	
107	5.350000e+00	9.308773e+05	
108	5.400000e+00	9.396254e+05	
109	5.450000e+00	9.483278e+05	
110	5.500000e+00	9.569847e+05	
111	5.550000e+00	9.655964e+05	
112	5.600000e+00	9.741634e+05	

Index   v-sweep         rds             
--------------------------------------------------------------------------------
113	5.650000e+00	9.826860e+05	
114	5.700000e+00	9.911643e+05	
115	5.750000e+00	9.995989e+05	
116	5.800000e+00	1.007990e+06	
117	5.850000e+00	1.016338e+06	
118	5.900000e+00	1.024643e+06	
119	5.950000e+00	1.032906e+06	
120	6.000000e+00	1.041126e+06	
121	6.050000e+00	1.049304e+06	
122	6.100000e+00	1.057441e+06	
123	6.150000e+00	1.065536e+06	
124	6.200000e+00	1.073591e+06	
125	6.250000e+00	1.081605e+06	
126	6.300000e+00	1.089578e+06	
127	6.350000e+00	1.097511e+06	
128	6.400000e+00	1.105404e+06	
129	6.450000e+00	1.113258e+06	
130	6.500000e+00	1.121072e+06	
131	6.550000e+00	1.128848e+06	
132	6.600000e+00	1.136584e+06	
Reset re-loads circuit ***************************

Circuit: ***************************

Doing analysis at TEMP = 25.000000 and TNOM = 25.000000


No. of Data Rows : 133
                          ***************************
                          DC transfer characteristic  Mon Jan  9 13:57:42  2023
--------------------------------------------------------------------------------
Index   v-sweep         rds             
--------------------------------------------------------------------------------
0	0.000000e+00	3.532665e+03	
1	5.000000e-02	3.666966e+03	
2	1.000000e-01	3.808271e+03	
3	1.500000e-01	3.957128e+03	
4	2.000000e-01	4.114143e+03	
5	2.500000e-01	4.279993e+03	
6	3.000000e-01	4.455430e+03	
7	3.500000e-01	4.641296e+03	
8	4.000000e-01	4.838535e+03	
9	4.500000e-01	5.048213e+03	
10	5.000000e-01	5.271531e+03	
11	5.500000e-01	5.509853e+03	
12	6.000000e-01	5.764731e+03	
13	6.500000e-01	6.037943e+03	
14	7.000000e-01	6.331530e+03	
15	7.500000e-01	6.647855e+03	
16	8.000000e-01	6.989666e+03	
17	8.500000e-01	7.360185e+03	
18	9.000000e-01	7.763219e+03	
19	9.500000e-01	8.203315e+03	
20	1.000000e+00	8.685967e+03	
21	1.050000e+00	9.217909e+03	
22	1.100000e+00	9.807547e+03	
23	1.150000e+00	1.046561e+04	
24	1.200000e+00	1.120620e+04	
25	1.250000e+00	1.204845e+04	
26	1.300000e+00	1.301938e+04	
27	1.350000e+00	1.415873e+04	
28	1.400000e+00	1.552674e+04	
29	1.450000e+00	1.721539e+04	
30	1.500000e+00	1.935948e+04	
31	1.550000e+00	2.213495e+04	
32	1.600000e+00	2.572467e+04	
33	1.650000e+00	3.025197e+04	
34	1.700000e+00	3.572697e+04	
35	1.750000e+00	4.205247e+04	
36	1.800000e+00	4.907540e+04	
37	1.850000e+00	5.663772e+04	
38	1.900000e+00	6.460347e+04	
39	1.950000e+00	7.286576e+04	
40	2.000000e+00	8.134412e+04	
41	2.050000e+00	8.997899e+04	
42	2.100000e+00	9.872640e+04	
43	2.150000e+00	1.075537e+05	
44	2.200000e+00	1.164366e+05	
45	2.250000e+00	1.253565e+05	
46	2.300000e+00	1.342993e+05	
47	2.350000e+00	1.432542e+05	
48	2.400000e+00	1.522125e+05	
49	2.450000e+00	1.611676e+05	
50	2.500000e+00	1.701140e+05	
51	2.550000e+00	1.790474e+05	
52	2.600000e+00	1.879644e+05	
53	2.650000e+00	1.968620e+05	
54	2.700000e+00	2.057380e+05	

Index   v-sweep         rds             
--------------------------------------------------------------------------------
55	2.750000e+00	2.145905e+05	
56	2.800000e+00	2.234177e+05	
57	2.850000e+00	2.322185e+05	
58	2.900000e+00	2.409917e+05	
59	2.950000e+00	2.497365e+05	
60	3.000000e+00	2.584519e+05	
61	3.050000e+00	2.671375e+05	
62	3.100000e+00	2.757926e+05	
63	3.150000e+00	2.844169e+05	
64	3.200000e+00	2.930100e+05	
65	3.250000e+00	3.015715e+05	
66	3.300000e+00	3.101013e+05	
67	3.350000e+00	3.185992e+05	
68	3.400000e+00	3.270650e+05	
69	3.450000e+00	3.354985e+05	
70	3.500000e+00	3.438998e+05	
71	3.550000e+00	3.522688e+05	
72	3.600000e+00	3.606054e+05	
73	3.650000e+00	3.689096e+05	
74	3.700000e+00	3.771814e+05	
75	3.750000e+00	3.854209e+05	
76	3.800000e+00	3.936281e+05	
77	3.850000e+00	4.018030e+05	
78	3.900000e+00	4.099458e+05	
79	3.950000e+00	4.180565e+05	
80	4.000000e+00	4.261351e+05	
81	4.050000e+00	4.341818e+05	
82	4.100000e+00	4.421966e+05	
83	4.150000e+00	4.501797e+05	
84	4.200000e+00	4.581312e+05	
85	4.250000e+00	4.660512e+05	
86	4.300000e+00	4.739398e+05	
87	4.350000e+00	4.817971e+05	
88	4.400000e+00	4.896232e+05	
89	4.450000e+00	4.974183e+05	
90	4.500000e+00	5.051825e+05	
91	4.550000e+00	5.129160e+05	
92	4.600000e+00	5.206188e+05	
93	4.650000e+00	5.282912e+05	
94	4.700000e+00	5.359332e+05	
95	4.750000e+00	5.435450e+05	
96	4.800000e+00	5.511267e+05	
97	4.850000e+00	5.586785e+05	
98	4.900000e+00	5.662005e+05	
99	4.950000e+00	5.736928e+05	
100	5.000000e+00	5.811557e+05	
101	5.050000e+00	5.885892e+05	
102	5.100000e+00	5.959935e+05	
103	5.150000e+00	6.033687e+05	
104	5.200000e+00	6.107150e+05	
105	5.250000e+00	6.180325e+05	
106	5.300000e+00	6.253214e+05	
107	5.350000e+00	6.325818e+05	
108	5.400000e+00	6.398139e+05	
109	5.450000e+00	6.470178e+05	
110	5.500000e+00	6.541936e+05	
111	5.550000e+00	6.613415e+05	
112	5.600000e+00	6.684616e+05	

Index   v-sweep         rds             
--------------------------------------------------------------------------------
113	5.650000e+00	6.755542e+05	
114	5.700000e+00	6.826192e+05	
115	5.750000e+00	6.896569e+05	
116	5.800000e+00	6.966674e+05	
117	5.850000e+00	7.036509e+05	
118	5.900000e+00	7.106075e+05	
119	5.950000e+00	7.175372e+05	
120	6.000000e+00	7.244404e+05	
121	6.050000e+00	7.313171e+05	
122	6.100000e+00	7.381674e+05	
123	6.150000e+00	7.449915e+05	
124	6.200000e+00	7.517895e+05	
125	6.250000e+00	7.585616e+05	
126	6.300000e+00	7.653079e+05	
127	6.350000e+00	7.720285e+05	
128	6.400000e+00	7.787236e+05	
129	6.450000e+00	7.853933e+05	
130	6.500000e+00	7.920377e+05	
131	6.550000e+00	7.986570e+05	
132	6.600000e+00	8.052513e+05	
Reset re-loads circuit ***************************

Circuit: ***************************

Doing analysis at TEMP = 25.000000 and TNOM = 25.000000


No. of Data Rows : 133
                          ***************************
                          DC transfer characteristic  Mon Jan  9 13:57:42  2023
--------------------------------------------------------------------------------
Index   v-sweep         rds             
--------------------------------------------------------------------------------
0	0.000000e+00	3.053497e+03	
1	5.000000e-02	3.148985e+03	
2	1.000000e-01	3.248329e+03	
3	1.500000e-01	3.351760e+03	
4	2.000000e-01	3.459524e+03	
5	2.500000e-01	3.571894e+03	
6	3.000000e-01	3.689161e+03	
7	3.500000e-01	3.811645e+03	
8	4.000000e-01	3.939695e+03	
9	4.500000e-01	4.073691e+03	
10	5.000000e-01	4.214050e+03	
11	5.500000e-01	4.361230e+03	
12	6.000000e-01	4.515734e+03	
13	6.500000e-01	4.678116e+03	
14	7.000000e-01	4.848988e+03	
15	7.500000e-01	5.029027e+03	
16	8.000000e-01	5.218986e+03	
17	8.500000e-01	5.419700e+03	
18	9.000000e-01	5.632105e+03	
19	9.500000e-01	5.857249e+03	
20	1.000000e+00	6.096309e+03	
21	1.050000e+00	6.350618e+03	
22	1.100000e+00	6.621693e+03	
23	1.150000e+00	6.911263e+03	
24	1.200000e+00	7.221326e+03	
25	1.250000e+00	7.554199e+03	
26	1.300000e+00	7.912604e+03	
27	1.350000e+00	8.299774e+03	
28	1.400000e+00	8.719616e+03	
29	1.450000e+00	9.176939e+03	
30	1.500000e+00	9.677804e+03	
31	1.550000e+00	1.023007e+04	
32	1.600000e+00	1.084430e+04	
33	1.650000e+00	1.153513e+04	
34	1.700000e+00	1.232370e+04	
35	1.750000e+00	1.324131e+04	
36	1.800000e+00	1.433486e+04	
37	1.850000e+00	1.567342e+04	
38	1.900000e+00	1.735256e+04	
39	1.950000e+00	1.948906e+04	
40	2.000000e+00	2.219817e+04	
41	2.050000e+00	2.555777e+04	
42	2.100000e+00	2.958145e+04	
43	2.150000e+00	3.421978e+04	
44	2.200000e+00	3.938482e+04	
45	2.250000e+00	4.497780e+04	
46	2.300000e+00	5.090722e+04	
47	2.350000e+00	5.709636e+04	
48	2.400000e+00	6.348423e+04	
49	2.450000e+00	7.002356e+04	
50	2.500000e+00	7.667811e+04	
51	2.550000e+00	8.342011e+04	
52	2.600000e+00	9.022823e+04	
53	2.650000e+00	9.708596e+04	
54	2.700000e+00	1.039804e+05	

Index   v-sweep         rds             
--------------------------------------------------------------------------------
55	2.750000e+00	1.109014e+05	
56	2.800000e+00	1.178409e+05	
57	2.850000e+00	1.247925e+05	
58	2.900000e+00	1.317510e+05	
59	2.950000e+00	1.387120e+05	
60	3.000000e+00	1.456721e+05	
61	3.050000e+00	1.526284e+05	
62	3.100000e+00	1.595786e+05	
63	3.150000e+00	1.665205e+05	
64	3.200000e+00	1.734526e+05	
65	3.250000e+00	1.803735e+05	
66	3.300000e+00	1.872818e+05	
67	3.350000e+00	1.941766e+05	
68	3.400000e+00	2.010570e+05	
69	3.450000e+00	2.079222e+05	
70	3.500000e+00	2.147717e+05	
71	3.550000e+00	2.216047e+05	
72	3.600000e+00	2.284210e+05	
73	3.650000e+00	2.352200e+05	
74	3.700000e+00	2.420015e+05	
75	3.750000e+00	2.487650e+05	
76	3.800000e+00	2.555103e+05	
77	3.850000e+00	2.622373e+05	
78	3.900000e+00	2.689456e+05	
79	3.950000e+00	2.756352e+05	
80	4.000000e+00	2.823059e+05	
81	4.050000e+00	2.889576e+05	
82	4.100000e+00	2.955901e+05	
83	4.150000e+00	3.022035e+05	
84	4.200000e+00	3.087976e+05	
85	4.250000e+00	3.153724e+05	
86	4.300000e+00	3.219278e+05	
87	4.350000e+00	3.284638e+05	
88	4.400000e+00	3.349803e+05	
89	4.450000e+00	3.414775e+05	
90	4.500000e+00	3.479552e+05	
91	4.550000e+00	3.544135e+05	
92	4.600000e+00	3.608524e+05	
93	4.650000e+00	3.672718e+05	
94	4.700000e+00	3.736718e+05	
95	4.750000e+00	3.800525e+05	
96	4.800000e+00	3.864139e+05	
97	4.850000e+00	3.927559e+05	
98	4.900000e+00	3.990787e+05	
99	4.950000e+00	4.053822e+05	
100	5.000000e+00	4.116666e+05	
101	5.050000e+00	4.179317e+05	
102	5.100000e+00	4.241778e+05	
103	5.150000e+00	4.304049e+05	
104	5.200000e+00	4.366129e+05	
105	5.250000e+00	4.428020e+05	
106	5.300000e+00	4.489722e+05	
107	5.350000e+00	4.551236e+05	
108	5.400000e+00	4.612562e+05	
109	5.450000e+00	4.673700e+05	
110	5.500000e+00	4.734652e+05	
111	5.550000e+00	4.795418e+05	
112	5.600000e+00	4.855999e+05	

Index   v-sweep         rds             
--------------------------------------------------------------------------------
113	5.650000e+00	4.916394e+05	
114	5.700000e+00	4.976606e+05	
115	5.750000e+00	5.036634e+05	
116	5.800000e+00	5.096479e+05	
117	5.850000e+00	5.156142e+05	
118	5.900000e+00	5.215623e+05	
119	5.950000e+00	5.274923e+05	
120	6.000000e+00	5.334043e+05	
121	6.050000e+00	5.392984e+05	
122	6.100000e+00	5.451745e+05	
123	6.150000e+00	5.510328e+05	
124	6.200000e+00	5.568734e+05	
125	6.250000e+00	5.626962e+05	
126	6.300000e+00	5.685015e+05	
127	6.350000e+00	5.742891e+05	
128	6.400000e+00	5.800593e+05	
129	6.450000e+00	5.858121e+05	
130	6.500000e+00	5.915475e+05	
131	6.550000e+00	5.972656e+05	
132	6.600000e+00	6.029664e+05	
Reset re-loads circuit ***************************

Circuit: ***************************

Doing analysis at TEMP = 25.000000 and TNOM = 25.000000


No. of Data Rows : 133
                          ***************************
                          DC transfer characteristic  Mon Jan  9 13:57:42  2023
--------------------------------------------------------------------------------
Index   v-sweep         rds             
--------------------------------------------------------------------------------
0	0.000000e+00	2.797332e+03	
1	5.000000e-02	2.871471e+03	
2	1.000000e-01	2.948047e+03	
3	1.500000e-01	3.027176e+03	
4	2.000000e-01	3.108983e+03	
5	2.500000e-01	3.193601e+03	
6	3.000000e-01	3.281171e+03	
7	3.500000e-01	3.371846e+03	
8	4.000000e-01	3.465788e+03	
9	4.500000e-01	3.563175e+03	
10	5.000000e-01	3.664193e+03	
11	5.500000e-01	3.769045e+03	
12	6.000000e-01	3.877950e+03	
13	6.500000e-01	3.991144e+03	
14	7.000000e-01	4.108881e+03	
15	7.500000e-01	4.231437e+03	
16	8.000000e-01	4.359110e+03	
17	8.500000e-01	4.492224e+03	
18	9.000000e-01	4.631130e+03	
19	9.500000e-01	4.776210e+03	
20	1.000000e+00	4.927882e+03	
21	1.050000e+00	5.086601e+03	
22	1.100000e+00	5.252866e+03	
23	1.150000e+00	5.427223e+03	
24	1.200000e+00	5.610275e+03	
25	1.250000e+00	5.802685e+03	
26	1.300000e+00	6.005192e+03	
27	1.350000e+00	6.218611e+03	
28	1.400000e+00	6.443858e+03	
29	1.450000e+00	6.681959e+03	
30	1.500000e+00	6.934073e+03	
31	1.550000e+00	7.201518e+03	
32	1.600000e+00	7.485809e+03	
33	1.650000e+00	7.788701e+03	
34	1.700000e+00	8.112257e+03	
35	1.750000e+00	8.458941e+03	
36	1.800000e+00	8.831747e+03	
37	1.850000e+00	9.234401e+03	
38	1.900000e+00	9.671669e+03	
39	1.950000e+00	1.014982e+04	
40	2.000000e+00	1.067739e+04	
41	2.050000e+00	1.126632e+04	
42	2.100000e+00	1.193381e+04	
43	2.150000e+00	1.270499e+04	
44	2.200000e+00	1.361651e+04	
45	2.250000e+00	1.472034e+04	
46	2.300000e+00	1.608543e+04	
47	2.350000e+00	1.779333e+04	
48	2.400000e+00	1.992401e+04	
49	2.450000e+00	2.253489e+04	
50	2.500000e+00	2.564402e+04	
51	2.550000e+00	2.922786e+04	
52	2.600000e+00	3.323321e+04	
53	2.650000e+00	3.759394e+04	
54	2.700000e+00	4.224412e+04	

Index   v-sweep         rds             
--------------------------------------------------------------------------------
55	2.750000e+00	4.712519e+04	
56	2.800000e+00	5.218836e+04	
57	2.850000e+00	5.739441e+04	
58	2.900000e+00	6.271235e+04	
59	2.950000e+00	6.811788e+04	
60	3.000000e+00	7.359198e+04	
61	3.050000e+00	7.911965e+04	
62	3.100000e+00	8.468909e+04	
63	3.150000e+00	9.029086e+04	
64	3.200000e+00	9.591742e+04	
65	3.250000e+00	1.015627e+05	
66	3.300000e+00	1.072216e+05	
67	3.350000e+00	1.128903e+05	
68	3.400000e+00	1.185652e+05	
69	3.450000e+00	1.242437e+05	
70	3.500000e+00	1.299233e+05	
71	3.550000e+00	1.356021e+05	
72	3.600000e+00	1.412785e+05	
73	3.650000e+00	1.469510e+05	
74	3.700000e+00	1.526184e+05	
75	3.750000e+00	1.582797e+05	
76	3.800000e+00	1.639341e+05	
77	3.850000e+00	1.695807e+05	
78	3.900000e+00	1.752188e+05	
79	3.950000e+00	1.808479e+05	
80	4.000000e+00	1.864676e+05	
81	4.050000e+00	1.920772e+05	
82	4.100000e+00	1.976765e+05	
83	4.150000e+00	2.032652e+05	
84	4.200000e+00	2.088428e+05	
85	4.250000e+00	2.144092e+05	
86	4.300000e+00	2.199641e+05	
87	4.350000e+00	2.255074e+05	
88	4.400000e+00	2.310388e+05	
89	4.450000e+00	2.365581e+05	
90	4.500000e+00	2.420654e+05	
91	4.550000e+00	2.475603e+05	
92	4.600000e+00	2.530429e+05	
93	4.650000e+00	2.585130e+05	
94	4.700000e+00	2.639705e+05	
95	4.750000e+00	2.694154e+05	
96	4.800000e+00	2.748477e+05	
97	4.850000e+00	2.802672e+05	
98	4.900000e+00	2.856739e+05	
99	4.950000e+00	2.910678e+05	
100	5.000000e+00	2.964488e+05	
101	5.050000e+00	3.018170e+05	
102	5.100000e+00	3.071723e+05	
103	5.150000e+00	3.125146e+05	
104	5.200000e+00	3.178441e+05	
105	5.250000e+00	3.231606e+05	
106	5.300000e+00	3.284642e+05	
107	5.350000e+00	3.337549e+05	
108	5.400000e+00	3.390326e+05	
109	5.450000e+00	3.442975e+05	
110	5.500000e+00	3.495494e+05	
111	5.550000e+00	3.547884e+05	
112	5.600000e+00	3.600145e+05	

Index   v-sweep         rds             
--------------------------------------------------------------------------------
113	5.650000e+00	3.652278e+05	
114	5.700000e+00	3.704282e+05	
115	5.750000e+00	3.756158e+05	
116	5.800000e+00	3.807906e+05	
117	5.850000e+00	3.859525e+05	
118	5.900000e+00	3.911017e+05	
119	5.950000e+00	3.962382e+05	
120	6.000000e+00	4.013619e+05	
121	6.050000e+00	4.064730e+05	
122	6.100000e+00	4.115713e+05	
123	6.150000e+00	4.166571e+05	
124	6.200000e+00	4.217302e+05	
125	6.250000e+00	4.267907e+05	
126	6.300000e+00	4.318387e+05	
127	6.350000e+00	4.368742e+05	
128	6.400000e+00	4.418971e+05	
129	6.450000e+00	4.469077e+05	
130	6.500000e+00	4.519058e+05	
131	6.550000e+00	4.568915e+05	
132	6.600000e+00	4.618648e+05	
Reset re-loads circuit ***************************

Circuit: ***************************

Note: No ".plot", ".print", or ".fourier" lines; no simulations run
