
Note: Compatibility modes selected: hs

Warning: m=xx on .subckt line will override multiplier m hierarchy!


Circuit: ***************************

Doing analysis at TEMP = 25.000000 and TNOM = 25.000000


No. of Data Rows : 133
                          ***************************
                          DC transfer characteristic  Mon Jan  9 13:57:41  2023
--------------------------------------------------------------------------------
Index   v-sweep         rds             
--------------------------------------------------------------------------------
0	0.000000e+00	1.919194e+03	
1	5.000000e-02	2.592402e+03	
2	1.000000e-01	3.866396e+03	
3	1.500000e-01	6.760036e+03	
4	2.000000e-01	1.338001e+04	
5	2.500000e-01	2.273253e+04	
6	3.000000e-01	3.095644e+04	
7	3.500000e-01	3.762712e+04	
8	4.000000e-01	4.331355e+04	
9	4.500000e-01	4.834841e+04	
10	5.000000e-01	5.289723e+04	
11	5.500000e-01	5.705249e+04	
12	6.000000e-01	6.087375e+04	
13	6.500000e-01	6.440390e+04	
14	7.000000e-01	6.767632e+04	
15	7.500000e-01	7.071822e+04	
16	8.000000e-01	7.355252e+04	
17	8.500000e-01	7.619891e+04	
18	9.000000e-01	7.867452e+04	
19	9.500000e-01	8.099439e+04	
20	1.000000e+00	8.317184e+04	
21	1.050000e+00	8.521870e+04	
22	1.100000e+00	8.714556e+04	
23	1.150000e+00	8.896190e+04	
24	1.200000e+00	9.067626e+04	
25	1.250000e+00	9.229633e+04	
26	1.300000e+00	9.382909e+04	
27	1.350000e+00	9.528085e+04	
28	1.400000e+00	9.665734e+04	
29	1.450000e+00	9.796380e+04	
30	1.500000e+00	9.920499e+04	
31	1.550000e+00	1.003853e+05	
32	1.600000e+00	1.015086e+05	
33	1.650000e+00	1.025788e+05	
34	1.700000e+00	1.035990e+05	
35	1.750000e+00	1.045725e+05	
36	1.800000e+00	1.055020e+05	
37	1.850000e+00	1.063902e+05	
38	1.900000e+00	1.072396e+05	
39	1.950000e+00	1.080524e+05	
40	2.000000e+00	1.088306e+05	
41	2.050000e+00	1.095763e+05	
42	2.100000e+00	1.102913e+05	
43	2.150000e+00	1.109771e+05	
44	2.200000e+00	1.116354e+05	
45	2.250000e+00	1.122676e+05	
46	2.300000e+00	1.128751e+05	
47	2.350000e+00	1.134592e+05	
48	2.400000e+00	1.140210e+05	
49	2.450000e+00	1.145617e+05	
50	2.500000e+00	1.150822e+05	
51	2.550000e+00	1.155837e+05	
52	2.600000e+00	1.160669e+05	
53	2.650000e+00	1.165327e+05	
54	2.700000e+00	1.169821e+05	

Index   v-sweep         rds             
--------------------------------------------------------------------------------
55	2.750000e+00	1.174156e+05	
56	2.800000e+00	1.178341e+05	
57	2.850000e+00	1.182382e+05	
58	2.900000e+00	1.186286e+05	
59	2.950000e+00	1.190058e+05	
60	3.000000e+00	1.193704e+05	
61	3.050000e+00	1.197230e+05	
62	3.100000e+00	1.200641e+05	
63	3.150000e+00	1.203942e+05	
64	3.200000e+00	1.207136e+05	
65	3.250000e+00	1.210229e+05	
66	3.300000e+00	1.213225e+05	
67	3.350000e+00	1.216127e+05	
68	3.400000e+00	1.218940e+05	
69	3.450000e+00	1.221666e+05	
70	3.500000e+00	1.224309e+05	
71	3.550000e+00	1.226872e+05	
72	3.600000e+00	1.229359e+05	
73	3.650000e+00	1.231772e+05	
74	3.700000e+00	1.234114e+05	
75	3.750000e+00	1.236387e+05	
76	3.800000e+00	1.238594e+05	
77	3.850000e+00	1.240738e+05	
78	3.900000e+00	1.242820e+05	
79	3.950000e+00	1.244843e+05	
80	4.000000e+00	1.246810e+05	
81	4.050000e+00	1.248721e+05	
82	4.100000e+00	1.250579e+05	
83	4.150000e+00	1.252385e+05	
84	4.200000e+00	1.254142e+05	
85	4.250000e+00	1.255851e+05	
86	4.300000e+00	1.257514e+05	
87	4.350000e+00	1.259131e+05	
88	4.400000e+00	1.260706e+05	
89	4.450000e+00	1.262238e+05	
90	4.500000e+00	1.263730e+05	
91	4.550000e+00	1.265183e+05	
92	4.600000e+00	1.266597e+05	
93	4.650000e+00	1.267975e+05	
94	4.700000e+00	1.269317e+05	
95	4.750000e+00	1.270624e+05	
96	4.800000e+00	1.271898e+05	
97	4.850000e+00	1.273139e+05	
98	4.900000e+00	1.274348e+05	
99	4.950000e+00	1.275527e+05	
100	5.000000e+00	1.276677e+05	
101	5.050000e+00	1.277797e+05	
102	5.100000e+00	1.278890e+05	
103	5.150000e+00	1.279955e+05	
104	5.200000e+00	1.280994e+05	
105	5.250000e+00	1.282007e+05	
106	5.300000e+00	1.282996e+05	
107	5.350000e+00	1.283960e+05	
108	5.400000e+00	1.284901e+05	
109	5.450000e+00	1.285819e+05	
110	5.500000e+00	1.286714e+05	
111	5.550000e+00	1.287589e+05	
112	5.600000e+00	1.288442e+05	

Index   v-sweep         rds             
--------------------------------------------------------------------------------
113	5.650000e+00	1.289274e+05	
114	5.700000e+00	1.290087e+05	
115	5.750000e+00	1.290880e+05	
116	5.800000e+00	1.291655e+05	
117	5.850000e+00	1.292411e+05	
118	5.900000e+00	1.293149e+05	
119	5.950000e+00	1.293870e+05	
120	6.000000e+00	1.294574e+05	
121	6.050000e+00	1.295261e+05	
122	6.100000e+00	1.295933e+05	
123	6.150000e+00	1.296588e+05	
124	6.200000e+00	1.297229e+05	
125	6.250000e+00	1.297854e+05	
126	6.300000e+00	1.298465e+05	
127	6.350000e+00	1.299062e+05	
128	6.400000e+00	1.299645e+05	
129	6.450000e+00	1.300214e+05	
130	6.500000e+00	1.300771e+05	
131	6.550000e+00	1.301314e+05	
132	6.600000e+00	1.301845e+05	
Reset re-loads circuit ***************************

Circuit: ***************************

Doing analysis at TEMP = 25.000000 and TNOM = 25.000000


No. of Data Rows : 133
                          ***************************
                          DC transfer characteristic  Mon Jan  9 13:57:41  2023
--------------------------------------------------------------------------------
Index   v-sweep         rds             
--------------------------------------------------------------------------------
0	0.000000e+00	4.864770e+02	
1	5.000000e-02	5.298230e+02	
2	1.000000e-01	5.794105e+02	
3	1.500000e-01	6.366723e+02	
4	2.000000e-01	7.035151e+02	
5	2.500000e-01	7.825307e+02	
6	3.000000e-01	8.773296e+02	
7	3.500000e-01	9.930849e+02	
8	4.000000e-01	1.137453e+03	
9	4.500000e-01	1.322180e+03	
10	5.000000e-01	1.565887e+03	
11	5.500000e-01	1.898361e+03	
12	6.000000e-01	2.363462e+03	
13	6.500000e-01	3.007287e+03	
14	7.000000e-01	3.841160e+03	
15	7.500000e-01	4.823163e+03	
16	8.000000e-01	5.892329e+03	
17	8.500000e-01	7.001801e+03	
18	9.000000e-01	8.123540e+03	
19	9.500000e-01	9.242108e+03	
20	1.000000e+00	1.034912e+04	
21	1.050000e+00	1.143999e+04	
22	1.100000e+00	1.251222e+04	
23	1.150000e+00	1.356450e+04	
24	1.200000e+00	1.459619e+04	
25	1.250000e+00	1.560709e+04	
26	1.300000e+00	1.659724e+04	
27	1.350000e+00	1.756684e+04	
28	1.400000e+00	1.851622e+04	
29	1.450000e+00	1.944574e+04	
30	1.500000e+00	2.035582e+04	
31	1.550000e+00	2.124691e+04	
32	1.600000e+00	2.211947e+04	
33	1.650000e+00	2.297394e+04	
34	1.700000e+00	2.381079e+04	
35	1.750000e+00	2.463048e+04	
36	1.800000e+00	2.543346e+04	
37	1.850000e+00	2.622017e+04	
38	1.900000e+00	2.699105e+04	
39	1.950000e+00	2.774650e+04	
40	2.000000e+00	2.848696e+04	
41	2.050000e+00	2.921281e+04	
42	2.100000e+00	2.992444e+04	
43	2.150000e+00	3.062224e+04	
44	2.200000e+00	3.130657e+04	
45	2.250000e+00	3.197779e+04	
46	2.300000e+00	3.263624e+04	
47	2.350000e+00	3.328225e+04	
48	2.400000e+00	3.391616e+04	
49	2.450000e+00	3.453827e+04	
50	2.500000e+00	3.514888e+04	
51	2.550000e+00	3.574831e+04	
52	2.600000e+00	3.633682e+04	
53	2.650000e+00	3.691470e+04	
54	2.700000e+00	3.748221e+04	

Index   v-sweep         rds             
--------------------------------------------------------------------------------
55	2.750000e+00	3.803961e+04	
56	2.800000e+00	3.858716e+04	
57	2.850000e+00	3.912510e+04	
58	2.900000e+00	3.965367e+04	
59	2.950000e+00	4.017309e+04	
60	3.000000e+00	4.068359e+04	
61	3.050000e+00	4.118538e+04	
62	3.100000e+00	4.167868e+04	
63	3.150000e+00	4.216367e+04	
64	3.200000e+00	4.264057e+04	
65	3.250000e+00	4.310956e+04	
66	3.300000e+00	4.357083e+04	
67	3.350000e+00	4.402455e+04	
68	3.400000e+00	4.447090e+04	
69	3.450000e+00	4.491005e+04	
70	3.500000e+00	4.534216e+04	
71	3.550000e+00	4.576739e+04	
72	3.600000e+00	4.618590e+04	
73	3.650000e+00	4.659784e+04	
74	3.700000e+00	4.700335e+04	
75	3.750000e+00	4.740258e+04	
76	3.800000e+00	4.779566e+04	
77	3.850000e+00	4.818272e+04	
78	3.900000e+00	4.856390e+04	
79	3.950000e+00	4.893933e+04	
80	4.000000e+00	4.930912e+04	
81	4.050000e+00	4.967340e+04	
82	4.100000e+00	5.003229e+04	
83	4.150000e+00	5.038589e+04	
84	4.200000e+00	5.073431e+04	
85	4.250000e+00	5.107768e+04	
86	4.300000e+00	5.141607e+04	
87	4.350000e+00	5.174962e+04	
88	4.400000e+00	5.207839e+04	
89	4.450000e+00	5.240251e+04	
90	4.500000e+00	5.272206e+04	
91	4.550000e+00	5.303712e+04	
92	4.600000e+00	5.334780e+04	
93	4.650000e+00	5.365417e+04	
94	4.700000e+00	5.395633e+04	
95	4.750000e+00	5.425435e+04	
96	4.800000e+00	5.454832e+04	
97	4.850000e+00	5.483831e+04	
98	4.900000e+00	5.512440e+04	
99	4.950000e+00	5.540666e+04	
100	5.000000e+00	5.568517e+04	
101	5.050000e+00	5.596000e+04	
102	5.100000e+00	5.623121e+04	
103	5.150000e+00	5.649888e+04	
104	5.200000e+00	5.676307e+04	
105	5.250000e+00	5.702385e+04	
106	5.300000e+00	5.728127e+04	
107	5.350000e+00	5.753540e+04	
108	5.400000e+00	5.778630e+04	
109	5.450000e+00	5.803403e+04	
110	5.500000e+00	5.827864e+04	
111	5.550000e+00	5.852019e+04	
112	5.600000e+00	5.875874e+04	

Index   v-sweep         rds             
--------------------------------------------------------------------------------
113	5.650000e+00	5.899433e+04	
114	5.700000e+00	5.922702e+04	
115	5.750000e+00	5.945686e+04	
116	5.800000e+00	5.968391e+04	
117	5.850000e+00	5.990820e+04	
118	5.900000e+00	6.012978e+04	
119	5.950000e+00	6.034871e+04	
120	6.000000e+00	6.056503e+04	
121	6.050000e+00	6.077878e+04	
122	6.100000e+00	6.099001e+04	
123	6.150000e+00	6.119875e+04	
124	6.200000e+00	6.140505e+04	
125	6.250000e+00	6.160895e+04	
126	6.300000e+00	6.181049e+04	
127	6.350000e+00	6.200971e+04	
128	6.400000e+00	6.220665e+04	
129	6.450000e+00	6.240134e+04	
130	6.500000e+00	6.259382e+04	
131	6.550000e+00	6.278413e+04	
132	6.600000e+00	6.297230e+04	
Reset re-loads circuit ***************************

Circuit: ***************************

Doing analysis at TEMP = 25.000000 and TNOM = 25.000000


No. of Data Rows : 133
                          ***************************
                          DC transfer characteristic  Mon Jan  9 13:57:41  2023
--------------------------------------------------------------------------------
Index   v-sweep         rds             
--------------------------------------------------------------------------------
0	0.000000e+00	3.122109e+02	
1	5.000000e-02	3.310922e+02	
2	1.000000e-01	3.515378e+02	
3	1.500000e-01	3.737450e+02	
4	2.000000e-01	3.979462e+02	
5	2.500000e-01	4.244175e+02	
6	3.000000e-01	4.534893e+02	
7	3.500000e-01	4.855602e+02	
8	4.000000e-01	5.211158e+02	
9	4.500000e-01	5.607542e+02	
10	5.000000e-01	6.052216e+02	
11	5.500000e-01	6.554648e+02	
12	6.000000e-01	7.127101e+02	
13	6.500000e-01	7.785898e+02	
14	7.000000e-01	8.553576e+02	
15	7.500000e-01	9.462754e+02	
16	8.000000e-01	1.056341e+03	
17	8.500000e-01	1.193623e+03	
18	9.000000e-01	1.371322e+03	
19	9.500000e-01	1.609211e+03	
20	1.000000e+00	1.929859e+03	
21	1.050000e+00	2.346691e+03	
22	1.100000e+00	2.854314e+03	
23	1.150000e+00	3.433207e+03	
24	1.200000e+00	4.061220e+03	
25	1.250000e+00	4.720313e+03	
26	1.300000e+00	5.397727e+03	
27	1.350000e+00	6.084920e+03	
28	1.400000e+00	6.776253e+03	
29	1.450000e+00	7.467986e+03	
30	1.500000e+00	8.157607e+03	
31	1.550000e+00	8.843412e+03	
32	1.600000e+00	9.524226e+03	
33	1.650000e+00	1.019924e+04	
34	1.700000e+00	1.086789e+04	
35	1.750000e+00	1.152978e+04	
36	1.800000e+00	1.218466e+04	
37	1.850000e+00	1.283235e+04	
38	1.900000e+00	1.347274e+04	
39	1.950000e+00	1.410579e+04	
40	2.000000e+00	1.473146e+04	
41	2.050000e+00	1.534977e+04	
42	2.100000e+00	1.596075e+04	
43	2.150000e+00	1.656444e+04	
44	2.200000e+00	1.716091e+04	
45	2.250000e+00	1.775023e+04	
46	2.300000e+00	1.833246e+04	
47	2.350000e+00	1.890770e+04	
48	2.400000e+00	1.947603e+04	
49	2.450000e+00	2.003753e+04	
50	2.500000e+00	2.059231e+04	
51	2.550000e+00	2.114046e+04	
52	2.600000e+00	2.168206e+04	
53	2.650000e+00	2.221721e+04	
54	2.700000e+00	2.274602e+04	

Index   v-sweep         rds             
--------------------------------------------------------------------------------
55	2.750000e+00	2.326856e+04	
56	2.800000e+00	2.378495e+04	
57	2.850000e+00	2.429526e+04	
58	2.900000e+00	2.479960e+04	
59	2.950000e+00	2.529806e+04	
60	3.000000e+00	2.579072e+04	
61	3.050000e+00	2.627768e+04	
62	3.100000e+00	2.675903e+04	
63	3.150000e+00	2.723485e+04	
64	3.200000e+00	2.770522e+04	
65	3.250000e+00	2.817024e+04	
66	3.300000e+00	2.862999e+04	
67	3.350000e+00	2.908454e+04	
68	3.400000e+00	2.953398e+04	
69	3.450000e+00	2.997839e+04	
70	3.500000e+00	3.041785e+04	
71	3.550000e+00	3.085243e+04	
72	3.600000e+00	3.128221e+04	
73	3.650000e+00	3.170726e+04	
74	3.700000e+00	3.212766e+04	
75	3.750000e+00	3.254347e+04	
76	3.800000e+00	3.295477e+04	
77	3.850000e+00	3.336163e+04	
78	3.900000e+00	3.376410e+04	
79	3.950000e+00	3.416227e+04	
80	4.000000e+00	3.455619e+04	
81	4.050000e+00	3.494593e+04	
82	4.100000e+00	3.533155e+04	
83	4.150000e+00	3.571311e+04	
84	4.200000e+00	3.609067e+04	
85	4.250000e+00	3.646430e+04	
86	4.300000e+00	3.683405e+04	
87	4.350000e+00	3.719998e+04	
88	4.400000e+00	3.756214e+04	
89	4.450000e+00	3.792059e+04	
90	4.500000e+00	3.827538e+04	
91	4.550000e+00	3.862657e+04	
92	4.600000e+00	3.897421e+04	
93	4.650000e+00	3.931834e+04	
94	4.700000e+00	3.965903e+04	
95	4.750000e+00	3.999632e+04	
96	4.800000e+00	4.033026e+04	
97	4.850000e+00	4.066089e+04	
98	4.900000e+00	4.098826e+04	
99	4.950000e+00	4.131243e+04	
100	5.000000e+00	4.163342e+04	
101	5.050000e+00	4.195130e+04	
102	5.100000e+00	4.226609e+04	
103	5.150000e+00	4.257785e+04	
104	5.200000e+00	4.288662e+04	
105	5.250000e+00	4.319244e+04	
106	5.300000e+00	4.349534e+04	
107	5.350000e+00	4.379537e+04	
108	5.400000e+00	4.409257e+04	
109	5.450000e+00	4.438697e+04	
110	5.500000e+00	4.467862e+04	
111	5.550000e+00	4.496755e+04	
112	5.600000e+00	4.525379e+04	

Index   v-sweep         rds             
--------------------------------------------------------------------------------
113	5.650000e+00	4.553739e+04	
114	5.700000e+00	4.581837e+04	
115	5.750000e+00	4.609678e+04	
116	5.800000e+00	4.637265e+04	
117	5.850000e+00	4.664600e+04	
118	5.900000e+00	4.691688e+04	
119	5.950000e+00	4.718531e+04	
120	6.000000e+00	4.745133e+04	
121	6.050000e+00	4.771497e+04	
122	6.100000e+00	4.797626e+04	
123	6.150000e+00	4.823523e+04	
124	6.200000e+00	4.849191e+04	
125	6.250000e+00	4.874633e+04	
126	6.300000e+00	4.899851e+04	
127	6.350000e+00	4.924849e+04	
128	6.400000e+00	4.949629e+04	
129	6.450000e+00	4.974195e+04	
130	6.500000e+00	4.998548e+04	
131	6.550000e+00	5.022692e+04	
132	6.600000e+00	5.046629e+04	
Reset re-loads circuit ***************************

Circuit: ***************************

Doing analysis at TEMP = 25.000000 and TNOM = 25.000000


No. of Data Rows : 133
                          ***************************
                          DC transfer characteristic  Mon Jan  9 13:57:41  2023
--------------------------------------------------------------------------------
Index   v-sweep         rds             
--------------------------------------------------------------------------------
0	0.000000e+00	2.467526e+02	
1	5.000000e-02	2.585654e+02	
2	1.000000e-01	2.710808e+02	
3	1.500000e-01	2.843606e+02	
4	2.000000e-01	2.984742e+02	
5	2.500000e-01	3.135001e+02	
6	3.000000e-01	3.295274e+02	
7	3.500000e-01	3.466576e+02	
8	4.000000e-01	3.650069e+02	
9	4.500000e-01	3.847085e+02	
10	5.000000e-01	4.059166e+02	
11	5.500000e-01	4.288096e+02	
12	6.000000e-01	4.535962e+02	
13	6.500000e-01	4.805220e+02	
14	7.000000e-01	5.098793e+02	
15	7.500000e-01	5.420198e+02	
16	8.000000e-01	5.773748e+02	
17	8.500000e-01	6.164842e+02	
18	9.000000e-01	6.600443e+02	
19	9.500000e-01	7.089882e+02	
20	1.000000e+00	7.646283e+02	
21	1.050000e+00	8.289159e+02	
22	1.100000e+00	9.049153e+02	
23	1.150000e+00	9.976090e+02	
24	1.200000e+00	1.115011e+03	
25	1.250000e+00	1.268876e+03	
26	1.300000e+00	1.473118e+03	
27	1.350000e+00	1.738556e+03	
28	1.400000e+00	2.067237e+03	
29	1.450000e+00	2.451985e+03	
30	1.500000e+00	2.880930e+03	
31	1.550000e+00	3.342125e+03	
32	1.600000e+00	3.825748e+03	
33	1.650000e+00	4.324448e+03	
34	1.700000e+00	4.832943e+03	
35	1.750000e+00	5.347481e+03	
36	1.800000e+00	5.865396e+03	
37	1.850000e+00	6.384775e+03	
38	1.900000e+00	6.904235e+03	
39	1.950000e+00	7.422758e+03	
40	2.000000e+00	7.939592e+03	
41	2.050000e+00	8.454174e+03	
42	2.100000e+00	8.966081e+03	
43	2.150000e+00	9.474989e+03	
44	2.200000e+00	9.980656e+03	
45	2.250000e+00	1.048290e+04	
46	2.300000e+00	1.098157e+04	
47	2.350000e+00	1.147657e+04	
48	2.400000e+00	1.196782e+04	
49	2.450000e+00	1.245526e+04	
50	2.500000e+00	1.293886e+04	
51	2.550000e+00	1.341858e+04	
52	2.600000e+00	1.389443e+04	
53	2.650000e+00	1.436639e+04	
54	2.700000e+00	1.483446e+04	

Index   v-sweep         rds             
--------------------------------------------------------------------------------
55	2.750000e+00	1.529866e+04	
56	2.800000e+00	1.575900e+04	
57	2.850000e+00	1.621549e+04	
58	2.900000e+00	1.666817e+04	
59	2.950000e+00	1.711705e+04	
60	3.000000e+00	1.756216e+04	
61	3.050000e+00	1.800353e+04	
62	3.100000e+00	1.844120e+04	
63	3.150000e+00	1.887518e+04	
64	3.200000e+00	1.930552e+04	
65	3.250000e+00	1.973225e+04	
66	3.300000e+00	2.015540e+04	
67	3.350000e+00	2.057500e+04	
68	3.400000e+00	2.099110e+04	
69	3.450000e+00	2.140373e+04	
70	3.500000e+00	2.181291e+04	
71	3.550000e+00	2.221870e+04	
72	3.600000e+00	2.262111e+04	
73	3.650000e+00	2.302020e+04	
74	3.700000e+00	2.341599e+04	
75	3.750000e+00	2.380851e+04	
76	3.800000e+00	2.419782e+04	
77	3.850000e+00	2.458393e+04	
78	3.900000e+00	2.496688e+04	
79	3.950000e+00	2.534671e+04	
80	4.000000e+00	2.572345e+04	
81	4.050000e+00	2.609714e+04	
82	4.100000e+00	2.646780e+04	
83	4.150000e+00	2.683548e+04	
84	4.200000e+00	2.720020e+04	
85	4.250000e+00	2.756199e+04	
86	4.300000e+00	2.792090e+04	
87	4.350000e+00	2.827695e+04	
88	4.400000e+00	2.863016e+04	
89	4.450000e+00	2.898059e+04	
90	4.500000e+00	2.932824e+04	
91	4.550000e+00	2.967316e+04	
92	4.600000e+00	3.001537e+04	
93	4.650000e+00	3.035491e+04	
94	4.700000e+00	3.069180e+04	
95	4.750000e+00	3.102607e+04	
96	4.800000e+00	3.135776e+04	
97	4.850000e+00	3.168688e+04	
98	4.900000e+00	3.201346e+04	
99	4.950000e+00	3.233755e+04	
100	5.000000e+00	3.265915e+04	
101	5.050000e+00	3.297830e+04	
102	5.100000e+00	3.329502e+04	
103	5.150000e+00	3.360935e+04	
104	5.200000e+00	3.392130e+04	
105	5.250000e+00	3.423090e+04	
106	5.300000e+00	3.453818e+04	
107	5.350000e+00	3.484316e+04	
108	5.400000e+00	3.514587e+04	
109	5.450000e+00	3.544633e+04	
110	5.500000e+00	3.574456e+04	
111	5.550000e+00	3.604059e+04	
112	5.600000e+00	3.633444e+04	

Index   v-sweep         rds             
--------------------------------------------------------------------------------
113	5.650000e+00	3.662613e+04	
114	5.700000e+00	3.691570e+04	
115	5.750000e+00	3.720315e+04	
116	5.800000e+00	3.748851e+04	
117	5.850000e+00	3.777180e+04	
118	5.900000e+00	3.805305e+04	
119	5.950000e+00	3.833227e+04	
120	6.000000e+00	3.860949e+04	
121	6.050000e+00	3.888473e+04	
122	6.100000e+00	3.915800e+04	
123	6.150000e+00	3.942933e+04	
124	6.200000e+00	3.969874e+04	
125	6.250000e+00	3.996625e+04	
126	6.300000e+00	4.023187e+04	
127	6.350000e+00	4.049563e+04	
128	6.400000e+00	4.075754e+04	
129	6.450000e+00	4.101762e+04	
130	6.500000e+00	4.127590e+04	
131	6.550000e+00	4.153239e+04	
132	6.600000e+00	4.178710e+04	
Reset re-loads circuit ***************************

Circuit: ***************************

Doing analysis at TEMP = 25.000000 and TNOM = 25.000000


No. of Data Rows : 133
                          ***************************
                          DC transfer characteristic  Mon Jan  9 13:57:42  2023
--------------------------------------------------------------------------------
Index   v-sweep         rds             
--------------------------------------------------------------------------------
0	0.000000e+00	2.152039e+02	
1	5.000000e-02	2.237980e+02	
2	1.000000e-01	2.327934e+02	
3	1.500000e-01	2.422171e+02	
4	2.000000e-01	2.520987e+02	
5	2.500000e-01	2.624710e+02	
6	3.000000e-01	2.733701e+02	
7	3.500000e-01	2.848357e+02	
8	4.000000e-01	2.969122e+02	
9	4.500000e-01	3.096488e+02	
10	5.000000e-01	3.231003e+02	
11	5.500000e-01	3.373279e+02	
12	6.000000e-01	3.524001e+02	
13	6.500000e-01	3.683939e+02	
14	7.000000e-01	3.853960e+02	
15	7.500000e-01	4.035044e+02	
16	8.000000e-01	4.228306e+02	
17	8.500000e-01	4.435025e+02	
18	9.000000e-01	4.656673e+02	
19	9.500000e-01	4.894971e+02	
20	1.000000e+00	5.151953e+02	
21	1.050000e+00	5.430068e+02	
22	1.100000e+00	5.732328e+02	
23	1.150000e+00	6.062556e+02	
24	1.200000e+00	6.425780e+02	
25	1.250000e+00	6.828914e+02	
26	1.300000e+00	7.281946e+02	
27	1.350000e+00	7.800009e+02	
28	1.400000e+00	8.406882e+02	
29	1.450000e+00	9.140355e+02	
30	1.500000e+00	1.005855e+03	
31	1.550000e+00	1.124250e+03	
32	1.600000e+00	1.278531e+03	
33	1.650000e+00	1.476282e+03	
34	1.700000e+00	1.720116e+03	
35	1.750000e+00	2.006866e+03	
36	1.800000e+00	2.329612e+03	
37	1.850000e+00	2.680433e+03	
38	1.900000e+00	3.052163e+03	
39	1.950000e+00	3.439031e+03	
40	2.000000e+00	3.836646e+03	
41	2.050000e+00	4.241742e+03	
42	2.100000e+00	4.651915e+03	
43	2.150000e+00	5.065387e+03	
44	2.200000e+00	5.480835e+03	
45	2.250000e+00	5.897266e+03	
46	2.300000e+00	6.313927e+03	
47	2.350000e+00	6.730240e+03	
48	2.400000e+00	7.145759e+03	
49	2.450000e+00	7.560137e+03	
50	2.500000e+00	7.973100e+03	
51	2.550000e+00	8.384433e+03	
52	2.600000e+00	8.793964e+03	
53	2.650000e+00	9.201558e+03	
54	2.700000e+00	9.607105e+03	

Index   v-sweep         rds             
--------------------------------------------------------------------------------
55	2.750000e+00	1.001052e+04	
56	2.800000e+00	1.041173e+04	
57	2.850000e+00	1.081069e+04	
58	2.900000e+00	1.120735e+04	
59	2.950000e+00	1.160167e+04	
60	3.000000e+00	1.199364e+04	
61	3.050000e+00	1.238324e+04	
62	3.100000e+00	1.277044e+04	
63	3.150000e+00	1.315525e+04	
64	3.200000e+00	1.353766e+04	
65	3.250000e+00	1.391766e+04	
66	3.300000e+00	1.429527e+04	
67	3.350000e+00	1.467048e+04	
68	3.400000e+00	1.504329e+04	
69	3.450000e+00	1.541373e+04	
70	3.500000e+00	1.578179e+04	
71	3.550000e+00	1.614749e+04	
72	3.600000e+00	1.651084e+04	
73	3.650000e+00	1.687185e+04	
74	3.700000e+00	1.723054e+04	
75	3.750000e+00	1.758691e+04	
76	3.800000e+00	1.794099e+04	
77	3.850000e+00	1.829278e+04	
78	3.900000e+00	1.864231e+04	
79	3.950000e+00	1.898959e+04	
80	4.000000e+00	1.933464e+04	
81	4.050000e+00	1.967746e+04	
82	4.100000e+00	2.001809e+04	
83	4.150000e+00	2.035653e+04	
84	4.200000e+00	2.069280e+04	
85	4.250000e+00	2.102692e+04	
86	4.300000e+00	2.135891e+04	
87	4.350000e+00	2.168878e+04	
88	4.400000e+00	2.201655e+04	
89	4.450000e+00	2.234224e+04	
90	4.500000e+00	2.266586e+04	
91	4.550000e+00	2.298743e+04	
92	4.600000e+00	2.330696e+04	
93	4.650000e+00	2.362448e+04	
94	4.700000e+00	2.394001e+04	
95	4.750000e+00	2.425354e+04	
96	4.800000e+00	2.456512e+04	
97	4.850000e+00	2.487474e+04	
98	4.900000e+00	2.518243e+04	
99	4.950000e+00	2.548820e+04	
100	5.000000e+00	2.579208e+04	
101	5.050000e+00	2.609406e+04	
102	5.100000e+00	2.639418e+04	
103	5.150000e+00	2.669245e+04	
104	5.200000e+00	2.698888e+04	
105	5.250000e+00	2.728348e+04	
106	5.300000e+00	2.757628e+04	
107	5.350000e+00	2.786729e+04	
108	5.400000e+00	2.815652e+04	
109	5.450000e+00	2.844399e+04	
110	5.500000e+00	2.872972e+04	
111	5.550000e+00	2.901371e+04	
112	5.600000e+00	2.929599e+04	

Index   v-sweep         rds             
--------------------------------------------------------------------------------
113	5.650000e+00	2.957657e+04	
114	5.700000e+00	2.985546e+04	
115	5.750000e+00	3.013267e+04	
116	5.800000e+00	3.040822e+04	
117	5.850000e+00	3.068213e+04	
118	5.900000e+00	3.095441e+04	
119	5.950000e+00	3.122507e+04	
120	6.000000e+00	3.149413e+04	
121	6.050000e+00	3.176160e+04	
122	6.100000e+00	3.202748e+04	
123	6.150000e+00	3.229181e+04	
124	6.200000e+00	3.255458e+04	
125	6.250000e+00	3.281582e+04	
126	6.300000e+00	3.307553e+04	
127	6.350000e+00	3.333372e+04	
128	6.400000e+00	3.359042e+04	
129	6.450000e+00	3.384563e+04	
130	6.500000e+00	3.409936e+04	
131	6.550000e+00	3.435163e+04	
132	6.600000e+00	3.460245e+04	
Reset re-loads circuit ***************************

Circuit: ***************************

Doing analysis at TEMP = 25.000000 and TNOM = 25.000000


No. of Data Rows : 133
                          ***************************
                          DC transfer characteristic  Mon Jan  9 13:57:42  2023
--------------------------------------------------------------------------------
Index   v-sweep         rds             
--------------------------------------------------------------------------------
0	0.000000e+00	1.987077e+02	
1	5.000000e-02	2.054898e+02	
2	1.000000e-01	2.125323e+02	
3	1.500000e-01	2.198495e+02	
4	2.000000e-01	2.274567e+02	
5	2.500000e-01	2.353704e+02	
6	3.000000e-01	2.436088e+02	
7	3.500000e-01	2.521913e+02	
8	4.000000e-01	2.611391e+02	
9	4.500000e-01	2.704754e+02	
10	5.000000e-01	2.802256e+02	
11	5.500000e-01	2.904172e+02	
12	6.000000e-01	3.010806e+02	
13	6.500000e-01	3.122487e+02	
14	7.000000e-01	3.239581e+02	
15	7.500000e-01	3.362485e+02	
16	8.000000e-01	3.491640e+02	
17	8.500000e-01	3.627532e+02	
18	9.000000e-01	3.770696e+02	
19	9.500000e-01	3.921730e+02	
20	1.000000e+00	4.081299e+02	
21	1.050000e+00	4.250149e+02	
22	1.100000e+00	4.429123e+02	
23	1.150000e+00	4.619178e+02	
24	1.200000e+00	4.821418e+02	
25	1.250000e+00	5.037128e+02	
26	1.300000e+00	5.267828e+02	
27	1.350000e+00	5.515363e+02	
28	1.400000e+00	5.782024e+02	
29	1.450000e+00	6.070754e+02	
30	1.500000e+00	6.385483e+02	
31	1.550000e+00	6.731679e+02	
32	1.600000e+00	7.117284e+02	
33	1.650000e+00	7.554254e+02	
34	1.700000e+00	8.061009e+02	
35	1.750000e+00	8.665896e+02	
36	1.800000e+00	9.410958e+02	
37	1.850000e+00	1.035320e+03	
38	1.900000e+00	1.155834e+03	
39	1.950000e+00	1.308393e+03	
40	2.000000e+00	1.495881e+03	
41	2.050000e+00	1.717346e+03	
42	2.100000e+00	1.968789e+03	
43	2.150000e+00	2.244812e+03	
44	2.200000e+00	2.540026e+03	
45	2.250000e+00	2.849774e+03	
46	2.300000e+00	3.170318e+03	
47	2.350000e+00	3.498779e+03	
48	2.400000e+00	3.832973e+03	
49	2.450000e+00	4.171249e+03	
50	2.500000e+00	4.512360e+03	
51	2.550000e+00	4.855356e+03	
52	2.600000e+00	5.199509e+03	
53	2.650000e+00	5.544254e+03	
54	2.700000e+00	5.889151e+03	

Index   v-sweep         rds             
--------------------------------------------------------------------------------
55	2.750000e+00	6.233853e+03	
56	2.800000e+00	6.578084e+03	
57	2.850000e+00	6.921624e+03	
58	2.900000e+00	7.264294e+03	
59	2.950000e+00	7.605951e+03	
60	3.000000e+00	7.946478e+03	
61	3.050000e+00	8.285780e+03	
62	3.100000e+00	8.623778e+03	
63	3.150000e+00	8.960409e+03	
64	3.200000e+00	9.295618e+03	
65	3.250000e+00	9.629364e+03	
66	3.300000e+00	9.961611e+03	
67	3.350000e+00	1.029233e+04	
68	3.400000e+00	1.062150e+04	
69	3.450000e+00	1.094909e+04	
70	3.500000e+00	1.127511e+04	
71	3.550000e+00	1.159952e+04	
72	3.600000e+00	1.192233e+04	
73	3.650000e+00	1.224353e+04	
74	3.700000e+00	1.256312e+04	
75	3.750000e+00	1.288109e+04	
76	3.800000e+00	1.319743e+04	
77	3.850000e+00	1.351217e+04	
78	3.900000e+00	1.382528e+04	
79	3.950000e+00	1.413678e+04	
80	4.000000e+00	1.444668e+04	
81	4.050000e+00	1.475496e+04	
82	4.100000e+00	1.506165e+04	
83	4.150000e+00	1.536674e+04	
84	4.200000e+00	1.567025e+04	
85	4.250000e+00	1.597217e+04	
86	4.300000e+00	1.627252e+04	
87	4.350000e+00	1.657131e+04	
88	4.400000e+00	1.686853e+04	
89	4.450000e+00	1.716420e+04	
90	4.500000e+00	1.745833e+04	
91	4.550000e+00	1.775093e+04	
92	4.600000e+00	1.804200e+04	
93	4.650000e+00	1.833155e+04	
94	4.700000e+00	1.861960e+04	
95	4.750000e+00	1.890614e+04	
96	4.800000e+00	1.919120e+04	
97	4.850000e+00	1.947477e+04	
98	4.900000e+00	1.975687e+04	
99	4.950000e+00	2.003751e+04	
100	5.000000e+00	2.031670e+04	
101	5.050000e+00	2.059444e+04	
102	5.100000e+00	2.087075e+04	
103	5.150000e+00	2.114563e+04	
104	5.200000e+00	2.141910e+04	
105	5.250000e+00	2.169115e+04	
106	5.300000e+00	2.196182e+04	
107	5.350000e+00	2.223109e+04	
108	5.400000e+00	2.249898e+04	
109	5.450000e+00	2.276551e+04	
110	5.500000e+00	2.303067e+04	
111	5.550000e+00	2.329448e+04	
112	5.600000e+00	2.355695e+04	

Index   v-sweep         rds             
--------------------------------------------------------------------------------
113	5.650000e+00	2.381809e+04	
114	5.700000e+00	2.407791e+04	
115	5.750000e+00	2.433640e+04	
116	5.800000e+00	2.459360e+04	
117	5.850000e+00	2.484949e+04	
118	5.900000e+00	2.510410e+04	
119	5.950000e+00	2.535743e+04	
120	6.000000e+00	2.560949e+04	
121	6.050000e+00	2.586029e+04	
122	6.100000e+00	2.610983e+04	
123	6.150000e+00	2.635813e+04	
124	6.200000e+00	2.660519e+04	
125	6.250000e+00	2.685103e+04	
126	6.300000e+00	2.709564e+04	
127	6.350000e+00	2.733905e+04	
128	6.400000e+00	2.758126e+04	
129	6.450000e+00	2.782227e+04	
130	6.500000e+00	2.806209e+04	
131	6.550000e+00	2.830074e+04	
132	6.600000e+00	2.853822e+04	
Reset re-loads circuit ***************************

Circuit: ***************************

Note: No ".plot", ".print", or ".fourier" lines; no simulations run
