
Note: Compatibility modes selected: hs

Warning: m=xx on .subckt line will override multiplier m hierarchy!


Circuit: ***************************

Doing analysis at TEMP = 125.000000 and TNOM = 125.000000


No. of Data Rows : 133
                          ***************************
                          DC transfer characteristic  Mon Jan  9 13:57:42  2023
--------------------------------------------------------------------------------
Index   v-sweep         rds             
--------------------------------------------------------------------------------
0	0.000000e+00	2.011392e+03	
1	5.000000e-02	2.461461e+03	
2	1.000000e-01	3.141487e+03	
3	1.500000e-01	4.270852e+03	
4	2.000000e-01	6.389758e+03	
5	2.500000e-01	1.071318e+04	
6	3.000000e-01	1.811503e+04	
7	3.500000e-01	2.614033e+04	
8	4.000000e-01	3.262239e+04	
9	4.500000e-01	3.781459e+04	
10	5.000000e-01	4.225511e+04	
11	5.500000e-01	4.623093e+04	
12	6.000000e-01	4.987946e+04	
13	6.500000e-01	5.327178e+04	
14	7.000000e-01	5.644937e+04	
15	7.500000e-01	5.943948e+04	
16	8.000000e-01	6.226184e+04	
17	8.500000e-01	6.493185e+04	
18	9.000000e-01	6.746220e+04	
19	9.500000e-01	6.986370e+04	
20	1.000000e+00	7.214578e+04	
21	1.050000e+00	7.431683e+04	
22	1.100000e+00	7.638438e+04	
23	1.150000e+00	7.835523e+04	
24	1.200000e+00	8.023559e+04	
25	1.250000e+00	8.203113e+04	
26	1.300000e+00	8.374706e+04	
27	1.350000e+00	8.538816e+04	
28	1.400000e+00	8.695886e+04	
29	1.450000e+00	8.846323e+04	
30	1.500000e+00	8.990507e+04	
31	1.550000e+00	9.128788e+04	
32	1.600000e+00	9.261491e+04	
33	1.650000e+00	9.388921e+04	
34	1.700000e+00	9.511358e+04	
35	1.750000e+00	9.629067e+04	
36	1.800000e+00	9.742293e+04	
37	1.850000e+00	9.851265e+04	
38	1.900000e+00	9.956198e+04	
39	1.950000e+00	1.005729e+05	
40	2.000000e+00	1.015474e+05	
41	2.050000e+00	1.024871e+05	
42	2.100000e+00	1.033938e+05	
43	2.150000e+00	1.042689e+05	
44	2.200000e+00	1.051140e+05	
45	2.250000e+00	1.059305e+05	
46	2.300000e+00	1.067195e+05	
47	2.350000e+00	1.074825e+05	
48	2.400000e+00	1.082204e+05	
49	2.450000e+00	1.089344e+05	
50	2.500000e+00	1.096256e+05	
51	2.550000e+00	1.102949e+05	
52	2.600000e+00	1.109433e+05	
53	2.650000e+00	1.115715e+05	
54	2.700000e+00	1.121805e+05	

Index   v-sweep         rds             
--------------------------------------------------------------------------------
55	2.750000e+00	1.127710e+05	
56	2.800000e+00	1.133438e+05	
57	2.850000e+00	1.138996e+05	
58	2.900000e+00	1.144389e+05	
59	2.950000e+00	1.149626e+05	
60	3.000000e+00	1.154712e+05	
61	3.050000e+00	1.159652e+05	
62	3.100000e+00	1.164452e+05	
63	3.150000e+00	1.169117e+05	
64	3.200000e+00	1.173653e+05	
65	3.250000e+00	1.178064e+05	
66	3.300000e+00	1.182354e+05	
67	3.350000e+00	1.186529e+05	
68	3.400000e+00	1.190591e+05	
69	3.450000e+00	1.194545e+05	
70	3.500000e+00	1.198395e+05	
71	3.550000e+00	1.202144e+05	
72	3.600000e+00	1.205796e+05	
73	3.650000e+00	1.209354e+05	
74	3.700000e+00	1.212821e+05	
75	3.750000e+00	1.216200e+05	
76	3.800000e+00	1.219495e+05	
77	3.850000e+00	1.222707e+05	
78	3.900000e+00	1.225840e+05	
79	3.950000e+00	1.228895e+05	
80	4.000000e+00	1.231877e+05	
81	4.050000e+00	1.234786e+05	
82	4.100000e+00	1.237625e+05	
83	4.150000e+00	1.240396e+05	
84	4.200000e+00	1.243102e+05	
85	4.250000e+00	1.245744e+05	
86	4.300000e+00	1.248325e+05	
87	4.350000e+00	1.250845e+05	
88	4.400000e+00	1.253308e+05	
89	4.450000e+00	1.255714e+05	
90	4.500000e+00	1.258065e+05	
91	4.550000e+00	1.260363e+05	
92	4.600000e+00	1.262610e+05	
93	4.650000e+00	1.264806e+05	
94	4.700000e+00	1.266953e+05	
95	4.750000e+00	1.269054e+05	
96	4.800000e+00	1.271108e+05	
97	4.850000e+00	1.273117e+05	
98	4.900000e+00	1.275083e+05	
99	4.950000e+00	1.277007e+05	
100	5.000000e+00	1.278889e+05	
101	5.050000e+00	1.280731e+05	
102	5.100000e+00	1.282534e+05	
103	5.150000e+00	1.284299e+05	
104	5.200000e+00	1.286028e+05	
105	5.250000e+00	1.287720e+05	
106	5.300000e+00	1.289377e+05	
107	5.350000e+00	1.291000e+05	
108	5.400000e+00	1.292590e+05	
109	5.450000e+00	1.294147e+05	
110	5.500000e+00	1.295672e+05	
111	5.550000e+00	1.297167e+05	
112	5.600000e+00	1.298632e+05	

Index   v-sweep         rds             
--------------------------------------------------------------------------------
113	5.650000e+00	1.300067e+05	
114	5.700000e+00	1.301474e+05	
115	5.750000e+00	1.302852e+05	
116	5.800000e+00	1.304204e+05	
117	5.850000e+00	1.305529e+05	
118	5.900000e+00	1.306828e+05	
119	5.950000e+00	1.308102e+05	
120	6.000000e+00	1.309351e+05	
121	6.050000e+00	1.310576e+05	
122	6.100000e+00	1.311777e+05	
123	6.150000e+00	1.312955e+05	
124	6.200000e+00	1.314111e+05	
125	6.250000e+00	1.315245e+05	
126	6.300000e+00	1.316358e+05	
127	6.350000e+00	1.317449e+05	
128	6.400000e+00	1.318520e+05	
129	6.450000e+00	1.319571e+05	
130	6.500000e+00	1.320602e+05	
131	6.550000e+00	1.321614e+05	
132	6.600000e+00	1.322608e+05	
Reset re-loads circuit ***************************

Circuit: ***************************

Doing analysis at TEMP = 125.000000 and TNOM = 125.000000


No. of Data Rows : 133
                          ***************************
                          DC transfer characteristic  Mon Jan  9 13:57:42  2023
--------------------------------------------------------------------------------
Index   v-sweep         rds             
--------------------------------------------------------------------------------
0	0.000000e+00	6.456179e+02	
1	5.000000e-02	6.935618e+02	
2	1.000000e-01	7.475037e+02	
3	1.500000e-01	8.086316e+02	
4	2.000000e-01	8.784680e+02	
5	2.500000e-01	9.589944e+02	
6	3.000000e-01	1.052836e+03	
7	3.500000e-01	1.163537e+03	
8	4.000000e-01	1.295992e+03	
9	4.500000e-01	1.457112e+03	
10	5.000000e-01	1.656888e+03	
11	5.500000e-01	1.910035e+03	
12	6.000000e-01	2.238287e+03	
13	6.500000e-01	2.672406e+03	
14	7.000000e-01	3.249304e+03	
15	7.500000e-01	3.994350e+03	
16	8.000000e-01	4.891919e+03	
17	8.500000e-01	5.885598e+03	
18	9.000000e-01	6.918444e+03	
19	9.500000e-01	7.957018e+03	
20	1.000000e+00	8.986434e+03	
21	1.050000e+00	1.000072e+04	
22	1.100000e+00	1.099756e+04	
23	1.150000e+00	1.197609e+04	
24	1.200000e+00	1.293611e+04	
25	1.250000e+00	1.387770e+04	
26	1.300000e+00	1.480109e+04	
27	1.350000e+00	1.570659e+04	
28	1.400000e+00	1.659455e+04	
29	1.450000e+00	1.746533e+04	
30	1.500000e+00	1.831932e+04	
31	1.550000e+00	1.915691e+04	
32	1.600000e+00	1.997848e+04	
33	1.650000e+00	2.078441e+04	
34	1.700000e+00	2.157509e+04	
35	1.750000e+00	2.235088e+04	
36	1.800000e+00	2.311215e+04	
37	1.850000e+00	2.385924e+04	
38	1.900000e+00	2.459252e+04	
39	1.950000e+00	2.531232e+04	
40	2.000000e+00	2.601896e+04	
41	2.050000e+00	2.671278e+04	
42	2.100000e+00	2.739407e+04	
43	2.150000e+00	2.806316e+04	
44	2.200000e+00	2.872033e+04	
45	2.250000e+00	2.936587e+04	
46	2.300000e+00	3.000006e+04	
47	2.350000e+00	3.062317e+04	
48	2.400000e+00	3.123547e+04	
49	2.450000e+00	3.183721e+04	
50	2.500000e+00	3.242865e+04	
51	2.550000e+00	3.301002e+04	
52	2.600000e+00	3.358156e+04	
53	2.650000e+00	3.414350e+04	
54	2.700000e+00	3.469606e+04	

Index   v-sweep         rds             
--------------------------------------------------------------------------------
55	2.750000e+00	3.523946e+04	
56	2.800000e+00	3.577390e+04	
57	2.850000e+00	3.629960e+04	
58	2.900000e+00	3.681674e+04	
59	2.950000e+00	3.732553e+04	
60	3.000000e+00	3.782614e+04	
61	3.050000e+00	3.831876e+04	
62	3.100000e+00	3.880358e+04	
63	3.150000e+00	3.928075e+04	
64	3.200000e+00	3.975045e+04	
65	3.250000e+00	4.021283e+04	
66	3.300000e+00	4.066807e+04	
67	3.350000e+00	4.111631e+04	
68	3.400000e+00	4.155769e+04	
69	3.450000e+00	4.199238e+04	
70	3.500000e+00	4.242051e+04	
71	3.550000e+00	4.284221e+04	
72	3.600000e+00	4.325762e+04	
73	3.650000e+00	4.366688e+04	
74	3.700000e+00	4.407011e+04	
75	3.750000e+00	4.446743e+04	
76	3.800000e+00	4.485896e+04	
77	3.850000e+00	4.524483e+04	
78	3.900000e+00	4.562515e+04	
79	3.950000e+00	4.600002e+04	
80	4.000000e+00	4.636957e+04	
81	4.050000e+00	4.673388e+04	
82	4.100000e+00	4.709308e+04	
83	4.150000e+00	4.744725e+04	
84	4.200000e+00	4.779650e+04	
85	4.250000e+00	4.814092e+04	
86	4.300000e+00	4.848060e+04	
87	4.350000e+00	4.881564e+04	
88	4.400000e+00	4.914613e+04	
89	4.450000e+00	4.947215e+04	
90	4.500000e+00	4.979379e+04	
91	4.550000e+00	5.011113e+04	
92	4.600000e+00	5.042425e+04	
93	4.650000e+00	5.073322e+04	
94	4.700000e+00	5.103813e+04	
95	4.750000e+00	5.133906e+04	
96	4.800000e+00	5.163606e+04	
97	4.850000e+00	5.192922e+04	
98	4.900000e+00	5.221861e+04	
99	4.950000e+00	5.250429e+04	
100	5.000000e+00	5.278632e+04	
101	5.050000e+00	5.306479e+04	
102	5.100000e+00	5.333974e+04	
103	5.150000e+00	5.361124e+04	
104	5.200000e+00	5.387935e+04	
105	5.250000e+00	5.414414e+04	
106	5.300000e+00	5.440565e+04	
107	5.350000e+00	5.466395e+04	
108	5.400000e+00	5.491909e+04	
109	5.450000e+00	5.517112e+04	
110	5.500000e+00	5.542010e+04	
111	5.550000e+00	5.566608e+04	
112	5.600000e+00	5.590911e+04	

Index   v-sweep         rds             
--------------------------------------------------------------------------------
113	5.650000e+00	5.614924e+04	
114	5.700000e+00	5.638652e+04	
115	5.750000e+00	5.662100e+04	
116	5.800000e+00	5.685271e+04	
117	5.850000e+00	5.708172e+04	
118	5.900000e+00	5.730806e+04	
119	5.950000e+00	5.753178e+04	
120	6.000000e+00	5.775291e+04	
121	6.050000e+00	5.797150e+04	
122	6.100000e+00	5.818760e+04	
123	6.150000e+00	5.840124e+04	
124	6.200000e+00	5.861246e+04	
125	6.250000e+00	5.882130e+04	
126	6.300000e+00	5.902779e+04	
127	6.350000e+00	5.923198e+04	
128	6.400000e+00	5.943390e+04	
129	6.450000e+00	5.963358e+04	
130	6.500000e+00	5.983107e+04	
131	6.550000e+00	6.002639e+04	
132	6.600000e+00	6.021957e+04	
Reset re-loads circuit ***************************

Circuit: ***************************

Doing analysis at TEMP = 125.000000 and TNOM = 125.000000


No. of Data Rows : 133
                          ***************************
                          DC transfer characteristic  Mon Jan  9 13:57:42  2023
--------------------------------------------------------------------------------
Index   v-sweep         rds             
--------------------------------------------------------------------------------
0	0.000000e+00	4.278324e+02	
1	5.000000e-02	4.493304e+02	
2	1.000000e-01	4.724229e+02	
3	1.500000e-01	4.972909e+02	
4	2.000000e-01	5.241438e+02	
5	2.500000e-01	5.532253e+02	
6	3.000000e-01	5.848208e+02	
7	3.500000e-01	6.192668e+02	
8	4.000000e-01	6.569623e+02	
9	4.500000e-01	6.983845e+02	
10	5.000000e-01	7.441083e+02	
11	5.500000e-01	7.948325e+02	
12	6.000000e-01	8.514152e+02	
13	6.500000e-01	9.149209e+02	
14	7.000000e-01	9.866866e+02	
15	7.500000e-01	1.068413e+03	
16	8.000000e-01	1.162297e+03	
17	8.500000e-01	1.271217e+03	
18	9.000000e-01	1.399015e+03	
19	9.500000e-01	1.550885e+03	
20	1.000000e+00	1.733913e+03	
21	1.050000e+00	1.957597e+03	
22	1.100000e+00	2.233701e+03	
23	1.150000e+00	2.573856e+03	
24	1.200000e+00	2.983861e+03	
25	1.250000e+00	3.458497e+03	
26	1.300000e+00	3.983281e+03	
27	1.350000e+00	4.541524e+03	
28	1.400000e+00	5.119544e+03	
29	1.450000e+00	5.707864e+03	
30	1.500000e+00	6.300396e+03	
31	1.550000e+00	6.893327e+03	
32	1.600000e+00	7.484264e+03	
33	1.650000e+00	8.071690e+03	
34	1.700000e+00	8.654633e+03	
35	1.750000e+00	9.232463e+03	
36	1.800000e+00	9.804773e+03	
37	1.850000e+00	1.037130e+04	
38	1.900000e+00	1.093188e+04	
39	1.950000e+00	1.148643e+04	
40	2.000000e+00	1.203489e+04	
41	2.050000e+00	1.257725e+04	
42	2.100000e+00	1.311352e+04	
43	2.150000e+00	1.364373e+04	
44	2.200000e+00	1.416792e+04	
45	2.250000e+00	1.468615e+04	
46	2.300000e+00	1.519847e+04	
47	2.350000e+00	1.570495e+04	
48	2.400000e+00	1.620566e+04	
49	2.450000e+00	1.670066e+04	
50	2.500000e+00	1.719004e+04	
51	2.550000e+00	1.767385e+04	
52	2.600000e+00	1.815219e+04	
53	2.650000e+00	1.862512e+04	
54	2.700000e+00	1.909272e+04	

Index   v-sweep         rds             
--------------------------------------------------------------------------------
55	2.750000e+00	1.955506e+04	
56	2.800000e+00	2.001223e+04	
57	2.850000e+00	2.046429e+04	
58	2.900000e+00	2.091132e+04	
59	2.950000e+00	2.135338e+04	
60	3.000000e+00	2.179057e+04	
61	3.050000e+00	2.222293e+04	
62	3.100000e+00	2.265056e+04	
63	3.150000e+00	2.307350e+04	
64	3.200000e+00	2.349185e+04	
65	3.250000e+00	2.390565e+04	
66	3.300000e+00	2.431498e+04	
67	3.350000e+00	2.471990e+04	
68	3.400000e+00	2.512049e+04	
69	3.450000e+00	2.551679e+04	
70	3.500000e+00	2.590888e+04	
71	3.550000e+00	2.629682e+04	
72	3.600000e+00	2.668066e+04	
73	3.650000e+00	2.706046e+04	
74	3.700000e+00	2.743629e+04	
75	3.750000e+00	2.780821e+04	
76	3.800000e+00	2.817626e+04	
77	3.850000e+00	2.854050e+04	
78	3.900000e+00	2.890099e+04	
79	3.950000e+00	2.925779e+04	
80	4.000000e+00	2.961094e+04	
81	4.050000e+00	2.996049e+04	
82	4.100000e+00	3.030651e+04	
83	4.150000e+00	3.064903e+04	
84	4.200000e+00	3.098810e+04	
85	4.250000e+00	3.132379e+04	
86	4.300000e+00	3.165612e+04	
87	4.350000e+00	3.198516e+04	
88	4.400000e+00	3.231094e+04	
89	4.450000e+00	3.263351e+04	
90	4.500000e+00	3.295292e+04	
91	4.550000e+00	3.326921e+04	
92	4.600000e+00	3.358242e+04	
93	4.650000e+00	3.389259e+04	
94	4.700000e+00	3.419976e+04	
95	4.750000e+00	3.450398e+04	
96	4.800000e+00	3.480529e+04	
97	4.850000e+00	3.510372e+04	
98	4.900000e+00	3.539932e+04	
99	4.950000e+00	3.569212e+04	
100	5.000000e+00	3.598216e+04	
101	5.050000e+00	3.626947e+04	
102	5.100000e+00	3.655410e+04	
103	5.150000e+00	3.683607e+04	
104	5.200000e+00	3.711542e+04	
105	5.250000e+00	3.739220e+04	
106	5.300000e+00	3.766642e+04	
107	5.350000e+00	3.793812e+04	
108	5.400000e+00	3.820735e+04	
109	5.450000e+00	3.847412e+04	
110	5.500000e+00	3.873847e+04	
111	5.550000e+00	3.900044e+04	
112	5.600000e+00	3.926004e+04	

Index   v-sweep         rds             
--------------------------------------------------------------------------------
113	5.650000e+00	3.951732e+04	
114	5.700000e+00	3.977230e+04	
115	5.750000e+00	4.002501e+04	
116	5.800000e+00	4.027547e+04	
117	5.850000e+00	4.052373e+04	
118	5.900000e+00	4.076980e+04	
119	5.950000e+00	4.101372e+04	
120	6.000000e+00	4.125550e+04	
121	6.050000e+00	4.149518e+04	
122	6.100000e+00	4.173278e+04	
123	6.150000e+00	4.196833e+04	
124	6.200000e+00	4.220185e+04	
125	6.250000e+00	4.243337e+04	
126	6.300000e+00	4.266291e+04	
127	6.350000e+00	4.289050e+04	
128	6.400000e+00	4.311616e+04	
129	6.450000e+00	4.333991e+04	
130	6.500000e+00	4.356177e+04	
131	6.550000e+00	4.378177e+04	
132	6.600000e+00	4.399994e+04	
Reset re-loads circuit ***************************

Circuit: ***************************

Doing analysis at TEMP = 125.000000 and TNOM = 125.000000


No. of Data Rows : 133
                          ***************************
                          DC transfer characteristic  Mon Jan  9 13:57:42  2023
--------------------------------------------------------------------------------
Index   v-sweep         rds             
--------------------------------------------------------------------------------
0	0.000000e+00	3.434730e+02	
1	5.000000e-02	3.569638e+02	
2	1.000000e-01	3.711759e+02	
3	1.500000e-01	3.861671e+02	
4	2.000000e-01	4.020014e+02	
5	2.500000e-01	4.187503e+02	
6	3.000000e-01	4.364937e+02	
7	3.500000e-01	4.553211e+02	
8	4.000000e-01	4.753332e+02	
9	4.500000e-01	4.966435e+02	
10	5.000000e-01	5.193808e+02	
11	5.500000e-01	5.436911e+02	
12	6.000000e-01	5.697416e+02	
13	6.500000e-01	5.977235e+02	
14	7.000000e-01	6.278573e+02	
15	7.500000e-01	6.603984e+02	
16	8.000000e-01	6.956442e+02	
17	8.500000e-01	7.339433e+02	
18	9.000000e-01	7.757077e+02	
19	9.500000e-01	8.214275e+02	
20	1.000000e+00	8.716918e+02	
21	1.050000e+00	9.272168e+02	
22	1.100000e+00	9.888837e+02	
23	1.150000e+00	1.057796e+03	
24	1.200000e+00	1.135362e+03	
25	1.250000e+00	1.223425e+03	
26	1.300000e+00	1.324464e+03	
27	1.350000e+00	1.441901e+03	
28	1.400000e+00	1.580507e+03	
29	1.450000e+00	1.746715e+03	
30	1.500000e+00	1.948232e+03	
31	1.550000e+00	2.192044e+03	
32	1.600000e+00	2.481108e+03	
33	1.650000e+00	2.812309e+03	
34	1.700000e+00	3.177849e+03	
35	1.750000e+00	3.568544e+03	
36	1.800000e+00	3.976290e+03	
37	1.850000e+00	4.394917e+03	
38	1.900000e+00	4.820059e+03	
39	1.950000e+00	5.248719e+03	
40	2.000000e+00	5.678856e+03	
41	2.050000e+00	6.109075e+03	
42	2.100000e+00	6.538411e+03	
43	2.150000e+00	6.966193e+03	
44	2.200000e+00	7.391943e+03	
45	2.250000e+00	7.815324e+03	
46	2.300000e+00	8.236090e+03	
47	2.350000e+00	8.654066e+03	
48	2.400000e+00	9.069126e+03	
49	2.450000e+00	9.481181e+03	
50	2.500000e+00	9.890166e+03	
51	2.550000e+00	1.029604e+04	
52	2.600000e+00	1.069878e+04	
53	2.650000e+00	1.109836e+04	
54	2.700000e+00	1.149478e+04	

Index   v-sweep         rds             
--------------------------------------------------------------------------------
55	2.750000e+00	1.188804e+04	
56	2.800000e+00	1.227816e+04	
57	2.850000e+00	1.266513e+04	
58	2.900000e+00	1.304898e+04	
59	2.950000e+00	1.342972e+04	
60	3.000000e+00	1.380737e+04	
61	3.050000e+00	1.418196e+04	
62	3.100000e+00	1.455351e+04	
63	3.150000e+00	1.492204e+04	
64	3.200000e+00	1.528759e+04	
65	3.250000e+00	1.565017e+04	
66	3.300000e+00	1.600981e+04	
67	3.350000e+00	1.636654e+04	
68	3.400000e+00	1.672040e+04	
69	3.450000e+00	1.707139e+04	
70	3.500000e+00	1.741957e+04	
71	3.550000e+00	1.776494e+04	
72	3.600000e+00	1.810754e+04	
73	3.650000e+00	1.844741e+04	
74	3.700000e+00	1.878456e+04	
75	3.750000e+00	1.911902e+04	
76	3.800000e+00	1.945083e+04	
77	3.850000e+00	1.978001e+04	
78	3.900000e+00	2.010658e+04	
79	3.950000e+00	2.043058e+04	
80	4.000000e+00	2.075203e+04	
81	4.050000e+00	2.107095e+04	
82	4.100000e+00	2.138738e+04	
83	4.150000e+00	2.170135e+04	
84	4.200000e+00	2.201287e+04	
85	4.250000e+00	2.232197e+04	
86	4.300000e+00	2.262868e+04	
87	4.350000e+00	2.293302e+04	
88	4.400000e+00	2.323502e+04	
89	4.450000e+00	2.353470e+04	
90	4.500000e+00	2.383209e+04	
91	4.550000e+00	2.412722e+04	
92	4.600000e+00	2.442009e+04	
93	4.650000e+00	2.471075e+04	
94	4.700000e+00	2.499921e+04	
95	4.750000e+00	2.528549e+04	
96	4.800000e+00	2.556962e+04	
97	4.850000e+00	2.585162e+04	
98	4.900000e+00	2.613151e+04	
99	4.950000e+00	2.640932e+04	
100	5.000000e+00	2.668506e+04	
101	5.050000e+00	2.695876e+04	
102	5.100000e+00	2.723044e+04	
103	5.150000e+00	2.750011e+04	
104	5.200000e+00	2.776781e+04	
105	5.250000e+00	2.803355e+04	
106	5.300000e+00	2.829734e+04	
107	5.350000e+00	2.855922e+04	
108	5.400000e+00	2.881920e+04	
109	5.450000e+00	2.907729e+04	
110	5.500000e+00	2.933353e+04	
111	5.550000e+00	2.958792e+04	
112	5.600000e+00	2.984049e+04	

Index   v-sweep         rds             
--------------------------------------------------------------------------------
113	5.650000e+00	3.009125e+04	
114	5.700000e+00	3.034023e+04	
115	5.750000e+00	3.058743e+04	
116	5.800000e+00	3.083289e+04	
117	5.850000e+00	3.107660e+04	
118	5.900000e+00	3.131861e+04	
119	5.950000e+00	3.155891e+04	
120	6.000000e+00	3.179753e+04	
121	6.050000e+00	3.203448e+04	
122	6.100000e+00	3.226979e+04	
123	6.150000e+00	3.250346e+04	
124	6.200000e+00	3.273551e+04	
125	6.250000e+00	3.296596e+04	
126	6.300000e+00	3.319483e+04	
127	6.350000e+00	3.342212e+04	
128	6.400000e+00	3.364786e+04	
129	6.450000e+00	3.387206e+04	
130	6.500000e+00	3.409474e+04	
131	6.550000e+00	3.431590e+04	
132	6.600000e+00	3.453557e+04	
Reset re-loads circuit ***************************

Circuit: ***************************

Doing analysis at TEMP = 125.000000 and TNOM = 125.000000


No. of Data Rows : 133
                          ***************************
                          DC transfer characteristic  Mon Jan  9 13:57:42  2023
--------------------------------------------------------------------------------
Index   v-sweep         rds             
--------------------------------------------------------------------------------
0	0.000000e+00	3.026166e+02	
1	5.000000e-02	3.124313e+02	
2	1.000000e-01	3.226575e+02	
3	1.500000e-01	3.333208e+02	
4	2.000000e-01	3.444486e+02	
5	2.500000e-01	3.560712e+02	
6	3.000000e-01	3.682212e+02	
7	3.500000e-01	3.809345e+02	
8	4.000000e-01	3.942501e+02	
9	4.500000e-01	4.082109e+02	
10	5.000000e-01	4.228641e+02	
11	5.500000e-01	4.382614e+02	
12	6.000000e-01	4.544601e+02	
13	6.500000e-01	4.715232e+02	
14	7.000000e-01	4.895209e+02	
15	7.500000e-01	5.085308e+02	
16	8.000000e-01	5.286397e+02	
17	8.500000e-01	5.499443e+02	
18	9.000000e-01	5.725531e+02	
19	9.500000e-01	5.965882e+02	
20	1.000000e+00	6.221874e+02	
21	1.050000e+00	6.495070e+02	
22	1.100000e+00	6.787249e+02	
23	1.150000e+00	7.100451e+02	
24	1.200000e+00	7.437025e+02	
25	1.250000e+00	7.799699e+02	
26	1.300000e+00	8.191665e+02	
27	1.350000e+00	8.616693e+02	
28	1.400000e+00	9.079302e+02	
29	1.450000e+00	9.584982e+02	
30	1.500000e+00	1.014055e+03	
31	1.550000e+00	1.075467e+03	
32	1.600000e+00	1.143870e+03	
33	1.650000e+00	1.220801e+03	
34	1.700000e+00	1.308397e+03	
35	1.750000e+00	1.409659e+03	
36	1.800000e+00	1.528696e+03	
37	1.850000e+00	1.670646e+03	
38	1.900000e+00	1.840822e+03	
39	1.950000e+00	2.042947e+03	
40	2.000000e+00	2.277415e+03	
41	2.050000e+00	2.541021e+03	
42	2.100000e+00	2.828334e+03	
43	2.150000e+00	3.133496e+03	
44	2.200000e+00	3.451378e+03	
45	2.250000e+00	3.777964e+03	
46	2.300000e+00	4.110291e+03	
47	2.350000e+00	4.446231e+03	
48	2.400000e+00	4.784268e+03	
49	2.450000e+00	5.123321e+03	
50	2.500000e+00	5.462614e+03	
51	2.550000e+00	5.801585e+03	
52	2.600000e+00	6.139820e+03	
53	2.650000e+00	6.477014e+03	
54	2.700000e+00	6.812939e+03	

Index   v-sweep         rds             
--------------------------------------------------------------------------------
55	2.750000e+00	7.147423e+03	
56	2.800000e+00	7.480335e+03	
57	2.850000e+00	7.811577e+03	
58	2.900000e+00	8.141074e+03	
59	2.950000e+00	8.468768e+03	
60	3.000000e+00	8.794615e+03	
61	3.050000e+00	9.118584e+03	
62	3.100000e+00	9.440652e+03	
63	3.150000e+00	9.760800e+03	
64	3.200000e+00	1.007902e+04	
65	3.250000e+00	1.039530e+04	
66	3.300000e+00	1.070964e+04	
67	3.350000e+00	1.102205e+04	
68	3.400000e+00	1.133251e+04	
69	3.450000e+00	1.164104e+04	
70	3.500000e+00	1.194765e+04	
71	3.550000e+00	1.225233e+04	
72	3.600000e+00	1.255510e+04	
73	3.650000e+00	1.285597e+04	
74	3.700000e+00	1.315494e+04	
75	3.750000e+00	1.345204e+04	
76	3.800000e+00	1.374726e+04	
77	3.850000e+00	1.404063e+04	
78	3.900000e+00	1.433215e+04	
79	3.950000e+00	1.462184e+04	
80	4.000000e+00	1.490970e+04	
81	4.050000e+00	1.519576e+04	
82	4.100000e+00	1.548002e+04	
83	4.150000e+00	1.576250e+04	
84	4.200000e+00	1.604321e+04	
85	4.250000e+00	1.632217e+04	
86	4.300000e+00	1.659938e+04	
87	4.350000e+00	1.687487e+04	
88	4.400000e+00	1.714865e+04	
89	4.450000e+00	1.742072e+04	
90	4.500000e+00	1.769110e+04	
91	4.550000e+00	1.795981e+04	
92	4.600000e+00	1.822686e+04	
93	4.650000e+00	1.849227e+04	
94	4.700000e+00	1.875604e+04	
95	4.750000e+00	1.901818e+04	
96	4.800000e+00	1.927872e+04	
97	4.850000e+00	1.953767e+04	
98	4.900000e+00	1.979504e+04	
99	4.950000e+00	2.005083e+04	
100	5.000000e+00	2.030507e+04	
101	5.050000e+00	2.055777e+04	
102	5.100000e+00	2.080894e+04	
103	5.150000e+00	2.105858e+04	
104	5.200000e+00	2.130673e+04	
105	5.250000e+00	2.155338e+04	
106	5.300000e+00	2.179855e+04	
107	5.350000e+00	2.204225e+04	
108	5.400000e+00	2.228450e+04	
109	5.450000e+00	2.252530e+04	
110	5.500000e+00	2.276466e+04	
111	5.550000e+00	2.300261e+04	
112	5.600000e+00	2.323915e+04	

Index   v-sweep         rds             
--------------------------------------------------------------------------------
113	5.650000e+00	2.347429e+04	
114	5.700000e+00	2.370804e+04	
115	5.750000e+00	2.394042e+04	
116	5.800000e+00	2.417143e+04	
117	5.850000e+00	2.440109e+04	
118	5.900000e+00	2.462941e+04	
119	5.950000e+00	2.485640e+04	
120	6.000000e+00	2.508207e+04	
121	6.050000e+00	2.530643e+04	
122	6.100000e+00	2.552949e+04	
123	6.150000e+00	2.575127e+04	
124	6.200000e+00	2.597176e+04	
125	6.250000e+00	2.619099e+04	
126	6.300000e+00	2.640896e+04	
127	6.350000e+00	2.662569e+04	
128	6.400000e+00	2.684117e+04	
129	6.450000e+00	2.705543e+04	
130	6.500000e+00	2.726848e+04	
131	6.550000e+00	2.748031e+04	
132	6.600000e+00	2.769095e+04	
Reset re-loads circuit ***************************

Circuit: ***************************

Doing analysis at TEMP = 125.000000 and TNOM = 125.000000


No. of Data Rows : 133
                          ***************************
                          DC transfer characteristic  Mon Jan  9 13:57:42  2023
--------------------------------------------------------------------------------
Index   v-sweep         rds             
--------------------------------------------------------------------------------
0	0.000000e+00	2.814206e+02	
1	5.000000e-02	2.891671e+02	
2	1.000000e-01	2.971804e+02	
3	1.500000e-01	3.054739e+02	
4	2.000000e-01	3.140620e+02	
5	2.500000e-01	3.229601e+02	
6	3.000000e-01	3.321846e+02	
7	3.500000e-01	3.417532e+02	
8	4.000000e-01	3.516850e+02	
9	4.500000e-01	3.620004e+02	
10	5.000000e-01	3.727216e+02	
11	5.500000e-01	3.838723e+02	
12	6.000000e-01	3.954784e+02	
13	6.500000e-01	4.075677e+02	
14	7.000000e-01	4.201705e+02	
15	7.500000e-01	4.333196e+02	
16	8.000000e-01	4.470507e+02	
17	8.500000e-01	4.614026e+02	
18	9.000000e-01	4.764177e+02	
19	9.500000e-01	4.921423e+02	
20	1.000000e+00	5.086272e+02	
21	1.050000e+00	5.259280e+02	
22	1.100000e+00	5.441059e+02	
23	1.150000e+00	5.632283e+02	
24	1.200000e+00	5.833699e+02	
25	1.250000e+00	6.046134e+02	
26	1.300000e+00	6.270508e+02	
27	1.350000e+00	6.507847e+02	
28	1.400000e+00	6.759302e+02	
29	1.450000e+00	7.026168e+02	
30	1.500000e+00	7.309910e+02	
31	1.550000e+00	7.612197e+02	
32	1.600000e+00	7.934941e+02	
33	1.650000e+00	8.280355e+02	
34	1.700000e+00	8.651028e+02	
35	1.750000e+00	9.050029e+02	
36	1.800000e+00	9.481062e+02	
37	1.850000e+00	9.948693e+02	
38	1.900000e+00	1.045870e+03	
39	1.950000e+00	1.101862e+03	
40	2.000000e+00	1.163857e+03	
41	2.050000e+00	1.233252e+03	
42	2.100000e+00	1.311994e+03	
43	2.150000e+00	1.402745e+03	
44	2.200000e+00	1.508935e+03	
45	2.250000e+00	1.634438e+03	
46	2.300000e+00	1.782714e+03	
47	2.350000e+00	1.955619e+03	
48	2.400000e+00	2.152624e+03	
49	2.450000e+00	2.371030e+03	
50	2.500000e+00	2.606952e+03	
51	2.550000e+00	2.856354e+03	
52	2.600000e+00	3.115688e+03	
53	2.650000e+00	3.382115e+03	
54	2.700000e+00	3.653475e+03	

Index   v-sweep         rds             
--------------------------------------------------------------------------------
55	2.750000e+00	3.928170e+03	
56	2.800000e+00	4.205026e+03	
57	2.850000e+00	4.483186e+03	
58	2.900000e+00	4.762016e+03	
59	2.950000e+00	5.041048e+03	
60	3.000000e+00	5.319929e+03	
61	3.050000e+00	5.598394e+03	
62	3.100000e+00	5.876240e+03	
63	3.150000e+00	6.153313e+03	
64	3.200000e+00	6.429490e+03	
65	3.250000e+00	6.704678e+03	
66	3.300000e+00	6.978803e+03	
67	3.350000e+00	7.251807e+03	
68	3.400000e+00	7.523644e+03	
69	3.450000e+00	7.794279e+03	
70	3.500000e+00	8.063683e+03	
71	3.550000e+00	8.331834e+03	
72	3.600000e+00	8.598715e+03	
73	3.650000e+00	8.864314e+03	
74	3.700000e+00	9.128620e+03	
75	3.750000e+00	9.391626e+03	
76	3.800000e+00	9.653329e+03	
77	3.850000e+00	9.913725e+03	
78	3.900000e+00	1.017281e+04	
79	3.950000e+00	1.043059e+04	
80	4.000000e+00	1.068707e+04	
81	4.050000e+00	1.094224e+04	
82	4.100000e+00	1.119611e+04	
83	4.150000e+00	1.144868e+04	
84	4.200000e+00	1.169996e+04	
85	4.250000e+00	1.194995e+04	
86	4.300000e+00	1.219866e+04	
87	4.350000e+00	1.244609e+04	
88	4.400000e+00	1.269225e+04	
89	4.450000e+00	1.293714e+04	
90	4.500000e+00	1.318078e+04	
91	4.550000e+00	1.342316e+04	
92	4.600000e+00	1.366430e+04	
93	4.650000e+00	1.390420e+04	
94	4.700000e+00	1.414287e+04	
95	4.750000e+00	1.438032e+04	
96	4.800000e+00	1.461655e+04	
97	4.850000e+00	1.485157e+04	
98	4.900000e+00	1.508539e+04	
99	4.950000e+00	1.531801e+04	
100	5.000000e+00	1.554945e+04	
101	5.050000e+00	1.577970e+04	
102	5.100000e+00	1.600879e+04	
103	5.150000e+00	1.623671e+04	
104	5.200000e+00	1.646347e+04	
105	5.250000e+00	1.668908e+04	
106	5.300000e+00	1.691355e+04	
107	5.350000e+00	1.713689e+04	
108	5.400000e+00	1.735909e+04	
109	5.450000e+00	1.758018e+04	
110	5.500000e+00	1.780016e+04	
111	5.550000e+00	1.801903e+04	
112	5.600000e+00	1.823680e+04	

Index   v-sweep         rds             
--------------------------------------------------------------------------------
113	5.650000e+00	1.845348e+04	
114	5.700000e+00	1.866908e+04	
115	5.750000e+00	1.888360e+04	
116	5.800000e+00	1.909705e+04	
117	5.850000e+00	1.930944e+04	
118	5.900000e+00	1.952078e+04	
119	5.950000e+00	1.973106e+04	
120	6.000000e+00	1.994031e+04	
121	6.050000e+00	2.014852e+04	
122	6.100000e+00	2.035571e+04	
123	6.150000e+00	2.056188e+04	
124	6.200000e+00	2.076703e+04	
125	6.250000e+00	2.097118e+04	
126	6.300000e+00	2.117433e+04	
127	6.350000e+00	2.137648e+04	
128	6.400000e+00	2.157765e+04	
129	6.450000e+00	2.177784e+04	
130	6.500000e+00	2.197706e+04	
131	6.550000e+00	2.217531e+04	
132	6.600000e+00	2.237261e+04	
Reset re-loads circuit ***************************

Circuit: ***************************

Note: No ".plot", ".print", or ".fourier" lines; no simulations run
