
Note: Compatibility modes selected: hs

Warning: m=xx on .subckt line will override multiplier m hierarchy!


Circuit: ***************************

Doing analysis at TEMP = -40.000000 and TNOM = -40.000000


No. of Data Rows : 133
                          ***************************
                          DC transfer characteristic  Mon Jan  9 13:57:42  2023
--------------------------------------------------------------------------------
Index   v-sweep         rds             
--------------------------------------------------------------------------------
0	0.000000e+00	2.985053e+03	
1	5.000000e-02	4.552060e+03	
2	1.000000e-01	8.632479e+03	
3	1.500000e-01	2.193024e+04	
4	2.000000e-01	5.113589e+04	
5	2.500000e-01	8.495575e+04	
6	3.000000e-01	1.157511e+05	
7	3.500000e-01	1.433797e+05	
8	4.000000e-01	1.686334e+05	
9	4.500000e-01	1.920514e+05	
10	5.000000e-01	2.139626e+05	
11	5.500000e-01	2.345805e+05	
12	6.000000e-01	2.540554e+05	
13	6.500000e-01	2.725010e+05	
14	7.000000e-01	2.900086e+05	
15	7.500000e-01	3.066544e+05	
16	8.000000e-01	3.225036e+05	
17	8.500000e-01	3.376136e+05	
18	9.000000e-01	3.520351e+05	
19	9.500000e-01	3.658139e+05	
20	1.000000e+00	3.789913e+05	
21	1.050000e+00	3.916048e+05	
22	1.100000e+00	4.036889e+05	
23	1.150000e+00	4.152751e+05	
24	1.200000e+00	4.263925e+05	
25	1.250000e+00	4.370678e+05	
26	1.300000e+00	4.473259e+05	
27	1.350000e+00	4.571896e+05	
28	1.400000e+00	4.666805e+05	
29	1.450000e+00	4.758181e+05	
30	1.500000e+00	4.846211e+05	
31	1.550000e+00	4.931066e+05	
32	1.600000e+00	5.012907e+05	
33	1.650000e+00	5.091885e+05	
34	1.700000e+00	5.168138e+05	
35	1.750000e+00	5.241800e+05	
36	1.800000e+00	5.312994e+05	
37	1.850000e+00	5.381836e+05	
38	1.900000e+00	5.448434e+05	
39	1.950000e+00	5.512891e+05	
40	2.000000e+00	5.575303e+05	
41	2.050000e+00	5.635762e+05	
42	2.100000e+00	5.694352e+05	
43	2.150000e+00	5.751155e+05	
44	2.200000e+00	5.806246e+05	
45	2.250000e+00	5.859699e+05	
46	2.300000e+00	5.911581e+05	
47	2.350000e+00	5.961956e+05	
48	2.400000e+00	6.010886e+05	
49	2.450000e+00	6.058429e+05	
50	2.500000e+00	6.104640e+05	
51	2.550000e+00	6.149571e+05	
52	2.600000e+00	6.193271e+05	
53	2.650000e+00	6.235787e+05	
54	2.700000e+00	6.277165e+05	

Index   v-sweep         rds             
--------------------------------------------------------------------------------
55	2.750000e+00	6.317447e+05	
56	2.800000e+00	6.356673e+05	
57	2.850000e+00	6.394881e+05	
58	2.900000e+00	6.432110e+05	
59	2.950000e+00	6.468393e+05	
60	3.000000e+00	6.503764e+05	
61	3.050000e+00	6.538255e+05	
62	3.100000e+00	6.571897e+05	
63	3.150000e+00	6.604719e+05	
64	3.200000e+00	6.636748e+05	
65	3.250000e+00	6.668011e+05	
66	3.300000e+00	6.698534e+05	
67	3.350000e+00	6.728341e+05	
68	3.400000e+00	6.757455e+05	
69	3.450000e+00	6.785899e+05	
70	3.500000e+00	6.813694e+05	
71	3.550000e+00	6.840861e+05	
72	3.600000e+00	6.867419e+05	
73	3.650000e+00	6.893387e+05	
74	3.700000e+00	6.918784e+05	
75	3.750000e+00	6.943626e+05	
76	3.800000e+00	6.967932e+05	
77	3.850000e+00	6.991715e+05	
78	3.900000e+00	7.014994e+05	
79	3.950000e+00	7.037781e+05	
80	4.000000e+00	7.060091e+05	
81	4.050000e+00	7.081939e+05	
82	4.100000e+00	7.103337e+05	
83	4.150000e+00	7.124298e+05	
84	4.200000e+00	7.144835e+05	
85	4.250000e+00	7.164960e+05	
86	4.300000e+00	7.184683e+05	
87	4.350000e+00	7.204016e+05	
88	4.400000e+00	7.222969e+05	
89	4.450000e+00	7.241553e+05	
90	4.500000e+00	7.259778e+05	
91	4.550000e+00	7.277653e+05	
92	4.600000e+00	7.295187e+05	
93	4.650000e+00	7.312390e+05	
94	4.700000e+00	7.329270e+05	
95	4.750000e+00	7.345835e+05	
96	4.800000e+00	7.362093e+05	
97	4.850000e+00	7.378053e+05	
98	4.900000e+00	7.393721e+05	
99	4.950000e+00	7.409105e+05	
100	5.000000e+00	7.424212e+05	
101	5.050000e+00	7.439049e+05	
102	5.100000e+00	7.453623e+05	
103	5.150000e+00	7.467939e+05	
104	5.200000e+00	7.482005e+05	
105	5.250000e+00	7.495825e+05	
106	5.300000e+00	7.509407e+05	
107	5.350000e+00	7.522754e+05	
108	5.400000e+00	7.535874e+05	
109	5.450000e+00	7.548772e+05	
110	5.500000e+00	7.561451e+05	
111	5.550000e+00	7.573919e+05	
112	5.600000e+00	7.586178e+05	

Index   v-sweep         rds             
--------------------------------------------------------------------------------
113	5.650000e+00	7.598235e+05	
114	5.700000e+00	7.610093e+05	
115	5.750000e+00	7.621757e+05	
116	5.800000e+00	7.633231e+05	
117	5.850000e+00	7.644520e+05	
118	5.900000e+00	7.655628e+05	
119	5.950000e+00	7.666558e+05	
120	6.000000e+00	7.677315e+05	
121	6.050000e+00	7.687901e+05	
122	6.100000e+00	7.698322e+05	
123	6.150000e+00	7.708579e+05	
124	6.200000e+00	7.718678e+05	
125	6.250000e+00	7.728620e+05	
126	6.300000e+00	7.738410e+05	
127	6.350000e+00	7.748050e+05	
128	6.400000e+00	7.757544e+05	
129	6.450000e+00	7.766894e+05	
130	6.500000e+00	7.776103e+05	
131	6.550000e+00	7.785175e+05	
132	6.600000e+00	7.794113e+05	
Reset re-loads circuit ***************************

Circuit: ***************************

Doing analysis at TEMP = -40.000000 and TNOM = -40.000000


No. of Data Rows : 133
                          ***************************
                          DC transfer characteristic  Mon Jan  9 13:57:42  2023
--------------------------------------------------------------------------------
Index   v-sweep         rds             
--------------------------------------------------------------------------------
0	0.000000e+00	5.535683e+02	
1	5.000000e-02	6.017927e+02	
2	1.000000e-01	6.571524e+02	
3	1.500000e-01	7.213449e+02	
4	2.000000e-01	7.966537e+02	
5	2.500000e-01	8.862257e+02	
6	3.000000e-01	9.945225e+02	
7	3.500000e-01	1.128090e+03	
8	4.000000e-01	1.296940e+03	
9	4.500000e-01	1.517167e+03	
10	5.000000e-01	1.816106e+03	
11	5.500000e-01	2.242167e+03	
12	6.000000e-01	2.878544e+03	
13	6.500000e-01	3.839801e+03	
14	7.000000e-01	5.209623e+03	
15	7.500000e-01	6.966077e+03	
16	8.000000e-01	9.008283e+03	
17	8.500000e-01	1.123174e+04	
18	9.000000e-01	1.356115e+04	
19	9.500000e-01	1.594879e+04	
20	1.000000e+00	1.836532e+04	
21	1.050000e+00	2.079258e+04	
22	1.100000e+00	2.321907e+04	
23	1.150000e+00	2.563734e+04	
24	1.200000e+00	2.804246e+04	
25	1.250000e+00	3.043108e+04	
26	1.300000e+00	3.280094e+04	
27	1.350000e+00	3.515049e+04	
28	1.400000e+00	3.747865e+04	
29	1.450000e+00	3.978472e+04	
30	1.500000e+00	4.206822e+04	
31	1.550000e+00	4.432888e+04	
32	1.600000e+00	4.656655e+04	
33	1.650000e+00	4.878118e+04	
34	1.700000e+00	5.097279e+04	
35	1.750000e+00	5.314148e+04	
36	1.800000e+00	5.528739e+04	
37	1.850000e+00	5.741066e+04	
38	1.900000e+00	5.951151e+04	
39	1.950000e+00	6.159015e+04	
40	2.000000e+00	6.364680e+04	
41	2.050000e+00	6.568170e+04	
42	2.100000e+00	6.769510e+04	
43	2.150000e+00	6.968727e+04	
44	2.200000e+00	7.165846e+04	
45	2.250000e+00	7.360894e+04	
46	2.300000e+00	7.553897e+04	
47	2.350000e+00	7.744882e+04	
48	2.400000e+00	7.933875e+04	
49	2.450000e+00	8.120903e+04	
50	2.500000e+00	8.305993e+04	
51	2.550000e+00	8.489171e+04	
52	2.600000e+00	8.670462e+04	
53	2.650000e+00	8.849893e+04	
54	2.700000e+00	9.027489e+04	

Index   v-sweep         rds             
--------------------------------------------------------------------------------
55	2.750000e+00	9.203276e+04	
56	2.800000e+00	9.377278e+04	
57	2.850000e+00	9.549520e+04	
58	2.900000e+00	9.720026e+04	
59	2.950000e+00	9.888821e+04	
60	3.000000e+00	1.005593e+05	
61	3.050000e+00	1.022137e+05	
62	3.100000e+00	1.038517e+05	
63	3.150000e+00	1.054735e+05	
64	3.200000e+00	1.070793e+05	
65	3.250000e+00	1.086694e+05	
66	3.300000e+00	1.102440e+05	
67	3.350000e+00	1.118032e+05	
68	3.400000e+00	1.133474e+05	
69	3.450000e+00	1.148766e+05	
70	3.500000e+00	1.163911e+05	
71	3.550000e+00	1.178911e+05	
72	3.600000e+00	1.193768e+05	
73	3.650000e+00	1.208484e+05	
74	3.700000e+00	1.223061e+05	
75	3.750000e+00	1.237500e+05	
76	3.800000e+00	1.251804e+05	
77	3.850000e+00	1.265974e+05	
78	3.900000e+00	1.280012e+05	
79	3.950000e+00	1.293919e+05	
80	4.000000e+00	1.307699e+05	
81	4.050000e+00	1.321351e+05	
82	4.100000e+00	1.334879e+05	
83	4.150000e+00	1.348282e+05	
84	4.200000e+00	1.361564e+05	
85	4.250000e+00	1.374726e+05	
86	4.300000e+00	1.387769e+05	
87	4.350000e+00	1.400695e+05	
88	4.400000e+00	1.413505e+05	
89	4.450000e+00	1.426200e+05	
90	4.500000e+00	1.438783e+05	
91	4.550000e+00	1.451255e+05	
92	4.600000e+00	1.463617e+05	
93	4.650000e+00	1.475870e+05	
94	4.700000e+00	1.488016e+05	
95	4.750000e+00	1.500056e+05	
96	4.800000e+00	1.511992e+05	
97	4.850000e+00	1.523824e+05	
98	4.900000e+00	1.535555e+05	
99	4.950000e+00	1.547185e+05	
100	5.000000e+00	1.558716e+05	
101	5.050000e+00	1.570148e+05	
102	5.100000e+00	1.581483e+05	
103	5.150000e+00	1.592723e+05	
104	5.200000e+00	1.603868e+05	
105	5.250000e+00	1.614919e+05	
106	5.300000e+00	1.625879e+05	
107	5.350000e+00	1.636746e+05	
108	5.400000e+00	1.647524e+05	
109	5.450000e+00	1.658213e+05	
110	5.500000e+00	1.668814e+05	
111	5.550000e+00	1.679327e+05	
112	5.600000e+00	1.689755e+05	

Index   v-sweep         rds             
--------------------------------------------------------------------------------
113	5.650000e+00	1.700098e+05	
114	5.700000e+00	1.710357e+05	
115	5.750000e+00	1.720533e+05	
116	5.800000e+00	1.730627e+05	
117	5.850000e+00	1.740640e+05	
118	5.900000e+00	1.750573e+05	
119	5.950000e+00	1.760426e+05	
120	6.000000e+00	1.770202e+05	
121	6.050000e+00	1.779900e+05	
122	6.100000e+00	1.789522e+05	
123	6.150000e+00	1.799068e+05	
124	6.200000e+00	1.808539e+05	
125	6.250000e+00	1.817937e+05	
126	6.300000e+00	1.827261e+05	
127	6.350000e+00	1.836513e+05	
128	6.400000e+00	1.845694e+05	
129	6.450000e+00	1.854804e+05	
130	6.500000e+00	1.863845e+05	
131	6.550000e+00	1.872816e+05	
132	6.600000e+00	1.881719e+05	
Reset re-loads circuit ***************************

Circuit: ***************************

Doing analysis at TEMP = -40.000000 and TNOM = -40.000000


No. of Data Rows : 133
                          ***************************
                          DC transfer characteristic  Mon Jan  9 13:57:42  2023
--------------------------------------------------------------------------------
Index   v-sweep         rds             
--------------------------------------------------------------------------------
0	0.000000e+00	3.407870e+02	
1	5.000000e-02	3.601146e+02	
2	1.000000e-01	3.810095e+02	
3	1.500000e-01	4.036667e+02	
4	2.000000e-01	4.283154e+02	
5	2.500000e-01	4.552271e+02	
6	3.000000e-01	4.847265e+02	
7	3.500000e-01	5.172044e+02	
8	4.000000e-01	5.531363e+02	
9	4.500000e-01	5.931077e+02	
10	5.000000e-01	6.378483e+02	
11	5.500000e-01	6.882846e+02	
12	6.000000e-01	7.456166e+02	
13	6.500000e-01	8.114430e+02	
14	7.000000e-01	8.879687e+02	
15	7.500000e-01	9.783759e+02	
16	8.000000e-01	1.087516e+03	
17	8.500000e-01	1.223239e+03	
18	9.000000e-01	1.398840e+03	
19	9.500000e-01	1.636856e+03	
20	1.000000e+00	1.972048e+03	
21	1.050000e+00	2.446407e+03	
22	1.100000e+00	3.091093e+03	
23	1.150000e+00	3.909181e+03	
24	1.200000e+00	4.878095e+03	
25	1.250000e+00	5.965077e+03	
26	1.300000e+00	7.139240e+03	
27	1.350000e+00	8.375980e+03	
28	1.400000e+00	9.657043e+03	
29	1.450000e+00	1.096922e+04	
30	1.500000e+00	1.230299e+04	
31	1.550000e+00	1.365143e+04	
32	1.600000e+00	1.500947e+04	
33	1.650000e+00	1.637333e+04	
34	1.700000e+00	1.774015e+04	
35	1.750000e+00	1.910776e+04	
36	1.800000e+00	2.047447e+04	
37	1.850000e+00	2.183897e+04	
38	1.900000e+00	2.320023e+04	
39	1.950000e+00	2.455742e+04	
40	2.000000e+00	2.590990e+04	
41	2.050000e+00	2.725712e+04	
42	2.100000e+00	2.859867e+04	
43	2.150000e+00	2.993421e+04	
44	2.200000e+00	3.126345e+04	
45	2.250000e+00	3.258617e+04	
46	2.300000e+00	3.390219e+04	
47	2.350000e+00	3.521136e+04	
48	2.400000e+00	3.651358e+04	
49	2.450000e+00	3.780874e+04	
50	2.500000e+00	3.909678e+04	
51	2.550000e+00	4.037764e+04	
52	2.600000e+00	4.165129e+04	
53	2.650000e+00	4.291770e+04	
54	2.700000e+00	4.417685e+04	

Index   v-sweep         rds             
--------------------------------------------------------------------------------
55	2.750000e+00	4.542875e+04	
56	2.800000e+00	4.667338e+04	
57	2.850000e+00	4.791076e+04	
58	2.900000e+00	4.914090e+04	
59	2.950000e+00	5.036383e+04	
60	3.000000e+00	5.157956e+04	
61	3.050000e+00	5.278812e+04	
62	3.100000e+00	5.398954e+04	
63	3.150000e+00	5.518386e+04	
64	3.200000e+00	5.637110e+04	
65	3.250000e+00	5.755132e+04	
66	3.300000e+00	5.872453e+04	
67	3.350000e+00	5.989080e+04	
68	3.400000e+00	6.105015e+04	
69	3.450000e+00	6.220263e+04	
70	3.500000e+00	6.334829e+04	
71	3.550000e+00	6.448717e+04	
72	3.600000e+00	6.561931e+04	
73	3.650000e+00	6.674476e+04	
74	3.700000e+00	6.786356e+04	
75	3.750000e+00	6.897578e+04	
76	3.800000e+00	7.008144e+04	
77	3.850000e+00	7.118059e+04	
78	3.900000e+00	7.227330e+04	
79	3.950000e+00	7.335959e+04	
80	4.000000e+00	7.443953e+04	
81	4.050000e+00	7.551315e+04	
82	4.100000e+00	7.658051e+04	
83	4.150000e+00	7.764164e+04	
84	4.200000e+00	7.869661e+04	
85	4.250000e+00	7.974545e+04	
86	4.300000e+00	8.078822e+04	
87	4.350000e+00	8.182495e+04	
88	4.400000e+00	8.285570e+04	
89	4.450000e+00	8.388051e+04	
90	4.500000e+00	8.489943e+04	
91	4.550000e+00	8.591250e+04	
92	4.600000e+00	8.691977e+04	
93	4.650000e+00	8.792129e+04	
94	4.700000e+00	8.891710e+04	
95	4.750000e+00	8.990723e+04	
96	4.800000e+00	9.089175e+04	
97	4.850000e+00	9.187069e+04	
98	4.900000e+00	9.284409e+04	
99	4.950000e+00	9.381201e+04	
100	5.000000e+00	9.477447e+04	
101	5.050000e+00	9.573153e+04	
102	5.100000e+00	9.668322e+04	
103	5.150000e+00	9.762960e+04	
104	5.200000e+00	9.857069e+04	
105	5.250000e+00	9.950654e+04	
106	5.300000e+00	1.004372e+05	
107	5.350000e+00	1.013627e+05	
108	5.400000e+00	1.022831e+05	
109	5.450000e+00	1.031984e+05	
110	5.500000e+00	1.041087e+05	
111	5.550000e+00	1.050139e+05	
112	5.600000e+00	1.059142e+05	

Index   v-sweep         rds             
--------------------------------------------------------------------------------
113	5.650000e+00	1.068096e+05	
114	5.700000e+00	1.077001e+05	
115	5.750000e+00	1.085858e+05	
116	5.800000e+00	1.094666e+05	
117	5.850000e+00	1.103427e+05	
118	5.900000e+00	1.112140e+05	
119	5.950000e+00	1.120807e+05	
120	6.000000e+00	1.129427e+05	
121	6.050000e+00	1.138000e+05	
122	6.100000e+00	1.146528e+05	
123	6.150000e+00	1.155010e+05	
124	6.200000e+00	1.163447e+05	
125	6.250000e+00	1.171839e+05	
126	6.300000e+00	1.180187e+05	
127	6.350000e+00	1.188490e+05	
128	6.400000e+00	1.196750e+05	
129	6.450000e+00	1.204966e+05	
130	6.500000e+00	1.213138e+05	
131	6.550000e+00	1.221268e+05	
132	6.600000e+00	1.229356e+05	
Reset re-loads circuit ***************************

Circuit: ***************************

Doing analysis at TEMP = -40.000000 and TNOM = -40.000000


No. of Data Rows : 133
                          ***************************
                          DC transfer characteristic  Mon Jan  9 13:57:42  2023
--------------------------------------------------------------------------------
Index   v-sweep         rds             
--------------------------------------------------------------------------------
0	0.000000e+00	2.636840e+02	
1	5.000000e-02	2.753692e+02	
2	1.000000e-01	2.877208e+02	
3	1.500000e-01	3.007956e+02	
4	2.000000e-01	3.146570e+02	
5	2.500000e-01	3.293764e+02	
6	3.000000e-01	3.450346e+02	
7	3.500000e-01	3.617233e+02	
8	4.000000e-01	3.795470e+02	
9	4.500000e-01	3.986252e+02	
10	5.000000e-01	4.190953e+02	
11	5.500000e-01	4.411160e+02	
12	6.000000e-01	4.648719e+02	
13	6.500000e-01	4.905792e+02	
14	7.000000e-01	5.184935e+02	
15	7.500000e-01	5.489204e+02	
16	8.000000e-01	5.822312e+02	
17	8.500000e-01	6.188847e+02	
18	9.000000e-01	6.594624e+02	
19	9.500000e-01	7.047231e+02	
20	1.000000e+00	7.556961e+02	
21	1.050000e+00	8.138419e+02	
22	1.100000e+00	8.813410e+02	
23	1.150000e+00	9.616159e+02	
24	1.200000e+00	1.060249e+03	
25	1.250000e+00	1.186441e+03	
26	1.300000e+00	1.354751e+03	
27	1.350000e+00	1.585663e+03	
28	1.400000e+00	1.902185e+03	
29	1.450000e+00	2.321812e+03	
30	1.500000e+00	2.849328e+03	
31	1.550000e+00	3.476722e+03	
32	1.600000e+00	4.188776e+03	
33	1.650000e+00	4.968802e+03	
34	1.700000e+00	5.801828e+03	
35	1.750000e+00	6.675619e+03	
36	1.800000e+00	7.580596e+03	
37	1.850000e+00	8.509390e+03	
38	1.900000e+00	9.456354e+03	
39	1.950000e+00	1.041714e+04	
40	2.000000e+00	1.138840e+04	
41	2.050000e+00	1.236748e+04	
42	2.100000e+00	1.335234e+04	
43	2.150000e+00	1.434130e+04	
44	2.200000e+00	1.533306e+04	
45	2.250000e+00	1.632654e+04	
46	2.300000e+00	1.732085e+04	
47	2.350000e+00	1.831530e+04	
48	2.400000e+00	1.930926e+04	
49	2.450000e+00	2.030226e+04	
50	2.500000e+00	2.129387e+04	
51	2.550000e+00	2.228374e+04	
52	2.600000e+00	2.327159e+04	
53	2.650000e+00	2.425715e+04	
54	2.700000e+00	2.524021e+04	

Index   v-sweep         rds             
--------------------------------------------------------------------------------
55	2.750000e+00	2.622059e+04	
56	2.800000e+00	2.719814e+04	
57	2.850000e+00	2.817273e+04	
58	2.900000e+00	2.914423e+04	
59	2.950000e+00	3.011255e+04	
60	3.000000e+00	3.107760e+04	
61	3.050000e+00	3.203932e+04	
62	3.100000e+00	3.299763e+04	
63	3.150000e+00	3.395250e+04	
64	3.200000e+00	3.490387e+04	
65	3.250000e+00	3.585171e+04	
66	3.300000e+00	3.679598e+04	
67	3.350000e+00	3.773666e+04	
68	3.400000e+00	3.867372e+04	
69	3.450000e+00	3.960716e+04	
70	3.500000e+00	4.053695e+04	
71	3.550000e+00	4.146308e+04	
72	3.600000e+00	4.238555e+04	
73	3.650000e+00	4.330435e+04	
74	3.700000e+00	4.421949e+04	
75	3.750000e+00	4.513095e+04	
76	3.800000e+00	4.603873e+04	
77	3.850000e+00	4.694286e+04	
78	3.900000e+00	4.784331e+04	
79	3.950000e+00	4.874011e+04	
80	4.000000e+00	4.963326e+04	
81	4.050000e+00	5.052277e+04	
82	4.100000e+00	5.140864e+04	
83	4.150000e+00	5.229089e+04	
84	4.200000e+00	5.316952e+04	
85	4.250000e+00	5.404455e+04	
86	4.300000e+00	5.491599e+04	
87	4.350000e+00	5.578386e+04	
88	4.400000e+00	5.664816e+04	
89	4.450000e+00	5.750890e+04	
90	4.500000e+00	5.836611e+04	
91	4.550000e+00	5.921980e+04	
92	4.600000e+00	6.006998e+04	
93	4.650000e+00	6.091666e+04	
94	4.700000e+00	6.175987e+04	
95	4.750000e+00	6.259961e+04	
96	4.800000e+00	6.343591e+04	
97	4.850000e+00	6.426877e+04	
98	4.900000e+00	6.509822e+04	
99	4.950000e+00	6.592427e+04	
100	5.000000e+00	6.674694e+04	
101	5.050000e+00	6.756624e+04	
102	5.100000e+00	6.838219e+04	
103	5.150000e+00	6.919481e+04	
104	5.200000e+00	7.000411e+04	
105	5.250000e+00	7.081011e+04	
106	5.300000e+00	7.161283e+04	
107	5.350000e+00	7.241228e+04	
108	5.400000e+00	7.320848e+04	
109	5.450000e+00	7.400144e+04	
110	5.500000e+00	7.479119e+04	
111	5.550000e+00	7.557775e+04	
112	5.600000e+00	7.636111e+04	

Index   v-sweep         rds             
--------------------------------------------------------------------------------
113	5.650000e+00	7.714132e+04	
114	5.700000e+00	7.791837e+04	
115	5.750000e+00	7.869229e+04	
116	5.800000e+00	7.946309e+04	
117	5.850000e+00	8.023080e+04	
118	5.900000e+00	8.099542e+04	
119	5.950000e+00	8.175697e+04	
120	6.000000e+00	8.251548e+04	
121	6.050000e+00	8.327095e+04	
122	6.100000e+00	8.402340e+04	
123	6.150000e+00	8.477286e+04	
124	6.200000e+00	8.551933e+04	
125	6.250000e+00	8.626283e+04	
126	6.300000e+00	8.700338e+04	
127	6.350000e+00	8.774099e+04	
128	6.400000e+00	8.847568e+04	
129	6.450000e+00	8.920747e+04	
130	6.500000e+00	8.993637e+04	
131	6.550000e+00	9.066239e+04	
132	6.600000e+00	9.138556e+04	
Reset re-loads circuit ***************************

Circuit: ***************************

Doing analysis at TEMP = -40.000000 and TNOM = -40.000000


No. of Data Rows : 133
                          ***************************
                          DC transfer characteristic  Mon Jan  9 13:57:42  2023
--------------------------------------------------------------------------------
Index   v-sweep         rds             
--------------------------------------------------------------------------------
0	0.000000e+00	2.267512e+02	
1	5.000000e-02	2.350921e+02	
2	1.000000e-01	2.438019e+02	
3	1.500000e-01	2.529044e+02	
4	2.000000e-01	2.624256e+02	
5	2.500000e-01	2.723940e+02	
6	3.000000e-01	2.828408e+02	
7	3.500000e-01	2.938006e+02	
8	4.000000e-01	3.053114e+02	
9	4.500000e-01	3.174156e+02	
10	5.000000e-01	3.301600e+02	
11	5.500000e-01	3.435966e+02	
12	6.000000e-01	3.577837e+02	
13	6.500000e-01	3.727861e+02	
14	7.000000e-01	3.886765e+02	
15	7.500000e-01	4.055369e+02	
16	8.000000e-01	4.234597e+02	
17	8.500000e-01	4.425500e+02	
18	9.000000e-01	4.629284e+02	
19	9.500000e-01	4.847336e+02	
20	1.000000e+00	5.081280e+02	
21	1.050000e+00	5.333034e+02	
22	1.100000e+00	5.604906e+02	
23	1.150000e+00	5.899735e+02	
24	1.200000e+00	6.221101e+02	
25	1.250000e+00	6.573669e+02	
26	1.300000e+00	6.963744e+02	
27	1.350000e+00	7.400213e+02	
28	1.400000e+00	7.896148e+02	
29	1.450000e+00	8.471559e+02	
30	1.500000e+00	9.157971e+02	
31	1.550000e+00	1.000552e+03	
32	1.600000e+00	1.109212e+03	
33	1.650000e+00	1.253053e+03	
34	1.700000e+00	1.446294e+03	
35	1.750000e+00	1.703228e+03	
36	1.800000e+00	2.033702e+03	
37	1.850000e+00	2.439980e+03	
38	1.900000e+00	2.917173e+03	
39	1.950000e+00	3.456154e+03	
40	2.000000e+00	4.046558e+03	
41	2.050000e+00	4.678639e+03	
42	2.100000e+00	5.344052e+03	
43	2.150000e+00	6.035972e+03	
44	2.200000e+00	6.748946e+03	
45	2.250000e+00	7.478653e+03	
46	2.300000e+00	8.221671e+03	
47	2.350000e+00	8.975284e+03	
48	2.400000e+00	9.737322e+03	
49	2.450000e+00	1.050604e+04	
50	2.500000e+00	1.128002e+04	
51	2.550000e+00	1.205812e+04	
52	2.600000e+00	1.283938e+04	
53	2.650000e+00	1.362301e+04	
54	2.700000e+00	1.440837e+04	

Index   v-sweep         rds             
--------------------------------------------------------------------------------
55	2.750000e+00	1.519490e+04	
56	2.800000e+00	1.598215e+04	
57	2.850000e+00	1.676970e+04	
58	2.900000e+00	1.755724e+04	
59	2.950000e+00	1.834447e+04	
60	3.000000e+00	1.913115e+04	
61	3.050000e+00	1.991706e+04	
62	3.100000e+00	2.070203e+04	
63	3.150000e+00	2.148587e+04	
64	3.200000e+00	2.226847e+04	
65	3.250000e+00	2.304969e+04	
66	3.300000e+00	2.382943e+04	
67	3.350000e+00	2.460759e+04	
68	3.400000e+00	2.538409e+04	
69	3.450000e+00	2.615886e+04	
70	3.500000e+00	2.693183e+04	
71	3.550000e+00	2.770295e+04	
72	3.600000e+00	2.847216e+04	
73	3.650000e+00	2.923942e+04	
74	3.700000e+00	3.000469e+04	
75	3.750000e+00	3.076794e+04	
76	3.800000e+00	3.152914e+04	
77	3.850000e+00	3.228825e+04	
78	3.900000e+00	3.304526e+04	
79	3.950000e+00	3.380015e+04	
80	4.000000e+00	3.455289e+04	
81	4.050000e+00	3.530348e+04	
82	4.100000e+00	3.605189e+04	
83	4.150000e+00	3.679812e+04	
84	4.200000e+00	3.754215e+04	
85	4.250000e+00	3.828398e+04	
86	4.300000e+00	3.902360e+04	
87	4.350000e+00	3.976101e+04	
88	4.400000e+00	4.049619e+04	
89	4.450000e+00	4.122916e+04	
90	4.500000e+00	4.195989e+04	
91	4.550000e+00	4.268840e+04	
92	4.600000e+00	4.341468e+04	
93	4.650000e+00	4.413874e+04	
94	4.700000e+00	4.486056e+04	
95	4.750000e+00	4.558016e+04	
96	4.800000e+00	4.629753e+04	
97	4.850000e+00	4.701268e+04	
98	4.900000e+00	4.772561e+04	
99	4.950000e+00	4.843633e+04	
100	5.000000e+00	4.914483e+04	
101	5.050000e+00	4.985112e+04	
102	5.100000e+00	5.055521e+04	
103	5.150000e+00	5.125710e+04	
104	5.200000e+00	5.195679e+04	
105	5.250000e+00	5.265430e+04	
106	5.300000e+00	5.334962e+04	
107	5.350000e+00	5.404276e+04	
108	5.400000e+00	5.473373e+04	
109	5.450000e+00	5.542253e+04	
110	5.500000e+00	5.610918e+04	
111	5.550000e+00	5.679366e+04	
112	5.600000e+00	5.747601e+04	

Index   v-sweep         rds             
--------------------------------------------------------------------------------
113	5.650000e+00	5.815621e+04	
114	5.700000e+00	5.883428e+04	
115	5.750000e+00	5.951022e+04	
116	5.800000e+00	6.018404e+04	
117	5.850000e+00	6.085575e+04	
118	5.900000e+00	6.152535e+04	
119	5.950000e+00	6.219285e+04	
120	6.000000e+00	6.285827e+04	
121	6.050000e+00	6.352160e+04	
122	6.100000e+00	6.418286e+04	
123	6.150000e+00	6.484204e+04	
124	6.200000e+00	6.549917e+04	
125	6.250000e+00	6.615424e+04	
126	6.300000e+00	6.680727e+04	
127	6.350000e+00	6.745826e+04	
128	6.400000e+00	6.810723e+04	
129	6.450000e+00	6.875417e+04	
130	6.500000e+00	6.939909e+04	
131	6.550000e+00	7.004201e+04	
132	6.600000e+00	7.068293e+04	
Reset re-loads circuit ***************************

Circuit: ***************************

Doing analysis at TEMP = -40.000000 and TNOM = -40.000000


No. of Data Rows : 133
                          ***************************
                          DC transfer characteristic  Mon Jan  9 13:57:42  2023
--------------------------------------------------------------------------------
Index   v-sweep         rds             
--------------------------------------------------------------------------------
0	0.000000e+00	2.072392e+02	
1	5.000000e-02	2.137403e+02	
2	1.000000e-01	2.204759e+02	
3	1.500000e-01	2.274582e+02	
4	2.000000e-01	2.347001e+02	
5	2.500000e-01	2.422156e+02	
6	3.000000e-01	2.500200e+02	
7	3.500000e-01	2.581295e+02	
8	4.000000e-01	2.665621e+02	
9	4.500000e-01	2.753370e+02	
10	5.000000e-01	2.844753e+02	
11	5.500000e-01	2.939998e+02	
12	6.000000e-01	3.039356e+02	
13	6.500000e-01	3.143098e+02	
14	7.000000e-01	3.251523e+02	
15	7.500000e-01	3.364956e+02	
16	8.000000e-01	3.483755e+02	
17	8.500000e-01	3.608310e+02	
18	9.000000e-01	3.739054e+02	
19	9.500000e-01	3.876461e+02	
20	1.000000e+00	4.021058e+02	
21	1.050000e+00	4.173430e+02	
22	1.100000e+00	4.334233e+02	
23	1.150000e+00	4.504203e+02	
24	1.200000e+00	4.684176e+02	
25	1.250000e+00	4.875106e+02	
26	1.300000e+00	5.078103e+02	
27	1.350000e+00	5.294469e+02	
28	1.400000e+00	5.525762e+02	
29	1.450000e+00	5.773891e+02	
30	1.500000e+00	6.041248e+02	
31	1.550000e+00	6.330930e+02	
32	1.600000e+00	6.647076e+02	
33	1.650000e+00	6.995427e+02	
34	1.700000e+00	7.384230e+02	
35	1.750000e+00	7.825721e+02	
36	1.800000e+00	8.338516e+02	
37	1.850000e+00	8.951259e+02	
38	1.900000e+00	9.707622e+02	
39	1.950000e+00	1.067159e+03	
40	2.000000e+00	1.192955e+03	
41	2.050000e+00	1.358299e+03	
42	2.100000e+00	1.572814e+03	
43	2.150000e+00	1.842916e+03	
44	2.200000e+00	2.170134e+03	
45	2.250000e+00	2.551395e+03	
46	2.300000e+00	2.980708e+03	
47	2.350000e+00	3.450978e+03	
48	2.400000e+00	3.955269e+03	
49	2.450000e+00	4.487420e+03	
50	2.500000e+00	5.042233e+03	
51	2.550000e+00	5.615442e+03	
52	2.600000e+00	6.203589e+03	
53	2.650000e+00	6.803884e+03	
54	2.700000e+00	7.414075e+03	

Index   v-sweep         rds             
--------------------------------------------------------------------------------
55	2.750000e+00	8.032340e+03	
56	2.800000e+00	8.657194e+03	
57	2.850000e+00	9.287423e+03	
58	2.900000e+00	9.922026e+03	
59	2.950000e+00	1.056017e+04	
60	3.000000e+00	1.120117e+04	
61	3.050000e+00	1.184444e+04	
62	3.100000e+00	1.248950e+04	
63	3.150000e+00	1.313591e+04	
64	3.200000e+00	1.378334e+04	
65	3.250000e+00	1.443147e+04	
66	3.300000e+00	1.508004e+04	
67	3.350000e+00	1.572883e+04	
68	3.400000e+00	1.637763e+04	
69	3.450000e+00	1.702628e+04	
70	3.500000e+00	1.767462e+04	
71	3.550000e+00	1.832252e+04	
72	3.600000e+00	1.896987e+04	
73	3.650000e+00	1.961656e+04	
74	3.700000e+00	2.026251e+04	
75	3.750000e+00	2.090762e+04	
76	3.800000e+00	2.155183e+04	
77	3.850000e+00	2.219508e+04	
78	3.900000e+00	2.283730e+04	
79	3.950000e+00	2.347845e+04	
80	4.000000e+00	2.411848e+04	
81	4.050000e+00	2.475735e+04	
82	4.100000e+00	2.539502e+04	
83	4.150000e+00	2.603146e+04	
84	4.200000e+00	2.666664e+04	
85	4.250000e+00	2.730053e+04	
86	4.300000e+00	2.793311e+04	
87	4.350000e+00	2.856436e+04	
88	4.400000e+00	2.919426e+04	
89	4.450000e+00	2.982278e+04	
90	4.500000e+00	3.044993e+04	
91	4.550000e+00	3.107567e+04	
92	4.600000e+00	3.170001e+04	
93	4.650000e+00	3.232292e+04	
94	4.700000e+00	3.294440e+04	
95	4.750000e+00	3.356443e+04	
96	4.800000e+00	3.418302e+04	
97	4.850000e+00	3.480016e+04	
98	4.900000e+00	3.541583e+04	
99	4.950000e+00	3.603003e+04	
100	5.000000e+00	3.664276e+04	
101	5.050000e+00	3.725402e+04	
102	5.100000e+00	3.786380e+04	
103	5.150000e+00	3.847209e+04	
104	5.200000e+00	3.907891e+04	
105	5.250000e+00	3.968423e+04	
106	5.300000e+00	4.028807e+04	
107	5.350000e+00	4.089043e+04	
108	5.400000e+00	4.149129e+04	
109	5.450000e+00	4.209067e+04	
110	5.500000e+00	4.268856e+04	
111	5.550000e+00	4.328496e+04	
112	5.600000e+00	4.387987e+04	

Index   v-sweep         rds             
--------------------------------------------------------------------------------
113	5.650000e+00	4.447330e+04	
114	5.700000e+00	4.506524e+04	
115	5.750000e+00	4.565570e+04	
116	5.800000e+00	4.624468e+04	
117	5.850000e+00	4.683218e+04	
118	5.900000e+00	4.741820e+04	
119	5.950000e+00	4.800275e+04	
120	6.000000e+00	4.858582e+04	
121	6.050000e+00	4.916742e+04	
122	6.100000e+00	4.974756e+04	
123	6.150000e+00	5.032623e+04	
124	6.200000e+00	5.090343e+04	
125	6.250000e+00	5.147918e+04	
126	6.300000e+00	5.205347e+04	
127	6.350000e+00	5.262631e+04	
128	6.400000e+00	5.319770e+04	
129	6.450000e+00	5.376765e+04	
130	6.500000e+00	5.433615e+04	
131	6.550000e+00	5.490321e+04	
132	6.600000e+00	5.546883e+04	
Reset re-loads circuit ***************************

Circuit: ***************************

Note: No ".plot", ".print", or ".fourier" lines; no simulations run
