
Note: Compatibility modes selected: hs

Warning: m=xx on .subckt line will override multiplier m hierarchy!


Circuit: ***************************

Doing analysis at TEMP = -40.000000 and TNOM = -40.000000


No. of Data Rows : 133
                          ***************************
                          DC transfer characteristic  Mon Jan  9 13:57:42  2023
--------------------------------------------------------------------------------
Index   v-sweep         rds             
--------------------------------------------------------------------------------
0	0.000000e+00	8.222594e+05	
1	5.000000e-02	1.043643e+06	
2	1.000000e-01	1.421949e+06	
3	1.500000e-01	2.187994e+06	
4	2.000000e-01	4.176405e+06	
5	2.500000e-01	1.060796e+07	
6	3.000000e-01	2.973534e+07	
7	3.500000e-01	6.972907e+07	
8	4.000000e-01	1.275848e+08	
9	4.500000e-01	1.906348e+08	
10	5.000000e-01	2.476194e+08	
11	5.500000e-01	2.939003e+08	
12	6.000000e-01	3.296112e+08	
13	6.500000e-01	3.566878e+08	
14	7.000000e-01	3.772375e+08	
15	7.500000e-01	3.929942e+08	
16	8.000000e-01	4.052510e+08	
17	8.500000e-01	4.149366e+08	
18	9.000000e-01	4.227115e+08	
19	9.500000e-01	4.290469e+08	
20	1.000000e+00	4.342815e+08	
21	1.050000e+00	4.386622e+08	
22	1.100000e+00	4.423711e+08	
23	1.150000e+00	4.455447e+08	
24	1.200000e+00	4.482863e+08	
25	1.250000e+00	4.506754e+08	
26	1.300000e+00	4.527736e+08	
27	1.350000e+00	4.546298e+08	
28	1.400000e+00	4.562824e+08	
29	1.450000e+00	4.577625e+08	
30	1.500000e+00	4.590955e+08	
31	1.550000e+00	4.603018e+08	
32	1.600000e+00	4.613985e+08	
33	1.650000e+00	4.623997e+08	
34	1.700000e+00	4.633173e+08	
35	1.750000e+00	4.641613e+08	
36	1.800000e+00	4.649402e+08	
37	1.850000e+00	4.656611e+08	
38	1.900000e+00	4.663304e+08	
39	1.950000e+00	4.669533e+08	
40	2.000000e+00	4.675345e+08	
41	2.050000e+00	4.680781e+08	
42	2.100000e+00	4.685876e+08	
43	2.150000e+00	4.690662e+08	
44	2.200000e+00	4.695165e+08	
45	2.250000e+00	4.699410e+08	
46	2.300000e+00	4.703419e+08	
47	2.350000e+00	4.707210e+08	
48	2.400000e+00	4.710802e+08	
49	2.450000e+00	4.714209e+08	
50	2.500000e+00	4.717445e+08	
51	2.550000e+00	4.720524e+08	
52	2.600000e+00	4.723456e+08	
53	2.650000e+00	4.726251e+08	
54	2.700000e+00	4.728919e+08	

Index   v-sweep         rds             
--------------------------------------------------------------------------------
55	2.750000e+00	4.731469e+08	
56	2.800000e+00	4.733908e+08	
57	2.850000e+00	4.736243e+08	
58	2.900000e+00	4.738480e+08	
59	2.950000e+00	4.740626e+08	
60	3.000000e+00	4.742687e+08	
61	3.050000e+00	4.744667e+08	
62	3.100000e+00	4.746570e+08	
63	3.150000e+00	4.748402e+08	
64	3.200000e+00	4.750166e+08	
65	3.250000e+00	4.751865e+08	
66	3.300000e+00	4.753504e+08	
67	3.350000e+00	4.755086e+08	
68	3.400000e+00	4.756613e+08	
69	3.450000e+00	4.758088e+08	
70	3.500000e+00	4.759514e+08	
71	3.550000e+00	4.760893e+08	
72	3.600000e+00	4.762227e+08	
73	3.650000e+00	4.763520e+08	
74	3.700000e+00	4.764771e+08	
75	3.750000e+00	4.765985e+08	
76	3.800000e+00	4.767161e+08	
77	3.850000e+00	4.768302e+08	
78	3.900000e+00	4.769410e+08	
79	3.950000e+00	4.770485e+08	
80	4.000000e+00	4.771529e+08	
81	4.050000e+00	4.772544e+08	
82	4.100000e+00	4.773531e+08	
83	4.150000e+00	4.774491e+08	
84	4.200000e+00	4.775424e+08	
85	4.250000e+00	4.776333e+08	
86	4.300000e+00	4.777217e+08	
87	4.350000e+00	4.778079e+08	
88	4.400000e+00	4.778918e+08	
89	4.450000e+00	4.779736e+08	
90	4.500000e+00	4.780533e+08	
91	4.550000e+00	4.781311e+08	
92	4.600000e+00	4.782069e+08	
93	4.650000e+00	4.782809e+08	
94	4.700000e+00	4.783531e+08	
95	4.750000e+00	4.784236e+08	
96	4.800000e+00	4.784925e+08	
97	4.850000e+00	4.785598e+08	
98	4.900000e+00	4.786255e+08	
99	4.950000e+00	4.786897e+08	
100	5.000000e+00	4.787525e+08	
101	5.050000e+00	4.788139e+08	
102	5.100000e+00	4.788740e+08	
103	5.150000e+00	4.789327e+08	
104	5.200000e+00	4.789902e+08	
105	5.250000e+00	4.790464e+08	
106	5.300000e+00	4.791015e+08	
107	5.350000e+00	4.791554e+08	
108	5.400000e+00	4.792082e+08	
109	5.450000e+00	4.792600e+08	
110	5.500000e+00	4.793106e+08	
111	5.550000e+00	4.793603e+08	
112	5.600000e+00	4.794090e+08	

Index   v-sweep         rds             
--------------------------------------------------------------------------------
113	5.650000e+00	4.794567e+08	
114	5.700000e+00	4.795035e+08	
115	5.750000e+00	4.795493e+08	
116	5.800000e+00	4.795943e+08	
117	5.850000e+00	4.796385e+08	
118	5.900000e+00	4.796818e+08	
119	5.950000e+00	4.797243e+08	
120	6.000000e+00	4.797660e+08	
121	6.050000e+00	4.798069e+08	
122	6.100000e+00	4.798471e+08	
123	6.150000e+00	4.798866e+08	
124	6.200000e+00	4.799254e+08	
125	6.250000e+00	4.799635e+08	
126	6.300000e+00	4.800009e+08	
127	6.350000e+00	4.800376e+08	
128	6.400000e+00	4.800738e+08	
129	6.450000e+00	4.801093e+08	
130	6.500000e+00	4.801442e+08	
131	6.550000e+00	4.801785e+08	
132	6.600000e+00	4.802122e+08	
Reset re-loads circuit ***************************

Circuit: ***************************

Doing analysis at TEMP = -40.000000 and TNOM = -40.000000


No. of Data Rows : 133
                          ***************************
                          DC transfer characteristic  Mon Jan  9 13:57:42  2023
--------------------------------------------------------------------------------
Index   v-sweep         rds             
--------------------------------------------------------------------------------
0	0.000000e+00	1.868570e+05	
1	5.000000e-02	1.968654e+05	
2	1.000000e-01	2.079753e+05	
3	1.500000e-01	2.203787e+05	
4	2.000000e-01	2.343153e+05	
5	2.500000e-01	2.500876e+05	
6	3.000000e-01	2.680832e+05	
7	3.500000e-01	2.888063e+05	
8	4.000000e-01	3.129256e+05	
9	4.500000e-01	3.413460e+05	
10	5.000000e-01	3.753221e+05	
11	5.500000e-01	4.166422e+05	
12	6.000000e-01	4.679384e+05	
13	6.500000e-01	5.332324e+05	
14	7.000000e-01	6.189412e+05	
15	7.500000e-01	7.358199e+05	
16	8.000000e-01	9.028768e+05	
17	8.500000e-01	1.155452e+06	
18	9.000000e-01	1.561416e+06	
19	9.500000e-01	2.249150e+06	
20	1.000000e+00	3.437608e+06	
21	1.050000e+00	5.424225e+06	
22	1.100000e+00	8.482661e+06	
23	1.150000e+00	1.271769e+07	
24	1.200000e+00	1.799853e+07	
25	1.250000e+00	2.401438e+07	
26	1.300000e+00	3.039036e+07	
27	1.350000e+00	3.678748e+07	
28	1.400000e+00	4.295360e+07	
29	1.450000e+00	4.873101e+07	
30	1.500000e+00	5.404060e+07	
31	1.550000e+00	5.885902e+07	
32	1.600000e+00	6.319802e+07	
33	1.650000e+00	6.708878e+07	
34	1.700000e+00	7.057146e+07	
35	1.750000e+00	7.368874e+07	
36	1.800000e+00	7.648212e+07	
37	1.850000e+00	7.899010e+07	
38	1.900000e+00	8.124732e+07	
39	1.950000e+00	8.328446e+07	
40	2.000000e+00	8.512835e+07	
41	2.050000e+00	8.680234e+07	
42	2.100000e+00	8.832668e+07	
43	2.150000e+00	8.971886e+07	
44	2.200000e+00	9.099405e+07	
45	2.250000e+00	9.216537e+07	
46	2.300000e+00	9.324420e+07	
47	2.350000e+00	9.424045e+07	
48	2.400000e+00	9.516273e+07	
49	2.450000e+00	9.601858e+07	
50	2.500000e+00	9.681460e+07	
51	2.550000e+00	9.755657e+07	
52	2.600000e+00	9.824960e+07	
53	2.650000e+00	9.889820e+07	
54	2.700000e+00	9.950635e+07	

Index   v-sweep         rds             
--------------------------------------------------------------------------------
55	2.750000e+00	1.000776e+08	
56	2.800000e+00	1.006151e+08	
57	2.850000e+00	1.011217e+08	
58	2.900000e+00	1.015999e+08	
59	2.950000e+00	1.020519e+08	
60	3.000000e+00	1.024799e+08	
61	3.050000e+00	1.028855e+08	
62	3.100000e+00	1.032706e+08	
63	3.150000e+00	1.036365e+08	
64	3.200000e+00	1.039846e+08	
65	3.250000e+00	1.043163e+08	
66	3.300000e+00	1.046325e+08	
67	3.350000e+00	1.049344e+08	
68	3.400000e+00	1.052229e+08	
69	3.450000e+00	1.054988e+08	
70	3.500000e+00	1.057629e+08	
71	3.550000e+00	1.060160e+08	
72	3.600000e+00	1.062587e+08	
73	3.650000e+00	1.064917e+08	
74	3.700000e+00	1.067155e+08	
75	3.750000e+00	1.069306e+08	
76	3.800000e+00	1.071375e+08	
77	3.850000e+00	1.073367e+08	
78	3.900000e+00	1.075286e+08	
79	3.950000e+00	1.077136e+08	
80	4.000000e+00	1.078920e+08	
81	4.050000e+00	1.080642e+08	
82	4.100000e+00	1.082305e+08	
83	4.150000e+00	1.083913e+08	
84	4.200000e+00	1.085467e+08	
85	4.250000e+00	1.086970e+08	
86	4.300000e+00	1.088425e+08	
87	4.350000e+00	1.089834e+08	
88	4.400000e+00	1.091199e+08	
89	4.450000e+00	1.092522e+08	
90	4.500000e+00	1.093806e+08	
91	4.550000e+00	1.095051e+08	
92	4.600000e+00	1.096259e+08	
93	4.650000e+00	1.097433e+08	
94	4.700000e+00	1.098573e+08	
95	4.750000e+00	1.099680e+08	
96	4.800000e+00	1.100758e+08	
97	4.850000e+00	1.101805e+08	
98	4.900000e+00	1.102825e+08	
99	4.950000e+00	1.103817e+08	
100	5.000000e+00	1.104783e+08	
101	5.050000e+00	1.105724e+08	
102	5.100000e+00	1.106640e+08	
103	5.150000e+00	1.107534e+08	
104	5.200000e+00	1.108405e+08	
105	5.250000e+00	1.109254e+08	
106	5.300000e+00	1.110083e+08	
107	5.350000e+00	1.110892e+08	
108	5.400000e+00	1.111681e+08	
109	5.450000e+00	1.112452e+08	
110	5.500000e+00	1.113205e+08	
111	5.550000e+00	1.113940e+08	
112	5.600000e+00	1.114659e+08	

Index   v-sweep         rds             
--------------------------------------------------------------------------------
113	5.650000e+00	1.115361e+08	
114	5.700000e+00	1.116048e+08	
115	5.750000e+00	1.116720e+08	
116	5.800000e+00	1.117377e+08	
117	5.850000e+00	1.118019e+08	
118	5.900000e+00	1.118648e+08	
119	5.950000e+00	1.119264e+08	
120	6.000000e+00	1.119867e+08	
121	6.050000e+00	1.120457e+08	
122	6.100000e+00	1.121035e+08	
123	6.150000e+00	1.121602e+08	
124	6.200000e+00	1.122157e+08	
125	6.250000e+00	1.122701e+08	
126	6.300000e+00	1.123234e+08	
127	6.350000e+00	1.123757e+08	
128	6.400000e+00	1.124270e+08	
129	6.450000e+00	1.124773e+08	
130	6.500000e+00	1.125266e+08	
131	6.550000e+00	1.125750e+08	
132	6.600000e+00	1.126225e+08	
Reset re-loads circuit ***************************

Circuit: ***************************

Doing analysis at TEMP = -40.000000 and TNOM = -40.000000


No. of Data Rows : 133
                          ***************************
                          DC transfer characteristic  Mon Jan  9 13:57:42  2023
--------------------------------------------------------------------------------
Index   v-sweep         rds             
--------------------------------------------------------------------------------
0	0.000000e+00	1.120353e+05	
1	5.000000e-02	1.153635e+05	
2	1.000000e-01	1.188854e+05	
3	1.500000e-01	1.226182e+05	
4	2.000000e-01	1.265816e+05	
5	2.500000e-01	1.307976e+05	
6	3.000000e-01	1.352910e+05	
7	3.500000e-01	1.400903e+05	
8	4.000000e-01	1.452277e+05	
9	4.500000e-01	1.507402e+05	
10	5.000000e-01	1.566705e+05	
11	5.500000e-01	1.630680e+05	
12	6.000000e-01	1.699900e+05	
13	6.500000e-01	1.775039e+05	
14	7.000000e-01	1.856889e+05	
15	7.500000e-01	1.946391e+05	
16	8.000000e-01	2.044668e+05	
17	8.500000e-01	2.153079e+05	
18	9.000000e-01	2.273273e+05	
19	9.500000e-01	2.407278e+05	
20	1.000000e+00	2.557616e+05	
21	1.050000e+00	2.727458e+05	
22	1.100000e+00	2.920849e+05	
23	1.150000e+00	3.143026e+05	
24	1.200000e+00	3.400884e+05	
25	1.250000e+00	3.703677e+05	
26	1.300000e+00	4.064092e+05	
27	1.350000e+00	4.499936e+05	
28	1.400000e+00	5.036853e+05	
29	1.450000e+00	5.712828e+05	
30	1.500000e+00	6.585734e+05	
31	1.550000e+00	7.746083e+05	
32	1.600000e+00	9.338075e+05	
33	1.650000e+00	1.159183e+06	
34	1.700000e+00	1.486422e+06	
35	1.750000e+00	1.966863e+06	
36	1.800000e+00	2.664885e+06	
37	1.850000e+00	3.645529e+06	
38	1.900000e+00	4.955012e+06	
39	1.950000e+00	6.604722e+06	
40	2.000000e+00	8.567631e+06	
41	2.050000e+00	1.078685e+07	
42	2.100000e+00	1.318977e+07	
43	2.150000e+00	1.570142e+07	
44	2.200000e+00	1.825380e+07	
45	2.250000e+00	2.079076e+07	
46	2.300000e+00	2.326947e+07	
47	2.350000e+00	2.565954e+07	
48	2.400000e+00	2.794124e+07	
49	2.450000e+00	3.010330e+07	
50	2.500000e+00	3.214081e+07	
51	2.550000e+00	3.405342e+07	
52	2.600000e+00	3.584397e+07	
53	2.650000e+00	3.751730e+07	
54	2.700000e+00	3.907950e+07	

Index   v-sweep         rds             
--------------------------------------------------------------------------------
55	2.750000e+00	4.053730e+07	
56	2.800000e+00	4.189768e+07	
57	2.850000e+00	4.316757e+07	
58	2.900000e+00	4.435367e+07	
59	2.950000e+00	4.546239e+07	
60	3.000000e+00	4.649972e+07	
61	3.050000e+00	4.747126e+07	
62	3.100000e+00	4.838219e+07	
63	3.150000e+00	4.923727e+07	
64	3.200000e+00	5.004086e+07	
65	3.250000e+00	5.079697e+07	
66	3.300000e+00	5.150927e+07	
67	3.350000e+00	5.218109e+07	
68	3.400000e+00	5.281547e+07	
69	3.450000e+00	5.341521e+07	
70	3.500000e+00	5.398285e+07	
71	3.550000e+00	5.452071e+07	
72	3.600000e+00	5.503090e+07	
73	3.650000e+00	5.551537e+07	
74	3.700000e+00	5.597590e+07	
75	3.750000e+00	5.641411e+07	
76	3.800000e+00	5.683150e+07	
77	3.850000e+00	5.722943e+07	
78	3.900000e+00	5.760917e+07	
79	3.950000e+00	5.797186e+07	
80	4.000000e+00	5.831859e+07	
81	4.050000e+00	5.865034e+07	
82	4.100000e+00	5.896800e+07	
83	4.150000e+00	5.927244e+07	
84	4.200000e+00	5.956441e+07	
85	4.250000e+00	5.984464e+07	
86	4.300000e+00	6.011380e+07	
87	4.350000e+00	6.037250e+07	
88	4.400000e+00	6.062133e+07	
89	4.450000e+00	6.086082e+07	
90	4.500000e+00	6.109147e+07	
91	4.550000e+00	6.131375e+07	
92	4.600000e+00	6.152808e+07	
93	4.650000e+00	6.173487e+07	
94	4.700000e+00	6.193451e+07	
95	4.750000e+00	6.212734e+07	
96	4.800000e+00	6.231370e+07	
97	4.850000e+00	6.249391e+07	
98	4.900000e+00	6.266825e+07	
99	4.950000e+00	6.283699e+07	
100	5.000000e+00	6.300041e+07	
101	5.050000e+00	6.315873e+07	
102	5.100000e+00	6.331219e+07	
103	5.150000e+00	6.346101e+07	
104	5.200000e+00	6.360538e+07	
105	5.250000e+00	6.374550e+07	
106	5.300000e+00	6.388155e+07	
107	5.350000e+00	6.401370e+07	
108	5.400000e+00	6.414211e+07	
109	5.450000e+00	6.426694e+07	
110	5.500000e+00	6.438833e+07	
111	5.550000e+00	6.450642e+07	
112	5.600000e+00	6.462134e+07	

Index   v-sweep         rds             
--------------------------------------------------------------------------------
113	5.650000e+00	6.473321e+07	
114	5.700000e+00	6.484215e+07	
115	5.750000e+00	6.494827e+07	
116	5.800000e+00	6.505167e+07	
117	5.850000e+00	6.515247e+07	
118	5.900000e+00	6.525075e+07	
119	5.950000e+00	6.534661e+07	
120	6.000000e+00	6.544013e+07	
121	6.050000e+00	6.553139e+07	
122	6.100000e+00	6.562048e+07	
123	6.150000e+00	6.570748e+07	
124	6.200000e+00	6.579244e+07	
125	6.250000e+00	6.587545e+07	
126	6.300000e+00	6.595657e+07	
127	6.350000e+00	6.603585e+07	
128	6.400000e+00	6.611337e+07	
129	6.450000e+00	6.618918e+07	
130	6.500000e+00	6.626333e+07	
131	6.550000e+00	6.633588e+07	
132	6.600000e+00	6.640688e+07	
Reset re-loads circuit ***************************

Circuit: ***************************

Doing analysis at TEMP = -40.000000 and TNOM = -40.000000


No. of Data Rows : 133
                          ***************************
                          DC transfer characteristic  Mon Jan  9 13:57:42  2023
--------------------------------------------------------------------------------
Index   v-sweep         rds             
--------------------------------------------------------------------------------
0	0.000000e+00	8.456946e+04	
1	5.000000e-02	8.629960e+04	
2	1.000000e-01	8.809695e+04	
3	1.500000e-01	8.996551e+04	
4	2.000000e-01	9.190959e+04	
5	2.500000e-01	9.393387e+04	
6	3.000000e-01	9.604341e+04	
7	3.500000e-01	9.824371e+04	
8	4.000000e-01	1.005408e+05	
9	4.500000e-01	1.029411e+05	
10	5.000000e-01	1.054518e+05	
11	5.500000e-01	1.080807e+05	
12	6.000000e-01	1.108363e+05	
13	6.500000e-01	1.137280e+05	
14	7.000000e-01	1.167662e+05	
15	7.500000e-01	1.199623e+05	
16	8.000000e-01	1.233288e+05	
17	8.500000e-01	1.268799e+05	
18	9.000000e-01	1.306311e+05	
19	9.500000e-01	1.345999e+05	
20	1.000000e+00	1.388057e+05	
21	1.050000e+00	1.432704e+05	
22	1.100000e+00	1.480187e+05	
23	1.150000e+00	1.530785e+05	
24	1.200000e+00	1.584815e+05	
25	1.250000e+00	1.642640e+05	
26	1.300000e+00	1.704673e+05	
27	1.350000e+00	1.771391e+05	
28	1.400000e+00	1.843347e+05	
29	1.450000e+00	1.921182e+05	
30	1.500000e+00	2.005650e+05	
31	1.550000e+00	2.097636e+05	
32	1.600000e+00	2.198190e+05	
33	1.650000e+00	2.308571e+05	
34	1.700000e+00	2.430293e+05	
35	1.750000e+00	2.565199e+05	
36	1.800000e+00	2.715553e+05	
37	1.850000e+00	2.884168e+05	
38	1.900000e+00	3.074579e+05	
39	1.950000e+00	3.291288e+05	
40	2.000000e+00	3.540113e+05	
41	2.050000e+00	3.828689e+05	
42	2.100000e+00	4.167213e+05	
43	2.150000e+00	4.569554e+05	
44	2.200000e+00	5.054929e+05	
45	2.250000e+00	5.650477e+05	
46	2.300000e+00	6.395172e+05	
47	2.350000e+00	7.345651e+05	
48	2.400000e+00	8.584444e+05	
49	2.450000e+00	1.023026e+06	
50	2.500000e+00	1.244768e+06	
51	2.550000e+00	1.544972e+06	
52	2.600000e+00	1.948346e+06	
53	2.650000e+00	2.479299e+06	
54	2.700000e+00	3.156772e+06	

Index   v-sweep         rds             
--------------------------------------------------------------------------------
55	2.750000e+00	3.989722e+06	
56	2.800000e+00	4.975213e+06	
57	2.850000e+00	6.099491e+06	
58	2.900000e+00	7.341023e+06	
59	2.950000e+00	8.674109e+06	
60	3.000000e+00	1.007208e+07	
61	3.050000e+00	1.150961e+07	
62	3.100000e+00	1.296419e+07	
63	3.150000e+00	1.441674e+07	
64	3.200000e+00	1.585182e+07	
65	3.250000e+00	1.725741e+07	
66	3.300000e+00	1.862455e+07	
67	3.350000e+00	1.994688e+07	
68	3.400000e+00	2.122019e+07	
69	3.450000e+00	2.244201e+07	
70	3.500000e+00	2.361122e+07	
71	3.550000e+00	2.472772e+07	
72	3.600000e+00	2.579220e+07	
73	3.650000e+00	2.680591e+07	
74	3.700000e+00	2.777049e+07	
75	3.750000e+00	2.868784e+07	
76	3.800000e+00	2.956003e+07	
77	3.850000e+00	3.038920e+07	
78	3.900000e+00	3.117752e+07	
79	3.950000e+00	3.192716e+07	
80	4.000000e+00	3.264021e+07	
81	4.050000e+00	3.331873e+07	
82	4.100000e+00	3.396468e+07	
83	4.150000e+00	3.457993e+07	
84	4.200000e+00	3.516626e+07	
85	4.250000e+00	3.572535e+07	
86	4.300000e+00	3.625878e+07	
87	4.350000e+00	3.676805e+07	
88	4.400000e+00	3.725457e+07	
89	4.450000e+00	3.771964e+07	
90	4.500000e+00	3.816449e+07	
91	4.550000e+00	3.859029e+07	
92	4.600000e+00	3.899810e+07	
93	4.650000e+00	3.938893e+07	
94	4.700000e+00	3.976374e+07	
95	4.750000e+00	4.012340e+07	
96	4.800000e+00	4.046874e+07	
97	4.850000e+00	4.080052e+07	
98	4.900000e+00	4.111949e+07	
99	4.950000e+00	4.142630e+07	
100	5.000000e+00	4.172159e+07	
101	5.050000e+00	4.200596e+07	
102	5.100000e+00	4.227997e+07	
103	5.150000e+00	4.254413e+07	
104	5.200000e+00	4.279893e+07	
105	5.250000e+00	4.304485e+07	
106	5.300000e+00	4.328230e+07	
107	5.350000e+00	4.351169e+07	
108	5.400000e+00	4.373341e+07	
109	5.450000e+00	4.394781e+07	
110	5.500000e+00	4.415524e+07	
111	5.550000e+00	4.435601e+07	
112	5.600000e+00	4.455042e+07	

Index   v-sweep         rds             
--------------------------------------------------------------------------------
113	5.650000e+00	4.473876e+07	
114	5.700000e+00	4.492130e+07	
115	5.750000e+00	4.509828e+07	
116	5.800000e+00	4.526995e+07	
117	5.850000e+00	4.543653e+07	
118	5.900000e+00	4.559824e+07	
119	5.950000e+00	4.575528e+07	
120	6.000000e+00	4.590784e+07	
121	6.050000e+00	4.605611e+07	
122	6.100000e+00	4.620025e+07	
123	6.150000e+00	4.634043e+07	
124	6.200000e+00	4.647681e+07	
125	6.250000e+00	4.660953e+07	
126	6.300000e+00	4.673873e+07	
127	6.350000e+00	4.686455e+07	
128	6.400000e+00	4.698712e+07	
129	6.450000e+00	4.710655e+07	
130	6.500000e+00	4.722296e+07	
131	6.550000e+00	4.733646e+07	
132	6.600000e+00	4.744715e+07	
Reset re-loads circuit ***************************

Circuit: ***************************

Doing analysis at TEMP = -40.000000 and TNOM = -40.000000


No. of Data Rows : 133
                          ***************************
                          DC transfer characteristic  Mon Jan  9 13:57:42  2023
--------------------------------------------------------------------------------
Index   v-sweep         rds             
--------------------------------------------------------------------------------
0	0.000000e+00	7.124069e+04	
1	5.000000e-02	7.234333e+04	
2	1.000000e-01	7.347765e+04	
3	1.500000e-01	7.464502e+04	
4	2.000000e-01	7.584692e+04	
5	2.500000e-01	7.708491e+04	
6	3.000000e-01	7.836062e+04	
7	3.500000e-01	7.967580e+04	
8	4.000000e-01	8.103233e+04	
9	4.500000e-01	8.243217e+04	
10	5.000000e-01	8.387744e+04	
11	5.500000e-01	8.537038e+04	
12	6.000000e-01	8.691339e+04	
13	6.500000e-01	8.850902e+04	
14	7.000000e-01	9.016003e+04	
15	7.500000e-01	9.186933e+04	
16	8.000000e-01	9.364007e+04	
17	8.500000e-01	9.547563e+04	
18	9.000000e-01	9.737962e+04	
19	9.500000e-01	9.935595e+04	
20	1.000000e+00	1.014088e+05	
21	1.050000e+00	1.035428e+05	
22	1.100000e+00	1.057627e+05	
23	1.150000e+00	1.080739e+05	
24	1.200000e+00	1.104821e+05	
25	1.250000e+00	1.129936e+05	
26	1.300000e+00	1.156151e+05	
27	1.350000e+00	1.183541e+05	
28	1.400000e+00	1.212186e+05	
29	1.450000e+00	1.242175e+05	
30	1.500000e+00	1.273604e+05	
31	1.550000e+00	1.306580e+05	
32	1.600000e+00	1.341221e+05	
33	1.650000e+00	1.377655e+05	
34	1.700000e+00	1.416025e+05	
35	1.750000e+00	1.456491e+05	
36	1.800000e+00	1.499230e+05	
37	1.850000e+00	1.544437e+05	
38	1.900000e+00	1.592334e+05	
39	1.950000e+00	1.643170e+05	
40	2.000000e+00	1.697222e+05	
41	2.050000e+00	1.754808e+05	
42	2.100000e+00	1.816286e+05	
43	2.150000e+00	1.882067e+05	
44	2.200000e+00	1.952618e+05	
45	2.250000e+00	2.028480e+05	
46	2.300000e+00	2.110280e+05	
47	2.350000e+00	2.198744e+05	
48	2.400000e+00	2.294725e+05	
49	2.450000e+00	2.399228e+05	
50	2.500000e+00	2.513445e+05	
51	2.550000e+00	2.638805e+05	
52	2.600000e+00	2.777028e+05	
53	2.650000e+00	2.930211e+05	
54	2.700000e+00	3.100931e+05	

Index   v-sweep         rds             
--------------------------------------------------------------------------------
55	2.750000e+00	3.292392e+05	
56	2.800000e+00	3.508622e+05	
57	2.850000e+00	3.754751e+05	
58	2.900000e+00	4.037401e+05	
59	2.950000e+00	4.365235e+05	
60	3.000000e+00	4.749758e+05	
61	3.050000e+00	5.206454e+05	
62	3.100000e+00	5.756417e+05	
63	3.150000e+00	6.428635e+05	
64	3.200000e+00	7.263044e+05	
65	3.250000e+00	8.314276e+05	
66	3.300000e+00	9.655472e+05	
67	3.350000e+00	1.138064e+06	
68	3.400000e+00	1.360298e+06	
69	3.450000e+00	1.644641e+06	
70	3.500000e+00	2.002984e+06	
71	3.550000e+00	2.444754e+06	
72	3.600000e+00	2.975220e+06	
73	3.650000e+00	3.594659e+06	
74	3.700000e+00	4.298526e+06	
75	3.750000e+00	5.078387e+06	
76	3.800000e+00	5.923199e+06	
77	3.850000e+00	6.820585e+06	
78	3.900000e+00	7.757897e+06	
79	3.950000e+00	8.723000e+06	
80	4.000000e+00	9.704779e+06	
81	4.050000e+00	1.069342e+07	
82	4.100000e+00	1.168051e+07	
83	4.150000e+00	1.265903e+07	
84	4.200000e+00	1.362329e+07	
85	4.250000e+00	1.456878e+07	
86	4.300000e+00	1.549203e+07	
87	4.350000e+00	1.639047e+07	
88	4.400000e+00	1.726229e+07	
89	4.450000e+00	1.810632e+07	
90	4.500000e+00	1.892187e+07	
91	4.550000e+00	1.970869e+07	
92	4.600000e+00	2.046687e+07	
93	4.650000e+00	2.119672e+07	
94	4.700000e+00	2.189879e+07	
95	4.750000e+00	2.257374e+07	
96	4.800000e+00	2.322236e+07	
97	4.850000e+00	2.384551e+07	
98	4.900000e+00	2.444409e+07	
99	4.950000e+00	2.501905e+07	
100	5.000000e+00	2.557132e+07	
101	5.050000e+00	2.610186e+07	
102	5.100000e+00	2.661159e+07	
103	5.150000e+00	2.710144e+07	
104	5.200000e+00	2.757230e+07	
105	5.250000e+00	2.802503e+07	
106	5.300000e+00	2.846046e+07	
107	5.350000e+00	2.887939e+07	
108	5.400000e+00	2.928259e+07	
109	5.450000e+00	2.967080e+07	
110	5.500000e+00	3.004472e+07	
111	5.550000e+00	3.040501e+07	
112	5.600000e+00	3.075231e+07	

Index   v-sweep         rds             
--------------------------------------------------------------------------------
113	5.650000e+00	3.108722e+07	
114	5.700000e+00	3.141032e+07	
115	5.750000e+00	3.172215e+07	
116	5.800000e+00	3.202323e+07	
117	5.850000e+00	3.231404e+07	
118	5.900000e+00	3.259506e+07	
119	5.950000e+00	3.286672e+07	
120	6.000000e+00	3.312944e+07	
121	6.050000e+00	3.338362e+07	
122	6.100000e+00	3.362963e+07	
123	6.150000e+00	3.386782e+07	
124	6.200000e+00	3.409854e+07	
125	6.250000e+00	3.432211e+07	
126	6.300000e+00	3.453882e+07	
127	6.350000e+00	3.474898e+07	
128	6.400000e+00	3.495284e+07	
129	6.450000e+00	3.515067e+07	
130	6.500000e+00	3.534272e+07	
131	6.550000e+00	3.552922e+07	
132	6.600000e+00	3.571039e+07	
Reset re-loads circuit ***************************

Circuit: ***************************

Doing analysis at TEMP = -40.000000 and TNOM = -40.000000


No. of Data Rows : 133
                          ***************************
                          DC transfer characteristic  Mon Jan  9 13:57:42  2023
--------------------------------------------------------------------------------
Index   v-sweep         rds             
--------------------------------------------------------------------------------
0	0.000000e+00	6.400070e+04	
1	5.000000e-02	6.478961e+04	
2	1.000000e-01	6.559625e+04	
3	1.500000e-01	6.642123e+04	
4	2.000000e-01	6.726517e+04	
5	2.500000e-01	6.812875e+04	
6	3.000000e-01	6.901265e+04	
7	3.500000e-01	6.991760e+04	
8	4.000000e-01	7.084436e+04	
9	4.500000e-01	7.179372e+04	
10	5.000000e-01	7.276652e+04	
11	5.500000e-01	7.376365e+04	
12	6.000000e-01	7.478601e+04	
13	6.500000e-01	7.583459e+04	
14	7.000000e-01	7.691041e+04	
15	7.500000e-01	7.801453e+04	
16	8.000000e-01	7.914809e+04	
17	8.500000e-01	8.031228e+04	
18	9.000000e-01	8.150837e+04	
19	9.500000e-01	8.273767e+04	
20	1.000000e+00	8.400158e+04	
21	1.050000e+00	8.530161e+04	
22	1.100000e+00	8.663930e+04	
23	1.150000e+00	8.801632e+04	
24	1.200000e+00	8.943444e+04	
25	1.250000e+00	9.089551e+04	
26	1.300000e+00	9.240153e+04	
27	1.350000e+00	9.395459e+04	
28	1.400000e+00	9.555693e+04	
29	1.450000e+00	9.721094e+04	
30	1.500000e+00	9.891916e+04	
31	1.550000e+00	1.006843e+05	
32	1.600000e+00	1.025092e+05	
33	1.650000e+00	1.043971e+05	
34	1.700000e+00	1.063512e+05	
35	1.750000e+00	1.083750e+05	
36	1.800000e+00	1.104724e+05	
37	1.850000e+00	1.126474e+05	
38	1.900000e+00	1.149045e+05	
39	1.950000e+00	1.172484e+05	
40	2.000000e+00	1.196841e+05	
41	2.050000e+00	1.222173e+05	
42	2.100000e+00	1.248538e+05	
43	2.150000e+00	1.276002e+05	
44	2.200000e+00	1.304635e+05	
45	2.250000e+00	1.334512e+05	
46	2.300000e+00	1.365717e+05	
47	2.350000e+00	1.398341e+05	
48	2.400000e+00	1.432483e+05	
49	2.450000e+00	1.468251e+05	
50	2.500000e+00	1.505765e+05	
51	2.550000e+00	1.545157e+05	
52	2.600000e+00	1.586570e+05	
53	2.650000e+00	1.630166e+05	
54	2.700000e+00	1.676122e+05	

Index   v-sweep         rds             
--------------------------------------------------------------------------------
55	2.750000e+00	1.724636e+05	
56	2.800000e+00	1.775928e+05	
57	2.850000e+00	1.830244e+05	
58	2.900000e+00	1.887863e+05	
59	2.950000e+00	1.949096e+05	
60	3.000000e+00	2.014296e+05	
61	3.050000e+00	2.083863e+05	
62	3.100000e+00	2.158255e+05	
63	3.150000e+00	2.237996e+05	
64	3.200000e+00	2.323689e+05	
65	3.250000e+00	2.416031e+05	
66	3.300000e+00	2.515836e+05	
67	3.350000e+00	2.624055e+05	
68	3.400000e+00	2.741811e+05	
69	3.450000e+00	2.870439e+05	
70	3.500000e+00	3.011533e+05	
71	3.550000e+00	3.167023e+05	
72	3.600000e+00	3.339257e+05	
73	3.650000e+00	3.531123e+05	
74	3.700000e+00	3.746214e+05	
75	3.750000e+00	3.989043e+05	
76	3.800000e+00	4.265347e+05	
77	3.850000e+00	4.582504e+05	
78	3.900000e+00	4.950098e+05	
79	3.950000e+00	5.380712e+05	
80	4.000000e+00	5.890973e+05	
81	4.050000e+00	6.502925e+05	
82	4.100000e+00	7.245700e+05	
83	4.150000e+00	8.157317e+05	
84	4.200000e+00	9.286190e+05	
85	4.250000e+00	1.069152e+06	
86	4.300000e+00	1.244156e+06	
87	4.350000e+00	1.460875e+06	
88	4.400000e+00	1.726203e+06	
89	4.450000e+00	2.045767e+06	
90	4.500000e+00	2.423120e+06	
91	4.550000e+00	2.859292e+06	
92	4.600000e+00	3.352748e+06	
93	4.650000e+00	3.899723e+06	
94	4.700000e+00	4.494760e+06	
95	4.750000e+00	5.131311e+06	
96	4.800000e+00	5.802292e+06	
97	4.850000e+00	6.500532e+06	
98	4.900000e+00	7.219113e+06	
99	4.950000e+00	7.951590e+06	
100	5.000000e+00	8.692134e+06	
101	5.050000e+00	9.435590e+06	
102	5.100000e+00	1.017749e+07	
103	5.150000e+00	1.091405e+07	
104	5.200000e+00	1.164209e+07	
105	5.250000e+00	1.235903e+07	
106	5.300000e+00	1.306278e+07	
107	5.350000e+00	1.375171e+07	
108	5.400000e+00	1.442456e+07	
109	5.450000e+00	1.508045e+07	
110	5.500000e+00	1.571873e+07	
111	5.550000e+00	1.633902e+07	
112	5.600000e+00	1.694113e+07	

Index   v-sweep         rds             
--------------------------------------------------------------------------------
113	5.650000e+00	1.752503e+07	
114	5.700000e+00	1.809083e+07	
115	5.750000e+00	1.863874e+07	
116	5.800000e+00	1.916905e+07	
117	5.850000e+00	1.968213e+07	
118	5.900000e+00	2.017838e+07	
119	5.950000e+00	2.065826e+07	
120	6.000000e+00	2.112223e+07	
121	6.050000e+00	2.157079e+07	
122	6.100000e+00	2.200445e+07	
123	6.150000e+00	2.242371e+07	
124	6.200000e+00	2.282907e+07	
125	6.250000e+00	2.322104e+07	
126	6.300000e+00	2.360011e+07	
127	6.350000e+00	2.396676e+07	
128	6.400000e+00	2.432147e+07	
129	6.450000e+00	2.466470e+07	
130	6.500000e+00	2.499689e+07	
131	6.550000e+00	2.531847e+07	
132	6.600000e+00	2.562986e+07	
Reset re-loads circuit ***************************

Circuit: ***************************

Note: No ".plot", ".print", or ".fourier" lines; no simulations run
