
Note: Compatibility modes selected: hs

Warning: m=xx on .subckt line will override multiplier m hierarchy!


Circuit: ***************************

Doing analysis at TEMP = -40.000000 and TNOM = -40.000000


No. of Data Rows : 133
                          ***************************
                          DC transfer characteristic  Mon Jan  9 13:57:42  2023
--------------------------------------------------------------------------------
Index   v-sweep         rds             
--------------------------------------------------------------------------------
0	0.000000e+00	2.772721e+05	
1	5.000000e-02	3.685188e+05	
2	1.000000e-01	5.438816e+05	
3	1.500000e-01	9.745354e+05	
4	2.000000e-01	2.403542e+06	
5	2.500000e-01	7.383442e+06	
6	3.000000e-01	1.970707e+07	
7	3.500000e-01	3.960903e+07	
8	4.000000e-01	6.251597e+07	
9	4.500000e-01	8.354839e+07	
10	5.000000e-01	1.005216e+08	
11	5.500000e-01	1.134071e+08	
12	6.000000e-01	1.229917e+08	
13	6.500000e-01	1.301309e+08	
14	7.000000e-01	1.355124e+08	
15	7.500000e-01	1.396359e+08	
16	8.000000e-01	1.428522e+08	
17	8.500000e-01	1.454049e+08	
18	9.000000e-01	1.474646e+08	
19	9.500000e-01	1.491521e+08	
20	1.000000e+00	1.505539e+08	
21	1.050000e+00	1.517330e+08	
22	1.100000e+00	1.527363e+08	
23	1.150000e+00	1.535986e+08	
24	1.200000e+00	1.543467e+08	
25	1.250000e+00	1.550012e+08	
26	1.300000e+00	1.555780e+08	
27	1.350000e+00	1.560900e+08	
28	1.400000e+00	1.565473e+08	
29	1.450000e+00	1.569580e+08	
30	1.500000e+00	1.573288e+08	
31	1.550000e+00	1.576652e+08	
32	1.600000e+00	1.579717e+08	
33	1.650000e+00	1.582521e+08	
34	1.700000e+00	1.585096e+08	
35	1.750000e+00	1.587469e+08	
36	1.800000e+00	1.589662e+08	
37	1.850000e+00	1.591695e+08	
38	1.900000e+00	1.593585e+08	
39	1.950000e+00	1.595346e+08	
40	2.000000e+00	1.596992e+08	
41	2.050000e+00	1.598533e+08	
42	2.100000e+00	1.599979e+08	
43	2.150000e+00	1.601338e+08	
44	2.200000e+00	1.602619e+08	
45	2.250000e+00	1.603827e+08	
46	2.300000e+00	1.604969e+08	
47	2.350000e+00	1.606050e+08	
48	2.400000e+00	1.607075e+08	
49	2.450000e+00	1.608048e+08	
50	2.500000e+00	1.608972e+08	
51	2.550000e+00	1.609853e+08	
52	2.600000e+00	1.610691e+08	
53	2.650000e+00	1.611492e+08	
54	2.700000e+00	1.612256e+08	

Index   v-sweep         rds             
--------------------------------------------------------------------------------
55	2.750000e+00	1.612986e+08	
56	2.800000e+00	1.613686e+08	
57	2.850000e+00	1.614355e+08	
58	2.900000e+00	1.614997e+08	
59	2.950000e+00	1.615614e+08	
60	3.000000e+00	1.616205e+08	
61	3.050000e+00	1.616774e+08	
62	3.100000e+00	1.617321e+08	
63	3.150000e+00	1.617848e+08	
64	3.200000e+00	1.618355e+08	
65	3.250000e+00	1.618844e+08	
66	3.300000e+00	1.619316e+08	
67	3.350000e+00	1.619771e+08	
68	3.400000e+00	1.620211e+08	
69	3.450000e+00	1.620636e+08	
70	3.500000e+00	1.621047e+08	
71	3.550000e+00	1.621444e+08	
72	3.600000e+00	1.621829e+08	
73	3.650000e+00	1.622201e+08	
74	3.700000e+00	1.622562e+08	
75	3.750000e+00	1.622912e+08	
76	3.800000e+00	1.623252e+08	
77	3.850000e+00	1.623581e+08	
78	3.900000e+00	1.623900e+08	
79	3.950000e+00	1.624211e+08	
80	4.000000e+00	1.624512e+08	
81	4.050000e+00	1.624805e+08	
82	4.100000e+00	1.625090e+08	
83	4.150000e+00	1.625367e+08	
84	4.200000e+00	1.625637e+08	
85	4.250000e+00	1.625899e+08	
86	4.300000e+00	1.626155e+08	
87	4.350000e+00	1.626404e+08	
88	4.400000e+00	1.626646e+08	
89	4.450000e+00	1.626883e+08	
90	4.500000e+00	1.627113e+08	
91	4.550000e+00	1.627338e+08	
92	4.600000e+00	1.627557e+08	
93	4.650000e+00	1.627771e+08	
94	4.700000e+00	1.627980e+08	
95	4.750000e+00	1.628184e+08	
96	4.800000e+00	1.628383e+08	
97	4.850000e+00	1.628577e+08	
98	4.900000e+00	1.628767e+08	
99	4.950000e+00	1.628953e+08	
100	5.000000e+00	1.629135e+08	
101	5.050000e+00	1.629312e+08	
102	5.100000e+00	1.629486e+08	
103	5.150000e+00	1.629656e+08	
104	5.200000e+00	1.629822e+08	
105	5.250000e+00	1.629985e+08	
106	5.300000e+00	1.630144e+08	
107	5.350000e+00	1.630300e+08	
108	5.400000e+00	1.630453e+08	
109	5.450000e+00	1.630602e+08	
110	5.500000e+00	1.630749e+08	
111	5.550000e+00	1.630893e+08	
112	5.600000e+00	1.631033e+08	

Index   v-sweep         rds             
--------------------------------------------------------------------------------
113	5.650000e+00	1.631172e+08	
114	5.700000e+00	1.631307e+08	
115	5.750000e+00	1.631440e+08	
116	5.800000e+00	1.631570e+08	
117	5.850000e+00	1.631697e+08	
118	5.900000e+00	1.631823e+08	
119	5.950000e+00	1.631946e+08	
120	6.000000e+00	1.632066e+08	
121	6.050000e+00	1.632185e+08	
122	6.100000e+00	1.632301e+08	
123	6.150000e+00	1.632415e+08	
124	6.200000e+00	1.632527e+08	
125	6.250000e+00	1.632638e+08	
126	6.300000e+00	1.632746e+08	
127	6.350000e+00	1.632852e+08	
128	6.400000e+00	1.632957e+08	
129	6.450000e+00	1.633059e+08	
130	6.500000e+00	1.633160e+08	
131	6.550000e+00	1.633260e+08	
132	6.600000e+00	1.633357e+08	
Reset re-loads circuit ***************************

Circuit: ***************************

Doing analysis at TEMP = -40.000000 and TNOM = -40.000000


No. of Data Rows : 133
                          ***************************
                          DC transfer characteristic  Mon Jan  9 13:57:42  2023
--------------------------------------------------------------------------------
Index   v-sweep         rds             
--------------------------------------------------------------------------------
0	0.000000e+00	5.553347e+04	
1	5.000000e-02	5.866014e+04	
2	1.000000e-01	6.214939e+04	
3	1.500000e-01	6.606809e+04	
4	2.000000e-01	7.050061e+04	
5	2.500000e-01	7.555491e+04	
6	3.000000e-01	8.137134e+04	
7	3.500000e-01	8.813576e+04	
8	4.000000e-01	9.609943e+04	
9	4.500000e-01	1.056102e+05	
10	5.000000e-01	1.171631e+05	
11	5.500000e-01	1.314858e+05	
12	6.000000e-01	1.496885e+05	
13	6.500000e-01	1.735413e+05	
14	7.000000e-01	2.060107e+05	
15	7.500000e-01	2.523513e+05	
16	8.000000e-01	3.223925e+05	
17	8.500000e-01	4.352594e+05	
18	9.000000e-01	6.279657e+05	
19	9.500000e-01	9.657956e+05	
20	1.000000e+00	1.541214e+06	
21	1.050000e+00	2.443773e+06	
22	1.100000e+00	3.712734e+06	
23	1.150000e+00	5.312457e+06	
24	1.200000e+00	7.147918e+06	
25	1.250000e+00	9.101529e+06	
26	1.300000e+00	1.106584e+07	
27	1.350000e+00	1.296056e+07	
28	1.400000e+00	1.473540e+07	
29	1.450000e+00	1.636514e+07	
30	1.500000e+00	1.784233e+07	
31	1.550000e+00	1.917066e+07	
32	1.600000e+00	2.035998e+07	
33	1.650000e+00	2.142294e+07	
34	1.700000e+00	2.237294e+07	
35	1.750000e+00	2.322300e+07	
36	1.800000e+00	2.398513e+07	
37	1.850000e+00	2.467016e+07	
38	1.900000e+00	2.528761e+07	
39	1.950000e+00	2.584582e+07	
40	2.000000e+00	2.635203e+07	
41	2.050000e+00	2.681249e+07	
42	2.100000e+00	2.723261e+07	
43	2.150000e+00	2.761706e+07	
44	2.200000e+00	2.796987e+07	
45	2.250000e+00	2.829456e+07	
46	2.300000e+00	2.859415e+07	
47	2.350000e+00	2.887129e+07	
48	2.400000e+00	2.912828e+07	
49	2.450000e+00	2.936715e+07	
50	2.500000e+00	2.958965e+07	
51	2.550000e+00	2.979734e+07	
52	2.600000e+00	2.999161e+07	
53	2.650000e+00	3.017366e+07	
54	2.700000e+00	3.034457e+07	

Index   v-sweep         rds             
--------------------------------------------------------------------------------
55	2.750000e+00	3.050531e+07	
56	2.800000e+00	3.065672e+07	
57	2.850000e+00	3.079958e+07	
58	2.900000e+00	3.093456e+07	
59	2.950000e+00	3.106229e+07	
60	3.000000e+00	3.118333e+07	
61	3.050000e+00	3.129816e+07	
62	3.100000e+00	3.140726e+07	
63	3.150000e+00	3.151102e+07	
64	3.200000e+00	3.160982e+07	
65	3.250000e+00	3.170401e+07	
66	3.300000e+00	3.179388e+07	
67	3.350000e+00	3.187974e+07	
68	3.400000e+00	3.196183e+07	
69	3.450000e+00	3.204039e+07	
70	3.500000e+00	3.211565e+07	
71	3.550000e+00	3.218781e+07	
72	3.600000e+00	3.225704e+07	
73	3.650000e+00	3.232352e+07	
74	3.700000e+00	3.238742e+07	
75	3.750000e+00	3.244887e+07	
76	3.800000e+00	3.250802e+07	
77	3.850000e+00	3.256498e+07	
78	3.900000e+00	3.261988e+07	
79	3.950000e+00	3.267282e+07	
80	4.000000e+00	3.272391e+07	
81	4.050000e+00	3.277324e+07	
82	4.100000e+00	3.282089e+07	
83	4.150000e+00	3.286696e+07	
84	4.200000e+00	3.291152e+07	
85	4.250000e+00	3.295464e+07	
86	4.300000e+00	3.299639e+07	
87	4.350000e+00	3.303683e+07	
88	4.400000e+00	3.307603e+07	
89	4.450000e+00	3.311403e+07	
90	4.500000e+00	3.315090e+07	
91	4.550000e+00	3.318667e+07	
92	4.600000e+00	3.322141e+07	
93	4.650000e+00	3.325515e+07	
94	4.700000e+00	3.328794e+07	
95	4.750000e+00	3.331981e+07	
96	4.800000e+00	3.335080e+07	
97	4.850000e+00	3.338096e+07	
98	4.900000e+00	3.341030e+07	
99	4.950000e+00	3.343887e+07	
100	5.000000e+00	3.346669e+07	
101	5.050000e+00	3.349379e+07	
102	5.100000e+00	3.352020e+07	
103	5.150000e+00	3.354595e+07	
104	5.200000e+00	3.357105e+07	
105	5.250000e+00	3.359554e+07	
106	5.300000e+00	3.361944e+07	
107	5.350000e+00	3.364276e+07	
108	5.400000e+00	3.366553e+07	
109	5.450000e+00	3.368777e+07	
110	5.500000e+00	3.370949e+07	
111	5.550000e+00	3.373071e+07	
112	5.600000e+00	3.375146e+07	

Index   v-sweep         rds             
--------------------------------------------------------------------------------
113	5.650000e+00	3.377173e+07	
114	5.700000e+00	3.379156e+07	
115	5.750000e+00	3.381095e+07	
116	5.800000e+00	3.382993e+07	
117	5.850000e+00	3.384849e+07	
118	5.900000e+00	3.386666e+07	
119	5.950000e+00	3.388445e+07	
120	6.000000e+00	3.390187e+07	
121	6.050000e+00	3.391893e+07	
122	6.100000e+00	3.393564e+07	
123	6.150000e+00	3.395201e+07	
124	6.200000e+00	3.396806e+07	
125	6.250000e+00	3.398379e+07	
126	6.300000e+00	3.399921e+07	
127	6.350000e+00	3.401433e+07	
128	6.400000e+00	3.402916e+07	
129	6.450000e+00	3.404371e+07	
130	6.500000e+00	3.405798e+07	
131	6.550000e+00	3.407198e+07	
132	6.600000e+00	3.408573e+07	
Reset re-loads circuit ***************************

Circuit: ***************************

Doing analysis at TEMP = -40.000000 and TNOM = -40.000000


No. of Data Rows : 133
                          ***************************
                          DC transfer characteristic  Mon Jan  9 13:57:42  2023
--------------------------------------------------------------------------------
Index   v-sweep         rds             
--------------------------------------------------------------------------------
0	0.000000e+00	3.292476e+04	
1	5.000000e-02	3.393764e+04	
2	1.000000e-01	3.501150e+04	
3	1.500000e-01	3.615202e+04	
4	2.000000e-01	3.736560e+04	
5	2.500000e-01	3.865950e+04	
6	3.000000e-01	4.004195e+04	
7	3.500000e-01	4.152236e+04	
8	4.000000e-01	4.311154e+04	
9	4.500000e-01	4.482192e+04	
10	5.000000e-01	4.666791e+04	
11	5.500000e-01	4.866630e+04	
12	6.000000e-01	5.083677e+04	
13	6.500000e-01	5.320254e+04	
14	7.000000e-01	5.579119e+04	
15	7.500000e-01	5.863578e+04	
16	8.000000e-01	6.177618e+04	
17	8.500000e-01	6.526103e+04	
18	9.000000e-01	6.915023e+04	
19	9.500000e-01	7.351834e+04	
20	1.000000e+00	7.845942e+04	
21	1.050000e+00	8.409371e+04	
22	1.100000e+00	9.057739e+04	
23	1.150000e+00	9.811683e+04	
24	1.200000e+00	1.069901e+05	
25	1.250000e+00	1.175803e+05	
26	1.300000e+00	1.304278e+05	
27	1.350000e+00	1.463163e+05	
28	1.400000e+00	1.664150e+05	
29	1.450000e+00	1.925204e+05	
30	1.500000e+00	2.274679e+05	
31	1.550000e+00	2.758161e+05	
32	1.600000e+00	3.448912e+05	
33	1.650000e+00	4.460812e+05	
34	1.700000e+00	5.956656e+05	
35	1.750000e+00	8.136787e+05	
36	1.800000e+00	1.119638e+06	
37	1.850000e+00	1.526413e+06	
38	1.900000e+00	2.035755e+06	
39	1.950000e+00	2.637885e+06	
40	2.000000e+00	3.314561e+06	
41	2.050000e+00	4.043475e+06	
42	2.100000e+00	4.802141e+06	
43	2.150000e+00	5.570506e+06	
44	2.200000e+00	6.332220e+06	
45	2.250000e+00	7.074931e+06	
46	2.300000e+00	7.789984e+06	
47	2.350000e+00	8.471828e+06	
48	2.400000e+00	9.117364e+06	
49	2.450000e+00	9.725324e+06	
50	2.500000e+00	1.029576e+07	
51	2.550000e+00	1.082960e+07	
52	2.600000e+00	1.132838e+07	
53	2.650000e+00	1.179396e+07	
54	2.700000e+00	1.222837e+07	

Index   v-sweep         rds             
--------------------------------------------------------------------------------
55	2.750000e+00	1.263372e+07	
56	2.800000e+00	1.301208e+07	
57	2.850000e+00	1.336546e+07	
58	2.900000e+00	1.369578e+07	
59	2.950000e+00	1.400482e+07	
60	3.000000e+00	1.429426e+07	
61	3.050000e+00	1.456563e+07	
62	3.100000e+00	1.482036e+07	
63	3.150000e+00	1.505974e+07	
64	3.200000e+00	1.528498e+07	
65	3.250000e+00	1.549715e+07	
66	3.300000e+00	1.569726e+07	
67	3.350000e+00	1.588621e+07	
68	3.400000e+00	1.606484e+07	
69	3.450000e+00	1.623390e+07	
70	3.500000e+00	1.639408e+07	
71	3.550000e+00	1.654601e+07	
72	3.600000e+00	1.669027e+07	
73	3.650000e+00	1.682740e+07	
74	3.700000e+00	1.695787e+07	
75	3.750000e+00	1.708214e+07	
76	3.800000e+00	1.720060e+07	
77	3.850000e+00	1.731364e+07	
78	3.900000e+00	1.742160e+07	
79	3.950000e+00	1.752480e+07	
80	4.000000e+00	1.762353e+07	
81	4.050000e+00	1.771807e+07	
82	4.100000e+00	1.780866e+07	
83	4.150000e+00	1.789553e+07	
84	4.200000e+00	1.797891e+07	
85	4.250000e+00	1.805898e+07	
86	4.300000e+00	1.813594e+07	
87	4.350000e+00	1.820995e+07	
88	4.400000e+00	1.828119e+07	
89	4.450000e+00	1.834978e+07	
90	4.500000e+00	1.841588e+07	
91	4.550000e+00	1.847961e+07	
92	4.600000e+00	1.854110e+07	
93	4.650000e+00	1.860045e+07	
94	4.700000e+00	1.865778e+07	
95	4.750000e+00	1.871318e+07	
96	4.800000e+00	1.876674e+07	
97	4.850000e+00	1.881856e+07	
98	4.900000e+00	1.886871e+07	
99	4.950000e+00	1.891727e+07	
100	5.000000e+00	1.896432e+07	
101	5.050000e+00	1.900992e+07	
102	5.100000e+00	1.905413e+07	
103	5.150000e+00	1.909702e+07	
104	5.200000e+00	1.913864e+07	
105	5.250000e+00	1.917905e+07	
106	5.300000e+00	1.921830e+07	
107	5.350000e+00	1.925644e+07	
108	5.400000e+00	1.929351e+07	
109	5.450000e+00	1.932956e+07	
110	5.500000e+00	1.936462e+07	
111	5.550000e+00	1.939874e+07	
112	5.600000e+00	1.943196e+07	

Index   v-sweep         rds             
--------------------------------------------------------------------------------
113	5.650000e+00	1.946430e+07	
114	5.700000e+00	1.949580e+07	
115	5.750000e+00	1.952649e+07	
116	5.800000e+00	1.955641e+07	
117	5.850000e+00	1.958558e+07	
118	5.900000e+00	1.961403e+07	
119	5.950000e+00	1.964178e+07	
120	6.000000e+00	1.966886e+07	
121	6.050000e+00	1.969529e+07	
122	6.100000e+00	1.972110e+07	
123	6.150000e+00	1.974631e+07	
124	6.200000e+00	1.977094e+07	
125	6.250000e+00	1.979500e+07	
126	6.300000e+00	1.981852e+07	
127	6.350000e+00	1.984151e+07	
128	6.400000e+00	1.986399e+07	
129	6.450000e+00	1.988598e+07	
130	6.500000e+00	1.990750e+07	
131	6.550000e+00	1.992855e+07	
132	6.600000e+00	1.994916e+07	
Reset re-loads circuit ***************************

Circuit: ***************************

Doing analysis at TEMP = -40.000000 and TNOM = -40.000000


No. of Data Rows : 133
                          ***************************
                          DC transfer characteristic  Mon Jan  9 13:57:42  2023
--------------------------------------------------------------------------------
Index   v-sweep         rds             
--------------------------------------------------------------------------------
0	0.000000e+00	2.480313e+04	
1	5.000000e-02	2.532574e+04	
2	1.000000e-01	2.586921e+04	
3	1.500000e-01	2.643482e+04	
4	2.000000e-01	2.702396e+04	
5	2.500000e-01	2.763812e+04	
6	3.000000e-01	2.827892e+04	
7	3.500000e-01	2.894815e+04	
8	4.000000e-01	2.964773e+04	
9	4.500000e-01	3.037978e+04	
10	5.000000e-01	3.114661e+04	
11	5.500000e-01	3.195076e+04	
12	6.000000e-01	3.279501e+04	
13	6.500000e-01	3.368246e+04	
14	7.000000e-01	3.461650e+04	
15	7.500000e-01	3.560089e+04	
16	8.000000e-01	3.663982e+04	
17	8.500000e-01	3.773796e+04	
18	9.000000e-01	3.890052e+04	
19	9.500000e-01	4.013333e+04	
20	1.000000e+00	4.144297e+04	
21	1.050000e+00	4.283685e+04	
22	1.100000e+00	4.432337e+04	
23	1.150000e+00	4.591210e+04	
24	1.200000e+00	4.761395e+04	
25	1.250000e+00	4.944146e+04	
26	1.300000e+00	5.140910e+04	
27	1.350000e+00	5.353364e+04	
28	1.400000e+00	5.583464e+04	
29	1.450000e+00	5.833506e+04	
30	1.500000e+00	6.106204e+04	
31	1.550000e+00	6.404785e+04	
32	1.600000e+00	6.733122e+04	
33	1.650000e+00	7.095901e+04	
34	1.700000e+00	7.498844e+04	
35	1.750000e+00	7.949015e+04	
36	1.800000e+00	8.455228e+04	
37	1.850000e+00	9.028626e+04	
38	1.900000e+00	9.683488e+04	
39	1.950000e+00	1.043839e+05	
40	2.000000e+00	1.131791e+05	
41	2.050000e+00	1.235515e+05	
42	2.100000e+00	1.359552e+05	
43	2.150000e+00	1.510265e+05	
44	2.200000e+00	1.696725e+05	
45	2.250000e+00	1.932089e+05	
46	2.300000e+00	2.235625e+05	
47	2.350000e+00	2.635502e+05	
48	2.400000e+00	3.172071e+05	
49	2.450000e+00	3.900411e+05	
50	2.500000e+00	4.889617e+05	
51	2.550000e+00	6.215859e+05	
52	2.600000e+00	7.948769e+05	
53	2.650000e+00	1.013556e+06	
54	2.700000e+00	1.278996e+06	

Index   v-sweep         rds             
--------------------------------------------------------------------------------
55	2.750000e+00	1.589021e+06	
56	2.800000e+00	1.938522e+06	
57	2.850000e+00	2.320487e+06	
58	2.900000e+00	2.727051e+06	
59	2.950000e+00	3.150356e+06	
60	3.000000e+00	3.583129e+06	
61	3.050000e+00	4.019019e+06	
62	3.100000e+00	4.452728e+06	
63	3.150000e+00	4.880014e+06	
64	3.200000e+00	5.297614e+06	
65	3.250000e+00	5.703123e+06	
66	3.300000e+00	6.094862e+06	
67	3.350000e+00	6.471746e+06	
68	3.400000e+00	6.833163e+06	
69	3.450000e+00	7.178874e+06	
70	3.500000e+00	7.508920e+06	
71	3.550000e+00	7.823551e+06	
72	3.600000e+00	8.123169e+06	
73	3.650000e+00	8.408282e+06	
74	3.700000e+00	8.679466e+06	
75	3.750000e+00	8.937339e+06	
76	3.800000e+00	9.182539e+06	
77	3.850000e+00	9.415711e+06	
78	3.900000e+00	9.637489e+06	
79	3.950000e+00	9.848495e+06	
80	4.000000e+00	1.004933e+07	
81	4.050000e+00	1.024057e+07	
82	4.100000e+00	1.042277e+07	
83	4.150000e+00	1.059644e+07	
84	4.200000e+00	1.076208e+07	
85	4.250000e+00	1.092016e+07	
86	4.300000e+00	1.107111e+07	
87	4.350000e+00	1.121534e+07	
88	4.400000e+00	1.135324e+07	
89	4.450000e+00	1.148518e+07	
90	4.500000e+00	1.161148e+07	
91	4.550000e+00	1.173248e+07	
92	4.600000e+00	1.184845e+07	
93	4.650000e+00	1.195969e+07	
94	4.700000e+00	1.206645e+07	
95	4.750000e+00	1.216897e+07	
96	4.800000e+00	1.226748e+07	
97	4.850000e+00	1.236219e+07	
98	4.900000e+00	1.245331e+07	
99	4.950000e+00	1.254102e+07	
100	5.000000e+00	1.262549e+07	
101	5.050000e+00	1.270689e+07	
102	5.100000e+00	1.278537e+07	
103	5.150000e+00	1.286108e+07	
104	5.200000e+00	1.293416e+07	
105	5.250000e+00	1.300472e+07	
106	5.300000e+00	1.307290e+07	
107	5.350000e+00	1.313880e+07	
108	5.400000e+00	1.320253e+07	
109	5.450000e+00	1.326419e+07	
110	5.500000e+00	1.332387e+07	
111	5.550000e+00	1.338167e+07	
112	5.600000e+00	1.343766e+07	

Index   v-sweep         rds             
--------------------------------------------------------------------------------
113	5.650000e+00	1.349193e+07	
114	5.700000e+00	1.354455e+07	
115	5.750000e+00	1.359560e+07	
116	5.800000e+00	1.364513e+07	
117	5.850000e+00	1.369322e+07	
118	5.900000e+00	1.373992e+07	
119	5.950000e+00	1.378528e+07	
120	6.000000e+00	1.382937e+07	
121	6.050000e+00	1.387224e+07	
122	6.100000e+00	1.391393e+07	
123	6.150000e+00	1.395449e+07	
124	6.200000e+00	1.399396e+07	
125	6.250000e+00	1.403238e+07	
126	6.300000e+00	1.406980e+07	
127	6.350000e+00	1.410626e+07	
128	6.400000e+00	1.414178e+07	
129	6.450000e+00	1.417640e+07	
130	6.500000e+00	1.421016e+07	
131	6.550000e+00	1.424308e+07	
132	6.600000e+00	1.427520e+07	
Reset re-loads circuit ***************************

Circuit: ***************************

Doing analysis at TEMP = -40.000000 and TNOM = -40.000000


No. of Data Rows : 133
                          ***************************
                          DC transfer characteristic  Mon Jan  9 13:57:42  2023
--------------------------------------------------------------------------------
Index   v-sweep         rds             
--------------------------------------------------------------------------------
0	0.000000e+00	2.091065e+04	
1	5.000000e-02	2.124299e+04	
2	1.000000e-01	2.158511e+04	
3	1.500000e-01	2.193743e+04	
4	2.000000e-01	2.230044e+04	
5	2.500000e-01	2.267460e+04	
6	3.000000e-01	2.306046e+04	
7	3.500000e-01	2.345856e+04	
8	4.000000e-01	2.386949e+04	
9	4.500000e-01	2.429390e+04	
10	5.000000e-01	2.473244e+04	
11	5.500000e-01	2.518584e+04	
12	6.000000e-01	2.565487e+04	
13	6.500000e-01	2.614035e+04	
14	7.000000e-01	2.664315e+04	
15	7.500000e-01	2.716423e+04	
16	8.000000e-01	2.770459e+04	
17	8.500000e-01	2.826533e+04	
18	9.000000e-01	2.884762e+04	
19	9.500000e-01	2.945273e+04	
20	1.000000e+00	3.008202e+04	
21	1.050000e+00	3.073698e+04	
22	1.100000e+00	3.141921e+04	
23	1.150000e+00	3.213045e+04	
24	1.200000e+00	3.287259e+04	
25	1.250000e+00	3.364768e+04	
26	1.300000e+00	3.445798e+04	
27	1.350000e+00	3.530594e+04	
28	1.400000e+00	3.619425e+04	
29	1.450000e+00	3.712586e+04	
30	1.500000e+00	3.810402e+04	
31	1.550000e+00	3.913231e+04	
32	1.600000e+00	4.021469e+04	
33	1.650000e+00	4.135554e+04	
34	1.700000e+00	4.255975e+04	
35	1.750000e+00	4.383275e+04	
36	1.800000e+00	4.518062e+04	
37	1.850000e+00	4.661017e+04	
38	1.900000e+00	4.812908e+04	
39	1.950000e+00	4.974602e+04	
40	2.000000e+00	5.147081e+04	
41	2.050000e+00	5.331465e+04	
42	2.100000e+00	5.529034e+04	
43	2.150000e+00	5.741260e+04	
44	2.200000e+00	5.969843e+04	
45	2.250000e+00	6.216758e+04	
46	2.300000e+00	6.484311e+04	
47	2.350000e+00	6.775216e+04	
48	2.400000e+00	7.092685e+04	
49	2.450000e+00	7.440550e+04	
50	2.500000e+00	7.823421e+04	
51	2.550000e+00	8.246893e+04	
52	2.600000e+00	8.717820e+04	
53	2.650000e+00	9.244692e+04	
54	2.700000e+00	9.838145e+04	

Index   v-sweep         rds             
--------------------------------------------------------------------------------
55	2.750000e+00	1.051167e+05	
56	2.800000e+00	1.128261e+05	
57	2.850000e+00	1.217356e+05	
58	2.900000e+00	1.321445e+05	
59	2.950000e+00	1.444542e+05	
60	3.000000e+00	1.592111e+05	
61	3.050000e+00	1.771663e+05	
62	3.100000e+00	1.993595e+05	
63	3.150000e+00	2.272254e+05	
64	3.200000e+00	2.627146e+05	
65	3.250000e+00	3.083936e+05	
66	3.300000e+00	3.674555e+05	
67	3.350000e+00	4.435535e+05	
68	3.400000e+00	5.404027e+05	
69	3.450000e+00	6.612085e+05	
70	3.500000e+00	8.080994e+05	
71	3.550000e+00	9.817666e+05	
72	3.600000e+00	1.181409e+06	
73	3.650000e+00	1.404941e+06	
74	3.700000e+00	1.649355e+06	
75	3.750000e+00	1.911102e+06	
76	3.800000e+00	2.186440e+06	
77	3.850000e+00	2.471691e+06	
78	3.900000e+00	2.763423e+06	
79	3.950000e+00	3.058558e+06	
80	4.000000e+00	3.354416e+06	
81	4.050000e+00	3.648735e+06	
82	4.100000e+00	3.939647e+06	
83	4.150000e+00	4.225650e+06	
84	4.200000e+00	4.505568e+06	
85	4.250000e+00	4.778509e+06	
86	4.300000e+00	5.043825e+06	
87	4.350000e+00	5.301067e+06	
88	4.400000e+00	5.549956e+06	
89	4.450000e+00	5.790350e+06	
90	4.500000e+00	6.022216e+06	
91	4.550000e+00	6.245608e+06	
92	4.600000e+00	6.460647e+06	
93	4.650000e+00	6.667506e+06	
94	4.700000e+00	6.866397e+06	
95	4.750000e+00	7.057559e+06	
96	4.800000e+00	7.241251e+06	
97	4.850000e+00	7.417741e+06	
98	4.900000e+00	7.587308e+06	
99	4.950000e+00	7.750230e+06	
100	5.000000e+00	7.906785e+06	
101	5.050000e+00	8.057245e+06	
102	5.100000e+00	8.201879e+06	
103	5.150000e+00	8.340947e+06	
104	5.200000e+00	8.474701e+06	
105	5.250000e+00	8.603383e+06	
106	5.300000e+00	8.727227e+06	
107	5.350000e+00	8.846456e+06	
108	5.400000e+00	8.961285e+06	
109	5.450000e+00	9.071917e+06	
110	5.500000e+00	9.178547e+06	
111	5.550000e+00	9.281360e+06	
112	5.600000e+00	9.380532e+06	

Index   v-sweep         rds             
--------------------------------------------------------------------------------
113	5.650000e+00	9.476230e+06	
114	5.700000e+00	9.568613e+06	
115	5.750000e+00	9.657832e+06	
116	5.800000e+00	9.744029e+06	
117	5.850000e+00	9.827342e+06	
118	5.900000e+00	9.907897e+06	
119	5.950000e+00	9.985818e+06	
120	6.000000e+00	1.006122e+07	
121	6.050000e+00	1.013421e+07	
122	6.100000e+00	1.020490e+07	
123	6.150000e+00	1.027339e+07	
124	6.200000e+00	1.033976e+07	
125	6.250000e+00	1.040410e+07	
126	6.300000e+00	1.046651e+07	
127	6.350000e+00	1.052706e+07	
128	6.400000e+00	1.058583e+07	
129	6.450000e+00	1.064289e+07	
130	6.500000e+00	1.069831e+07	
131	6.550000e+00	1.075215e+07	
132	6.600000e+00	1.080448e+07	
Reset re-loads circuit ***************************

Circuit: ***************************

Doing analysis at TEMP = -40.000000 and TNOM = -40.000000


No. of Data Rows : 133
                          ***************************
                          DC transfer characteristic  Mon Jan  9 13:57:42  2023
--------------------------------------------------------------------------------
Index   v-sweep         rds             
--------------------------------------------------------------------------------
0	0.000000e+00	1.882337e+04	
1	5.000000e-02	1.906114e+04	
2	1.000000e-01	1.930436e+04	
3	1.500000e-01	1.955323e+04	
4	2.000000e-01	1.980793e+04	
5	2.500000e-01	2.006870e+04	
6	3.000000e-01	2.033573e+04	
7	3.500000e-01	2.060925e+04	
8	4.000000e-01	2.088952e+04	
9	4.500000e-01	2.117677e+04	
10	5.000000e-01	2.147128e+04	
11	5.500000e-01	2.177332e+04	
12	6.000000e-01	2.208318e+04	
13	6.500000e-01	2.240118e+04	
14	7.000000e-01	2.272763e+04	
15	7.500000e-01	2.306288e+04	
16	8.000000e-01	2.340728e+04	
17	8.500000e-01	2.376123e+04	
18	9.000000e-01	2.412511e+04	
19	9.500000e-01	2.449936e+04	
20	1.000000e+00	2.488442e+04	
21	1.050000e+00	2.528077e+04	
22	1.100000e+00	2.568890e+04	
23	1.150000e+00	2.610937e+04	
24	1.200000e+00	2.654272e+04	
25	1.250000e+00	2.698957e+04	
26	1.300000e+00	2.745056e+04	
27	1.350000e+00	2.792636e+04	
28	1.400000e+00	2.841770e+04	
29	1.450000e+00	2.892536e+04	
30	1.500000e+00	2.945015e+04	
31	1.550000e+00	2.999298e+04	
32	1.600000e+00	3.055477e+04	
33	1.650000e+00	3.113655e+04	
34	1.700000e+00	3.173939e+04	
35	1.750000e+00	3.236447e+04	
36	1.800000e+00	3.301303e+04	
37	1.850000e+00	3.368644e+04	
38	1.900000e+00	3.438613e+04	
39	1.950000e+00	3.511370e+04	
40	2.000000e+00	3.587082e+04	
41	2.050000e+00	3.665936e+04	
42	2.100000e+00	3.748130e+04	
43	2.150000e+00	3.833882e+04	
44	2.200000e+00	3.923428e+04	
45	2.250000e+00	4.017026e+04	
46	2.300000e+00	4.114958e+04	
47	2.350000e+00	4.217533e+04	
48	2.400000e+00	4.325089e+04	
49	2.450000e+00	4.438001e+04	
50	2.500000e+00	4.556678e+04	
51	2.550000e+00	4.681575e+04	
52	2.600000e+00	4.813197e+04	
53	2.650000e+00	4.952102e+04	
54	2.700000e+00	5.098917e+04	

Index   v-sweep         rds             
--------------------------------------------------------------------------------
55	2.750000e+00	5.254339e+04	
56	2.800000e+00	5.419151e+04	
57	2.850000e+00	5.594236e+04	
58	2.900000e+00	5.780591e+04	
59	2.950000e+00	5.979347e+04	
60	3.000000e+00	6.191795e+04	
61	3.050000e+00	6.419409e+04	
62	3.100000e+00	6.663890e+04	
63	3.150000e+00	6.927201e+04	
64	3.200000e+00	7.211628e+04	
65	3.250000e+00	7.519845e+04	
66	3.300000e+00	7.855004e+04	
67	3.350000e+00	8.220846e+04	
68	3.400000e+00	8.621843e+04	
69	3.450000e+00	9.063391e+04	
70	3.500000e+00	9.552058e+04	
71	3.550000e+00	1.009592e+05	
72	3.600000e+00	1.070499e+05	
73	3.650000e+00	1.139188e+05	
74	3.700000e+00	1.217259e+05	
75	3.750000e+00	1.306770e+05	
76	3.800000e+00	1.410396e+05	
77	3.850000e+00	1.531653e+05	
78	3.900000e+00	1.675198e+05	
79	3.950000e+00	1.847229e+05	
80	4.000000e+00	2.055974e+05	
81	4.050000e+00	2.312251e+05	
82	4.100000e+00	2.629963e+05	
83	4.150000e+00	3.026312e+05	
84	4.200000e+00	3.521417e+05	
85	4.250000e+00	4.137025e+05	
86	4.300000e+00	4.894287e+05	
87	4.350000e+00	5.811018e+05	
88	4.400000e+00	6.899171e+05	
89	4.450000e+00	8.163281e+05	
90	4.500000e+00	9.600185e+05	
91	4.550000e+00	1.119987e+06	
92	4.600000e+00	1.294703e+06	
93	4.650000e+00	1.482281e+06	
94	4.700000e+00	1.680649e+06	
95	4.750000e+00	1.887687e+06	
96	4.800000e+00	2.101329e+06	
97	4.850000e+00	2.319636e+06	
98	4.900000e+00	2.540842e+06	
99	4.950000e+00	2.763370e+06	
100	5.000000e+00	2.985850e+06	
101	5.050000e+00	3.207103e+06	
102	5.100000e+00	3.426142e+06	
103	5.150000e+00	3.642149e+06	
104	5.200000e+00	3.854459e+06	
105	5.250000e+00	4.062546e+06	
106	5.300000e+00	4.266002e+06	
107	5.350000e+00	4.464524e+06	
108	5.400000e+00	4.657895e+06	
109	5.450000e+00	4.845971e+06	
110	5.500000e+00	5.028674e+06	
111	5.550000e+00	5.205974e+06	
112	5.600000e+00	5.377884e+06	

Index   v-sweep         rds             
--------------------------------------------------------------------------------
113	5.650000e+00	5.544452e+06	
114	5.700000e+00	5.705754e+06	
115	5.750000e+00	5.861886e+06	
116	5.800000e+00	6.012961e+06	
117	5.850000e+00	6.159105e+06	
118	5.900000e+00	6.300455e+06	
119	5.950000e+00	6.437152e+06	
120	6.000000e+00	6.569342e+06	
121	6.050000e+00	6.697173e+06	
122	6.100000e+00	6.820794e+06	
123	6.150000e+00	6.940352e+06	
124	6.200000e+00	7.055995e+06	
125	6.250000e+00	7.167866e+06	
126	6.300000e+00	7.276106e+06	
127	6.350000e+00	7.380852e+06	
128	6.400000e+00	7.482239e+06	
129	6.450000e+00	7.580395e+06	
130	6.500000e+00	7.675446e+06	
131	6.550000e+00	7.767513e+06	
132	6.600000e+00	7.856711e+06	
Reset re-loads circuit ***************************

Circuit: ***************************

Note: No ".plot", ".print", or ".fourier" lines; no simulations run
