
Note: Compatibility modes selected: hs

Warning: m=xx on .subckt line will override multiplier m hierarchy!


Circuit: ***************************

Doing analysis at TEMP = 25.000000 and TNOM = 25.000000


No. of Data Rows : 133
                          ***************************
                          DC transfer characteristic  Mon Jan  9 13:57:41  2023
--------------------------------------------------------------------------------
Index   v-sweep         rds             
--------------------------------------------------------------------------------
0	0.000000e+00	2.977643e+03	
1	5.000000e-02	3.959353e+03	
2	1.000000e-01	5.785475e+03	
3	1.500000e-01	9.940142e+03	
4	2.000000e-01	2.094640e+04	
5	2.500000e-01	4.341565e+04	
6	3.000000e-01	7.044889e+04	
7	3.500000e-01	9.535996e+04	
8	4.000000e-01	1.176291e+05	
9	4.500000e-01	1.379908e+05	
10	5.000000e-01	1.569778e+05	
11	5.500000e-01	1.748992e+05	
12	6.000000e-01	1.919383e+05	
13	6.500000e-01	2.082121e+05	
14	7.000000e-01	2.238013e+05	
15	7.500000e-01	2.387660e+05	
16	8.000000e-01	2.531534e+05	
17	8.500000e-01	2.670027e+05	
18	9.000000e-01	2.803472e+05	
19	9.500000e-01	2.932162e+05	
20	1.000000e+00	3.056359e+05	
21	1.050000e+00	3.176298e+05	
22	1.100000e+00	3.292197e+05	
23	1.150000e+00	3.404255e+05	
24	1.200000e+00	3.512656e+05	
25	1.250000e+00	3.617573e+05	
26	1.300000e+00	3.719166e+05	
27	1.350000e+00	3.817586e+05	
28	1.400000e+00	3.912973e+05	
29	1.450000e+00	4.005460e+05	
30	1.500000e+00	4.095171e+05	
31	1.550000e+00	4.182226e+05	
32	1.600000e+00	4.266734e+05	
33	1.650000e+00	4.348801e+05	
34	1.700000e+00	4.428526e+05	
35	1.750000e+00	4.506003e+05	
36	1.800000e+00	4.581323e+05	
37	1.850000e+00	4.654568e+05	
38	1.900000e+00	4.725820e+05	
39	1.950000e+00	4.795155e+05	
40	2.000000e+00	4.862646e+05	
41	2.050000e+00	4.928361e+05	
42	2.100000e+00	4.992366e+05	
43	2.150000e+00	5.054724e+05	
44	2.200000e+00	5.115494e+05	
45	2.250000e+00	5.174733e+05	
46	2.300000e+00	5.232496e+05	
47	2.350000e+00	5.288833e+05	
48	2.400000e+00	5.343795e+05	
49	2.450000e+00	5.397429e+05	
50	2.500000e+00	5.449780e+05	
51	2.550000e+00	5.500890e+05	
52	2.600000e+00	5.550801e+05	
53	2.650000e+00	5.599553e+05	
54	2.700000e+00	5.647184e+05	

Index   v-sweep         rds             
--------------------------------------------------------------------------------
55	2.750000e+00	5.693729e+05	
56	2.800000e+00	5.739224e+05	
57	2.850000e+00	5.783701e+05	
58	2.900000e+00	5.827193e+05	
59	2.950000e+00	5.869730e+05	
60	3.000000e+00	5.911342e+05	
61	3.050000e+00	5.952057e+05	
62	3.100000e+00	5.991902e+05	
63	3.150000e+00	6.030903e+05	
64	3.200000e+00	6.069085e+05	
65	3.250000e+00	6.106473e+05	
66	3.300000e+00	6.143089e+05	
67	3.350000e+00	6.178956e+05	
68	3.400000e+00	6.214095e+05	
69	3.450000e+00	6.248527e+05	
70	3.500000e+00	6.282272e+05	
71	3.550000e+00	6.315350e+05	
72	3.600000e+00	6.347778e+05	
73	3.650000e+00	6.379574e+05	
74	3.700000e+00	6.410757e+05	
75	3.750000e+00	6.441341e+05	
76	3.800000e+00	6.471344e+05	
77	3.850000e+00	6.500781e+05	
78	3.900000e+00	6.529667e+05	
79	3.950000e+00	6.558016e+05	
80	4.000000e+00	6.585842e+05	
81	4.050000e+00	6.613159e+05	
82	4.100000e+00	6.639980e+05	
83	4.150000e+00	6.666316e+05	
84	4.200000e+00	6.692182e+05	
85	4.250000e+00	6.717587e+05	
86	4.300000e+00	6.742545e+05	
87	4.350000e+00	6.767065e+05	
88	4.400000e+00	6.791158e+05	
89	4.450000e+00	6.814836e+05	
90	4.500000e+00	6.838107e+05	
91	4.550000e+00	6.860982e+05	
92	4.600000e+00	6.883469e+05	
93	4.650000e+00	6.905579e+05	
94	4.700000e+00	6.927320e+05	
95	4.750000e+00	6.948700e+05	
96	4.800000e+00	6.969728e+05	
97	4.850000e+00	6.990412e+05	
98	4.900000e+00	7.010760e+05	
99	4.950000e+00	7.030779e+05	
100	5.000000e+00	7.050477e+05	
101	5.050000e+00	7.069861e+05	
102	5.100000e+00	7.088938e+05	
103	5.150000e+00	7.107714e+05	
104	5.200000e+00	7.126197e+05	
105	5.250000e+00	7.144392e+05	
106	5.300000e+00	7.162306e+05	
107	5.350000e+00	7.179945e+05	
108	5.400000e+00	7.197314e+05	
109	5.450000e+00	7.214420e+05	
110	5.500000e+00	7.231268e+05	
111	5.550000e+00	7.247864e+05	
112	5.600000e+00	7.264212e+05	

Index   v-sweep         rds             
--------------------------------------------------------------------------------
113	5.650000e+00	7.280318e+05	
114	5.700000e+00	7.296186e+05	
115	5.750000e+00	7.311822e+05	
116	5.800000e+00	7.327230e+05	
117	5.850000e+00	7.342415e+05	
118	5.900000e+00	7.357382e+05	
119	5.950000e+00	7.372134e+05	
120	6.000000e+00	7.386676e+05	
121	6.050000e+00	7.401012e+05	
122	6.100000e+00	7.415146e+05	
123	6.150000e+00	7.429082e+05	
124	6.200000e+00	7.442824e+05	
125	6.250000e+00	7.456376e+05	
126	6.300000e+00	7.469740e+05	
127	6.350000e+00	7.482922e+05	
128	6.400000e+00	7.495924e+05	
129	6.450000e+00	7.508749e+05	
130	6.500000e+00	7.521402e+05	
131	6.550000e+00	7.533884e+05	
132	6.600000e+00	7.546200e+05	
Reset re-loads circuit ***************************

Circuit: ***************************

Doing analysis at TEMP = 25.000000 and TNOM = 25.000000


No. of Data Rows : 133
                          ***************************
                          DC transfer characteristic  Mon Jan  9 13:57:41  2023
--------------------------------------------------------------------------------
Index   v-sweep         rds             
--------------------------------------------------------------------------------
0	0.000000e+00	7.150324e+02	
1	5.000000e-02	7.705964e+02	
2	1.000000e-01	8.336168e+02	
3	1.500000e-01	9.056899e+02	
4	2.000000e-01	9.889018e+02	
5	2.500000e-01	1.086030e+03	
6	3.000000e-01	1.200854e+03	
7	3.500000e-01	1.338646e+03	
8	4.000000e-01	1.506970e+03	
9	4.500000e-01	1.717047e+03	
10	5.000000e-01	1.986135e+03	
11	5.500000e-01	2.341762e+03	
12	6.000000e-01	2.828950e+03	
13	6.500000e-01	3.519827e+03	
14	7.000000e-01	4.514321e+03	
15	7.500000e-01	5.901387e+03	
16	8.000000e-01	7.685224e+03	
17	8.500000e-01	9.774902e+03	
18	9.000000e-01	1.205598e+04	
19	9.500000e-01	1.444233e+04	
20	1.000000e+00	1.688108e+04	
21	1.050000e+00	1.934180e+04	
22	1.100000e+00	2.180704e+04	
23	1.150000e+00	2.426652e+04	
24	1.200000e+00	2.671404e+04	
25	1.250000e+00	2.914574e+04	
26	1.300000e+00	3.155917e+04	
27	1.350000e+00	3.395278e+04	
28	1.400000e+00	3.632554e+04	
29	1.450000e+00	3.867684e+04	
30	1.500000e+00	4.100629e+04	
31	1.550000e+00	4.331369e+04	
32	1.600000e+00	4.559894e+04	
33	1.650000e+00	4.786206e+04	
34	1.700000e+00	5.010311e+04	
35	1.750000e+00	5.232220e+04	
36	1.800000e+00	5.451950e+04	
37	1.850000e+00	5.669516e+04	
38	1.900000e+00	5.884940e+04	
39	1.950000e+00	6.098243e+04	
40	2.000000e+00	6.309445e+04	
41	2.050000e+00	6.518571e+04	
42	2.100000e+00	6.725644e+04	
43	2.150000e+00	6.930687e+04	
44	2.200000e+00	7.133725e+04	
45	2.250000e+00	7.334782e+04	
46	2.300000e+00	7.533883e+04	
47	2.350000e+00	7.731051e+04	
48	2.400000e+00	7.926311e+04	
49	2.450000e+00	8.119687e+04	
50	2.500000e+00	8.311202e+04	
51	2.550000e+00	8.500881e+04	
52	2.600000e+00	8.688748e+04	
53	2.650000e+00	8.874824e+04	
54	2.700000e+00	9.059134e+04	

Index   v-sweep         rds             
--------------------------------------------------------------------------------
55	2.750000e+00	9.241699e+04	
56	2.800000e+00	9.422543e+04	
57	2.850000e+00	9.601688e+04	
58	2.900000e+00	9.779155e+04	
59	2.950000e+00	9.954966e+04	
60	3.000000e+00	1.012914e+05	
61	3.050000e+00	1.030170e+05	
62	3.100000e+00	1.047267e+05	
63	3.150000e+00	1.064207e+05	
64	3.200000e+00	1.080992e+05	
65	3.250000e+00	1.097623e+05	
66	3.300000e+00	1.114103e+05	
67	3.350000e+00	1.130433e+05	
68	3.400000e+00	1.146616e+05	
69	3.450000e+00	1.162654e+05	
70	3.500000e+00	1.178548e+05	
71	3.550000e+00	1.194299e+05	
72	3.600000e+00	1.209911e+05	
73	3.650000e+00	1.225384e+05	
74	3.700000e+00	1.240721e+05	
75	3.750000e+00	1.255922e+05	
76	3.800000e+00	1.270990e+05	
77	3.850000e+00	1.285927e+05	
78	3.900000e+00	1.300733e+05	
79	3.950000e+00	1.315411e+05	
80	4.000000e+00	1.329962e+05	
81	4.050000e+00	1.344388e+05	
82	4.100000e+00	1.358691e+05	
83	4.150000e+00	1.372871e+05	
84	4.200000e+00	1.386930e+05	
85	4.250000e+00	1.400870e+05	
86	4.300000e+00	1.414692e+05	
87	4.350000e+00	1.428397e+05	
88	4.400000e+00	1.441988e+05	
89	4.450000e+00	1.455465e+05	
90	4.500000e+00	1.468829e+05	
91	4.550000e+00	1.482083e+05	
92	4.600000e+00	1.495227e+05	
93	4.650000e+00	1.508262e+05	
94	4.700000e+00	1.521191e+05	
95	4.750000e+00	1.534014e+05	
96	4.800000e+00	1.546732e+05	
97	4.850000e+00	1.559346e+05	
98	4.900000e+00	1.571859e+05	
99	4.950000e+00	1.584270e+05	
100	5.000000e+00	1.596582e+05	
101	5.050000e+00	1.608795e+05	
102	5.100000e+00	1.620911e+05	
103	5.150000e+00	1.632930e+05	
104	5.200000e+00	1.644853e+05	
105	5.250000e+00	1.656683e+05	
106	5.300000e+00	1.668419e+05	
107	5.350000e+00	1.680063e+05	
108	5.400000e+00	1.691616e+05	
109	5.450000e+00	1.703079e+05	
110	5.500000e+00	1.714453e+05	
111	5.550000e+00	1.725739e+05	
112	5.600000e+00	1.736938e+05	

Index   v-sweep         rds             
--------------------------------------------------------------------------------
113	5.650000e+00	1.748051e+05	
114	5.700000e+00	1.759078e+05	
115	5.750000e+00	1.770021e+05	
116	5.800000e+00	1.780881e+05	
117	5.850000e+00	1.791659e+05	
118	5.900000e+00	1.802355e+05	
119	5.950000e+00	1.812970e+05	
120	6.000000e+00	1.823506e+05	
121	6.050000e+00	1.833963e+05	
122	6.100000e+00	1.844342e+05	
123	6.150000e+00	1.854643e+05	
124	6.200000e+00	1.864868e+05	
125	6.250000e+00	1.875018e+05	
126	6.300000e+00	1.885093e+05	
127	6.350000e+00	1.895094e+05	
128	6.400000e+00	1.905021e+05	
129	6.450000e+00	1.914877e+05	
130	6.500000e+00	1.924660e+05	
131	6.550000e+00	1.934373e+05	
132	6.600000e+00	1.944016e+05	
Reset re-loads circuit ***************************

Circuit: ***************************

Doing analysis at TEMP = 25.000000 and TNOM = 25.000000


No. of Data Rows : 133
                          ***************************
                          DC transfer characteristic  Mon Jan  9 13:57:42  2023
--------------------------------------------------------------------------------
Index   v-sweep         rds             
--------------------------------------------------------------------------------
0	0.000000e+00	4.501518e+02	
1	5.000000e-02	4.729392e+02	
2	1.000000e-01	4.974464e+02	
3	1.500000e-01	5.238724e+02	
4	2.000000e-01	5.524484e+02	
5	2.500000e-01	5.834446e+02	
6	3.000000e-01	6.171785e+02	
7	3.500000e-01	6.540262e+02	
8	4.000000e-01	6.944363e+02	
9	4.500000e-01	7.389484e+02	
10	5.000000e-01	7.882180e+02	
11	5.500000e-01	8.430492e+02	
12	6.000000e-01	9.044412e+02	
13	6.500000e-01	9.736530e+02	
14	7.000000e-01	1.052297e+03	
15	7.500000e-01	1.142483e+03	
16	8.000000e-01	1.247037e+03	
17	8.500000e-01	1.369861e+03	
18	9.000000e-01	1.516551e+03	
19	9.500000e-01	1.695457e+03	
20	1.000000e+00	1.919503e+03	
21	1.050000e+00	2.208852e+03	
22	1.100000e+00	2.593122e+03	
23	1.150000e+00	3.108390e+03	
24	1.200000e+00	3.783754e+03	
25	1.250000e+00	4.624679e+03	
26	1.300000e+00	5.610866e+03	
27	1.350000e+00	6.709554e+03	
28	1.400000e+00	7.888886e+03	
29	1.450000e+00	9.123655e+03	
30	1.500000e+00	1.039567e+04	
31	1.550000e+00	1.169226e+04	
32	1.600000e+00	1.300467e+04	
33	1.650000e+00	1.432678e+04	
34	1.700000e+00	1.565431e+04	
35	1.750000e+00	1.698416e+04	
36	1.800000e+00	1.831410e+04	
37	1.850000e+00	1.964247e+04	
38	1.900000e+00	2.096802e+04	
39	1.950000e+00	2.228982e+04	
40	2.000000e+00	2.360715e+04	
41	2.050000e+00	2.491945e+04	
42	2.100000e+00	2.622630e+04	
43	2.150000e+00	2.752736e+04	
44	2.200000e+00	2.882236e+04	
45	2.250000e+00	3.011111e+04	
46	2.300000e+00	3.139343e+04	
47	2.350000e+00	3.266921e+04	
48	2.400000e+00	3.393834e+04	
49	2.450000e+00	3.520077e+04	
50	2.500000e+00	3.645643e+04	
51	2.550000e+00	3.770529e+04	
52	2.600000e+00	3.894733e+04	
53	2.650000e+00	4.018253e+04	
54	2.700000e+00	4.141089e+04	

Index   v-sweep         rds             
--------------------------------------------------------------------------------
55	2.750000e+00	4.263241e+04	
56	2.800000e+00	4.384710e+04	
57	2.850000e+00	4.505498e+04	
58	2.900000e+00	4.625606e+04	
59	2.950000e+00	4.745038e+04	
60	3.000000e+00	4.863796e+04	
61	3.050000e+00	4.981882e+04	
62	3.100000e+00	5.099300e+04	
63	3.150000e+00	5.216054e+04	
64	3.200000e+00	5.332146e+04	
65	3.250000e+00	5.447582e+04	
66	3.300000e+00	5.562364e+04	
67	3.350000e+00	5.676496e+04	
68	3.400000e+00	5.789983e+04	
69	3.450000e+00	5.902828e+04	
70	3.500000e+00	6.015036e+04	
71	3.550000e+00	6.126611e+04	
72	3.600000e+00	6.237558e+04	
73	3.650000e+00	6.347880e+04	
74	3.700000e+00	6.457581e+04	
75	3.750000e+00	6.566667e+04	
76	3.800000e+00	6.675141e+04	
77	3.850000e+00	6.783008e+04	
78	3.900000e+00	6.890272e+04	
79	3.950000e+00	6.996938e+04	
80	4.000000e+00	7.103009e+04	
81	4.050000e+00	7.208491e+04	
82	4.100000e+00	7.313387e+04	
83	4.150000e+00	7.417701e+04	
84	4.200000e+00	7.521439e+04	
85	4.250000e+00	7.624604e+04	
86	4.300000e+00	7.727200e+04	
87	4.350000e+00	7.829232e+04	
88	4.400000e+00	7.930703e+04	
89	4.450000e+00	8.031619e+04	
90	4.500000e+00	8.131983e+04	
91	4.550000e+00	8.231799e+04	
92	4.600000e+00	8.331072e+04	
93	4.650000e+00	8.429804e+04	
94	4.700000e+00	8.528002e+04	
95	4.750000e+00	8.625668e+04	
96	4.800000e+00	8.722806e+04	
97	4.850000e+00	8.819420e+04	
98	4.900000e+00	8.915515e+04	
99	4.950000e+00	9.011094e+04	
100	5.000000e+00	9.106161e+04	
101	5.050000e+00	9.200720e+04	
102	5.100000e+00	9.294774e+04	
103	5.150000e+00	9.388328e+04	
104	5.200000e+00	9.481385e+04	
105	5.250000e+00	9.573949e+04	
106	5.300000e+00	9.666023e+04	
107	5.350000e+00	9.757611e+04	
108	5.400000e+00	9.848718e+04	
109	5.450000e+00	9.939345e+04	
110	5.500000e+00	1.002950e+05	
111	5.550000e+00	1.011918e+05	
112	5.600000e+00	1.020839e+05	

Index   v-sweep         rds             
--------------------------------------------------------------------------------
113	5.650000e+00	1.029714e+05	
114	5.700000e+00	1.038542e+05	
115	5.750000e+00	1.047325e+05	
116	5.800000e+00	1.056063e+05	
117	5.850000e+00	1.064755e+05	
118	5.900000e+00	1.073403e+05	
119	5.950000e+00	1.082006e+05	
120	6.000000e+00	1.090565e+05	
121	6.050000e+00	1.099080e+05	
122	6.100000e+00	1.107551e+05	
123	6.150000e+00	1.115980e+05	
124	6.200000e+00	1.124365e+05	
125	6.250000e+00	1.132708e+05	
126	6.300000e+00	1.141009e+05	
127	6.350000e+00	1.149268e+05	
128	6.400000e+00	1.157485e+05	
129	6.450000e+00	1.165661e+05	
130	6.500000e+00	1.173796e+05	
131	6.550000e+00	1.181890e+05	
132	6.600000e+00	1.189944e+05	
Reset re-loads circuit ***************************

Circuit: ***************************

Doing analysis at TEMP = 25.000000 and TNOM = 25.000000


No. of Data Rows : 133
                          ***************************
                          DC transfer characteristic  Mon Jan  9 13:57:42  2023
--------------------------------------------------------------------------------
Index   v-sweep         rds             
--------------------------------------------------------------------------------
0	0.000000e+00	3.520089e+02	
1	5.000000e-02	3.657944e+02	
2	1.000000e-01	3.803141e+02	
3	1.500000e-01	3.956266e+02	
4	2.000000e-01	4.117969e+02	
5	2.500000e-01	4.288976e+02	
6	3.000000e-01	4.470097e+02	
7	3.500000e-01	4.662241e+02	
8	4.000000e-01	4.866430e+02	
9	4.500000e-01	5.083817e+02	
10	5.000000e-01	5.315710e+02	
11	5.500000e-01	5.563597e+02	
12	6.000000e-01	5.829179e+02	
13	6.500000e-01	6.114409e+02	
14	7.000000e-01	6.421543e+02	
15	7.500000e-01	6.753203e+02	
16	8.000000e-01	7.112458e+02	
17	8.500000e-01	7.502929e+02	
18	9.000000e-01	7.928932e+02	
19	9.500000e-01	8.395671e+02	
20	1.000000e+00	8.909507e+02	
21	1.050000e+00	9.478355e+02	
22	1.100000e+00	1.011228e+03	
23	1.150000e+00	1.082445e+03	
24	1.200000e+00	1.163265e+03	
25	1.250000e+00	1.256192e+03	
26	1.300000e+00	1.364895e+03	
27	1.350000e+00	1.494959e+03	
28	1.400000e+00	1.655014e+03	
29	1.450000e+00	1.858064e+03	
30	1.500000e+00	2.121931e+03	
31	1.550000e+00	2.466698e+03	
32	1.600000e+00	2.908125e+03	
33	1.650000e+00	3.450819e+03	
34	1.700000e+00	4.087075e+03	
35	1.750000e+00	4.801657e+03	
36	1.800000e+00	5.577640e+03	
37	1.850000e+00	6.399950e+03	
38	1.900000e+00	7.256529e+03	
39	1.950000e+00	8.138211e+03	
40	2.000000e+00	9.038182e+03	
41	2.050000e+00	9.951402e+03	
42	2.100000e+00	1.087413e+04	
43	2.150000e+00	1.180356e+04	
44	2.200000e+00	1.273757e+04	
45	2.250000e+00	1.367456e+04	
46	2.300000e+00	1.461325e+04	
47	2.350000e+00	1.555268e+04	
48	2.400000e+00	1.649207e+04	
49	2.450000e+00	1.743080e+04	
50	2.500000e+00	1.836839e+04	
51	2.550000e+00	1.930442e+04	
52	2.600000e+00	2.023857e+04	
53	2.650000e+00	2.117057e+04	
54	2.700000e+00	2.210021e+04	

Index   v-sweep         rds             
--------------------------------------------------------------------------------
55	2.750000e+00	2.302729e+04	
56	2.800000e+00	2.395167e+04	
57	2.850000e+00	2.487322e+04	
58	2.900000e+00	2.579184e+04	
59	2.950000e+00	2.670743e+04	
60	3.000000e+00	2.761991e+04	
61	3.050000e+00	2.852924e+04	
62	3.100000e+00	2.943536e+04	
63	3.150000e+00	3.033822e+04	
64	3.200000e+00	3.123780e+04	
65	3.250000e+00	3.213405e+04	
66	3.300000e+00	3.302696e+04	
67	3.350000e+00	3.391651e+04	
68	3.400000e+00	3.480269e+04	
69	3.450000e+00	3.568549e+04	
70	3.500000e+00	3.656489e+04	
71	3.550000e+00	3.744089e+04	
72	3.600000e+00	3.831349e+04	
73	3.650000e+00	3.918270e+04	
74	3.700000e+00	4.004850e+04	
75	3.750000e+00	4.091091e+04	
76	3.800000e+00	4.176992e+04	
77	3.850000e+00	4.262556e+04	
78	3.900000e+00	4.347781e+04	
79	3.950000e+00	4.432669e+04	
80	4.000000e+00	4.517221e+04	
81	4.050000e+00	4.601438e+04	
82	4.100000e+00	4.685321e+04	
83	4.150000e+00	4.768871e+04	
84	4.200000e+00	4.852088e+04	
85	4.250000e+00	4.934975e+04	
86	4.300000e+00	5.017533e+04	
87	4.350000e+00	5.099762e+04	
88	4.400000e+00	5.181665e+04	
89	4.450000e+00	5.263242e+04	
90	4.500000e+00	5.344494e+04	
91	4.550000e+00	5.425425e+04	
92	4.600000e+00	5.506033e+04	
93	4.650000e+00	5.586322e+04	
94	4.700000e+00	5.666292e+04	
95	4.750000e+00	5.745946e+04	
96	4.800000e+00	5.825284e+04	
97	4.850000e+00	5.904308e+04	
98	4.900000e+00	5.983019e+04	
99	4.950000e+00	6.061420e+04	
100	5.000000e+00	6.139511e+04	
101	5.050000e+00	6.217294e+04	
102	5.100000e+00	6.294770e+04	
103	5.150000e+00	6.371942e+04	
104	5.200000e+00	6.448810e+04	
105	5.250000e+00	6.525377e+04	
106	5.300000e+00	6.601643e+04	
107	5.350000e+00	6.677610e+04	
108	5.400000e+00	6.753280e+04	
109	5.450000e+00	6.828654e+04	
110	5.500000e+00	6.903734e+04	
111	5.550000e+00	6.978522e+04	
112	5.600000e+00	7.053018e+04	

Index   v-sweep         rds             
--------------------------------------------------------------------------------
113	5.650000e+00	7.127224e+04	
114	5.700000e+00	7.201142e+04	
115	5.750000e+00	7.274774e+04	
116	5.800000e+00	7.348120e+04	
117	5.850000e+00	7.421182e+04	
118	5.900000e+00	7.493963e+04	
119	5.950000e+00	7.566462e+04	
120	6.000000e+00	7.638682e+04	
121	6.050000e+00	7.710625e+04	
122	6.100000e+00	7.782291e+04	
123	6.150000e+00	7.853682e+04	
124	6.200000e+00	7.924799e+04	
125	6.250000e+00	7.995645e+04	
126	6.300000e+00	8.066220e+04	
127	6.350000e+00	8.136526e+04	
128	6.400000e+00	8.206564e+04	
129	6.450000e+00	8.276336e+04	
130	6.500000e+00	8.345843e+04	
131	6.550000e+00	8.415087e+04	
132	6.600000e+00	8.484068e+04	
Reset re-loads circuit ***************************

Circuit: ***************************

Doing analysis at TEMP = 25.000000 and TNOM = 25.000000


No. of Data Rows : 133
                          ***************************
                          DC transfer characteristic  Mon Jan  9 13:57:42  2023
--------------------------------------------------------------------------------
Index   v-sweep         rds             
--------------------------------------------------------------------------------
0	0.000000e+00	3.048585e+02	
1	5.000000e-02	3.146820e+02	
2	1.000000e-01	3.249108e+02	
3	1.500000e-01	3.355695e+02	
4	2.000000e-01	3.466849e+02	
5	2.500000e-01	3.582859e+02	
6	3.000000e-01	3.704043e+02	
7	3.500000e-01	3.830744e+02	
8	4.000000e-01	3.963339e+02	
9	4.500000e-01	4.102241e+02	
10	5.000000e-01	4.247901e+02	
11	5.500000e-01	4.400816e+02	
12	6.000000e-01	4.561536e+02	
13	6.500000e-01	4.730664e+02	
14	7.000000e-01	4.908871e+02	
15	7.500000e-01	5.096901e+02	
16	8.000000e-01	5.295581e+02	
17	8.500000e-01	5.505835e+02	
18	9.000000e-01	5.728702e+02	
19	9.500000e-01	5.965347e+02	
20	1.000000e+00	6.217091e+02	
21	1.050000e+00	6.485434e+02	
22	1.100000e+00	6.772093e+02	
23	1.150000e+00	7.079045e+02	
24	1.200000e+00	7.408589e+02	
25	1.250000e+00	7.763425e+02	
26	1.300000e+00	8.146763e+02	
27	1.350000e+00	8.562485e+02	
28	1.400000e+00	9.015372e+02	
29	1.450000e+00	9.511461e+02	
30	1.500000e+00	1.005860e+03	
31	1.550000e+00	1.066734e+03	
32	1.600000e+00	1.135241e+03	
33	1.650000e+00	1.213514e+03	
34	1.700000e+00	1.304730e+03	
35	1.750000e+00	1.413696e+03	
36	1.800000e+00	1.547562e+03	
37	1.850000e+00	1.716354e+03	
38	1.900000e+00	1.932508e+03	
39	1.950000e+00	2.208534e+03	
40	2.000000e+00	2.553146e+03	
41	2.050000e+00	2.968225e+03	
42	2.100000e+00	3.448830e+03	
43	2.150000e+00	3.985767e+03	
44	2.200000e+00	4.568594e+03	
45	2.250000e+00	5.187584e+03	
46	2.300000e+00	5.834562e+03	
47	2.350000e+00	6.503011e+03	
48	2.400000e+00	7.187874e+03	
49	2.450000e+00	7.885264e+03	
50	2.500000e+00	8.592200e+03	
51	2.550000e+00	9.306388e+03	
52	2.600000e+00	1.002605e+04	
53	2.650000e+00	1.074978e+04	
54	2.700000e+00	1.147650e+04	

Index   v-sweep         rds             
--------------------------------------------------------------------------------
55	2.750000e+00	1.220533e+04	
56	2.800000e+00	1.293557e+04	
57	2.850000e+00	1.366665e+04	
58	2.900000e+00	1.439811e+04	
59	2.950000e+00	1.512957e+04	
60	3.000000e+00	1.586071e+04	
61	3.050000e+00	1.659127e+04	
62	3.100000e+00	1.732103e+04	
63	3.150000e+00	1.804982e+04	
64	3.200000e+00	1.877746e+04	
65	3.250000e+00	1.950384e+04	
66	3.300000e+00	2.022883e+04	
67	3.350000e+00	2.095234e+04	
68	3.400000e+00	2.167429e+04	
69	3.450000e+00	2.239460e+04	
70	3.500000e+00	2.311322e+04	
71	3.550000e+00	2.383009e+04	
72	3.600000e+00	2.454516e+04	
73	3.650000e+00	2.525840e+04	
74	3.700000e+00	2.596976e+04	
75	3.750000e+00	2.667924e+04	
76	3.800000e+00	2.738678e+04	
77	3.850000e+00	2.809238e+04	
78	3.900000e+00	2.879602e+04	
79	3.950000e+00	2.949767e+04	
80	4.000000e+00	3.019734e+04	
81	4.050000e+00	3.089499e+04	
82	4.100000e+00	3.159063e+04	
83	4.150000e+00	3.228425e+04	
84	4.200000e+00	3.297583e+04	
85	4.250000e+00	3.366539e+04	
86	4.300000e+00	3.435290e+04	
87	4.350000e+00	3.503837e+04	
88	4.400000e+00	3.572180e+04	
89	4.450000e+00	3.640318e+04	
90	4.500000e+00	3.708252e+04	
91	4.550000e+00	3.775982e+04	
92	4.600000e+00	3.843507e+04	
93	4.650000e+00	3.910828e+04	
94	4.700000e+00	3.977945e+04	
95	4.750000e+00	4.044859e+04	
96	4.800000e+00	4.111569e+04	
97	4.850000e+00	4.178077e+04	
98	4.900000e+00	4.244381e+04	
99	4.950000e+00	4.310484e+04	
100	5.000000e+00	4.376385e+04	
101	5.050000e+00	4.442085e+04	
102	5.100000e+00	4.507583e+04	
103	5.150000e+00	4.572882e+04	
104	5.200000e+00	4.637981e+04	
105	5.250000e+00	4.702881e+04	
106	5.300000e+00	4.767583e+04	
107	5.350000e+00	4.832086e+04	
108	5.400000e+00	4.896392e+04	
109	5.450000e+00	4.960502e+04	
110	5.500000e+00	5.024415e+04	
111	5.550000e+00	5.088133e+04	
112	5.600000e+00	5.151656e+04	

Index   v-sweep         rds             
--------------------------------------------------------------------------------
113	5.650000e+00	5.214985e+04	
114	5.700000e+00	5.278121e+04	
115	5.750000e+00	5.341063e+04	
116	5.800000e+00	5.403814e+04	
117	5.850000e+00	5.466373e+04	
118	5.900000e+00	5.528741e+04	
119	5.950000e+00	5.590919e+04	
120	6.000000e+00	5.652908e+04	
121	6.050000e+00	5.714708e+04	
122	6.100000e+00	5.776321e+04	
123	6.150000e+00	5.837745e+04	
124	6.200000e+00	5.898984e+04	
125	6.250000e+00	5.960036e+04	
126	6.300000e+00	6.020903e+04	
127	6.350000e+00	6.081586e+04	
128	6.400000e+00	6.142085e+04	
129	6.450000e+00	6.202402e+04	
130	6.500000e+00	6.262535e+04	
131	6.550000e+00	6.322487e+04	
132	6.600000e+00	6.382259e+04	
Reset re-loads circuit ***************************

Circuit: ***************************

Doing analysis at TEMP = 25.000000 and TNOM = 25.000000


No. of Data Rows : 133
                          ***************************
                          DC transfer characteristic  Mon Jan  9 13:57:42  2023
--------------------------------------------------------------------------------
Index   v-sweep         rds             
--------------------------------------------------------------------------------
0	0.000000e+00	2.800817e+02	
1	5.000000e-02	2.877279e+02	
2	1.000000e-01	2.956310e+02	
3	1.500000e-01	3.038035e+02	
4	2.000000e-01	3.122588e+02	
5	2.500000e-01	3.210111e+02	
6	3.000000e-01	3.300760e+02	
7	3.500000e-01	3.394697e+02	
8	4.000000e-01	3.492100e+02	
9	4.500000e-01	3.593159e+02	
10	5.000000e-01	3.698078e+02	
11	5.500000e-01	3.807076e+02	
12	6.000000e-01	3.920393e+02	
13	6.500000e-01	4.038284e+02	
14	7.000000e-01	4.161028e+02	
15	7.500000e-01	4.288925e+02	
16	8.000000e-01	4.422303e+02	
17	8.500000e-01	4.561516e+02	
18	9.000000e-01	4.706951e+02	
19	9.500000e-01	4.859030e+02	
20	1.000000e+00	5.018214e+02	
21	1.050000e+00	5.185009e+02	
22	1.100000e+00	5.359969e+02	
23	1.150000e+00	5.543705e+02	
24	1.200000e+00	5.736892e+02	
25	1.250000e+00	5.940280e+02	
26	1.300000e+00	6.154702e+02	
27	1.350000e+00	6.381089e+02	
28	1.400000e+00	6.620491e+02	
29	1.450000e+00	6.874092e+02	
30	1.500000e+00	7.143246e+02	
31	1.550000e+00	7.429508e+02	
32	1.600000e+00	7.734688e+02	
33	1.650000e+00	8.060918e+02	
34	1.700000e+00	8.410756e+02	
35	1.750000e+00	8.787330e+02	
36	1.800000e+00	9.194552e+02	
37	1.850000e+00	9.637462e+02	
38	1.900000e+00	1.012275e+03	
39	1.950000e+00	1.065960e+03	
40	2.000000e+00	1.126100e+03	
41	2.050000e+00	1.194582e+03	
42	2.100000e+00	1.274183e+03	
43	2.150000e+00	1.368975e+03	
44	2.200000e+00	1.484731e+03	
45	2.250000e+00	1.629062e+03	
46	2.300000e+00	1.810815e+03	
47	2.350000e+00	2.038389e+03	
48	2.400000e+00	2.317431e+03	
49	2.450000e+00	2.649196e+03	
50	2.500000e+00	3.030597e+03	
51	2.550000e+00	3.455658e+03	
52	2.600000e+00	3.917296e+03	
53	2.650000e+00	4.408619e+03	
54	2.700000e+00	4.923592e+03	

Index   v-sweep         rds             
--------------------------------------------------------------------------------
55	2.750000e+00	5.457222e+03	
56	2.800000e+00	6.005512e+03	
57	2.850000e+00	6.565306e+03	
58	2.900000e+00	7.134127e+03	
59	2.950000e+00	7.710033e+03	
60	3.000000e+00	8.291491e+03	
61	3.050000e+00	8.877288e+03	
62	3.100000e+00	9.466456e+03	
63	3.150000e+00	1.005822e+04	
64	3.200000e+00	1.065194e+04	
65	3.250000e+00	1.124710e+04	
66	3.300000e+00	1.184329e+04	
67	3.350000e+00	1.244016e+04	
68	3.400000e+00	1.303740e+04	
69	3.450000e+00	1.363478e+04	
70	3.500000e+00	1.423209e+04	
71	3.550000e+00	1.482916e+04	
72	3.600000e+00	1.542583e+04	
73	3.650000e+00	1.602198e+04	
74	3.700000e+00	1.661751e+04	
75	3.750000e+00	1.721230e+04	
76	3.800000e+00	1.780630e+04	
77	3.850000e+00	1.839941e+04	
78	3.900000e+00	1.899159e+04	
79	3.950000e+00	1.958277e+04	
80	4.000000e+00	2.017292e+04	
81	4.050000e+00	2.076198e+04	
82	4.100000e+00	2.134993e+04	
83	4.150000e+00	2.193672e+04	
84	4.200000e+00	2.252234e+04	
85	4.250000e+00	2.310675e+04	
86	4.300000e+00	2.368994e+04	
87	4.350000e+00	2.427189e+04	
88	4.400000e+00	2.485258e+04	
89	4.450000e+00	2.543199e+04	
90	4.500000e+00	2.601011e+04	
91	4.550000e+00	2.658693e+04	
92	4.600000e+00	2.716244e+04	
93	4.650000e+00	2.773663e+04	
94	4.700000e+00	2.830950e+04	
95	4.750000e+00	2.888103e+04	
96	4.800000e+00	2.945122e+04	
97	4.850000e+00	3.002007e+04	
98	4.900000e+00	3.058757e+04	
99	4.950000e+00	3.115371e+04	
100	5.000000e+00	3.171850e+04	
101	5.050000e+00	3.228194e+04	
102	5.100000e+00	3.284402e+04	
103	5.150000e+00	3.340473e+04	
104	5.200000e+00	3.396409e+04	
105	5.250000e+00	3.452208e+04	
106	5.300000e+00	3.507872e+04	
107	5.350000e+00	3.563399e+04	
108	5.400000e+00	3.618790e+04	
109	5.450000e+00	3.674045e+04	
110	5.500000e+00	3.729165e+04	
111	5.550000e+00	3.784148e+04	
112	5.600000e+00	3.838996e+04	

Index   v-sweep         rds             
--------------------------------------------------------------------------------
113	5.650000e+00	3.893709e+04	
114	5.700000e+00	3.948287e+04	
115	5.750000e+00	4.002729e+04	
116	5.800000e+00	4.057037e+04	
117	5.850000e+00	4.111210e+04	
118	5.900000e+00	4.165249e+04	
119	5.950000e+00	4.219153e+04	
120	6.000000e+00	4.272924e+04	
121	6.050000e+00	4.326562e+04	
122	6.100000e+00	4.380066e+04	
123	6.150000e+00	4.433438e+04	
124	6.200000e+00	4.486676e+04	
125	6.250000e+00	4.539783e+04	
126	6.300000e+00	4.592757e+04	
127	6.350000e+00	4.645600e+04	
128	6.400000e+00	4.698312e+04	
129	6.450000e+00	4.750893e+04	
130	6.500000e+00	4.803343e+04	
131	6.550000e+00	4.855663e+04	
132	6.600000e+00	4.907853e+04	
Reset re-loads circuit ***************************

Circuit: ***************************

Note: No ".plot", ".print", or ".fourier" lines; no simulations run
