
Note: Compatibility modes selected: hs

Warning: m=xx on .subckt line will override multiplier m hierarchy!


Circuit: ***************************

Doing analysis at TEMP = 125.000000 and TNOM = 125.000000


No. of Data Rows : 133
                          ***************************
                          DC transfer characteristic  Mon Jan  9 13:57:43  2023
--------------------------------------------------------------------------------
Index   v-sweep         rds             
--------------------------------------------------------------------------------
0	0.000000e+00	2.995839e+04	
1	5.000000e-02	3.596666e+04	
2	1.000000e-01	4.472564e+04	
3	1.500000e-01	5.857265e+04	
4	2.000000e-01	8.307769e+04	
5	2.500000e-01	1.327473e+05	
6	3.000000e-01	2.389976e+05	
7	3.500000e-01	4.202223e+05	
8	4.000000e-01	6.285081e+05	
9	4.500000e-01	8.194262e+05	
10	5.000000e-01	9.885485e+05	
11	5.500000e-01	1.142240e+06	
12	6.000000e-01	1.285521e+06	
13	6.500000e-01	1.421335e+06	
14	7.000000e-01	1.551363e+06	
15	7.500000e-01	1.676608e+06	
16	8.000000e-01	1.797705e+06	
17	8.500000e-01	1.915083e+06	
18	9.000000e-01	2.029053e+06	
19	9.500000e-01	2.139848e+06	
20	1.000000e+00	2.247657e+06	
21	1.050000e+00	2.352636e+06	
22	1.100000e+00	2.454921e+06	
23	1.150000e+00	2.554629e+06	
24	1.200000e+00	2.651866e+06	
25	1.250000e+00	2.746730e+06	
26	1.300000e+00	2.839310e+06	
27	1.350000e+00	2.929689e+06	
28	1.400000e+00	3.017946e+06	
29	1.450000e+00	3.104153e+06	
30	1.500000e+00	3.188381e+06	
31	1.550000e+00	3.270695e+06	
32	1.600000e+00	3.351158e+06	
33	1.650000e+00	3.429829e+06	
34	1.700000e+00	3.506765e+06	
35	1.750000e+00	3.582022e+06	
36	1.800000e+00	3.655650e+06	
37	1.850000e+00	3.727701e+06	
38	1.900000e+00	3.798221e+06	
39	1.950000e+00	3.867258e+06	
40	2.000000e+00	3.934854e+06	
41	2.050000e+00	4.001053e+06	
42	2.100000e+00	4.065894e+06	
43	2.150000e+00	4.129419e+06	
44	2.200000e+00	4.191663e+06	
45	2.250000e+00	4.252664e+06	
46	2.300000e+00	4.312457e+06	
47	2.350000e+00	4.371074e+06	
48	2.400000e+00	4.428550e+06	
49	2.450000e+00	4.484914e+06	
50	2.500000e+00	4.540198e+06	
51	2.550000e+00	4.594431e+06	
52	2.600000e+00	4.647640e+06	
53	2.650000e+00	4.699853e+06	
54	2.700000e+00	4.751096e+06	

Index   v-sweep         rds             
--------------------------------------------------------------------------------
55	2.750000e+00	4.801395e+06	
56	2.800000e+00	4.850773e+06	
57	2.850000e+00	4.899256e+06	
58	2.900000e+00	4.946865e+06	
59	2.950000e+00	4.993623e+06	
60	3.000000e+00	5.039551e+06	
61	3.050000e+00	5.084670e+06	
62	3.100000e+00	5.129000e+06	
63	3.150000e+00	5.172560e+06	
64	3.200000e+00	5.215370e+06	
65	3.250000e+00	5.257447e+06	
66	3.300000e+00	5.298810e+06	
67	3.350000e+00	5.339474e+06	
68	3.400000e+00	5.379458e+06	
69	3.450000e+00	5.418776e+06	
70	3.500000e+00	5.457445e+06	
71	3.550000e+00	5.495479e+06	
72	3.600000e+00	5.532894e+06	
73	3.650000e+00	5.569703e+06	
74	3.700000e+00	5.605921e+06	
75	3.750000e+00	5.641560e+06	
76	3.800000e+00	5.676634e+06	
77	3.850000e+00	5.711155e+06	
78	3.900000e+00	5.745136e+06	
79	3.950000e+00	5.778588e+06	
80	4.000000e+00	5.811523e+06	
81	4.050000e+00	5.843953e+06	
82	4.100000e+00	5.875887e+06	
83	4.150000e+00	5.907338e+06	
84	4.200000e+00	5.938315e+06	
85	4.250000e+00	5.968828e+06	
86	4.300000e+00	5.998887e+06	
87	4.350000e+00	6.028501e+06	
88	4.400000e+00	6.057681e+06	
89	4.450000e+00	6.086434e+06	
90	4.500000e+00	6.114769e+06	
91	4.550000e+00	6.142696e+06	
92	4.600000e+00	6.170222e+06	
93	4.650000e+00	6.197355e+06	
94	4.700000e+00	6.224104e+06	
95	4.750000e+00	6.250476e+06	
96	4.800000e+00	6.276478e+06	
97	4.850000e+00	6.302118e+06	
98	4.900000e+00	6.327403e+06	
99	4.950000e+00	6.352339e+06	
100	5.000000e+00	6.376934e+06	
101	5.050000e+00	6.401194e+06	
102	5.100000e+00	6.425126e+06	
103	5.150000e+00	6.448735e+06	
104	5.200000e+00	6.472028e+06	
105	5.250000e+00	6.495011e+06	
106	5.300000e+00	6.517689e+06	
107	5.350000e+00	6.540069e+06	
108	5.400000e+00	6.562155e+06	
109	5.450000e+00	6.583954e+06	
110	5.500000e+00	6.605470e+06	
111	5.550000e+00	6.626709e+06	
112	5.600000e+00	6.647675e+06	

Index   v-sweep         rds             
--------------------------------------------------------------------------------
113	5.650000e+00	6.668373e+06	
114	5.700000e+00	6.688809e+06	
115	5.750000e+00	6.708987e+06	
116	5.800000e+00	6.728912e+06	
117	5.850000e+00	6.748587e+06	
118	5.900000e+00	6.768018e+06	
119	5.950000e+00	6.787208e+06	
120	6.000000e+00	6.806162e+06	
121	6.050000e+00	6.824884e+06	
122	6.100000e+00	6.843378e+06	
123	6.150000e+00	6.861648e+06	
124	6.200000e+00	6.879697e+06	
125	6.250000e+00	6.897529e+06	
126	6.300000e+00	6.915149e+06	
127	6.350000e+00	6.932558e+06	
128	6.400000e+00	6.949762e+06	
129	6.450000e+00	6.966763e+06	
130	6.500000e+00	6.983565e+06	
131	6.550000e+00	7.000171e+06	
132	6.600000e+00	7.016584e+06	
Reset re-loads circuit ***************************

Circuit: ***************************

Doing analysis at TEMP = 125.000000 and TNOM = 125.000000


No. of Data Rows : 133
                          ***************************
                          DC transfer characteristic  Mon Jan  9 13:57:43  2023
--------------------------------------------------------------------------------
Index   v-sweep         rds             
--------------------------------------------------------------------------------
0	0.000000e+00	9.639419e+03	
1	5.000000e-02	1.027404e+04	
2	1.000000e-01	1.098193e+04	
3	1.500000e-01	1.177646e+04	
4	2.000000e-01	1.267446e+04	
5	2.500000e-01	1.369743e+04	
6	3.000000e-01	1.487319e+04	
7	3.500000e-01	1.623844e+04	
8	4.000000e-01	1.784250e+04	
9	4.500000e-01	1.975314e+04	
10	5.000000e-01	2.206579e+04	
11	5.500000e-01	2.491847e+04	
12	6.000000e-01	2.851641e+04	
13	6.500000e-01	3.317229e+04	
14	7.000000e-01	3.936742e+04	
15	7.500000e-01	4.782029e+04	
16	8.000000e-01	5.946947e+04	
17	8.500000e-01	7.513921e+04	
18	9.000000e-01	9.485597e+04	
19	9.500000e-01	1.176145e+05	
20	1.000000e+00	1.420916e+05	
21	1.050000e+00	1.673284e+05	
22	1.100000e+00	1.928074e+05	
23	1.150000e+00	2.182825e+05	
24	1.200000e+00	2.436401e+05	
25	1.250000e+00	2.688272e+05	
26	1.300000e+00	2.938186e+05	
27	1.350000e+00	3.186022e+05	
28	1.400000e+00	3.431723e+05	
29	1.450000e+00	3.675269e+05	
30	1.500000e+00	3.916654e+05	
31	1.550000e+00	4.155886e+05	
32	1.600000e+00	4.392977e+05	
33	1.650000e+00	4.627943e+05	
34	1.700000e+00	4.860804e+05	
35	1.750000e+00	5.091578e+05	
36	1.800000e+00	5.320288e+05	
37	1.850000e+00	5.546955e+05	
38	1.900000e+00	5.771601e+05	
39	1.950000e+00	5.994247e+05	
40	2.000000e+00	6.214918e+05	
41	2.050000e+00	6.433633e+05	
42	2.100000e+00	6.650416e+05	
43	2.150000e+00	6.865289e+05	
44	2.200000e+00	7.078274e+05	
45	2.250000e+00	7.289392e+05	
46	2.300000e+00	7.498666e+05	
47	2.350000e+00	7.706115e+05	
48	2.400000e+00	7.911763e+05	
49	2.450000e+00	8.115629e+05	
50	2.500000e+00	8.317735e+05	
51	2.550000e+00	8.518101e+05	
52	2.600000e+00	8.716746e+05	
53	2.650000e+00	8.913693e+05	
54	2.700000e+00	9.108959e+05	

Index   v-sweep         rds             
--------------------------------------------------------------------------------
55	2.750000e+00	9.302564e+05	
56	2.800000e+00	9.494529e+05	
57	2.850000e+00	9.684872e+05	
58	2.900000e+00	9.873611e+05	
59	2.950000e+00	1.006077e+06	
60	3.000000e+00	1.024635e+06	
61	3.050000e+00	1.043039e+06	
62	3.100000e+00	1.061290e+06	
63	3.150000e+00	1.079390e+06	
64	3.200000e+00	1.097340e+06	
65	3.250000e+00	1.115143e+06	
66	3.300000e+00	1.132799e+06	
67	3.350000e+00	1.150311e+06	
68	3.400000e+00	1.167680e+06	
69	3.450000e+00	1.184908e+06	
70	3.500000e+00	1.201996e+06	
71	3.550000e+00	1.218946e+06	
72	3.600000e+00	1.235760e+06	
73	3.650000e+00	1.252439e+06	
74	3.700000e+00	1.268984e+06	
75	3.750000e+00	1.285398e+06	
76	3.800000e+00	1.301681e+06	
77	3.850000e+00	1.317835e+06	
78	3.900000e+00	1.333862e+06	
79	3.950000e+00	1.349763e+06	
80	4.000000e+00	1.365539e+06	
81	4.050000e+00	1.381191e+06	
82	4.100000e+00	1.396722e+06	
83	4.150000e+00	1.412132e+06	
84	4.200000e+00	1.427422e+06	
85	4.250000e+00	1.442595e+06	
86	4.300000e+00	1.457651e+06	
87	4.350000e+00	1.472592e+06	
88	4.400000e+00	1.487418e+06	
89	4.450000e+00	1.502131e+06	
90	4.500000e+00	1.516733e+06	
91	4.550000e+00	1.531224e+06	
92	4.600000e+00	1.545605e+06	
93	4.650000e+00	1.559879e+06	
94	4.700000e+00	1.574045e+06	
95	4.750000e+00	1.588106e+06	
96	4.800000e+00	1.602061e+06	
97	4.850000e+00	1.615914e+06	
98	4.900000e+00	1.629663e+06	
99	4.950000e+00	1.643311e+06	
100	5.000000e+00	1.656859e+06	
101	5.050000e+00	1.670307e+06	
102	5.100000e+00	1.683657e+06	
103	5.150000e+00	1.696909e+06	
104	5.200000e+00	1.710065e+06	
105	5.250000e+00	1.723126e+06	
106	5.300000e+00	1.736093e+06	
107	5.350000e+00	1.748966e+06	
108	5.400000e+00	1.761747e+06	
109	5.450000e+00	1.774436e+06	
110	5.500000e+00	1.787035e+06	
111	5.550000e+00	1.799544e+06	
112	5.600000e+00	1.811964e+06	

Index   v-sweep         rds             
--------------------------------------------------------------------------------
113	5.650000e+00	1.824297e+06	
114	5.700000e+00	1.836543e+06	
115	5.750000e+00	1.848703e+06	
116	5.800000e+00	1.860777e+06	
117	5.850000e+00	1.872767e+06	
118	5.900000e+00	1.884674e+06	
119	5.950000e+00	1.896498e+06	
120	6.000000e+00	1.908240e+06	
121	6.050000e+00	1.919901e+06	
122	6.100000e+00	1.931482e+06	
123	6.150000e+00	1.942984e+06	
124	6.200000e+00	1.954406e+06	
125	6.250000e+00	1.965751e+06	
126	6.300000e+00	1.977019e+06	
127	6.350000e+00	1.988210e+06	
128	6.400000e+00	1.999326e+06	
129	6.450000e+00	2.010367e+06	
130	6.500000e+00	2.021333e+06	
131	6.550000e+00	2.032226e+06	
132	6.600000e+00	2.043047e+06	
Reset re-loads circuit ***************************

Circuit: ***************************

Doing analysis at TEMP = 125.000000 and TNOM = 125.000000


No. of Data Rows : 133
                          ***************************
                          DC transfer characteristic  Mon Jan  9 13:57:43  2023
--------------------------------------------------------------------------------
Index   v-sweep         rds             
--------------------------------------------------------------------------------
0	0.000000e+00	6.317115e+03	
1	5.000000e-02	6.591164e+03	
2	1.000000e-01	6.883758e+03	
3	1.500000e-01	7.196820e+03	
4	2.000000e-01	7.532553e+03	
5	2.500000e-01	7.893485e+03	
6	3.000000e-01	8.282537e+03	
7	3.500000e-01	8.703098e+03	
8	4.000000e-01	9.159125e+03	
9	4.500000e-01	9.655266e+03	
10	5.000000e-01	1.019702e+04	
11	5.500000e-01	1.079093e+04	
12	6.000000e-01	1.144487e+04	
13	6.500000e-01	1.216836e+04	
14	7.000000e-01	1.297304e+04	
15	7.500000e-01	1.387333e+04	
16	8.000000e-01	1.488724e+04	
17	8.500000e-01	1.603758e+04	
18	9.000000e-01	1.735371e+04	
19	9.500000e-01	1.887398e+04	
20	1.000000e+00	2.064940e+04	
21	1.050000e+00	2.274913e+04	
22	1.100000e+00	2.526853e+04	
23	1.150000e+00	2.834069e+04	
24	1.200000e+00	3.214996e+04	
25	1.250000e+00	3.693896e+04	
26	1.300000e+00	4.298434e+04	
27	1.350000e+00	5.051042e+04	
28	1.400000e+00	5.956582e+04	
29	1.450000e+00	6.997672e+04	
30	1.500000e+00	8.143461e+04	
31	1.550000e+00	9.362410e+04	
32	1.600000e+00	1.062934e+05	
33	1.650000e+00	1.192645e+05	
34	1.700000e+00	1.324186e+05	
35	1.750000e+00	1.456771e+05	
36	1.800000e+00	1.589883e+05	
37	1.850000e+00	1.723173e+05	
38	1.900000e+00	1.856404e+05	
39	1.950000e+00	1.989412e+05	
40	2.000000e+00	2.122079e+05	
41	2.050000e+00	2.254322e+05	
42	2.100000e+00	2.386079e+05	
43	2.150000e+00	2.517306e+05	
44	2.200000e+00	2.647970e+05	
45	2.250000e+00	2.778045e+05	
46	2.300000e+00	2.907513e+05	
47	2.350000e+00	3.036361e+05	
48	2.400000e+00	3.164577e+05	
49	2.450000e+00	3.292156e+05	
50	2.500000e+00	3.419090e+05	
51	2.550000e+00	3.545378e+05	
52	2.600000e+00	3.671017e+05	
53	2.650000e+00	3.796006e+05	
54	2.700000e+00	3.920344e+05	

Index   v-sweep         rds             
--------------------------------------------------------------------------------
55	2.750000e+00	4.044033e+05	
56	2.800000e+00	4.167073e+05	
57	2.850000e+00	4.289467e+05	
58	2.900000e+00	4.411216e+05	
59	2.950000e+00	4.532323e+05	
60	3.000000e+00	4.652790e+05	
61	3.050000e+00	4.772620e+05	
62	3.100000e+00	4.891817e+05	
63	3.150000e+00	5.010383e+05	
64	3.200000e+00	5.128322e+05	
65	3.250000e+00	5.245638e+05	
66	3.300000e+00	5.362334e+05	
67	3.350000e+00	5.478413e+05	
68	3.400000e+00	5.593880e+05	
69	3.450000e+00	5.708738e+05	
70	3.500000e+00	5.822991e+05	
71	3.550000e+00	5.936643e+05	
72	3.600000e+00	6.049698e+05	
73	3.650000e+00	6.162159e+05	
74	3.700000e+00	6.274031e+05	
75	3.750000e+00	6.385318e+05	
76	3.800000e+00	6.496022e+05	
77	3.850000e+00	6.606149e+05	
78	3.900000e+00	6.715702e+05	
79	3.950000e+00	6.824684e+05	
80	4.000000e+00	6.933101e+05	
81	4.050000e+00	7.040955e+05	
82	4.100000e+00	7.148251e+05	
83	4.150000e+00	7.254993e+05	
84	4.200000e+00	7.361183e+05	
85	4.250000e+00	7.466827e+05	
86	4.300000e+00	7.571928e+05	
87	4.350000e+00	7.676489e+05	
88	4.400000e+00	7.780514e+05	
89	4.450000e+00	7.884007e+05	
90	4.500000e+00	7.986973e+05	
91	4.550000e+00	8.089413e+05	
92	4.600000e+00	8.191333e+05	
93	4.650000e+00	8.292735e+05	
94	4.700000e+00	8.393624e+05	
95	4.750000e+00	8.494002e+05	
96	4.800000e+00	8.593874e+05	
97	4.850000e+00	8.693243e+05	
98	4.900000e+00	8.792112e+05	
99	4.950000e+00	8.890486e+05	
100	5.000000e+00	8.988366e+05	
101	5.050000e+00	9.085758e+05	
102	5.100000e+00	9.182663e+05	
103	5.150000e+00	9.279087e+05	
104	5.200000e+00	9.375031e+05	
105	5.250000e+00	9.470499e+05	
106	5.300000e+00	9.565495e+05	
107	5.350000e+00	9.660022e+05	
108	5.400000e+00	9.754082e+05	
109	5.450000e+00	9.847680e+05	
110	5.500000e+00	9.940819e+05	
111	5.550000e+00	1.003350e+06	
112	5.600000e+00	1.012573e+06	

Index   v-sweep         rds             
--------------------------------------------------------------------------------
113	5.650000e+00	1.021751e+06	
114	5.700000e+00	1.030884e+06	
115	5.750000e+00	1.039973e+06	
116	5.800000e+00	1.049017e+06	
117	5.850000e+00	1.058018e+06	
118	5.900000e+00	1.066976e+06	
119	5.950000e+00	1.075890e+06	
120	6.000000e+00	1.084761e+06	
121	6.050000e+00	1.093590e+06	
122	6.100000e+00	1.102376e+06	
123	6.150000e+00	1.111121e+06	
124	6.200000e+00	1.119823e+06	
125	6.250000e+00	1.128484e+06	
126	6.300000e+00	1.137104e+06	
127	6.350000e+00	1.145683e+06	
128	6.400000e+00	1.154222e+06	
129	6.450000e+00	1.162720e+06	
130	6.500000e+00	1.171178e+06	
131	6.550000e+00	1.179596e+06	
132	6.600000e+00	1.187974e+06	
Reset re-loads circuit ***************************

Circuit: ***************************

Doing analysis at TEMP = 125.000000 and TNOM = 125.000000


No. of Data Rows : 133
                          ***************************
                          DC transfer characteristic  Mon Jan  9 13:57:43  2023
--------------------------------------------------------------------------------
Index   v-sweep         rds             
--------------------------------------------------------------------------------
0	0.000000e+00	5.018299e+03	
1	5.000000e-02	5.185607e+03	
2	1.000000e-01	5.360980e+03	
3	1.500000e-01	5.545004e+03	
4	2.000000e-01	5.738323e+03	
5	2.500000e-01	5.941649e+03	
6	3.000000e-01	6.155765e+03	
7	3.500000e-01	6.381543e+03	
8	4.000000e-01	6.619948e+03	
9	4.500000e-01	6.872057e+03	
10	5.000000e-01	7.139071e+03	
11	5.500000e-01	7.422338e+03	
12	6.000000e-01	7.723375e+03	
13	6.500000e-01	8.043890e+03	
14	7.000000e-01	8.385821e+03	
15	7.500000e-01	8.751371e+03	
16	8.000000e-01	9.143058e+03	
17	8.500000e-01	9.563771e+03	
18	9.000000e-01	1.001684e+04	
19	9.500000e-01	1.050614e+04	
20	1.000000e+00	1.103617e+04	
21	1.050000e+00	1.161225e+04	
22	1.100000e+00	1.224064e+04	
23	1.150000e+00	1.292884e+04	
24	1.200000e+00	1.368588e+04	
25	1.250000e+00	1.452277e+04	
26	1.300000e+00	1.545308e+04	
27	1.350000e+00	1.649383e+04	
28	1.400000e+00	1.766673e+04	
29	1.450000e+00	1.900003e+04	
30	1.500000e+00	2.053141e+04	
31	1.550000e+00	2.231228e+04	
32	1.600000e+00	2.441387e+04	
33	1.650000e+00	2.693454e+04	
34	1.700000e+00	3.000400e+04	
35	1.750000e+00	3.377405e+04	
36	1.800000e+00	3.838362e+04	
37	1.850000e+00	4.390457e+04	
38	1.900000e+00	5.030592e+04	
39	1.950000e+00	5.746845e+04	
40	2.000000e+00	6.523366e+04	
41	2.050000e+00	7.344823e+04	
42	2.100000e+00	8.198571e+04	
43	2.150000e+00	9.075026e+04	
44	2.200000e+00	9.967213e+04	
45	2.250000e+00	1.087014e+05	
46	2.300000e+00	1.178023e+05	
47	2.350000e+00	1.269491e+05	
48	2.400000e+00	1.361233e+05	
49	2.450000e+00	1.453110e+05	
50	2.500000e+00	1.545020e+05	
51	2.550000e+00	1.636885e+05	
52	2.600000e+00	1.728647e+05	
53	2.650000e+00	1.820260e+05	
54	2.700000e+00	1.911688e+05	

Index   v-sweep         rds             
--------------------------------------------------------------------------------
55	2.750000e+00	2.002903e+05	
56	2.800000e+00	2.093884e+05	
57	2.850000e+00	2.184612e+05	
58	2.900000e+00	2.275073e+05	
59	2.950000e+00	2.365256e+05	
60	3.000000e+00	2.455152e+05	
61	3.050000e+00	2.544753e+05	
62	3.100000e+00	2.634053e+05	
63	3.150000e+00	2.723047e+05	
64	3.200000e+00	2.811732e+05	
65	3.250000e+00	2.900104e+05	
66	3.300000e+00	2.988160e+05	
67	3.350000e+00	3.075900e+05	
68	3.400000e+00	3.163321e+05	
69	3.450000e+00	3.250423e+05	
70	3.500000e+00	3.337204e+05	
71	3.550000e+00	3.423665e+05	
72	3.600000e+00	3.509805e+05	
73	3.650000e+00	3.595624e+05	
74	3.700000e+00	3.681123e+05	
75	3.750000e+00	3.766301e+05	
76	3.800000e+00	3.851160e+05	
77	3.850000e+00	3.935699e+05	
78	3.900000e+00	4.019920e+05	
79	3.950000e+00	4.103824e+05	
80	4.000000e+00	4.187411e+05	
81	4.050000e+00	4.270682e+05	
82	4.100000e+00	4.353638e+05	
83	4.150000e+00	4.436281e+05	
84	4.200000e+00	4.518611e+05	
85	4.250000e+00	4.600630e+05	
86	4.300000e+00	4.682339e+05	
87	4.350000e+00	4.763738e+05	
88	4.400000e+00	4.844830e+05	
89	4.450000e+00	4.925616e+05	
90	4.500000e+00	5.006096e+05	
91	4.550000e+00	5.086273e+05	
92	4.600000e+00	5.166146e+05	
93	4.650000e+00	5.245719e+05	
94	4.700000e+00	5.324992e+05	
95	4.750000e+00	5.403966e+05	
96	4.800000e+00	5.482644e+05	
97	4.850000e+00	5.561025e+05	
98	4.900000e+00	5.639112e+05	
99	4.950000e+00	5.716906e+05	
100	5.000000e+00	5.794408e+05	
101	5.050000e+00	5.871621e+05	
102	5.100000e+00	5.948544e+05	
103	5.150000e+00	6.025180e+05	
104	5.200000e+00	6.101529e+05	
105	5.250000e+00	6.177594e+05	
106	5.300000e+00	6.253376e+05	
107	5.350000e+00	6.328876e+05	
108	5.400000e+00	6.404095e+05	
109	5.450000e+00	6.479035e+05	
110	5.500000e+00	6.553697e+05	
111	5.550000e+00	6.628082e+05	
112	5.600000e+00	6.702193e+05	

Index   v-sweep         rds             
--------------------------------------------------------------------------------
113	5.650000e+00	6.776030e+05	
114	5.700000e+00	6.849594e+05	
115	5.750000e+00	6.922888e+05	
116	5.800000e+00	6.995912e+05	
117	5.850000e+00	7.068667e+05	
118	5.900000e+00	7.141156e+05	
119	5.950000e+00	7.213379e+05	
120	6.000000e+00	7.285337e+05	
121	6.050000e+00	7.357033e+05	
122	6.100000e+00	7.428467e+05	
123	6.150000e+00	7.499640e+05	
124	6.200000e+00	7.570554e+05	
125	6.250000e+00	7.641211e+05	
126	6.300000e+00	7.711611e+05	
127	6.350000e+00	7.781756e+05	
128	6.400000e+00	7.851647e+05	
129	6.450000e+00	7.921285e+05	
130	6.500000e+00	7.990672e+05	
131	6.550000e+00	8.059809e+05	
132	6.600000e+00	8.128697e+05	
Reset re-loads circuit ***************************

Circuit: ***************************

Doing analysis at TEMP = 125.000000 and TNOM = 125.000000


No. of Data Rows : 133
                          ***************************
                          DC transfer characteristic  Mon Jan  9 13:57:43  2023
--------------------------------------------------------------------------------
Index   v-sweep         rds             
--------------------------------------------------------------------------------
0	0.000000e+00	4.376693e+03	
1	5.000000e-02	4.495945e+03	
2	1.000000e-01	4.619661e+03	
3	1.500000e-01	4.748088e+03	
4	2.000000e-01	4.881496e+03	
5	2.500000e-01	5.020172e+03	
6	3.000000e-01	5.164428e+03	
7	3.500000e-01	5.314601e+03	
8	4.000000e-01	5.471055e+03	
9	4.500000e-01	5.634186e+03	
10	5.000000e-01	5.804423e+03	
11	5.500000e-01	5.982232e+03	
12	6.000000e-01	6.168124e+03	
13	6.500000e-01	6.362654e+03	
14	7.000000e-01	6.566430e+03	
15	7.500000e-01	6.780120e+03	
16	8.000000e-01	7.004456e+03	
17	8.500000e-01	7.240245e+03	
18	9.000000e-01	7.488378e+03	
19	9.500000e-01	7.749841e+03	
20	1.000000e+00	8.025729e+03	
21	1.050000e+00	8.317260e+03	
22	1.100000e+00	8.625793e+03	
23	1.150000e+00	8.952851e+03	
24	1.200000e+00	9.300148e+03	
25	1.250000e+00	9.669616e+03	
26	1.300000e+00	1.006345e+04	
27	1.350000e+00	1.048413e+04	
28	1.400000e+00	1.093453e+04	
29	1.450000e+00	1.141793e+04	
30	1.500000e+00	1.193815e+04	
31	1.550000e+00	1.249963e+04	
32	1.600000e+00	1.310763e+04	
33	1.650000e+00	1.376840e+04	
34	1.700000e+00	1.448950e+04	
35	1.750000e+00	1.528017e+04	
36	1.800000e+00	1.615200e+04	
37	1.850000e+00	1.711976e+04	
38	1.900000e+00	1.820279e+04	
39	1.950000e+00	1.942711e+04	
40	2.000000e+00	2.082842e+04	
41	2.050000e+00	2.245620e+04	
42	2.100000e+00	2.437795e+04	
43	2.150000e+00	2.668063e+04	
44	2.200000e+00	2.946376e+04	
45	2.250000e+00	3.281894e+04	
46	2.300000e+00	3.680060e+04	
47	2.350000e+00	4.140522e+04	
48	2.400000e+00	4.657427e+04	
49	2.450000e+00	5.221678e+04	
50	2.500000e+00	5.823475e+04	
51	2.550000e+00	6.453975e+04	
52	2.600000e+00	7.105937e+04	
53	2.650000e+00	7.773747e+04	
54	2.700000e+00	8.453166e+04	

Index   v-sweep         rds             
--------------------------------------------------------------------------------
55	2.750000e+00	9.141033e+04	
56	2.800000e+00	9.834988e+04	
57	2.850000e+00	1.053327e+05	
58	2.900000e+00	1.123454e+05	
59	2.950000e+00	1.193779e+05	
60	3.000000e+00	1.264224e+05	
61	3.050000e+00	1.334729e+05	
62	3.100000e+00	1.405245e+05	
63	3.150000e+00	1.475736e+05	
64	3.200000e+00	1.546171e+05	
65	3.250000e+00	1.616527e+05	
66	3.300000e+00	1.686783e+05	
67	3.350000e+00	1.756924e+05	
68	3.400000e+00	1.826936e+05	
69	3.450000e+00	1.896809e+05	
70	3.500000e+00	1.966534e+05	
71	3.550000e+00	2.036102e+05	
72	3.600000e+00	2.105509e+05	
73	3.650000e+00	2.174748e+05	
74	3.700000e+00	2.243815e+05	
75	3.750000e+00	2.312706e+05	
76	3.800000e+00	2.381419e+05	
77	3.850000e+00	2.449951e+05	
78	3.900000e+00	2.518299e+05	
79	3.950000e+00	2.586461e+05	
80	4.000000e+00	2.654437e+05	
81	4.050000e+00	2.722224e+05	
82	4.100000e+00	2.789823e+05	
83	4.150000e+00	2.857231e+05	
84	4.200000e+00	2.924448e+05	
85	4.250000e+00	2.991475e+05	
86	4.300000e+00	3.058309e+05	
87	4.350000e+00	3.124952e+05	
88	4.400000e+00	3.191403e+05	
89	4.450000e+00	3.257662e+05	
90	4.500000e+00	3.323728e+05	
91	4.550000e+00	3.389603e+05	
92	4.600000e+00	3.455285e+05	
93	4.650000e+00	3.520776e+05	
94	4.700000e+00	3.586076e+05	
95	4.750000e+00	3.651184e+05	
96	4.800000e+00	3.716101e+05	
97	4.850000e+00	3.780828e+05	
98	4.900000e+00	3.845365e+05	
99	4.950000e+00	3.909712e+05	
100	5.000000e+00	3.973870e+05	
101	5.050000e+00	4.037839e+05	
102	5.100000e+00	4.101620e+05	
103	5.150000e+00	4.165213e+05	
104	5.200000e+00	4.228619e+05	
105	5.250000e+00	4.291838e+05	
106	5.300000e+00	4.354871e+05	
107	5.350000e+00	4.417719e+05	
108	5.400000e+00	4.480381e+05	
109	5.450000e+00	4.542859e+05	
110	5.500000e+00	4.605153e+05	
111	5.550000e+00	4.667264e+05	
112	5.600000e+00	4.729193e+05	

Index   v-sweep         rds             
--------------------------------------------------------------------------------
113	5.650000e+00	4.790939e+05	
114	5.700000e+00	4.852504e+05	
115	5.750000e+00	4.913888e+05	
116	5.800000e+00	4.975092e+05	
117	5.850000e+00	5.036117e+05	
118	5.900000e+00	5.096962e+05	
119	5.950000e+00	5.157630e+05	
120	6.000000e+00	5.218120e+05	
121	6.050000e+00	5.278433e+05	
122	6.100000e+00	5.338570e+05	
123	6.150000e+00	5.398531e+05	
124	6.200000e+00	5.458317e+05	
125	6.250000e+00	5.517929e+05	
126	6.300000e+00	5.577367e+05	
127	6.350000e+00	5.636632e+05	
128	6.400000e+00	5.695725e+05	
129	6.450000e+00	5.754646e+05	
130	6.500000e+00	5.813396e+05	
131	6.550000e+00	5.871975e+05	
132	6.600000e+00	5.930385e+05	
Reset re-loads circuit ***************************

Circuit: ***************************

Doing analysis at TEMP = 125.000000 and TNOM = 125.000000


No. of Data Rows : 133
                          ***************************
                          DC transfer characteristic  Mon Jan  9 13:57:43  2023
--------------------------------------------------------------------------------
Index   v-sweep         rds             
--------------------------------------------------------------------------------
0	0.000000e+00	4.030823e+03	
1	5.000000e-02	4.123452e+03	
2	1.000000e-01	4.218905e+03	
3	1.500000e-01	4.317308e+03	
4	2.000000e-01	4.418797e+03	
5	2.500000e-01	4.523515e+03	
6	3.000000e-01	4.631614e+03	
7	3.500000e-01	4.743256e+03	
8	4.000000e-01	4.858615e+03	
9	4.500000e-01	4.977874e+03	
10	5.000000e-01	5.101230e+03	
11	5.500000e-01	5.228894e+03	
12	6.000000e-01	5.361091e+03	
13	6.500000e-01	5.498062e+03	
14	7.000000e-01	5.640065e+03	
15	7.500000e-01	5.787380e+03	
16	8.000000e-01	5.940303e+03	
17	8.500000e-01	6.099158e+03	
18	9.000000e-01	6.264291e+03	
19	9.500000e-01	6.436076e+03	
20	1.000000e+00	6.614918e+03	
21	1.050000e+00	6.801256e+03	
22	1.100000e+00	6.995565e+03	
23	1.150000e+00	7.198363e+03	
24	1.200000e+00	7.410212e+03	
25	1.250000e+00	7.631725e+03	
26	1.300000e+00	7.863574e+03	
27	1.350000e+00	8.106493e+03	
28	1.400000e+00	8.361290e+03	
29	1.450000e+00	8.628851e+03	
30	1.500000e+00	8.910156e+03	
31	1.550000e+00	9.206289e+03	
32	1.600000e+00	9.518453e+03	
33	1.650000e+00	9.847988e+03	
34	1.700000e+00	1.019639e+04	
35	1.750000e+00	1.056535e+04	
36	1.800000e+00	1.095675e+04	
37	1.850000e+00	1.137276e+04	
38	1.900000e+00	1.181581e+04	
39	1.950000e+00	1.228875e+04	
40	2.000000e+00	1.279483e+04	
41	2.050000e+00	1.333790e+04	
42	2.100000e+00	1.392250e+04	
43	2.150000e+00	1.455411e+04	
44	2.200000e+00	1.523946e+04	
45	2.250000e+00	1.598696e+04	
46	2.300000e+00	1.680742e+04	
47	2.350000e+00	1.771506e+04	
48	2.400000e+00	1.872898e+04	
49	2.450000e+00	1.987534e+04	
50	2.500000e+00	2.118993e+04	
51	2.550000e+00	2.272074e+04	
52	2.600000e+00	2.452860e+04	
53	2.650000e+00	2.668289e+04	
54	2.700000e+00	2.924988e+04	

Index   v-sweep         rds             
--------------------------------------------------------------------------------
55	2.750000e+00	3.227551e+04	
56	2.800000e+00	3.577107e+04	
57	2.850000e+00	3.971048e+04	
58	2.900000e+00	4.404030e+04	
59	2.950000e+00	4.869491e+04	
60	3.000000e+00	5.360930e+04	
61	3.050000e+00	5.872624e+04	
62	3.100000e+00	6.399871e+04	
63	3.150000e+00	6.938960e+04	
64	3.200000e+00	7.487018e+04	
65	3.250000e+00	8.041845e+04	
66	3.300000e+00	8.601757e+04	
67	3.350000e+00	9.165461e+04	
68	3.400000e+00	9.731957e+04	
69	3.450000e+00	1.030047e+05	
70	3.500000e+00	1.087039e+05	
71	3.550000e+00	1.144123e+05	
72	3.600000e+00	1.201262e+05	
73	3.650000e+00	1.258424e+05	
74	3.700000e+00	1.315584e+05	
75	3.750000e+00	1.372723e+05	
76	3.800000e+00	1.429822e+05	
77	3.850000e+00	1.486868e+05	
78	3.900000e+00	1.543850e+05	
79	3.950000e+00	1.600758e+05	
80	4.000000e+00	1.657584e+05	
81	4.050000e+00	1.714321e+05	
82	4.100000e+00	1.770964e+05	
83	4.150000e+00	1.827506e+05	
84	4.200000e+00	1.883945e+05	
85	4.250000e+00	1.940276e+05	
86	4.300000e+00	1.996496e+05	
87	4.350000e+00	2.052603e+05	
88	4.400000e+00	2.108594e+05	
89	4.450000e+00	2.164468e+05	
90	4.500000e+00	2.220222e+05	
91	4.550000e+00	2.275856e+05	
92	4.600000e+00	2.331368e+05	
93	4.650000e+00	2.386756e+05	
94	4.700000e+00	2.442021e+05	
95	4.750000e+00	2.497160e+05	
96	4.800000e+00	2.552175e+05	
97	4.850000e+00	2.607063e+05	
98	4.900000e+00	2.661825e+05	
99	4.950000e+00	2.716459e+05	
100	5.000000e+00	2.770967e+05	
101	5.050000e+00	2.825347e+05	
102	5.100000e+00	2.879600e+05	
103	5.150000e+00	2.933725e+05	
104	5.200000e+00	2.987722e+05	
105	5.250000e+00	3.041591e+05	
106	5.300000e+00	3.095332e+05	
107	5.350000e+00	3.148946e+05	
108	5.400000e+00	3.202431e+05	
109	5.450000e+00	3.255789e+05	
110	5.500000e+00	3.309019e+05	
111	5.550000e+00	3.362122e+05	
112	5.600000e+00	3.415098e+05	

Index   v-sweep         rds             
--------------------------------------------------------------------------------
113	5.650000e+00	3.467946e+05	
114	5.700000e+00	3.520667e+05	
115	5.750000e+00	3.573262e+05	
116	5.800000e+00	3.625730e+05	
117	5.850000e+00	3.678072e+05	
118	5.900000e+00	3.730288e+05	
119	5.950000e+00	3.782378e+05	
120	6.000000e+00	3.834342e+05	
121	6.050000e+00	3.886181e+05	
122	6.100000e+00	3.937895e+05	
123	6.150000e+00	3.989485e+05	
124	6.200000e+00	4.040950e+05	
125	6.250000e+00	4.092291e+05	
126	6.300000e+00	4.143508e+05	
127	6.350000e+00	4.194602e+05	
128	6.400000e+00	4.245573e+05	
129	6.450000e+00	4.296421e+05	
130	6.500000e+00	4.347146e+05	
131	6.550000e+00	4.397749e+05	
132	6.600000e+00	4.448231e+05	
Reset re-loads circuit ***************************

Circuit: ***************************

Note: No ".plot", ".print", or ".fourier" lines; no simulations run
