
Note: Compatibility modes selected: hs

Warning: m=xx on .subckt line will override multiplier m hierarchy!


Circuit: ***************************

Doing analysis at TEMP = 25.000000 and TNOM = 25.000000


No. of Data Rows : 133
                          ***************************
                          DC transfer characteristic  Mon Jan  9 13:57:41  2023
--------------------------------------------------------------------------------
Index   v-sweep         rds             
--------------------------------------------------------------------------------
0	0.000000e+00	5.962759e+04	
1	5.000000e-02	7.357311e+04	
2	1.000000e-01	9.578104e+04	
3	1.500000e-01	1.359760e+05	
4	2.000000e-01	2.241591e+05	
5	2.500000e-01	4.694230e+05	
6	3.000000e-01	1.222654e+06	
7	3.500000e-01	3.106168e+06	
8	4.000000e-01	6.431980e+06	
9	4.500000e-01	1.071905e+07	
10	5.000000e-01	1.510093e+07	
11	5.500000e-01	1.895802e+07	
12	6.000000e-01	2.208029e+07	
13	6.500000e-01	2.451033e+07	
14	7.000000e-01	2.637812e+07	
15	7.500000e-01	2.781711e+07	
16	8.000000e-01	2.893675e+07	
17	8.500000e-01	2.981958e+07	
18	9.000000e-01	3.052582e+07	
19	9.500000e-01	3.109899e+07	
20	1.000000e+00	3.157061e+07	
21	1.050000e+00	3.196368e+07	
22	1.100000e+00	3.229518e+07	
23	1.150000e+00	3.257780e+07	
24	1.200000e+00	3.282112e+07	
25	1.250000e+00	3.303249e+07	
26	1.300000e+00	3.321761e+07	
27	1.350000e+00	3.338095e+07	
28	1.400000e+00	3.352603e+07	
29	1.450000e+00	3.365569e+07	
30	1.500000e+00	3.377223e+07	
31	1.550000e+00	3.387751e+07	
32	1.600000e+00	3.397307e+07	
33	1.650000e+00	3.406019e+07	
34	1.700000e+00	3.413992e+07	
35	1.750000e+00	3.421317e+07	
36	1.800000e+00	3.428068e+07	
37	1.850000e+00	3.434311e+07	
38	1.900000e+00	3.440101e+07	
39	1.950000e+00	3.445486e+07	
40	2.000000e+00	3.450506e+07	
41	2.050000e+00	3.455198e+07	
42	2.100000e+00	3.459593e+07	
43	2.150000e+00	3.463717e+07	
44	2.200000e+00	3.467597e+07	
45	2.250000e+00	3.471252e+07	
46	2.300000e+00	3.474702e+07	
47	2.350000e+00	3.477963e+07	
48	2.400000e+00	3.481052e+07	
49	2.450000e+00	3.483980e+07	
50	2.500000e+00	3.486761e+07	
51	2.550000e+00	3.489405e+07	
52	2.600000e+00	3.491923e+07	
53	2.650000e+00	3.494323e+07	
54	2.700000e+00	3.496612e+07	

Index   v-sweep         rds             
--------------------------------------------------------------------------------
55	2.750000e+00	3.498800e+07	
56	2.800000e+00	3.500892e+07	
57	2.850000e+00	3.502894e+07	
58	2.900000e+00	3.504813e+07	
59	2.950000e+00	3.506653e+07	
60	3.000000e+00	3.508419e+07	
61	3.050000e+00	3.510116e+07	
62	3.100000e+00	3.511747e+07	
63	3.150000e+00	3.513316e+07	
64	3.200000e+00	3.514827e+07	
65	3.250000e+00	3.516283e+07	
66	3.300000e+00	3.517687e+07	
67	3.350000e+00	3.519041e+07	
68	3.400000e+00	3.520349e+07	
69	3.450000e+00	3.521612e+07	
70	3.500000e+00	3.522833e+07	
71	3.550000e+00	3.524014e+07	
72	3.600000e+00	3.525156e+07	
73	3.650000e+00	3.526262e+07	
74	3.700000e+00	3.527334e+07	
75	3.750000e+00	3.528372e+07	
76	3.800000e+00	3.529379e+07	
77	3.850000e+00	3.530356e+07	
78	3.900000e+00	3.531304e+07	
79	3.950000e+00	3.532224e+07	
80	4.000000e+00	3.533118e+07	
81	4.050000e+00	3.533986e+07	
82	4.100000e+00	3.534831e+07	
83	4.150000e+00	3.535652e+07	
84	4.200000e+00	3.536451e+07	
85	4.250000e+00	3.537228e+07	
86	4.300000e+00	3.537985e+07	
87	4.350000e+00	3.538723e+07	
88	4.400000e+00	3.539441e+07	
89	4.450000e+00	3.540141e+07	
90	4.500000e+00	3.540823e+07	
91	4.550000e+00	3.541488e+07	
92	4.600000e+00	3.542138e+07	
93	4.650000e+00	3.542771e+07	
94	4.700000e+00	3.543389e+07	
95	4.750000e+00	3.543992e+07	
96	4.800000e+00	3.544582e+07	
97	4.850000e+00	3.545158e+07	
98	4.900000e+00	3.545720e+07	
99	4.950000e+00	3.546270e+07	
100	5.000000e+00	3.546807e+07	
101	5.050000e+00	3.547333e+07	
102	5.100000e+00	3.547847e+07	
103	5.150000e+00	3.548350e+07	
104	5.200000e+00	3.548842e+07	
105	5.250000e+00	3.549324e+07	
106	5.300000e+00	3.549795e+07	
107	5.350000e+00	3.550257e+07	
108	5.400000e+00	3.550709e+07	
109	5.450000e+00	3.551152e+07	
110	5.500000e+00	3.551586e+07	
111	5.550000e+00	3.552011e+07	
112	5.600000e+00	3.552428e+07	

Index   v-sweep         rds             
--------------------------------------------------------------------------------
113	5.650000e+00	3.552836e+07	
114	5.700000e+00	3.553237e+07	
115	5.750000e+00	3.553630e+07	
116	5.800000e+00	3.554015e+07	
117	5.850000e+00	3.554393e+07	
118	5.900000e+00	3.554764e+07	
119	5.950000e+00	3.555129e+07	
120	6.000000e+00	3.555486e+07	
121	6.050000e+00	3.555837e+07	
122	6.100000e+00	3.556181e+07	
123	6.150000e+00	3.556519e+07	
124	6.200000e+00	3.556852e+07	
125	6.250000e+00	3.557178e+07	
126	6.300000e+00	3.557499e+07	
127	6.350000e+00	3.557814e+07	
128	6.400000e+00	3.558124e+07	
129	6.450000e+00	3.558428e+07	
130	6.500000e+00	3.558727e+07	
131	6.550000e+00	3.559021e+07	
132	6.600000e+00	3.559310e+07	
Reset re-loads circuit ***************************

Circuit: ***************************

Doing analysis at TEMP = 25.000000 and TNOM = 25.000000


No. of Data Rows : 133
                          ***************************
                          DC transfer characteristic  Mon Jan  9 13:57:41  2023
--------------------------------------------------------------------------------
Index   v-sweep         rds             
--------------------------------------------------------------------------------
0	0.000000e+00	1.491089e+04	
1	5.000000e-02	1.569449e+04	
2	1.000000e-01	1.656260e+04	
3	1.500000e-01	1.752964e+04	
4	2.000000e-01	1.861353e+04	
5	2.500000e-01	1.983678e+04	
6	3.000000e-01	2.122803e+04	
7	3.500000e-01	2.282436e+04	
8	4.000000e-01	2.467454e+04	
9	4.500000e-01	2.684405e+04	
10	5.000000e-01	2.942277e+04	
11	5.500000e-01	3.253739e+04	
12	6.000000e-01	3.637187e+04	
13	6.500000e-01	4.120299e+04	
14	7.000000e-01	4.746432e+04	
15	7.500000e-01	5.586742e+04	
16	8.000000e-01	6.764159e+04	
17	8.500000e-01	8.502367e+04	
18	9.000000e-01	1.122558e+05	
19	9.500000e-01	1.574457e+05	
20	1.000000e+00	2.351529e+05	
21	1.050000e+00	3.674141e+05	
22	1.100000e+00	5.786814e+05	
23	1.150000e+00	8.844394e+05	
24	1.200000e+00	1.281976e+06	
25	1.250000e+00	1.750829e+06	
26	1.300000e+00	2.261083e+06	
27	1.350000e+00	2.782825e+06	
28	1.400000e+00	3.292190e+06	
29	1.450000e+00	3.773299e+06	
30	1.500000e+00	4.217486e+06	
31	1.550000e+00	4.621464e+06	
32	1.600000e+00	4.985448e+06	
33	1.650000e+00	5.311666e+06	
34	1.700000e+00	5.603332e+06	
35	1.750000e+00	5.863998e+06	
36	1.800000e+00	6.097182e+06	
37	1.850000e+00	6.306171e+06	
38	1.900000e+00	6.493938e+06	
39	1.950000e+00	6.663113e+06	
40	2.000000e+00	6.816001e+06	
41	2.050000e+00	6.954601e+06	
42	2.100000e+00	7.080641e+06	
43	2.150000e+00	7.195617e+06	
44	2.200000e+00	7.300817e+06	
45	2.250000e+00	7.397354e+06	
46	2.300000e+00	7.486192e+06	
47	2.350000e+00	7.568166e+06	
48	2.400000e+00	7.644004e+06	
49	2.450000e+00	7.714337e+06	
50	2.500000e+00	7.779719e+06	
51	2.550000e+00	7.840636e+06	
52	2.600000e+00	7.897512e+06	
53	2.650000e+00	7.950724e+06	
54	2.700000e+00	8.000605e+06	

Index   v-sweep         rds             
--------------------------------------------------------------------------------
55	2.750000e+00	8.047448e+06	
56	2.800000e+00	8.091516e+06	
57	2.850000e+00	8.133042e+06	
58	2.900000e+00	8.172235e+06	
59	2.950000e+00	8.209282e+06	
60	3.000000e+00	8.244350e+06	
61	3.050000e+00	8.277592e+06	
62	3.100000e+00	8.309144e+06	
63	3.150000e+00	8.339130e+06	
64	3.200000e+00	8.367660e+06	
65	3.250000e+00	8.394838e+06	
66	3.300000e+00	8.420756e+06	
67	3.350000e+00	8.445498e+06	
68	3.400000e+00	8.469142e+06	
69	3.450000e+00	8.491758e+06	
70	3.500000e+00	8.513411e+06	
71	3.550000e+00	8.534161e+06	
72	3.600000e+00	8.554062e+06	
73	3.650000e+00	8.573165e+06	
74	3.700000e+00	8.591516e+06	
75	3.750000e+00	8.609159e+06	
76	3.800000e+00	8.626134e+06	
77	3.850000e+00	8.642477e+06	
78	3.900000e+00	8.658223e+06	
79	3.950000e+00	8.673404e+06	
80	4.000000e+00	8.688049e+06	
81	4.050000e+00	8.702186e+06	
82	4.100000e+00	8.715841e+06	
83	4.150000e+00	8.729038e+06	
84	4.200000e+00	8.741799e+06	
85	4.250000e+00	8.754146e+06	
86	4.300000e+00	8.766098e+06	
87	4.350000e+00	8.777673e+06	
88	4.400000e+00	8.788890e+06	
89	4.450000e+00	8.799765e+06	
90	4.500000e+00	8.810312e+06	
91	4.550000e+00	8.820546e+06	
92	4.600000e+00	8.830482e+06	
93	4.650000e+00	8.840131e+06	
94	4.700000e+00	8.849507e+06	
95	4.750000e+00	8.858619e+06	
96	4.800000e+00	8.867480e+06	
97	4.850000e+00	8.876099e+06	
98	4.900000e+00	8.884487e+06	
99	4.950000e+00	8.892651e+06	
100	5.000000e+00	8.900602e+06	
101	5.050000e+00	8.908347e+06	
102	5.100000e+00	8.915894e+06	
103	5.150000e+00	8.923251e+06	
104	5.200000e+00	8.930424e+06	
105	5.250000e+00	8.937421e+06	
106	5.300000e+00	8.944248e+06	
107	5.350000e+00	8.950910e+06	
108	5.400000e+00	8.957414e+06	
109	5.450000e+00	8.963766e+06	
110	5.500000e+00	8.969970e+06	
111	5.550000e+00	8.976032e+06	
112	5.600000e+00	8.981956e+06	

Index   v-sweep         rds             
--------------------------------------------------------------------------------
113	5.650000e+00	8.987747e+06	
114	5.700000e+00	8.993410e+06	
115	5.750000e+00	8.998948e+06	
116	5.800000e+00	9.004366e+06	
117	5.850000e+00	9.009668e+06	
118	5.900000e+00	9.014857e+06	
119	5.950000e+00	9.019936e+06	
120	6.000000e+00	9.024910e+06	
121	6.050000e+00	9.029781e+06	
122	6.100000e+00	9.034553e+06	
123	6.150000e+00	9.039229e+06	
124	6.200000e+00	9.043810e+06	
125	6.250000e+00	9.048302e+06	
126	6.300000e+00	9.052705e+06	
127	6.350000e+00	9.057022e+06	
128	6.400000e+00	9.061256e+06	
129	6.450000e+00	9.065410e+06	
130	6.500000e+00	9.069485e+06	
131	6.550000e+00	9.073483e+06	
132	6.600000e+00	9.077408e+06	
Reset re-loads circuit ***************************

Circuit: ***************************

Doing analysis at TEMP = 25.000000 and TNOM = 25.000000


No. of Data Rows : 133
                          ***************************
                          DC transfer characteristic  Mon Jan  9 13:57:41  2023
--------------------------------------------------------------------------------
Index   v-sweep         rds             
--------------------------------------------------------------------------------
0	0.000000e+00	9.110292e+03	
1	5.000000e-02	9.378802e+03	
2	1.000000e-01	9.662839e+03	
3	1.500000e-01	9.963787e+03	
4	2.000000e-01	1.028320e+04	
5	2.500000e-01	1.062284e+04	
6	3.000000e-01	1.098468e+04	
7	3.500000e-01	1.137098e+04	
8	4.000000e-01	1.178429e+04	
9	4.500000e-01	1.222756e+04	
10	5.000000e-01	1.270416e+04	
11	5.500000e-01	1.321800e+04	
12	6.000000e-01	1.377361e+04	
13	6.500000e-01	1.437630e+04	
14	7.000000e-01	1.503233e+04	
15	7.500000e-01	1.574907e+04	
16	8.000000e-01	1.653538e+04	
17	8.500000e-01	1.740188e+04	
18	9.000000e-01	1.836146e+04	
19	9.500000e-01	1.942997e+04	
20	1.000000e+00	2.062700e+04	
21	1.050000e+00	2.197715e+04	
22	1.100000e+00	2.351169e+04	
23	1.150000e+00	2.527091e+04	
24	1.200000e+00	2.730767e+04	
25	1.250000e+00	2.969251e+04	
26	1.300000e+00	3.252160e+04	
27	1.350000e+00	3.592897e+04	
28	1.400000e+00	4.010632e+04	
29	1.450000e+00	4.533523e+04	
30	1.500000e+00	5.204127e+04	
31	1.550000e+00	6.088529e+04	
32	1.600000e+00	7.291577e+04	
33	1.650000e+00	8.981003e+04	
34	1.700000e+00	1.142060e+05	
35	1.750000e+00	1.500191e+05	
36	1.800000e+00	2.024298e+05	
37	1.850000e+00	2.771175e+05	
38	1.900000e+00	3.787078e+05	
39	1.950000e+00	5.091624e+05	
40	2.000000e+00	6.670585e+05	
41	2.050000e+00	8.480419e+05	
42	2.100000e+00	1.046003e+06	
43	2.150000e+00	1.254343e+06	
44	2.200000e+00	1.466940e+06	
45	2.250000e+00	1.678680e+06	
46	2.300000e+00	1.885649e+06	
47	2.350000e+00	2.085085e+06	
48	2.400000e+00	2.275207e+06	
49	2.450000e+00	2.455016e+06	
50	2.500000e+00	2.624097e+06	
51	2.550000e+00	2.782447e+06	
52	2.600000e+00	2.930344e+06	
53	2.650000e+00	3.068242e+06	
54	2.700000e+00	3.196697e+06	

Index   v-sweep         rds             
--------------------------------------------------------------------------------
55	2.750000e+00	3.316319e+06	
56	2.800000e+00	3.427728e+06	
57	2.850000e+00	3.531539e+06	
58	2.900000e+00	3.628339e+06	
59	2.950000e+00	3.718687e+06	
60	3.000000e+00	3.803101e+06	
61	3.050000e+00	3.882063e+06	
62	3.100000e+00	3.956016e+06	
63	3.150000e+00	4.025364e+06	
64	3.200000e+00	4.090478e+06	
65	3.250000e+00	4.151696e+06	
66	3.300000e+00	4.209325e+06	
67	3.350000e+00	4.263645e+06	
68	3.400000e+00	4.314910e+06	
69	3.450000e+00	4.363352e+06	
70	3.500000e+00	4.409183e+06	
71	3.550000e+00	4.452593e+06	
72	3.600000e+00	4.493758e+06	
73	3.650000e+00	4.532837e+06	
74	3.700000e+00	4.569978e+06	
75	3.750000e+00	4.605312e+06	
76	3.800000e+00	4.638963e+06	
77	3.850000e+00	4.671042e+06	
78	3.900000e+00	4.701652e+06	
79	3.950000e+00	4.730887e+06	
80	4.000000e+00	4.758835e+06	
81	4.050000e+00	4.785575e+06	
82	4.100000e+00	4.811180e+06	
83	4.150000e+00	4.835720e+06	
84	4.200000e+00	4.859257e+06	
85	4.250000e+00	4.881849e+06	
86	4.300000e+00	4.903551e+06	
87	4.350000e+00	4.924411e+06	
88	4.400000e+00	4.944478e+06	
89	4.450000e+00	4.963793e+06	
90	4.500000e+00	4.982399e+06	
91	4.550000e+00	5.000330e+06	
92	4.600000e+00	5.017624e+06	
93	4.650000e+00	5.034312e+06	
94	4.700000e+00	5.050425e+06	
95	4.750000e+00	5.065991e+06	
96	4.800000e+00	5.081038e+06	
97	4.850000e+00	5.095590e+06	
98	4.900000e+00	5.109671e+06	
99	4.950000e+00	5.123302e+06	
100	5.000000e+00	5.136505e+06	
101	5.050000e+00	5.149300e+06	
102	5.100000e+00	5.161703e+06	
103	5.150000e+00	5.173733e+06	
104	5.200000e+00	5.185407e+06	
105	5.250000e+00	5.196738e+06	
106	5.300000e+00	5.207743e+06	
107	5.350000e+00	5.218434e+06	
108	5.400000e+00	5.228825e+06	
109	5.450000e+00	5.238927e+06	
110	5.500000e+00	5.248754e+06	
111	5.550000e+00	5.258314e+06	
112	5.600000e+00	5.267620e+06	

Index   v-sweep         rds             
--------------------------------------------------------------------------------
113	5.650000e+00	5.276681e+06	
114	5.700000e+00	5.285506e+06	
115	5.750000e+00	5.294105e+06	
116	5.800000e+00	5.302485e+06	
117	5.850000e+00	5.310655e+06	
118	5.900000e+00	5.318623e+06	
119	5.950000e+00	5.326395e+06	
120	6.000000e+00	5.333980e+06	
121	6.050000e+00	5.341383e+06	
122	6.100000e+00	5.348611e+06	
123	6.150000e+00	5.355670e+06	
124	6.200000e+00	5.362566e+06	
125	6.250000e+00	5.369304e+06	
126	6.300000e+00	5.375890e+06	
127	6.350000e+00	5.382328e+06	
128	6.400000e+00	5.388624e+06	
129	6.450000e+00	5.394782e+06	
130	6.500000e+00	5.400806e+06	
131	6.550000e+00	5.406702e+06	
132	6.600000e+00	5.412472e+06	
Reset re-loads circuit ***************************

Circuit: ***************************

Doing analysis at TEMP = 25.000000 and TNOM = 25.000000


No. of Data Rows : 133
                          ***************************
                          DC transfer characteristic  Mon Jan  9 13:57:42  2023
--------------------------------------------------------------------------------
Index   v-sweep         rds             
--------------------------------------------------------------------------------
0	0.000000e+00	6.947136e+03	
1	5.000000e-02	7.088354e+03	
2	1.000000e-01	7.235048e+03	
3	1.500000e-01	7.387541e+03	
4	2.000000e-01	7.546184e+03	
5	2.500000e-01	7.711356e+03	
6	3.000000e-01	7.883470e+03	
7	3.500000e-01	8.062971e+03	
8	4.000000e-01	8.250346e+03	
9	4.500000e-01	8.446125e+03	
10	5.000000e-01	8.650884e+03	
11	5.500000e-01	8.865258e+03	
12	6.000000e-01	9.089938e+03	
13	6.500000e-01	9.325686e+03	
14	7.000000e-01	9.573342e+03	
15	7.500000e-01	9.833829e+03	
16	8.000000e-01	1.010817e+04	
17	8.500000e-01	1.039751e+04	
18	9.000000e-01	1.070309e+04	
19	9.500000e-01	1.102635e+04	
20	1.000000e+00	1.136884e+04	
21	1.050000e+00	1.173234e+04	
22	1.100000e+00	1.211885e+04	
23	1.150000e+00	1.253062e+04	
24	1.200000e+00	1.297021e+04	
25	1.250000e+00	1.344055e+04	
26	1.300000e+00	1.394496e+04	
27	1.350000e+00	1.448730e+04	
28	1.400000e+00	1.507200e+04	
29	1.450000e+00	1.570425e+04	
30	1.500000e+00	1.639007e+04	
31	1.550000e+00	1.713659e+04	
32	1.600000e+00	1.795222e+04	
33	1.650000e+00	1.884703e+04	
34	1.700000e+00	1.983312e+04	
35	1.750000e+00	2.092520e+04	
36	1.800000e+00	2.214130e+04	
37	1.850000e+00	2.350374e+04	
38	1.900000e+00	2.504054e+04	
39	1.950000e+00	2.678724e+04	
40	2.000000e+00	2.878961e+04	
41	2.050000e+00	3.110751e+04	
42	2.100000e+00	3.382049e+04	
43	2.150000e+00	3.703621e+04	
44	2.200000e+00	4.090309e+04	
45	2.250000e+00	4.562964e+04	
46	2.300000e+00	5.151393e+04	
47	2.350000e+00	5.898792e+04	
48	2.400000e+00	6.868156e+04	
49	2.450000e+00	8.150699e+04	
50	2.500000e+00	9.874883e+04	
51	2.550000e+00	1.221156e+05	
52	2.600000e+00	1.536729e+05	
53	2.650000e+00	1.955846e+05	
54	2.700000e+00	2.496817e+05	

Index   v-sweep         rds             
--------------------------------------------------------------------------------
55	2.750000e+00	3.170169e+05	
56	2.800000e+00	3.976038e+05	
57	2.850000e+00	4.904329e+05	
58	2.900000e+00	5.937093e+05	
59	2.950000e+00	7.051832e+05	
60	3.000000e+00	8.224642e+05	
61	3.050000e+00	9.432599e+05	
62	3.100000e+00	1.065527e+06	
63	3.150000e+00	1.187542e+06	
64	3.200000e+00	1.307924e+06	
65	3.250000e+00	1.425610e+06	
66	3.300000e+00	1.539823e+06	
67	3.350000e+00	1.650027e+06	
68	3.400000e+00	1.755879e+06	
69	3.450000e+00	1.857194e+06	
70	3.500000e+00	1.953905e+06	
71	3.550000e+00	2.046032e+06	
72	3.600000e+00	2.133662e+06	
73	3.650000e+00	2.216928e+06	
74	3.700000e+00	2.295993e+06	
75	3.750000e+00	2.371039e+06	
76	3.800000e+00	2.442260e+06	
77	3.850000e+00	2.509852e+06	
78	3.900000e+00	2.574014e+06	
79	3.950000e+00	2.634938e+06	
80	4.000000e+00	2.692811e+06	
81	4.050000e+00	2.747813e+06	
82	4.100000e+00	2.800116e+06	
83	4.150000e+00	2.849881e+06	
84	4.200000e+00	2.897262e+06	
85	4.250000e+00	2.942403e+06	
86	4.300000e+00	2.985440e+06	
87	4.350000e+00	3.026497e+06	
88	4.400000e+00	3.065695e+06	
89	4.450000e+00	3.103143e+06	
90	4.500000e+00	3.138945e+06	
91	4.550000e+00	3.173197e+06	
92	4.600000e+00	3.205989e+06	
93	4.650000e+00	3.237404e+06	
94	4.700000e+00	3.267521e+06	
95	4.750000e+00	3.296412e+06	
96	4.800000e+00	3.324146e+06	
97	4.850000e+00	3.350786e+06	
98	4.900000e+00	3.376392e+06	
99	4.950000e+00	3.401018e+06	
100	5.000000e+00	3.424717e+06	
101	5.050000e+00	3.447536e+06	
102	5.100000e+00	3.469522e+06	
103	5.150000e+00	3.490717e+06	
104	5.200000e+00	3.511160e+06	
105	5.250000e+00	3.530890e+06	
106	5.300000e+00	3.549940e+06	
107	5.350000e+00	3.568344e+06	
108	5.400000e+00	3.586133e+06	
109	5.450000e+00	3.603335e+06	
110	5.500000e+00	3.619978e+06	
111	5.550000e+00	3.636088e+06	
112	5.600000e+00	3.651689e+06	

Index   v-sweep         rds             
--------------------------------------------------------------------------------
113	5.650000e+00	3.666804e+06	
114	5.700000e+00	3.681455e+06	
115	5.750000e+00	3.695661e+06	
116	5.800000e+00	3.709442e+06	
117	5.850000e+00	3.722816e+06	
118	5.900000e+00	3.735800e+06	
119	5.950000e+00	3.748411e+06	
120	6.000000e+00	3.760663e+06	
121	6.050000e+00	3.772572e+06	
122	6.100000e+00	3.784152e+06	
123	6.150000e+00	3.795415e+06	
124	6.200000e+00	3.806374e+06	
125	6.250000e+00	3.817040e+06	
126	6.300000e+00	3.827425e+06	
127	6.350000e+00	3.837540e+06	
128	6.400000e+00	3.847395e+06	
129	6.450000e+00	3.856999e+06	
130	6.500000e+00	3.866361e+06	
131	6.550000e+00	3.875491e+06	
132	6.600000e+00	3.884397e+06	
Reset re-loads circuit ***************************

Circuit: ***************************

Doing analysis at TEMP = 25.000000 and TNOM = 25.000000


No. of Data Rows : 133
                          ***************************
                          DC transfer characteristic  Mon Jan  9 13:57:42  2023
--------------------------------------------------------------------------------
Index   v-sweep         rds             
--------------------------------------------------------------------------------
0	0.000000e+00	5.890893e+03	
1	5.000000e-02	5.981404e+03	
2	1.000000e-01	6.074512e+03	
3	1.500000e-01	6.170331e+03	
4	2.000000e-01	6.268981e+03	
5	2.500000e-01	6.370588e+03	
6	3.000000e-01	6.475288e+03	
7	3.500000e-01	6.583223e+03	
8	4.000000e-01	6.694548e+03	
9	4.500000e-01	6.809422e+03	
10	5.000000e-01	6.928019e+03	
11	5.500000e-01	7.050523e+03	
12	6.000000e-01	7.177129e+03	
13	6.500000e-01	7.308048e+03	
14	7.000000e-01	7.443504e+03	
15	7.500000e-01	7.583735e+03	
16	8.000000e-01	7.729000e+03	
17	8.500000e-01	7.879574e+03	
18	9.000000e-01	8.035753e+03	
19	9.500000e-01	8.197857e+03	
20	1.000000e+00	8.366229e+03	
21	1.050000e+00	8.541240e+03	
22	1.100000e+00	8.723289e+03	
23	1.150000e+00	8.912811e+03	
24	1.200000e+00	9.110276e+03	
25	1.250000e+00	9.316192e+03	
26	1.300000e+00	9.531115e+03	
27	1.350000e+00	9.755649e+03	
28	1.400000e+00	9.990453e+03	
29	1.450000e+00	1.023625e+04	
30	1.500000e+00	1.049383e+04	
31	1.550000e+00	1.076406e+04	
32	1.600000e+00	1.104789e+04	
33	1.650000e+00	1.134639e+04	
34	1.700000e+00	1.166071e+04	
35	1.750000e+00	1.199215e+04	
36	1.800000e+00	1.234216e+04	
37	1.850000e+00	1.271233e+04	
38	1.900000e+00	1.310446e+04	
39	1.950000e+00	1.352057e+04	
40	2.000000e+00	1.396294e+04	
41	2.050000e+00	1.443411e+04	
42	2.100000e+00	1.493702e+04	
43	2.150000e+00	1.547498e+04	
44	2.200000e+00	1.605180e+04	
45	2.250000e+00	1.667185e+04	
46	2.300000e+00	1.734019e+04	
47	2.350000e+00	1.806269e+04	
48	2.400000e+00	1.884625e+04	
49	2.450000e+00	1.969894e+04	
50	2.500000e+00	2.063037e+04	
51	2.550000e+00	2.165198e+04	
52	2.600000e+00	2.277756e+04	
53	2.650000e+00	2.402385e+04	
54	2.700000e+00	2.541136e+04	

Index   v-sweep         rds             
--------------------------------------------------------------------------------
55	2.750000e+00	2.696552e+04	
56	2.800000e+00	2.871817e+04	
57	2.850000e+00	3.070966e+04	
58	2.900000e+00	3.299185e+04	
59	2.950000e+00	3.563221e+04	
60	3.000000e+00	3.871987e+04	
61	3.050000e+00	4.237408e+04	
62	3.100000e+00	4.675651e+04	
63	3.150000e+00	5.208857e+04	
64	3.200000e+00	5.867503e+04	
65	3.250000e+00	6.693433e+04	
66	3.300000e+00	7.743246e+04	
67	3.350000e+00	9.091092e+04	
68	3.400000e+00	1.082897e+05	
69	3.450000e+00	1.306199e+05	
70	3.500000e+00	1.589701e+05	
71	3.550000e+00	1.942592e+05	
72	3.600000e+00	2.370872e+05	
73	3.650000e+00	2.876236e+05	
74	3.700000e+00	3.455868e+05	
75	3.750000e+00	4.103073e+05	
76	3.800000e+00	4.808399e+05	
77	3.850000e+00	5.560858e+05	
78	3.900000e+00	6.349015e+05	
79	3.950000e+00	7.161804e+05	
80	4.000000e+00	7.989075e+05	
81	4.050000e+00	8.821889e+05	
82	4.100000e+00	9.652642e+05	
83	4.150000e+00	1.047506e+06	
84	4.200000e+00	1.128411e+06	
85	4.250000e+00	1.207587e+06	
86	4.300000e+00	1.284739e+06	
87	4.350000e+00	1.359657e+06	
88	4.400000e+00	1.432195e+06	
89	4.450000e+00	1.502266e+06	
90	4.500000e+00	1.569828e+06	
91	4.550000e+00	1.634874e+06	
92	4.600000e+00	1.697424e+06	
93	4.650000e+00	1.757521e+06	
94	4.700000e+00	1.815223e+06	
95	4.750000e+00	1.870598e+06	
96	4.800000e+00	1.923724e+06	
97	4.850000e+00	1.974684e+06	
98	4.900000e+00	2.023562e+06	
99	4.950000e+00	2.070445e+06	
100	5.000000e+00	2.115420e+06	
101	5.050000e+00	2.158572e+06	
102	5.100000e+00	2.199985e+06	
103	5.150000e+00	2.239740e+06	
104	5.200000e+00	2.277916e+06	
105	5.250000e+00	2.314587e+06	
106	5.300000e+00	2.349828e+06	
107	5.350000e+00	2.383706e+06	
108	5.400000e+00	2.416289e+06	
109	5.450000e+00	2.447639e+06	
110	5.500000e+00	2.477815e+06	
111	5.550000e+00	2.506875e+06	
112	5.600000e+00	2.534872e+06	

Index   v-sweep         rds             
--------------------------------------------------------------------------------
113	5.650000e+00	2.561857e+06	
114	5.700000e+00	2.587878e+06	
115	5.750000e+00	2.612981e+06	
116	5.800000e+00	2.637210e+06	
117	5.850000e+00	2.660605e+06	
118	5.900000e+00	2.683204e+06	
119	5.950000e+00	2.705045e+06	
120	6.000000e+00	2.726162e+06	
121	6.050000e+00	2.746587e+06	
122	6.100000e+00	2.766351e+06	
123	6.150000e+00	2.785485e+06	
124	6.200000e+00	2.804014e+06	
125	6.250000e+00	2.821967e+06	
126	6.300000e+00	2.839367e+06	
127	6.350000e+00	2.856239e+06	
128	6.400000e+00	2.872604e+06	
129	6.450000e+00	2.888483e+06	
130	6.500000e+00	2.903898e+06	
131	6.550000e+00	2.918866e+06	
132	6.600000e+00	2.933406e+06	
Reset re-loads circuit ***************************

Circuit: ***************************

Doing analysis at TEMP = 25.000000 and TNOM = 25.000000


No. of Data Rows : 133
                          ***************************
                          DC transfer characteristic  Mon Jan  9 13:57:42  2023
--------------------------------------------------------------------------------
Index   v-sweep         rds             
--------------------------------------------------------------------------------
0	0.000000e+00	5.316200e+03	
1	5.000000e-02	5.381144e+03	
2	1.000000e-01	5.447546e+03	
3	1.500000e-01	5.515456e+03	
4	2.000000e-01	5.584924e+03	
5	2.500000e-01	5.656006e+03	
6	3.000000e-01	5.728758e+03	
7	3.500000e-01	5.803240e+03	
8	4.000000e-01	5.879514e+03	
9	4.500000e-01	5.957646e+03	
10	5.000000e-01	6.037704e+03	
11	5.500000e-01	6.119760e+03	
12	6.000000e-01	6.203890e+03	
13	6.500000e-01	6.290174e+03	
14	7.000000e-01	6.378695e+03	
15	7.500000e-01	6.469542e+03	
16	8.000000e-01	6.562806e+03	
17	8.500000e-01	6.658587e+03	
18	9.000000e-01	6.756986e+03	
19	9.500000e-01	6.858113e+03	
20	1.000000e+00	6.962084e+03	
21	1.050000e+00	7.069019e+03	
22	1.100000e+00	7.179046e+03	
23	1.150000e+00	7.292303e+03	
24	1.200000e+00	7.408934e+03	
25	1.250000e+00	7.529090e+03	
26	1.300000e+00	7.652935e+03	
27	1.350000e+00	7.780641e+03	
28	1.400000e+00	7.912392e+03	
29	1.450000e+00	8.048382e+03	
30	1.500000e+00	8.188820e+03	
31	1.550000e+00	8.333927e+03	
32	1.600000e+00	8.483940e+03	
33	1.650000e+00	8.639113e+03	
34	1.700000e+00	8.799716e+03	
35	1.750000e+00	8.966039e+03	
36	1.800000e+00	9.138393e+03	
37	1.850000e+00	9.317113e+03	
38	1.900000e+00	9.502558e+03	
39	1.950000e+00	9.695115e+03	
40	2.000000e+00	9.895201e+03	
41	2.050000e+00	1.010327e+04	
42	2.100000e+00	1.031980e+04	
43	2.150000e+00	1.054533e+04	
44	2.200000e+00	1.078043e+04	
45	2.250000e+00	1.102571e+04	
46	2.300000e+00	1.128187e+04	
47	2.350000e+00	1.154963e+04	
48	2.400000e+00	1.182981e+04	
49	2.450000e+00	1.212329e+04	
50	2.500000e+00	1.243105e+04	
51	2.550000e+00	1.275414e+04	
52	2.600000e+00	1.309376e+04	
53	2.650000e+00	1.345120e+04	
54	2.700000e+00	1.382791e+04	

Index   v-sweep         rds             
--------------------------------------------------------------------------------
55	2.750000e+00	1.422548e+04	
56	2.800000e+00	1.464572e+04	
57	2.850000e+00	1.509062e+04	
58	2.900000e+00	1.556242e+04	
59	2.950000e+00	1.606364e+04	
60	3.000000e+00	1.659714e+04	
61	3.050000e+00	1.716615e+04	
62	3.100000e+00	1.777436e+04	
63	3.150000e+00	1.842597e+04	
64	3.200000e+00	1.912584e+04	
65	3.250000e+00	1.987954e+04	
66	3.300000e+00	2.069359e+04	
67	3.350000e+00	2.157557e+04	
68	3.400000e+00	2.253441e+04	
69	3.450000e+00	2.358069e+04	
70	3.500000e+00	2.472701e+04	
71	3.550000e+00	2.598854e+04	
72	3.600000e+00	2.738366e+04	
73	3.650000e+00	2.893488e+04	
74	3.700000e+00	3.067000e+04	
75	3.750000e+00	3.262377e+04	
76	3.800000e+00	3.484004e+04	
77	3.850000e+00	3.737480e+04	
78	3.900000e+00	4.030031e+04	
79	3.950000e+00	4.371077e+04	
80	4.000000e+00	4.773007e+04	
81	4.050000e+00	5.252197e+04	
82	4.100000e+00	5.830315e+04	
83	4.150000e+00	6.535828e+04	
84	4.200000e+00	7.405516e+04	
85	4.250000e+00	8.485458e+04	
86	4.300000e+00	9.830697e+04	
87	4.350000e+00	1.150262e+05	
88	4.400000e+00	1.356353e+05	
89	4.450000e+00	1.606903e+05	
90	4.500000e+00	1.905994e+05	
91	4.550000e+00	2.255616e+05	
92	4.600000e+00	2.655425e+05	
93	4.650000e+00	3.102868e+05	
94	4.700000e+00	3.593601e+05	
95	4.750000e+00	4.122038e+05	
96	4.800000e+00	4.681900e+05	
97	4.850000e+00	5.266696e+05	
98	4.900000e+00	5.870084e+05	
99	4.950000e+00	6.486129e+05	
100	5.000000e+00	7.109456e+05	
101	5.050000e+00	7.735326e+05	
102	5.100000e+00	8.359660e+05	
103	5.150000e+00	8.979018e+05	
104	5.200000e+00	9.590558e+05	
105	5.250000e+00	1.019198e+06	
106	5.300000e+00	1.078147e+06	
107	5.350000e+00	1.135763e+06	
108	5.400000e+00	1.191943e+06	
109	5.450000e+00	1.246612e+06	
110	5.500000e+00	1.299722e+06	
111	5.550000e+00	1.351249e+06	
112	5.600000e+00	1.401181e+06	

Index   v-sweep         rds             
--------------------------------------------------------------------------------
113	5.650000e+00	1.449523e+06	
114	5.700000e+00	1.496292e+06	
115	5.750000e+00	1.541512e+06	
116	5.800000e+00	1.585215e+06	
117	5.850000e+00	1.627436e+06	
118	5.900000e+00	1.668217e+06	
119	5.950000e+00	1.707600e+06	
120	6.000000e+00	1.745631e+06	
121	6.050000e+00	1.782355e+06	
122	6.100000e+00	1.817818e+06	
123	6.150000e+00	1.852067e+06	
124	6.200000e+00	1.885147e+06	
125	6.250000e+00	1.917103e+06	
126	6.300000e+00	1.947980e+06	
127	6.350000e+00	1.977820e+06	
128	6.400000e+00	2.006665e+06	
129	6.450000e+00	2.034554e+06	
130	6.500000e+00	2.061527e+06	
131	6.550000e+00	2.087621e+06	
132	6.600000e+00	2.112873e+06	
Reset re-loads circuit ***************************

Circuit: ***************************

Note: No ".plot", ".print", or ".fourier" lines; no simulations run
