
Note: Compatibility modes selected: hs

Warning: m=xx on .subckt line will override multiplier m hierarchy!


Circuit: ***************************

Doing analysis at TEMP = 125.000000 and TNOM = 125.000000


No. of Data Rows : 133
                          ***************************
                          DC transfer characteristic  Mon Jan  9 13:57:43  2023
--------------------------------------------------------------------------------
Index   v-sweep         rds             
--------------------------------------------------------------------------------
0	0.000000e+00	4.008578e+03	
1	5.000000e-02	4.900317e+03	
2	1.000000e-01	6.244779e+03	
3	1.500000e-01	8.470727e+03	
4	2.000000e-01	1.263047e+04	
5	2.500000e-01	2.110223e+04	
6	3.000000e-01	3.570591e+04	
7	3.500000e-01	5.170245e+04	
8	4.000000e-01	6.465658e+04	
9	4.500000e-01	7.501187e+04	
10	5.000000e-01	8.385137e+04	
11	5.500000e-01	9.175791e+04	
12	6.000000e-01	9.901028e+04	
13	6.500000e-01	1.057522e+05	
14	7.000000e-01	1.120672e+05	
15	7.500000e-01	1.180098e+05	
16	8.000000e-01	1.236194e+05	
17	8.500000e-01	1.289266e+05	
18	9.000000e-01	1.339567e+05	
19	9.500000e-01	1.387312e+05	
20	1.000000e+00	1.432687e+05	
21	1.050000e+00	1.475859e+05	
22	1.100000e+00	1.516976e+05	
23	1.150000e+00	1.556174e+05	
24	1.200000e+00	1.593576e+05	
25	1.250000e+00	1.629294e+05	
26	1.300000e+00	1.663432e+05	
27	1.350000e+00	1.696083e+05	
28	1.400000e+00	1.727337e+05	
29	1.450000e+00	1.757273e+05	
30	1.500000e+00	1.785967e+05	
31	1.550000e+00	1.813488e+05	
32	1.600000e+00	1.839901e+05	
33	1.650000e+00	1.865267e+05	
34	1.700000e+00	1.889640e+05	
35	1.750000e+00	1.913074e+05	
36	1.800000e+00	1.935616e+05	
37	1.850000e+00	1.957313e+05	
38	1.900000e+00	1.978207e+05	
39	1.950000e+00	1.998338e+05	
40	2.000000e+00	2.017744e+05	
41	2.050000e+00	2.036459e+05	
42	2.100000e+00	2.054516e+05	
43	2.150000e+00	2.071947e+05	
44	2.200000e+00	2.088780e+05	
45	2.250000e+00	2.105043e+05	
46	2.300000e+00	2.120762e+05	
47	2.350000e+00	2.135961e+05	
48	2.400000e+00	2.150662e+05	
49	2.450000e+00	2.164889e+05	
50	2.500000e+00	2.178661e+05	
51	2.550000e+00	2.191997e+05	
52	2.600000e+00	2.204916e+05	
53	2.650000e+00	2.217435e+05	
54	2.700000e+00	2.229571e+05	

Index   v-sweep         rds             
--------------------------------------------------------------------------------
55	2.750000e+00	2.241339e+05	
56	2.800000e+00	2.252754e+05	
57	2.850000e+00	2.263830e+05	
58	2.900000e+00	2.274581e+05	
59	2.950000e+00	2.285019e+05	
60	3.000000e+00	2.295155e+05	
61	3.050000e+00	2.305003e+05	
62	3.100000e+00	2.314572e+05	
63	3.150000e+00	2.323872e+05	
64	3.200000e+00	2.332915e+05	
65	3.250000e+00	2.341708e+05	
66	3.300000e+00	2.350262e+05	
67	3.350000e+00	2.358585e+05	
68	3.400000e+00	2.366684e+05	
69	3.450000e+00	2.374568e+05	
70	3.500000e+00	2.382245e+05	
71	3.550000e+00	2.389721e+05	
72	3.600000e+00	2.397003e+05	
73	3.650000e+00	2.404098e+05	
74	3.700000e+00	2.411013e+05	
75	3.750000e+00	2.417752e+05	
76	3.800000e+00	2.424322e+05	
77	3.850000e+00	2.430729e+05	
78	3.900000e+00	2.436977e+05	
79	3.950000e+00	2.443072e+05	
80	4.000000e+00	2.449018e+05	
81	4.050000e+00	2.454821e+05	
82	4.100000e+00	2.460484e+05	
83	4.150000e+00	2.466013e+05	
84	4.200000e+00	2.471411e+05	
85	4.250000e+00	2.476681e+05	
86	4.300000e+00	2.481829e+05	
87	4.350000e+00	2.486858e+05	
88	4.400000e+00	2.491770e+05	
89	4.450000e+00	2.496571e+05	
90	4.500000e+00	2.501262e+05	
91	4.550000e+00	2.505847e+05	
92	4.600000e+00	2.510329e+05	
93	4.650000e+00	2.514712e+05	
94	4.700000e+00	2.518997e+05	
95	4.750000e+00	2.523188e+05	
96	4.800000e+00	2.527287e+05	
97	4.850000e+00	2.531297e+05	
98	4.900000e+00	2.535220e+05	
99	4.950000e+00	2.539059e+05	
100	5.000000e+00	2.542815e+05	
101	5.050000e+00	2.546492e+05	
102	5.100000e+00	2.550091e+05	
103	5.150000e+00	2.553614e+05	
104	5.200000e+00	2.557063e+05	
105	5.250000e+00	2.560441e+05	
106	5.300000e+00	2.563748e+05	
107	5.350000e+00	2.566988e+05	
108	5.400000e+00	2.570161e+05	
109	5.450000e+00	2.573269e+05	
110	5.500000e+00	2.576315e+05	
111	5.550000e+00	2.579299e+05	
112	5.600000e+00	2.582223e+05	

Index   v-sweep         rds             
--------------------------------------------------------------------------------
113	5.650000e+00	2.585088e+05	
114	5.700000e+00	2.587896e+05	
115	5.750000e+00	2.590649e+05	
116	5.800000e+00	2.593348e+05	
117	5.850000e+00	2.595993e+05	
118	5.900000e+00	2.598587e+05	
119	5.950000e+00	2.601130e+05	
120	6.000000e+00	2.603624e+05	
121	6.050000e+00	2.606070e+05	
122	6.100000e+00	2.608469e+05	
123	6.150000e+00	2.610822e+05	
124	6.200000e+00	2.613130e+05	
125	6.250000e+00	2.615395e+05	
126	6.300000e+00	2.617616e+05	
127	6.350000e+00	2.619796e+05	
128	6.400000e+00	2.621935e+05	
129	6.450000e+00	2.624034e+05	
130	6.500000e+00	2.626094e+05	
131	6.550000e+00	2.628115e+05	
132	6.600000e+00	2.630100e+05	
Reset re-loads circuit ***************************

Circuit: ***************************

Doing analysis at TEMP = 125.000000 and TNOM = 125.000000


No. of Data Rows : 133
                          ***************************
                          DC transfer characteristic  Mon Jan  9 13:57:43  2023
--------------------------------------------------------------------------------
Index   v-sweep         rds             
--------------------------------------------------------------------------------
0	0.000000e+00	1.290638e+03	
1	5.000000e-02	1.386070e+03	
2	1.000000e-01	1.493404e+03	
3	1.500000e-01	1.614992e+03	
4	2.000000e-01	1.753844e+03	
5	2.500000e-01	1.913874e+03	
6	3.000000e-01	2.100263e+03	
7	3.500000e-01	2.320002e+03	
8	4.000000e-01	2.582725e+03	
9	4.500000e-01	2.902028e+03	
10	5.000000e-01	3.297531e+03	
11	5.500000e-01	3.798102e+03	
12	6.000000e-01	4.446359e+03	
13	6.500000e-01	5.302740e+03	
14	7.000000e-01	6.440424e+03	
15	7.500000e-01	7.911579e+03	
16	8.000000e-01	9.688545e+03	
17	8.500000e-01	1.166044e+04	
18	9.000000e-01	1.371237e+04	
19	9.500000e-01	1.577619e+04	
20	1.000000e+00	1.782167e+04	
21	1.050000e+00	1.983684e+04	
22	1.100000e+00	2.181714e+04	
23	1.150000e+00	2.376094e+04	
24	1.200000e+00	2.566788e+04	
25	1.250000e+00	2.753817e+04	
26	1.300000e+00	2.937228e+04	
27	1.350000e+00	3.117084e+04	
28	1.400000e+00	3.293455e+04	
29	1.450000e+00	3.466415e+04	
30	1.500000e+00	3.636041e+04	
31	1.550000e+00	3.802410e+04	
32	1.600000e+00	3.965598e+04	
33	1.650000e+00	4.125682e+04	
34	1.700000e+00	4.282737e+04	
35	1.750000e+00	4.436835e+04	
36	1.800000e+00	4.588051e+04	
37	1.850000e+00	4.736454e+04	
38	1.900000e+00	4.882112e+04	
39	1.950000e+00	5.025094e+04	
40	2.000000e+00	5.165465e+04	
41	2.050000e+00	5.303289e+04	
42	2.100000e+00	5.438628e+04	
43	2.150000e+00	5.571541e+04	
44	2.200000e+00	5.702089e+04	
45	2.250000e+00	5.830327e+04	
46	2.300000e+00	5.956312e+04	
47	2.350000e+00	6.080098e+04	
48	2.400000e+00	6.201736e+04	
49	2.450000e+00	6.321278e+04	
50	2.500000e+00	6.438774e+04	
51	2.550000e+00	6.554270e+04	
52	2.600000e+00	6.667815e+04	
53	2.650000e+00	6.779453e+04	
54	2.700000e+00	6.889229e+04	

Index   v-sweep         rds             
--------------------------------------------------------------------------------
55	2.750000e+00	6.997185e+04	
56	2.800000e+00	7.103363e+04	
57	2.850000e+00	7.207803e+04	
58	2.900000e+00	7.310545e+04	
59	2.950000e+00	7.411627e+04	
60	3.000000e+00	7.511087e+04	
61	3.050000e+00	7.608959e+04	
62	3.100000e+00	7.705280e+04	
63	3.150000e+00	7.800084e+04	
64	3.200000e+00	7.893403e+04	
65	3.250000e+00	7.985271e+04	
66	3.300000e+00	8.075718e+04	
67	3.350000e+00	8.164774e+04	
68	3.400000e+00	8.252471e+04	
69	3.450000e+00	8.338837e+04	
70	3.500000e+00	8.423899e+04	
71	3.550000e+00	8.507685e+04	
72	3.600000e+00	8.590223e+04	
73	3.650000e+00	8.671538e+04	
74	3.700000e+00	8.751654e+04	
75	3.750000e+00	8.830598e+04	
76	3.800000e+00	8.908393e+04	
77	3.850000e+00	8.985061e+04	
78	3.900000e+00	9.060627e+04	
79	3.950000e+00	9.135112e+04	
80	4.000000e+00	9.208538e+04	
81	4.050000e+00	9.280926e+04	
82	4.100000e+00	9.352296e+04	
83	4.150000e+00	9.422668e+04	
84	4.200000e+00	9.492063e+04	
85	4.250000e+00	9.560498e+04	
86	4.300000e+00	9.627993e+04	
87	4.350000e+00	9.694565e+04	
88	4.400000e+00	9.760233e+04	
89	4.450000e+00	9.825013e+04	
90	4.500000e+00	9.888923e+04	
91	4.550000e+00	9.951978e+04	
92	4.600000e+00	1.001419e+05	
93	4.650000e+00	1.007559e+05	
94	4.700000e+00	1.013618e+05	
95	4.750000e+00	1.019597e+05	
96	4.800000e+00	1.025499e+05	
97	4.850000e+00	1.031324e+05	
98	4.900000e+00	1.037074e+05	
99	4.950000e+00	1.042751e+05	
100	5.000000e+00	1.048355e+05	
101	5.050000e+00	1.053888e+05	
102	5.100000e+00	1.059352e+05	
103	5.150000e+00	1.064746e+05	
104	5.200000e+00	1.070074e+05	
105	5.250000e+00	1.075335e+05	
106	5.300000e+00	1.080532e+05	
107	5.350000e+00	1.085665e+05	
108	5.400000e+00	1.090734e+05	
109	5.450000e+00	1.095742e+05	
110	5.500000e+00	1.100690e+05	
111	5.550000e+00	1.105578e+05	
112	5.600000e+00	1.110407e+05	

Index   v-sweep         rds             
--------------------------------------------------------------------------------
113	5.650000e+00	1.115179e+05	
114	5.700000e+00	1.119894e+05	
115	5.750000e+00	1.124553e+05	
116	5.800000e+00	1.129157e+05	
117	5.850000e+00	1.133708e+05	
118	5.900000e+00	1.138206e+05	
119	5.950000e+00	1.142651e+05	
120	6.000000e+00	1.147045e+05	
121	6.050000e+00	1.151389e+05	
122	6.100000e+00	1.155683e+05	
123	6.150000e+00	1.159929e+05	
124	6.200000e+00	1.164126e+05	
125	6.250000e+00	1.168276e+05	
126	6.300000e+00	1.172379e+05	
127	6.350000e+00	1.176437e+05	
128	6.400000e+00	1.180449e+05	
129	6.450000e+00	1.184417e+05	
130	6.500000e+00	1.188341e+05	
131	6.550000e+00	1.192223e+05	
132	6.600000e+00	1.196061e+05	
Reset re-loads circuit ***************************

Circuit: ***************************

Doing analysis at TEMP = 125.000000 and TNOM = 125.000000


No. of Data Rows : 133
                          ***************************
                          DC transfer characteristic  Mon Jan  9 13:57:43  2023
--------------------------------------------------------------------------------
Index   v-sweep         rds             
--------------------------------------------------------------------------------
0	0.000000e+00	8.555803e+02	
1	5.000000e-02	8.983696e+02	
2	1.000000e-01	9.443234e+02	
3	1.500000e-01	9.937996e+02	
4	2.000000e-01	1.047213e+03	
5	2.500000e-01	1.105044e+03	
6	3.000000e-01	1.167858e+03	
7	3.500000e-01	1.236320e+03	
8	4.000000e-01	1.311217e+03	
9	4.500000e-01	1.393490e+03	
10	5.000000e-01	1.484274e+03	
11	5.500000e-01	1.584944e+03	
12	6.000000e-01	1.697191e+03	
13	6.500000e-01	1.823108e+03	
14	7.000000e-01	1.965320e+03	
15	7.500000e-01	2.127166e+03	
16	8.000000e-01	2.312946e+03	
17	8.500000e-01	2.528291e+03	
18	9.000000e-01	2.780692e+03	
19	9.500000e-01	3.080260e+03	
20	1.000000e+00	3.440745e+03	
21	1.050000e+00	3.880566e+03	
22	1.100000e+00	4.422652e+03	
23	1.150000e+00	5.090111e+03	
24	1.200000e+00	5.895435e+03	
25	1.250000e+00	6.829826e+03	
26	1.300000e+00	7.865530e+03	
27	1.350000e+00	8.969448e+03	
28	1.400000e+00	1.011397e+04	
29	1.450000e+00	1.127982e+04	
30	1.500000e+00	1.245457e+04	
31	1.550000e+00	1.363044e+04	
32	1.600000e+00	1.480256e+04	
33	1.650000e+00	1.596784e+04	
34	1.700000e+00	1.712430e+04	
35	1.750000e+00	1.827067e+04	
36	1.800000e+00	1.940613e+04	
37	1.850000e+00	2.053013e+04	
38	1.900000e+00	2.164236e+04	
39	1.950000e+00	2.274262e+04	
40	2.000000e+00	2.383082e+04	
41	2.050000e+00	2.490691e+04	
42	2.100000e+00	2.597094e+04	
43	2.150000e+00	2.702295e+04	
44	2.200000e+00	2.806302e+04	
45	2.250000e+00	2.909126e+04	
46	2.300000e+00	3.010778e+04	
47	2.350000e+00	3.111272e+04	
48	2.400000e+00	3.210620e+04	
49	2.450000e+00	3.308837e+04	
50	2.500000e+00	3.405937e+04	
51	2.550000e+00	3.501934e+04	
52	2.600000e+00	3.596845e+04	
53	2.650000e+00	3.690682e+04	
54	2.700000e+00	3.783463e+04	

Index   v-sweep         rds             
--------------------------------------------------------------------------------
55	2.750000e+00	3.875201e+04	
56	2.800000e+00	3.965911e+04	
57	2.850000e+00	4.055608e+04	
58	2.900000e+00	4.144307e+04	
59	2.950000e+00	4.232022e+04	
60	3.000000e+00	4.318768e+04	
61	3.050000e+00	4.404559e+04	
62	3.100000e+00	4.489408e+04	
63	3.150000e+00	4.573330e+04	
64	3.200000e+00	4.656337e+04	
65	3.250000e+00	4.738445e+04	
66	3.300000e+00	4.819665e+04	
67	3.350000e+00	4.900011e+04	
68	3.400000e+00	4.979496e+04	
69	3.450000e+00	5.058131e+04	
70	3.500000e+00	5.135931e+04	
71	3.550000e+00	5.212906e+04	
72	3.600000e+00	5.289068e+04	
73	3.650000e+00	5.364431e+04	
74	3.700000e+00	5.439004e+04	
75	3.750000e+00	5.512800e+04	
76	3.800000e+00	5.585830e+04	
77	3.850000e+00	5.658105e+04	
78	3.900000e+00	5.729635e+04	
79	3.950000e+00	5.800432e+04	
80	4.000000e+00	5.870505e+04	
81	4.050000e+00	5.939865e+04	
82	4.100000e+00	6.008523e+04	
83	4.150000e+00	6.076487e+04	
84	4.200000e+00	6.143769e+04	
85	4.250000e+00	6.210377e+04	
86	4.300000e+00	6.276320e+04	
87	4.350000e+00	6.341609e+04	
88	4.400000e+00	6.406252e+04	
89	4.450000e+00	6.470259e+04	
90	4.500000e+00	6.533637e+04	
91	4.550000e+00	6.596396e+04	
92	4.600000e+00	6.658544e+04	
93	4.650000e+00	6.720090e+04	
94	4.700000e+00	6.781041e+04	
95	4.750000e+00	6.841406e+04	
96	4.800000e+00	6.901193e+04	
97	4.850000e+00	6.960410e+04	
98	4.900000e+00	7.019064e+04	
99	4.950000e+00	7.077162e+04	
100	5.000000e+00	7.134713e+04	
101	5.050000e+00	7.191723e+04	
102	5.100000e+00	7.248200e+04	
103	5.150000e+00	7.304150e+04	
104	5.200000e+00	7.359582e+04	
105	5.250000e+00	7.414500e+04	
106	5.300000e+00	7.468913e+04	
107	5.350000e+00	7.522826e+04	
108	5.400000e+00	7.576247e+04	
109	5.450000e+00	7.629181e+04	
110	5.500000e+00	7.681635e+04	
111	5.550000e+00	7.733615e+04	
112	5.600000e+00	7.785128e+04	

Index   v-sweep         rds             
--------------------------------------------------------------------------------
113	5.650000e+00	7.836178e+04	
114	5.700000e+00	7.886772e+04	
115	5.750000e+00	7.936916e+04	
116	5.800000e+00	7.986615e+04	
117	5.850000e+00	8.035876e+04	
118	5.900000e+00	8.084702e+04	
119	5.950000e+00	8.133101e+04	
120	6.000000e+00	8.181077e+04	
121	6.050000e+00	8.228635e+04	
122	6.100000e+00	8.275782e+04	
123	6.150000e+00	8.322520e+04	
124	6.200000e+00	8.368857e+04	
125	6.250000e+00	8.414796e+04	
126	6.300000e+00	8.460342e+04	
127	6.350000e+00	8.505501e+04	
128	6.400000e+00	8.550277e+04	
129	6.450000e+00	8.594674e+04	
130	6.500000e+00	8.638698e+04	
131	6.550000e+00	8.682352e+04	
132	6.600000e+00	8.725641e+04	
Reset re-loads circuit ***************************

Circuit: ***************************

Doing analysis at TEMP = 125.000000 and TNOM = 125.000000


No. of Data Rows : 133
                          ***************************
                          DC transfer characteristic  Mon Jan  9 13:57:43  2023
--------------------------------------------------------------------------------
Index   v-sweep         rds             
--------------------------------------------------------------------------------
0	0.000000e+00	6.868193e+02	
1	5.000000e-02	7.136624e+02	
2	1.000000e-01	7.419361e+02	
3	1.500000e-01	7.717547e+02	
4	2.000000e-01	8.032451e+02	
5	2.500000e-01	8.365486e+02	
6	3.000000e-01	8.718229e+02	
7	3.500000e-01	9.092449e+02	
8	4.000000e-01	9.490134e+02	
9	4.500000e-01	9.913527e+02	
10	5.000000e-01	1.036517e+03	
11	5.500000e-01	1.084794e+03	
12	6.000000e-01	1.136513e+03	
13	6.500000e-01	1.192051e+03	
14	7.000000e-01	1.251843e+03	
15	7.500000e-01	1.316390e+03	
16	8.000000e-01	1.386279e+03	
17	8.500000e-01	1.462193e+03	
18	9.000000e-01	1.544942e+03	
19	9.500000e-01	1.635487e+03	
20	1.000000e+00	1.734981e+03	
21	1.050000e+00	1.844824e+03	
22	1.100000e+00	1.966736e+03	
23	1.150000e+00	2.102864e+03	
24	1.200000e+00	2.255939e+03	
25	1.250000e+00	2.429520e+03	
26	1.300000e+00	2.628368e+03	
27	1.350000e+00	2.859024e+03	
28	1.400000e+00	3.130580e+03	
29	1.450000e+00	3.455341e+03	
30	1.500000e+00	3.848281e+03	
31	1.550000e+00	4.323537e+03	
32	1.600000e+00	4.888023e+03	
33	1.650000e+00	5.536864e+03	
34	1.700000e+00	6.255389e+03	
35	1.750000e+00	7.025480e+03	
36	1.800000e+00	7.830777e+03	
37	1.850000e+00	8.658669e+03	
38	1.900000e+00	9.500179e+03	
39	1.950000e+00	1.034914e+04	
40	2.000000e+00	1.120134e+04	
41	2.050000e+00	1.205392e+04	
42	2.100000e+00	1.290490e+04	
43	2.150000e+00	1.375290e+04	
44	2.200000e+00	1.459694e+04	
45	2.250000e+00	1.543633e+04	
46	2.300000e+00	1.627058e+04	
47	2.350000e+00	1.709932e+04	
48	2.400000e+00	1.792230e+04	
49	2.450000e+00	1.873934e+04	
50	2.500000e+00	1.955030e+04	
51	2.550000e+00	2.035511e+04	
52	2.600000e+00	2.115370e+04	
53	2.650000e+00	2.194604e+04	
54	2.700000e+00	2.273211e+04	

Index   v-sweep         rds             
--------------------------------------------------------------------------------
55	2.750000e+00	2.351193e+04	
56	2.800000e+00	2.428551e+04	
57	2.850000e+00	2.505286e+04	
58	2.900000e+00	2.581401e+04	
59	2.950000e+00	2.656901e+04	
60	3.000000e+00	2.731788e+04	
61	3.050000e+00	2.806069e+04	
62	3.100000e+00	2.879746e+04	
63	3.150000e+00	2.952825e+04	
64	3.200000e+00	3.025312e+04	
65	3.250000e+00	3.097211e+04	
66	3.300000e+00	3.168527e+04	
67	3.350000e+00	3.239267e+04	
68	3.400000e+00	3.309435e+04	
69	3.450000e+00	3.379038e+04	
70	3.500000e+00	3.448080e+04	
71	3.550000e+00	3.516567e+04	
72	3.600000e+00	3.584505e+04	
73	3.650000e+00	3.651900e+04	
74	3.700000e+00	3.718756e+04	
75	3.750000e+00	3.785080e+04	
76	3.800000e+00	3.850877e+04	
77	3.850000e+00	3.916153e+04	
78	3.900000e+00	3.980912e+04	
79	3.950000e+00	4.045160e+04	
80	4.000000e+00	4.108903e+04	
81	4.050000e+00	4.172146e+04	
82	4.100000e+00	4.234894e+04	
83	4.150000e+00	4.297152e+04	
84	4.200000e+00	4.358926e+04	
85	4.250000e+00	4.420221e+04	
86	4.300000e+00	4.481041e+04	
87	4.350000e+00	4.541391e+04	
88	4.400000e+00	4.601278e+04	
89	4.450000e+00	4.660705e+04	
90	4.500000e+00	4.719677e+04	
91	4.550000e+00	4.778199e+04	
92	4.600000e+00	4.836276e+04	
93	4.650000e+00	4.893912e+04	
94	4.700000e+00	4.951113e+04	
95	4.750000e+00	5.007882e+04	
96	4.800000e+00	5.064224e+04	
97	4.850000e+00	5.120144e+04	
98	4.900000e+00	5.175646e+04	
99	4.950000e+00	5.230735e+04	
100	5.000000e+00	5.285414e+04	
101	5.050000e+00	5.339688e+04	
102	5.100000e+00	5.393561e+04	
103	5.150000e+00	5.447037e+04	
104	5.200000e+00	5.500120e+04	
105	5.250000e+00	5.552815e+04	
106	5.300000e+00	5.605126e+04	
107	5.350000e+00	5.657055e+04	
108	5.400000e+00	5.708608e+04	
109	5.450000e+00	5.759787e+04	
110	5.500000e+00	5.810598e+04	
111	5.550000e+00	5.861043e+04	
112	5.600000e+00	5.911126e+04	

Index   v-sweep         rds             
--------------------------------------------------------------------------------
113	5.650000e+00	5.960852e+04	
114	5.700000e+00	6.010222e+04	
115	5.750000e+00	6.059242e+04	
116	5.800000e+00	6.107915e+04	
117	5.850000e+00	6.156243e+04	
118	5.900000e+00	6.204231e+04	
119	5.950000e+00	6.251882e+04	
120	6.000000e+00	6.299200e+04	
121	6.050000e+00	6.346186e+04	
122	6.100000e+00	6.392846e+04	
123	6.150000e+00	6.439182e+04	
124	6.200000e+00	6.485197e+04	
125	6.250000e+00	6.530894e+04	
126	6.300000e+00	6.576277e+04	
127	6.350000e+00	6.621349e+04	
128	6.400000e+00	6.666112e+04	
129	6.450000e+00	6.710570e+04	
130	6.500000e+00	6.754725e+04	
131	6.550000e+00	6.798581e+04	
132	6.600000e+00	6.842140e+04	
Reset re-loads circuit ***************************

Circuit: ***************************

Doing analysis at TEMP = 125.000000 and TNOM = 125.000000


No. of Data Rows : 133
                          ***************************
                          DC transfer characteristic  Mon Jan  9 13:57:43  2023
--------------------------------------------------------------------------------
Index   v-sweep         rds             
--------------------------------------------------------------------------------
0	0.000000e+00	6.049412e+02	
1	5.000000e-02	6.244624e+02	
2	1.000000e-01	6.447996e+02	
3	1.500000e-01	6.660029e+02	
4	2.000000e-01	6.881272e+02	
5	2.500000e-01	7.112317e+02	
6	3.000000e-01	7.353813e+02	
7	3.500000e-01	7.606465e+02	
8	4.000000e-01	7.871046e+02	
9	4.500000e-01	8.148402e+02	
10	5.000000e-01	8.439464e+02	
11	5.500000e-01	8.745252e+02	
12	6.000000e-01	9.066896e+02	
13	6.500000e-01	9.405640e+02	
14	7.000000e-01	9.762865e+02	
15	7.500000e-01	1.014010e+03	
16	8.000000e-01	1.053906e+03	
17	8.500000e-01	1.096164e+03	
18	9.000000e-01	1.140998e+03	
19	9.500000e-01	1.188648e+03	
20	1.000000e+00	1.239384e+03	
21	1.050000e+00	1.293514e+03	
22	1.100000e+00	1.351387e+03	
23	1.150000e+00	1.413402e+03	
24	1.200000e+00	1.480019e+03	
25	1.250000e+00	1.551773e+03	
26	1.300000e+00	1.629285e+03	
27	1.350000e+00	1.713292e+03	
28	1.400000e+00	1.804670e+03	
29	1.450000e+00	1.904485e+03	
30	1.500000e+00	2.014052e+03	
31	1.550000e+00	2.135035e+03	
32	1.600000e+00	2.269602e+03	
33	1.650000e+00	2.420666e+03	
34	1.700000e+00	2.592257e+03	
35	1.750000e+00	2.790022e+03	
36	1.800000e+00	3.021727e+03	
37	1.850000e+00	3.297236e+03	
38	1.900000e+00	3.627108e+03	
39	1.950000e+00	4.019330e+03	
40	2.000000e+00	4.475722e+03	
41	2.050000e+00	4.990870e+03	
42	2.100000e+00	5.554470e+03	
43	2.150000e+00	6.154908e+03	
44	2.200000e+00	6.781774e+03	
45	2.250000e+00	7.426817e+03	
46	2.300000e+00	8.083908e+03	
47	2.350000e+00	8.748634e+03	
48	2.400000e+00	9.417850e+03	
49	2.450000e+00	1.008932e+04	
50	2.500000e+00	1.076143e+04	
51	2.550000e+00	1.143303e+04	
52	2.600000e+00	1.210326e+04	
53	2.650000e+00	1.277149e+04	
54	2.700000e+00	1.343725e+04	

Index   v-sweep         rds             
--------------------------------------------------------------------------------
55	2.750000e+00	1.410020e+04	
56	2.800000e+00	1.476006e+04	
57	2.850000e+00	1.541663e+04	
58	2.900000e+00	1.606975e+04	
59	2.950000e+00	1.671932e+04	
60	3.000000e+00	1.736524e+04	
61	3.050000e+00	1.800745e+04	
62	3.100000e+00	1.864589e+04	
63	3.150000e+00	1.928053e+04	
64	3.200000e+00	1.991135e+04	
65	3.250000e+00	2.053834e+04	
66	3.300000e+00	2.116149e+04	
67	3.350000e+00	2.178079e+04	
68	3.400000e+00	2.239626e+04	
69	3.450000e+00	2.300789e+04	
70	3.500000e+00	2.361570e+04	
71	3.550000e+00	2.421971e+04	
72	3.600000e+00	2.481993e+04	
73	3.650000e+00	2.541638e+04	
74	3.700000e+00	2.600907e+04	
75	3.750000e+00	2.659804e+04	
76	3.800000e+00	2.718330e+04	
77	3.850000e+00	2.776488e+04	
78	3.900000e+00	2.834280e+04	
79	3.950000e+00	2.891708e+04	
80	4.000000e+00	2.948775e+04	
81	4.050000e+00	3.005484e+04	
82	4.100000e+00	3.061837e+04	
83	4.150000e+00	3.117837e+04	
84	4.200000e+00	3.173487e+04	
85	4.250000e+00	3.228788e+04	
86	4.300000e+00	3.283744e+04	
87	4.350000e+00	3.338358e+04	
88	4.400000e+00	3.392632e+04	
89	4.450000e+00	3.446569e+04	
90	4.500000e+00	3.500171e+04	
91	4.550000e+00	3.553441e+04	
92	4.600000e+00	3.606382e+04	
93	4.650000e+00	3.658996e+04	
94	4.700000e+00	3.711287e+04	
95	4.750000e+00	3.763256e+04	
96	4.800000e+00	3.814906e+04	
97	4.850000e+00	3.866241e+04	
98	4.900000e+00	3.917261e+04	
99	4.950000e+00	3.967971e+04	
100	5.000000e+00	4.018373e+04	
101	5.050000e+00	4.068468e+04	
102	5.100000e+00	4.118260e+04	
103	5.150000e+00	4.167751e+04	
104	5.200000e+00	4.216944e+04	
105	5.250000e+00	4.265841e+04	
106	5.300000e+00	4.314444e+04	
107	5.350000e+00	4.362756e+04	
108	5.400000e+00	4.410779e+04	
109	5.450000e+00	4.458516e+04	
110	5.500000e+00	4.505969e+04	
111	5.550000e+00	4.553140e+04	
112	5.600000e+00	4.600031e+04	

Index   v-sweep         rds             
--------------------------------------------------------------------------------
113	5.650000e+00	4.646646e+04	
114	5.700000e+00	4.692985e+04	
115	5.750000e+00	4.739053e+04	
116	5.800000e+00	4.784849e+04	
117	5.850000e+00	4.830378e+04	
118	5.900000e+00	4.875640e+04	
119	5.950000e+00	4.920639e+04	
120	6.000000e+00	4.965376e+04	
121	6.050000e+00	5.009853e+04	
122	6.100000e+00	5.054073e+04	
123	6.150000e+00	5.098038e+04	
124	6.200000e+00	5.141749e+04	
125	6.250000e+00	5.185209e+04	
126	6.300000e+00	5.228420e+04	
127	6.350000e+00	5.271383e+04	
128	6.400000e+00	5.314102e+04	
129	6.450000e+00	5.356577e+04	
130	6.500000e+00	5.398810e+04	
131	6.550000e+00	5.440805e+04	
132	6.600000e+00	5.482562e+04	
Reset re-loads circuit ***************************

Circuit: ***************************

Doing analysis at TEMP = 125.000000 and TNOM = 125.000000


No. of Data Rows : 133
                          ***************************
                          DC transfer characteristic  Mon Jan  9 13:57:43  2023
--------------------------------------------------------------------------------
Index   v-sweep         rds             
--------------------------------------------------------------------------------
0	0.000000e+00	5.623382e+02	
1	5.000000e-02	5.777402e+02	
2	1.000000e-01	5.936708e+02	
3	1.500000e-01	6.101567e+02	
4	2.000000e-01	6.272262e+02	
5	2.500000e-01	6.449097e+02	
6	3.000000e-01	6.632396e+02	
7	3.500000e-01	6.822511e+02	
8	4.000000e-01	7.019815e+02	
9	4.500000e-01	7.224714e+02	
10	5.000000e-01	7.437644e+02	
11	5.500000e-01	7.659074e+02	
12	6.000000e-01	7.889513e+02	
13	6.500000e-01	8.129511e+02	
14	7.000000e-01	8.379664e+02	
15	7.500000e-01	8.640619e+02	
16	8.000000e-01	8.913080e+02	
17	8.500000e-01	9.197810e+02	
18	9.000000e-01	9.495645e+02	
19	9.500000e-01	9.807497e+02	
20	1.000000e+00	1.013436e+03	
21	1.050000e+00	1.047734e+03	
22	1.100000e+00	1.083762e+03	
23	1.150000e+00	1.121655e+03	
24	1.200000e+00	1.161558e+03	
25	1.250000e+00	1.203633e+03	
26	1.300000e+00	1.248061e+03	
27	1.350000e+00	1.295043e+03	
28	1.400000e+00	1.344805e+03	
29	1.450000e+00	1.397600e+03	
30	1.500000e+00	1.453714e+03	
31	1.550000e+00	1.513472e+03	
32	1.600000e+00	1.577248e+03	
33	1.650000e+00	1.645472e+03	
34	1.700000e+00	1.718645e+03	
35	1.750000e+00	1.797362e+03	
36	1.800000e+00	1.882335e+03	
37	1.850000e+00	1.974440e+03	
38	1.900000e+00	2.074776e+03	
39	1.950000e+00	2.184769e+03	
40	2.000000e+00	2.306321e+03	
41	2.050000e+00	2.442040e+03	
42	2.100000e+00	2.595552e+03	
43	2.150000e+00	2.771843e+03	
44	2.200000e+00	2.977411e+03	
45	2.250000e+00	3.219808e+03	
46	2.300000e+00	3.506136e+03	
47	2.350000e+00	3.840742e+03	
48	2.400000e+00	4.223432e+03	
49	2.450000e+00	4.649527e+03	
50	2.500000e+00	5.111618e+03	
51	2.550000e+00	5.601679e+03	
52	2.600000e+00	6.112486e+03	
53	2.650000e+00	6.638179e+03	
54	2.700000e+00	7.174271e+03	

Index   v-sweep         rds             
--------------------------------------------------------------------------------
55	2.750000e+00	7.717428e+03	
56	2.800000e+00	8.265203e+03	
57	2.850000e+00	8.815803e+03	
58	2.900000e+00	9.367910e+03	
59	2.950000e+00	9.920547e+03	
60	3.000000e+00	1.047299e+04	
61	3.050000e+00	1.102467e+04	
62	3.100000e+00	1.157519e+04	
63	3.150000e+00	1.212422e+04	
64	3.200000e+00	1.267151e+04	
65	3.250000e+00	1.321687e+04	
66	3.300000e+00	1.376014e+04	
67	3.350000e+00	1.430121e+04	
68	3.400000e+00	1.483998e+04	
69	3.450000e+00	1.537637e+04	
70	3.500000e+00	1.591034e+04	
71	3.550000e+00	1.644183e+04	
72	3.600000e+00	1.697081e+04	
73	3.650000e+00	1.749725e+04	
74	3.700000e+00	1.802114e+04	
75	3.750000e+00	1.854245e+04	
76	3.800000e+00	1.906119e+04	
77	3.850000e+00	1.957733e+04	
78	3.900000e+00	2.009089e+04	
79	3.950000e+00	2.060185e+04	
80	4.000000e+00	2.111023e+04	
81	4.050000e+00	2.161603e+04	
82	4.100000e+00	2.211924e+04	
83	4.150000e+00	2.261989e+04	
84	4.200000e+00	2.311798e+04	
85	4.250000e+00	2.361351e+04	
86	4.300000e+00	2.410650e+04	
87	4.350000e+00	2.459696e+04	
88	4.400000e+00	2.508490e+04	
89	4.450000e+00	2.557034e+04	
90	4.500000e+00	2.605328e+04	
91	4.550000e+00	2.653374e+04	
92	4.600000e+00	2.701173e+04	
93	4.650000e+00	2.748727e+04	
94	4.700000e+00	2.796036e+04	
95	4.750000e+00	2.843104e+04	
96	4.800000e+00	2.889930e+04	
97	4.850000e+00	2.936516e+04	
98	4.900000e+00	2.982864e+04	
99	4.950000e+00	3.028975e+04	
100	5.000000e+00	3.074851e+04	
101	5.050000e+00	3.120493e+04	
102	5.100000e+00	3.165903e+04	
103	5.150000e+00	3.211082e+04	
104	5.200000e+00	3.256031e+04	
105	5.250000e+00	3.300753e+04	
106	5.300000e+00	3.345248e+04	
107	5.350000e+00	3.389518e+04	
108	5.400000e+00	3.433565e+04	
109	5.450000e+00	3.477389e+04	
110	5.500000e+00	3.520993e+04	
111	5.550000e+00	3.564378e+04	
112	5.600000e+00	3.607545e+04	

Index   v-sweep         rds             
--------------------------------------------------------------------------------
113	5.650000e+00	3.650496e+04	
114	5.700000e+00	3.693233e+04	
115	5.750000e+00	3.735756e+04	
116	5.800000e+00	3.778067e+04	
117	5.850000e+00	3.820167e+04	
118	5.900000e+00	3.862058e+04	
119	5.950000e+00	3.903742e+04	
120	6.000000e+00	3.945220e+04	
121	6.050000e+00	3.986492e+04	
122	6.100000e+00	4.027561e+04	
123	6.150000e+00	4.068428e+04	
124	6.200000e+00	4.109094e+04	
125	6.250000e+00	4.149561e+04	
126	6.300000e+00	4.189829e+04	
127	6.350000e+00	4.229901e+04	
128	6.400000e+00	4.269777e+04	
129	6.450000e+00	4.309459e+04	
130	6.500000e+00	4.348949e+04	
131	6.550000e+00	4.388246e+04	
132	6.600000e+00	4.427354e+04	
Reset re-loads circuit ***************************

Circuit: ***************************

Note: No ".plot", ".print", or ".fourier" lines; no simulations run
