
Note: Compatibility modes selected: hs

Warning: m=xx on .subckt line will override multiplier m hierarchy!


Circuit: ***************************

Doing analysis at TEMP = 125.000000 and TNOM = 125.000000


No. of Data Rows : 133
                          ***************************
                          DC transfer characteristic  Mon Jan  9 13:57:42  2023
--------------------------------------------------------------------------------
Index   v-sweep         rds             
--------------------------------------------------------------------------------
0	0.000000e+00	1.599677e+03	
1	5.000000e-02	1.963065e+03	
2	1.000000e-01	2.510839e+03	
3	1.500000e-01	3.415042e+03	
4	2.000000e-01	5.078671e+03	
5	2.500000e-01	8.255439e+03	
6	3.000000e-01	1.292718e+04	
7	3.500000e-01	1.721222e+04	
8	4.000000e-01	2.040532e+04	
9	4.500000e-01	2.291527e+04	
10	5.000000e-01	2.504609e+04	
11	5.500000e-01	2.693453e+04	
12	6.000000e-01	2.864422e+04	
13	6.500000e-01	3.020952e+04	
14	7.000000e-01	3.165205e+04	
15	7.500000e-01	3.298720e+04	
16	8.000000e-01	3.422686e+04	
17	8.500000e-01	3.538075e+04	
18	9.000000e-01	3.645709e+04	
19	9.500000e-01	3.746297e+04	
20	1.000000e+00	3.840457e+04	
21	1.050000e+00	3.928738e+04	
22	1.100000e+00	4.011625e+04	
23	1.150000e+00	4.089555e+04	
24	1.200000e+00	4.162918e+04	
25	1.250000e+00	4.232065e+04	
26	1.300000e+00	4.297314e+04	
27	1.350000e+00	4.358953e+04	
28	1.400000e+00	4.417243e+04	
29	1.450000e+00	4.472422e+04	
30	1.500000e+00	4.524706e+04	
31	1.550000e+00	4.574292e+04	
32	1.600000e+00	4.621363e+04	
33	1.650000e+00	4.666083e+04	
34	1.700000e+00	4.708604e+04	
35	1.750000e+00	4.749067e+04	
36	1.800000e+00	4.787601e+04	
37	1.850000e+00	4.824323e+04	
38	1.900000e+00	4.859344e+04	
39	1.950000e+00	4.892766e+04	
40	2.000000e+00	4.924681e+04	
41	2.050000e+00	4.955177e+04	
42	2.100000e+00	4.984335e+04	
43	2.150000e+00	5.012230e+04	
44	2.200000e+00	5.038931e+04	
45	2.250000e+00	5.064504e+04	
46	2.300000e+00	5.089008e+04	
47	2.350000e+00	5.112501e+04	
48	2.400000e+00	5.135035e+04	
49	2.450000e+00	5.156660e+04	
50	2.500000e+00	5.177421e+04	
51	2.550000e+00	5.197362e+04	
52	2.600000e+00	5.216525e+04	
53	2.650000e+00	5.234945e+04	
54	2.700000e+00	5.252661e+04	

Index   v-sweep         rds             
--------------------------------------------------------------------------------
55	2.750000e+00	5.269704e+04	
56	2.800000e+00	5.286107e+04	
57	2.850000e+00	5.301899e+04	
58	2.900000e+00	5.317109e+04	
59	2.950000e+00	5.331763e+04	
60	3.000000e+00	5.345885e+04	
61	3.050000e+00	5.359500e+04	
62	3.100000e+00	5.372630e+04	
63	3.150000e+00	5.385296e+04	
64	3.200000e+00	5.397517e+04	
65	3.250000e+00	5.409313e+04	
66	3.300000e+00	5.420701e+04	
67	3.350000e+00	5.431699e+04	
68	3.400000e+00	5.442322e+04	
69	3.450000e+00	5.452586e+04	
70	3.500000e+00	5.462505e+04	
71	3.550000e+00	5.472094e+04	
72	3.600000e+00	5.481364e+04	
73	3.650000e+00	5.490328e+04	
74	3.700000e+00	5.498999e+04	
75	3.750000e+00	5.507388e+04	
76	3.800000e+00	5.515505e+04	
77	3.850000e+00	5.523361e+04	
78	3.900000e+00	5.530965e+04	
79	3.950000e+00	5.538327e+04	
80	4.000000e+00	5.545455e+04	
81	4.050000e+00	5.552359e+04	
82	4.100000e+00	5.559045e+04	
83	4.150000e+00	5.565523e+04	
84	4.200000e+00	5.571799e+04	
85	4.250000e+00	5.577881e+04	
86	4.300000e+00	5.583775e+04	
87	4.350000e+00	5.589487e+04	
88	4.400000e+00	5.595025e+04	
89	4.450000e+00	5.600394e+04	
90	4.500000e+00	5.605599e+04	
91	4.550000e+00	5.610647e+04	
92	4.600000e+00	5.615542e+04	
93	4.650000e+00	5.620289e+04	
94	4.700000e+00	5.624894e+04	
95	4.750000e+00	5.629361e+04	
96	4.800000e+00	5.633694e+04	
97	4.850000e+00	5.637899e+04	
98	4.900000e+00	5.641978e+04	
99	4.950000e+00	5.645935e+04	
100	5.000000e+00	5.649776e+04	
101	5.050000e+00	5.653503e+04	
102	5.100000e+00	5.657119e+04	
103	5.150000e+00	5.660629e+04	
104	5.200000e+00	5.664036e+04	
105	5.250000e+00	5.667342e+04	
106	5.300000e+00	5.670551e+04	
107	5.350000e+00	5.673666e+04	
108	5.400000e+00	5.676689e+04	
109	5.450000e+00	5.679624e+04	
110	5.500000e+00	5.682472e+04	
111	5.550000e+00	5.685237e+04	
112	5.600000e+00	5.687921e+04	

Index   v-sweep         rds             
--------------------------------------------------------------------------------
113	5.650000e+00	5.690526e+04	
114	5.700000e+00	5.693054e+04	
115	5.750000e+00	5.695508e+04	
116	5.800000e+00	5.697890e+04	
117	5.850000e+00	5.700202e+04	
118	5.900000e+00	5.702446e+04	
119	5.950000e+00	5.704624e+04	
120	6.000000e+00	5.706737e+04	
121	6.050000e+00	5.708788e+04	
122	6.100000e+00	5.710778e+04	
123	6.150000e+00	5.712709e+04	
124	6.200000e+00	5.714583e+04	
125	6.250000e+00	5.716401e+04	
126	6.300000e+00	5.718164e+04	
127	6.350000e+00	5.719875e+04	
128	6.400000e+00	5.721534e+04	
129	6.450000e+00	5.723143e+04	
130	6.500000e+00	5.724704e+04	
131	6.550000e+00	5.726217e+04	
132	6.600000e+00	5.727684e+04	
Reset re-loads circuit ***************************

Circuit: ***************************

Doing analysis at TEMP = 125.000000 and TNOM = 125.000000


No. of Data Rows : 133
                          ***************************
                          DC transfer characteristic  Mon Jan  9 13:57:43  2023
--------------------------------------------------------------------------------
Index   v-sweep         rds             
--------------------------------------------------------------------------------
0	0.000000e+00	5.326629e+02	
1	5.000000e-02	5.749216e+02	
2	1.000000e-01	6.226287e+02	
3	1.500000e-01	6.768947e+02	
4	2.000000e-01	7.391512e+02	
5	2.500000e-01	8.112747e+02	
6	3.000000e-01	8.957690e+02	
7	3.500000e-01	9.960406e+02	
8	4.000000e-01	1.116822e+03	
9	4.500000e-01	1.264826e+03	
10	5.000000e-01	1.449733e+03	
11	5.500000e-01	1.685528e+03	
12	6.000000e-01	1.991626e+03	
13	6.500000e-01	2.391139e+03	
14	7.000000e-01	2.900307e+03	
15	7.500000e-01	3.509875e+03	
16	8.000000e-01	4.183461e+03	
17	8.500000e-01	4.882725e+03	
18	9.000000e-01	5.584074e+03	
19	9.500000e-01	6.276307e+03	
20	1.000000e+00	6.954557e+03	
21	1.050000e+00	7.616776e+03	
22	1.100000e+00	8.262196e+03	
23	1.150000e+00	8.890654e+03	
24	1.200000e+00	9.502302e+03	
25	1.250000e+00	1.009745e+04	
26	1.300000e+00	1.067651e+04	
27	1.350000e+00	1.123992e+04	
28	1.400000e+00	1.178816e+04	
29	1.450000e+00	1.232170e+04	
30	1.500000e+00	1.284102e+04	
31	1.550000e+00	1.334660e+04	
32	1.600000e+00	1.383889e+04	
33	1.650000e+00	1.431834e+04	
34	1.700000e+00	1.478538e+04	
35	1.750000e+00	1.524045e+04	
36	1.800000e+00	1.568394e+04	
37	1.850000e+00	1.611624e+04	
38	1.900000e+00	1.653774e+04	
39	1.950000e+00	1.694878e+04	
40	2.000000e+00	1.734973e+04	
41	2.050000e+00	1.774091e+04	
42	2.100000e+00	1.812265e+04	
43	2.150000e+00	1.849526e+04	
44	2.200000e+00	1.885904e+04	
45	2.250000e+00	1.921426e+04	
46	2.300000e+00	1.956120e+04	
47	2.350000e+00	1.990014e+04	
48	2.400000e+00	2.023131e+04	
49	2.450000e+00	2.055497e+04	
50	2.500000e+00	2.087135e+04	
51	2.550000e+00	2.118067e+04	
52	2.600000e+00	2.148315e+04	
53	2.650000e+00	2.177900e+04	
54	2.700000e+00	2.206842e+04	

Index   v-sweep         rds             
--------------------------------------------------------------------------------
55	2.750000e+00	2.235160e+04	
56	2.800000e+00	2.262873e+04	
57	2.850000e+00	2.289998e+04	
58	2.900000e+00	2.316553e+04	
59	2.950000e+00	2.342554e+04	
60	3.000000e+00	2.368018e+04	
61	3.050000e+00	2.392959e+04	
62	3.100000e+00	2.417393e+04	
63	3.150000e+00	2.441333e+04	
64	3.200000e+00	2.464795e+04	
65	3.250000e+00	2.487790e+04	
66	3.300000e+00	2.510332e+04	
67	3.350000e+00	2.532433e+04	
68	3.400000e+00	2.554105e+04	
69	3.450000e+00	2.575359e+04	
70	3.500000e+00	2.596208e+04	
71	3.550000e+00	2.616661e+04	
72	3.600000e+00	2.636729e+04	
73	3.650000e+00	2.656422e+04	
74	3.700000e+00	2.675750e+04	
75	3.750000e+00	2.694722e+04	
76	3.800000e+00	2.713348e+04	
77	3.850000e+00	2.731636e+04	
78	3.900000e+00	2.749594e+04	
79	3.950000e+00	2.767231e+04	
80	4.000000e+00	2.784555e+04	
81	4.050000e+00	2.801574e+04	
82	4.100000e+00	2.818294e+04	
83	4.150000e+00	2.834724e+04	
84	4.200000e+00	2.850871e+04	
85	4.250000e+00	2.866741e+04	
86	4.300000e+00	2.882340e+04	
87	4.350000e+00	2.897676e+04	
88	4.400000e+00	2.912754e+04	
89	4.450000e+00	2.927580e+04	
90	4.500000e+00	2.942161e+04	
91	4.550000e+00	2.956502e+04	
92	4.600000e+00	2.970608e+04	
93	4.650000e+00	2.984485e+04	
94	4.700000e+00	2.998138e+04	
95	4.750000e+00	3.011572e+04	
96	4.800000e+00	3.024792e+04	
97	4.850000e+00	3.037802e+04	
98	4.900000e+00	3.050608e+04	
99	4.950000e+00	3.063214e+04	
100	5.000000e+00	3.075623e+04	
101	5.050000e+00	3.087842e+04	
102	5.100000e+00	3.099872e+04	
103	5.150000e+00	3.111719e+04	
104	5.200000e+00	3.123387e+04	
105	5.250000e+00	3.134878e+04	
106	5.300000e+00	3.146198e+04	
107	5.350000e+00	3.157349e+04	
108	5.400000e+00	3.168335e+04	
109	5.450000e+00	3.179159e+04	
110	5.500000e+00	3.189825e+04	
111	5.550000e+00	3.200336e+04	
112	5.600000e+00	3.210695e+04	

Index   v-sweep         rds             
--------------------------------------------------------------------------------
113	5.650000e+00	3.220905e+04	
114	5.700000e+00	3.230969e+04	
115	5.750000e+00	3.240890e+04	
116	5.800000e+00	3.250671e+04	
117	5.850000e+00	3.260315e+04	
118	5.900000e+00	3.269824e+04	
119	5.950000e+00	3.279201e+04	
120	6.000000e+00	3.288448e+04	
121	6.050000e+00	3.297568e+04	
122	6.100000e+00	3.306564e+04	
123	6.150000e+00	3.315437e+04	
124	6.200000e+00	3.324191e+04	
125	6.250000e+00	3.332827e+04	
126	6.300000e+00	3.341347e+04	
127	6.350000e+00	3.349755e+04	
128	6.400000e+00	3.358051e+04	
129	6.450000e+00	3.366237e+04	
130	6.500000e+00	3.374317e+04	
131	6.550000e+00	3.382292e+04	
132	6.600000e+00	3.390163e+04	
Reset re-loads circuit ***************************

Circuit: ***************************

Doing analysis at TEMP = 125.000000 and TNOM = 125.000000


No. of Data Rows : 133
                          ***************************
                          DC transfer characteristic  Mon Jan  9 13:57:43  2023
--------------------------------------------------------------------------------
Index   v-sweep         rds             
--------------------------------------------------------------------------------
0	0.000000e+00	3.568182e+02	
1	5.000000e-02	3.763679e+02	
2	1.000000e-01	3.974319e+02	
3	1.500000e-01	4.201889e+02	
4	2.000000e-01	4.448468e+02	
5	2.500000e-01	4.716494e+02	
6	3.000000e-01	5.008840e+02	
7	3.500000e-01	5.328918e+02	
8	4.000000e-01	5.680810e+02	
9	4.500000e-01	6.069432e+02	
10	5.000000e-01	6.500762e+02	
11	5.500000e-01	6.982139e+02	
12	6.000000e-01	7.522666e+02	
13	6.500000e-01	8.133771e+02	
14	7.000000e-01	8.829994e+02	
15	7.500000e-01	9.630116e+02	
16	8.000000e-01	1.055881e+03	
17	8.500000e-01	1.164906e+03	
18	9.000000e-01	1.294577e+03	
19	9.500000e-01	1.451035e+03	
20	1.000000e+00	1.642392e+03	
21	1.050000e+00	1.877929e+03	
22	1.100000e+00	2.164574e+03	
23	1.150000e+00	2.501648e+03	
24	1.200000e+00	2.879683e+03	
25	1.250000e+00	3.285385e+03	
26	1.300000e+00	3.706972e+03	
27	1.350000e+00	4.136072e+03	
28	1.400000e+00	4.567311e+03	
29	1.450000e+00	4.997372e+03	
30	1.500000e+00	5.424227e+03	
31	1.550000e+00	5.846631e+03	
32	1.600000e+00	6.263823e+03	
33	1.650000e+00	6.675341e+03	
34	1.700000e+00	7.080912e+03	
35	1.750000e+00	7.480388e+03	
36	1.800000e+00	7.873704e+03	
37	1.850000e+00	8.260849e+03	
38	1.900000e+00	8.641849e+03	
39	1.950000e+00	9.016759e+03	
40	2.000000e+00	9.385650e+03	
41	2.050000e+00	9.748604e+03	
42	2.100000e+00	1.010572e+04	
43	2.150000e+00	1.045708e+04	
44	2.200000e+00	1.080281e+04	
45	2.250000e+00	1.114299e+04	
46	2.300000e+00	1.147774e+04	
47	2.350000e+00	1.180716e+04	
48	2.400000e+00	1.213136e+04	
49	2.450000e+00	1.245044e+04	
50	2.500000e+00	1.276451e+04	
51	2.550000e+00	1.307366e+04	
52	2.600000e+00	1.337801e+04	
53	2.650000e+00	1.367763e+04	
54	2.700000e+00	1.397264e+04	

Index   v-sweep         rds             
--------------------------------------------------------------------------------
55	2.750000e+00	1.426313e+04	
56	2.800000e+00	1.454919e+04	
57	2.850000e+00	1.483091e+04	
58	2.900000e+00	1.510838e+04	
59	2.950000e+00	1.538169e+04	
60	3.000000e+00	1.565092e+04	
61	3.050000e+00	1.591616e+04	
62	3.100000e+00	1.617748e+04	
63	3.150000e+00	1.643497e+04	
64	3.200000e+00	1.668871e+04	
65	3.250000e+00	1.693876e+04	
66	3.300000e+00	1.718521e+04	
67	3.350000e+00	1.742812e+04	
68	3.400000e+00	1.766757e+04	
69	3.450000e+00	1.790362e+04	
70	3.500000e+00	1.813635e+04	
71	3.550000e+00	1.836581e+04	
72	3.600000e+00	1.859207e+04	
73	3.650000e+00	1.881519e+04	
74	3.700000e+00	1.903524e+04	
75	3.750000e+00	1.925227e+04	
76	3.800000e+00	1.946634e+04	
77	3.850000e+00	1.967750e+04	
78	3.900000e+00	1.988582e+04	
79	3.950000e+00	2.009135e+04	
80	4.000000e+00	2.029413e+04	
81	4.050000e+00	2.049423e+04	
82	4.100000e+00	2.069168e+04	
83	4.150000e+00	2.088655e+04	
84	4.200000e+00	2.107887e+04	
85	4.250000e+00	2.126869e+04	
86	4.300000e+00	2.145607e+04	
87	4.350000e+00	2.164104e+04	
88	4.400000e+00	2.182365e+04	
89	4.450000e+00	2.200394e+04	
90	4.500000e+00	2.218195e+04	
91	4.550000e+00	2.235772e+04	
92	4.600000e+00	2.253129e+04	
93	4.650000e+00	2.270271e+04	
94	4.700000e+00	2.287201e+04	
95	4.750000e+00	2.303922e+04	
96	4.800000e+00	2.320439e+04	
97	4.850000e+00	2.336754e+04	
98	4.900000e+00	2.352872e+04	
99	4.950000e+00	2.368795e+04	
100	5.000000e+00	2.384527e+04	
101	5.050000e+00	2.400072e+04	
102	5.100000e+00	2.415432e+04	
103	5.150000e+00	2.430611e+04	
104	5.200000e+00	2.445611e+04	
105	5.250000e+00	2.460436e+04	
106	5.300000e+00	2.475088e+04	
107	5.350000e+00	2.489571e+04	
108	5.400000e+00	2.503887e+04	
109	5.450000e+00	2.518039e+04	
110	5.500000e+00	2.532029e+04	
111	5.550000e+00	2.545860e+04	
112	5.600000e+00	2.559535e+04	

Index   v-sweep         rds             
--------------------------------------------------------------------------------
113	5.650000e+00	2.573057e+04	
114	5.700000e+00	2.586427e+04	
115	5.750000e+00	2.599648e+04	
116	5.800000e+00	2.612723e+04	
117	5.850000e+00	2.625654e+04	
118	5.900000e+00	2.638442e+04	
119	5.950000e+00	2.651091e+04	
120	6.000000e+00	2.663603e+04	
121	6.050000e+00	2.675979e+04	
122	6.100000e+00	2.688221e+04	
123	6.150000e+00	2.700333e+04	
124	6.200000e+00	2.712315e+04	
125	6.250000e+00	2.724170e+04	
126	6.300000e+00	2.735899e+04	
127	6.350000e+00	2.747505e+04	
128	6.400000e+00	2.758990e+04	
129	6.450000e+00	2.770354e+04	
130	6.500000e+00	2.781601e+04	
131	6.550000e+00	2.792731e+04	
132	6.600000e+00	2.803747e+04	
Reset re-loads circuit ***************************

Circuit: ***************************

Doing analysis at TEMP = 125.000000 and TNOM = 125.000000


No. of Data Rows : 133
                          ***************************
                          DC transfer characteristic  Mon Jan  9 13:57:43  2023
--------------------------------------------------------------------------------
Index   v-sweep         rds             
--------------------------------------------------------------------------------
0	0.000000e+00	2.882531e+02	
1	5.000000e-02	3.007325e+02	
2	1.000000e-01	3.139147e+02	
3	1.500000e-01	3.278587e+02	
4	2.000000e-01	3.426301e+02	
5	2.500000e-01	3.583027e+02	
6	3.000000e-01	3.749593e+02	
7	3.500000e-01	3.926934e+02	
8	4.000000e-01	4.116108e+02	
9	4.500000e-01	4.318317e+02	
10	5.000000e-01	4.534934e+02	
11	5.500000e-01	4.767530e+02	
12	6.000000e-01	5.017911e+02	
13	6.500000e-01	5.288169e+02	
14	7.000000e-01	5.580731e+02	
15	7.500000e-01	5.898441e+02	
16	8.000000e-01	6.244646e+02	
17	8.500000e-01	6.623322e+02	
18	9.000000e-01	7.039239e+02	
19	9.500000e-01	7.498182e+02	
20	1.000000e+00	8.007275e+02	
21	1.050000e+00	8.575454e+02	
22	1.100000e+00	9.214202e+02	
23	1.150000e+00	9.938738e+02	
24	1.200000e+00	1.076996e+03	
25	1.250000e+00	1.173753e+03	
26	1.300000e+00	1.288378e+03	
27	1.350000e+00	1.426582e+03	
28	1.400000e+00	1.594806e+03	
29	1.450000e+00	1.797808e+03	
30	1.500000e+00	2.035758e+03	
31	1.550000e+00	2.303745e+03	
32	1.600000e+00	2.594228e+03	
33	1.650000e+00	2.899838e+03	
34	1.700000e+00	3.214750e+03	
35	1.750000e+00	3.534818e+03	
36	1.800000e+00	3.857230e+03	
37	1.850000e+00	4.180106e+03	
38	1.900000e+00	4.502195e+03	
39	1.950000e+00	4.822653e+03	
40	2.000000e+00	5.140912e+03	
41	2.050000e+00	5.456583e+03	
42	2.100000e+00	5.769401e+03	
43	2.150000e+00	6.079187e+03	
44	2.200000e+00	6.385821e+03	
45	2.250000e+00	6.689226e+03	
46	2.300000e+00	6.989354e+03	
47	2.350000e+00	7.286181e+03	
48	2.400000e+00	7.579699e+03	
49	2.450000e+00	7.869913e+03	
50	2.500000e+00	8.156838e+03	
51	2.550000e+00	8.440493e+03	
52	2.600000e+00	8.720906e+03	
53	2.650000e+00	8.998107e+03	
54	2.700000e+00	9.272129e+03	

Index   v-sweep         rds             
--------------------------------------------------------------------------------
55	2.750000e+00	9.543009e+03	
56	2.800000e+00	9.810783e+03	
57	2.850000e+00	1.007549e+04	
58	2.900000e+00	1.033717e+04	
59	2.950000e+00	1.059587e+04	
60	3.000000e+00	1.085161e+04	
61	3.050000e+00	1.110446e+04	
62	3.100000e+00	1.135444e+04	
63	3.150000e+00	1.160159e+04	
64	3.200000e+00	1.184597e+04	
65	3.250000e+00	1.208760e+04	
66	3.300000e+00	1.232652e+04	
67	3.350000e+00	1.256279e+04	
68	3.400000e+00	1.279643e+04	
69	3.450000e+00	1.302748e+04	
70	3.500000e+00	1.325599e+04	
71	3.550000e+00	1.348199e+04	
72	3.600000e+00	1.370551e+04	
73	3.650000e+00	1.392660e+04	
74	3.700000e+00	1.414529e+04	
75	3.750000e+00	1.436162e+04	
76	3.800000e+00	1.457561e+04	
77	3.850000e+00	1.478731e+04	
78	3.900000e+00	1.499675e+04	
79	3.950000e+00	1.520396e+04	
80	4.000000e+00	1.540898e+04	
81	4.050000e+00	1.561183e+04	
82	4.100000e+00	1.581255e+04	
83	4.150000e+00	1.601117e+04	
84	4.200000e+00	1.620772e+04	
85	4.250000e+00	1.640223e+04	
86	4.300000e+00	1.659473e+04	
87	4.350000e+00	1.678525e+04	
88	4.400000e+00	1.697381e+04	
89	4.450000e+00	1.716045e+04	
90	4.500000e+00	1.734519e+04	
91	4.550000e+00	1.752807e+04	
92	4.600000e+00	1.770910e+04	
93	4.650000e+00	1.788831e+04	
94	4.700000e+00	1.806573e+04	
95	4.750000e+00	1.824138e+04	
96	4.800000e+00	1.841530e+04	
97	4.850000e+00	1.858749e+04	
98	4.900000e+00	1.875799e+04	
99	4.950000e+00	1.892682e+04	
100	5.000000e+00	1.909401e+04	
101	5.050000e+00	1.925957e+04	
102	5.100000e+00	1.942353e+04	
103	5.150000e+00	1.958591e+04	
104	5.200000e+00	1.974673e+04	
105	5.250000e+00	1.990602e+04	
106	5.300000e+00	2.006379e+04	
107	5.350000e+00	2.022006e+04	
108	5.400000e+00	2.037486e+04	
109	5.450000e+00	2.052820e+04	
110	5.500000e+00	2.068011e+04	
111	5.550000e+00	2.083060e+04	
112	5.600000e+00	2.097969e+04	

Index   v-sweep         rds             
--------------------------------------------------------------------------------
113	5.650000e+00	2.112740e+04	
114	5.700000e+00	2.127376e+04	
115	5.750000e+00	2.141876e+04	
116	5.800000e+00	2.156245e+04	
117	5.850000e+00	2.170482e+04	
118	5.900000e+00	2.184590e+04	
119	5.950000e+00	2.198571e+04	
120	6.000000e+00	2.212426e+04	
121	6.050000e+00	2.226157e+04	
122	6.100000e+00	2.239765e+04	
123	6.150000e+00	2.253252e+04	
124	6.200000e+00	2.266619e+04	
125	6.250000e+00	2.279869e+04	
126	6.300000e+00	2.293002e+04	
127	6.350000e+00	2.306020e+04	
128	6.400000e+00	2.318924e+04	
129	6.450000e+00	2.331717e+04	
130	6.500000e+00	2.344398e+04	
131	6.550000e+00	2.356970e+04	
132	6.600000e+00	2.369434e+04	
Reset re-loads circuit ***************************

Circuit: ***************************

Doing analysis at TEMP = 125.000000 and TNOM = 125.000000


No. of Data Rows : 133
                          ***************************
                          DC transfer characteristic  Mon Jan  9 13:57:43  2023
--------------------------------------------------------------------------------
Index   v-sweep         rds             
--------------------------------------------------------------------------------
0	0.000000e+00	2.550899e+02	
1	5.000000e-02	2.642653e+02	
2	1.000000e-01	2.738485e+02	
3	1.500000e-01	2.838661e+02	
4	2.000000e-01	2.943469e+02	
5	2.500000e-01	3.053227e+02	
6	3.000000e-01	3.168280e+02	
7	3.500000e-01	3.289009e+02	
8	4.000000e-01	3.415832e+02	
9	4.500000e-01	3.549212e+02	
10	5.000000e-01	3.689659e+02	
11	5.500000e-01	3.837737e+02	
12	6.000000e-01	3.994076e+02	
13	6.500000e-01	4.159373e+02	
14	7.000000e-01	4.334406e+02	
15	7.500000e-01	4.520048e+02	
16	8.000000e-01	4.717277e+02	
17	8.500000e-01	4.927195e+02	
18	9.000000e-01	5.151047e+02	
19	9.500000e-01	5.390249e+02	
20	1.000000e+00	5.646415e+02	
21	1.050000e+00	5.921400e+02	
22	1.100000e+00	6.217347e+02	
23	1.150000e+00	6.536757e+02	
24	1.200000e+00	6.882573e+02	
25	1.250000e+00	7.258308e+02	
26	1.300000e+00	7.668230e+02	
27	1.350000e+00	8.117634e+02	
28	1.400000e+00	8.613289e+02	
29	1.450000e+00	9.164156e+02	
30	1.500000e+00	9.782570e+02	
31	1.550000e+00	1.048610e+03	
32	1.600000e+00	1.130010e+03	
33	1.650000e+00	1.225995e+03	
34	1.700000e+00	1.340991e+03	
35	1.750000e+00	1.479378e+03	
36	1.800000e+00	1.643751e+03	
37	1.850000e+00	1.833513e+03	
38	1.900000e+00	2.045105e+03	
39	1.950000e+00	2.273557e+03	
40	2.000000e+00	2.514013e+03	
41	2.050000e+00	2.762496e+03	
42	2.100000e+00	3.016040e+03	
43	2.150000e+00	3.272527e+03	
44	2.200000e+00	3.530476e+03	
45	2.250000e+00	3.788854e+03	
46	2.300000e+00	4.046934e+03	
47	2.350000e+00	4.304205e+03	
48	2.400000e+00	4.560301e+03	
49	2.450000e+00	4.814960e+03	
50	2.500000e+00	5.067993e+03	
51	2.550000e+00	5.319262e+03	
52	2.600000e+00	5.568667e+03	
53	2.650000e+00	5.816138e+03	
54	2.700000e+00	6.061624e+03	

Index   v-sweep         rds             
--------------------------------------------------------------------------------
55	2.750000e+00	6.305090e+03	
56	2.800000e+00	6.546514e+03	
57	2.850000e+00	6.785882e+03	
58	2.900000e+00	7.023188e+03	
59	2.950000e+00	7.258430e+03	
60	3.000000e+00	7.491614e+03	
61	3.050000e+00	7.722747e+03	
62	3.100000e+00	7.951837e+03	
63	3.150000e+00	8.178899e+03	
64	3.200000e+00	8.403945e+03	
65	3.250000e+00	8.626991e+03	
66	3.300000e+00	8.848055e+03	
67	3.350000e+00	9.067152e+03	
68	3.400000e+00	9.284302e+03	
69	3.450000e+00	9.499523e+03	
70	3.500000e+00	9.712835e+03	
71	3.550000e+00	9.924256e+03	
72	3.600000e+00	1.013381e+04	
73	3.650000e+00	1.034151e+04	
74	3.700000e+00	1.054738e+04	
75	3.750000e+00	1.075143e+04	
76	3.800000e+00	1.095370e+04	
77	3.850000e+00	1.115420e+04	
78	3.900000e+00	1.135294e+04	
79	3.950000e+00	1.154996e+04	
80	4.000000e+00	1.174526e+04	
81	4.050000e+00	1.193887e+04	
82	4.100000e+00	1.213080e+04	
83	4.150000e+00	1.232108e+04	
84	4.200000e+00	1.250973e+04	
85	4.250000e+00	1.269676e+04	
86	4.300000e+00	1.288219e+04	
87	4.350000e+00	1.306605e+04	
88	4.400000e+00	1.324834e+04	
89	4.450000e+00	1.342909e+04	
90	4.500000e+00	1.360831e+04	
91	4.550000e+00	1.378603e+04	
92	4.600000e+00	1.396226e+04	
93	4.650000e+00	1.413701e+04	
94	4.700000e+00	1.431031e+04	
95	4.750000e+00	1.448217e+04	
96	4.800000e+00	1.465260e+04	
97	4.850000e+00	1.482163e+04	
98	4.900000e+00	1.498927e+04	
99	4.950000e+00	1.515553e+04	
100	5.000000e+00	1.532044e+04	
101	5.050000e+00	1.548400e+04	
102	5.100000e+00	1.564623e+04	
103	5.150000e+00	1.580715e+04	
104	5.200000e+00	1.596678e+04	
105	5.250000e+00	1.612512e+04	
106	5.300000e+00	1.628219e+04	
107	5.350000e+00	1.643800e+04	
108	5.400000e+00	1.659258e+04	
109	5.450000e+00	1.674593e+04	
110	5.500000e+00	1.689806e+04	
111	5.550000e+00	1.704900e+04	
112	5.600000e+00	1.719875e+04	

Index   v-sweep         rds             
--------------------------------------------------------------------------------
113	5.650000e+00	1.734733e+04	
114	5.700000e+00	1.749474e+04	
115	5.750000e+00	1.764101e+04	
116	5.800000e+00	1.778615e+04	
117	5.850000e+00	1.793016e+04	
118	5.900000e+00	1.807307e+04	
119	5.950000e+00	1.821488e+04	
120	6.000000e+00	1.835560e+04	
121	6.050000e+00	1.849525e+04	
122	6.100000e+00	1.863383e+04	
123	6.150000e+00	1.877137e+04	
124	6.200000e+00	1.890787e+04	
125	6.250000e+00	1.904333e+04	
126	6.300000e+00	1.917779e+04	
127	6.350000e+00	1.931123e+04	
128	6.400000e+00	1.944368e+04	
129	6.450000e+00	1.957515e+04	
130	6.500000e+00	1.970564e+04	
131	6.550000e+00	1.983517e+04	
132	6.600000e+00	1.996374e+04	
Reset re-loads circuit ***************************

Circuit: ***************************

Doing analysis at TEMP = 125.000000 and TNOM = 125.000000


No. of Data Rows : 133
                          ***************************
                          DC transfer characteristic  Mon Jan  9 13:57:43  2023
--------------------------------------------------------------------------------
Index   v-sweep         rds             
--------------------------------------------------------------------------------
0	0.000000e+00	2.380368e+02	
1	5.000000e-02	2.453302e+02	
2	1.000000e-01	2.528912e+02	
3	1.500000e-01	2.607340e+02	
4	2.000000e-01	2.688737e+02	
5	2.500000e-01	2.773269e+02	
6	3.000000e-01	2.861111e+02	
7	3.500000e-01	2.952454e+02	
8	4.000000e-01	3.047505e+02	
9	4.500000e-01	3.146487e+02	
10	5.000000e-01	3.249642e+02	
11	5.500000e-01	3.357232e+02	
12	6.000000e-01	3.469543e+02	
13	6.500000e-01	3.586887e+02	
14	7.000000e-01	3.709601e+02	
15	7.500000e-01	3.838057e+02	
16	8.000000e-01	3.972660e+02	
17	8.500000e-01	4.113852e+02	
18	9.000000e-01	4.262121e+02	
19	9.500000e-01	4.418003e+02	
20	1.000000e+00	4.582087e+02	
21	1.050000e+00	4.755029e+02	
22	1.100000e+00	4.937551e+02	
23	1.150000e+00	5.130459e+02	
24	1.200000e+00	5.334653e+02	
25	1.250000e+00	5.551140e+02	
26	1.300000e+00	5.781056e+02	
27	1.350000e+00	6.025688e+02	
28	1.400000e+00	6.286503e+02	
29	1.450000e+00	6.565189e+02	
30	1.500000e+00	6.863709e+02	
31	1.550000e+00	7.184376e+02	
32	1.600000e+00	7.529967e+02	
33	1.650000e+00	7.903890e+02	
34	1.700000e+00	8.310453e+02	
35	1.750000e+00	8.755285e+02	
36	1.800000e+00	9.246024e+02	
37	1.850000e+00	9.793371e+02	
38	1.900000e+00	1.041260e+03	
39	1.950000e+00	1.112521e+03	
40	2.000000e+00	1.195971e+03	
41	2.050000e+00	1.294904e+03	
42	2.100000e+00	1.412268e+03	
43	2.150000e+00	1.549550e+03	
44	2.200000e+00	1.706074e+03	
45	2.250000e+00	1.879289e+03	
46	2.300000e+00	2.065741e+03	
47	2.350000e+00	2.262000e+03	
48	2.400000e+00	2.465166e+03	
49	2.450000e+00	2.672991e+03	
50	2.500000e+00	2.883813e+03	
51	2.550000e+00	3.096430e+03	
52	2.600000e+00	3.309977e+03	
53	2.650000e+00	3.523833e+03	
54	2.700000e+00	3.737546e+03	

Index   v-sweep         rds             
--------------------------------------------------------------------------------
55	2.750000e+00	3.950787e+03	
56	2.800000e+00	4.163313e+03	
57	2.850000e+00	4.374944e+03	
58	2.900000e+00	4.585546e+03	
59	2.950000e+00	4.795018e+03	
60	3.000000e+00	5.003283e+03	
61	3.050000e+00	5.210285e+03	
62	3.100000e+00	5.415979e+03	
63	3.150000e+00	5.620336e+03	
64	3.200000e+00	5.823331e+03	
65	3.250000e+00	6.024948e+03	
66	3.300000e+00	6.225176e+03	
67	3.350000e+00	6.424007e+03	
68	3.400000e+00	6.621440e+03	
69	3.450000e+00	6.817472e+03	
70	3.500000e+00	7.012105e+03	
71	3.550000e+00	7.205343e+03	
72	3.600000e+00	7.397190e+03	
73	3.650000e+00	7.587653e+03	
74	3.700000e+00	7.776738e+03	
75	3.750000e+00	7.964454e+03	
76	3.800000e+00	8.150808e+03	
77	3.850000e+00	8.335811e+03	
78	3.900000e+00	8.519471e+03	
79	3.950000e+00	8.701798e+03	
80	4.000000e+00	8.882803e+03	
81	4.050000e+00	9.062497e+03	
82	4.100000e+00	9.240889e+03	
83	4.150000e+00	9.417990e+03	
84	4.200000e+00	9.593812e+03	
85	4.250000e+00	9.768366e+03	
86	4.300000e+00	9.941663e+03	
87	4.350000e+00	1.011371e+04	
88	4.400000e+00	1.028453e+04	
89	4.450000e+00	1.045412e+04	
90	4.500000e+00	1.062250e+04	
91	4.550000e+00	1.078967e+04	
92	4.600000e+00	1.095566e+04	
93	4.650000e+00	1.112046e+04	
94	4.700000e+00	1.128410e+04	
95	4.750000e+00	1.144658e+04	
96	4.800000e+00	1.160791e+04	
97	4.850000e+00	1.176811e+04	
98	4.900000e+00	1.192718e+04	
99	4.950000e+00	1.208513e+04	
100	5.000000e+00	1.224198e+04	
101	5.050000e+00	1.239774e+04	
102	5.100000e+00	1.255241e+04	
103	5.150000e+00	1.270601e+04	
104	5.200000e+00	1.285854e+04	
105	5.250000e+00	1.301002e+04	
106	5.300000e+00	1.316046e+04	
107	5.350000e+00	1.330986e+04	
108	5.400000e+00	1.345825e+04	
109	5.450000e+00	1.360561e+04	
110	5.500000e+00	1.375197e+04	
111	5.550000e+00	1.389734e+04	
112	5.600000e+00	1.404172e+04	

Index   v-sweep         rds             
--------------------------------------------------------------------------------
113	5.650000e+00	1.418512e+04	
114	5.700000e+00	1.432756e+04	
115	5.750000e+00	1.446904e+04	
116	5.800000e+00	1.460956e+04	
117	5.850000e+00	1.474915e+04	
118	5.900000e+00	1.488781e+04	
119	5.950000e+00	1.502554e+04	
120	6.000000e+00	1.516236e+04	
121	6.050000e+00	1.529827e+04	
122	6.100000e+00	1.543329e+04	
123	6.150000e+00	1.556742e+04	
124	6.200000e+00	1.570066e+04	
125	6.250000e+00	1.583304e+04	
126	6.300000e+00	1.596455e+04	
127	6.350000e+00	1.609520e+04	
128	6.400000e+00	1.622500e+04	
129	6.450000e+00	1.635396e+04	
130	6.500000e+00	1.648209e+04	
131	6.550000e+00	1.660939e+04	
132	6.600000e+00	1.673588e+04	
Reset re-loads circuit ***************************

Circuit: ***************************

Note: No ".plot", ".print", or ".fourier" lines; no simulations run
