
Note: Compatibility modes selected: hs

Warning: m=xx on .subckt line will override multiplier m hierarchy!


Circuit: ***************************

Doing analysis at TEMP = 125.000000 and TNOM = 125.000000


No. of Data Rows : 133
                          ***************************
                          DC transfer characteristic  Mon Jan  9 13:57:43  2023
--------------------------------------------------------------------------------
Index   v-sweep         rds             
--------------------------------------------------------------------------------
0	0.000000e+00	1.938817e+04	
1	5.000000e-02	2.349909e+04	
2	1.000000e-01	2.959011e+04	
3	1.500000e-01	3.942652e+04	
4	2.000000e-01	5.721767e+04	
5	2.500000e-01	9.273855e+04	
6	3.000000e-01	1.569653e+05	
7	3.500000e-01	2.337814e+05	
8	4.000000e-01	2.979629e+05	
9	4.500000e-01	3.485592e+05	
10	5.000000e-01	3.910626e+05	
11	5.500000e-01	4.287416e+05	
12	6.000000e-01	4.631612e+05	
13	6.500000e-01	4.951061e+05	
14	7.000000e-01	5.250160e+05	
15	7.500000e-01	5.531682e+05	
16	8.000000e-01	5.797571e+05	
17	8.500000e-01	6.049304e+05	
18	9.000000e-01	6.288078e+05	
19	9.500000e-01	6.514898e+05	
20	1.000000e+00	6.730638e+05	
21	1.050000e+00	6.936069e+05	
22	1.100000e+00	7.131882e+05	
23	1.150000e+00	7.318701e+05	
24	1.200000e+00	7.497096e+05	
25	1.250000e+00	7.667586e+05	
26	1.300000e+00	7.830649e+05	
27	1.350000e+00	7.986724e+05	
28	1.400000e+00	8.136217e+05	
29	1.450000e+00	8.279503e+05	
30	1.500000e+00	8.416932e+05	
31	1.550000e+00	8.548826e+05	
32	1.600000e+00	8.675486e+05	
33	1.650000e+00	8.797193e+05	
34	1.700000e+00	8.914206e+05	
35	1.750000e+00	9.026769e+05	
36	1.800000e+00	9.135111e+05	
37	1.850000e+00	9.239444e+05	
38	1.900000e+00	9.339967e+05	
39	1.950000e+00	9.436867e+05	
40	2.000000e+00	9.530320e+05	
41	2.050000e+00	9.620489e+05	
42	2.100000e+00	9.707531e+05	
43	2.150000e+00	9.791589e+05	
44	2.200000e+00	9.872802e+05	
45	2.250000e+00	9.951297e+05	
46	2.300000e+00	1.002720e+06	
47	2.350000e+00	1.010062e+06	
48	2.400000e+00	1.017166e+06	
49	2.450000e+00	1.024044e+06	
50	2.500000e+00	1.030704e+06	
51	2.550000e+00	1.037157e+06	
52	2.600000e+00	1.043409e+06	
53	2.650000e+00	1.049471e+06	
54	2.700000e+00	1.055348e+06	

Index   v-sweep         rds             
--------------------------------------------------------------------------------
55	2.750000e+00	1.061050e+06	
56	2.800000e+00	1.066583e+06	
57	2.850000e+00	1.071953e+06	
58	2.900000e+00	1.077167e+06	
59	2.950000e+00	1.082231e+06	
60	3.000000e+00	1.087150e+06	
61	3.050000e+00	1.091931e+06	
62	3.100000e+00	1.096578e+06	
63	3.150000e+00	1.101096e+06	
64	3.200000e+00	1.105489e+06	
65	3.250000e+00	1.109764e+06	
66	3.300000e+00	1.113923e+06	
67	3.350000e+00	1.117970e+06	
68	3.400000e+00	1.121910e+06	
69	3.450000e+00	1.125747e+06	
70	3.500000e+00	1.129484e+06	
71	3.550000e+00	1.133124e+06	
72	3.600000e+00	1.136670e+06	
73	3.650000e+00	1.140127e+06	
74	3.700000e+00	1.143496e+06	
75	3.750000e+00	1.146781e+06	
76	3.800000e+00	1.149984e+06	
77	3.850000e+00	1.153108e+06	
78	3.900000e+00	1.156156e+06	
79	3.950000e+00	1.159130e+06	
80	4.000000e+00	1.162032e+06	
81	4.050000e+00	1.164864e+06	
82	4.100000e+00	1.167630e+06	
83	4.150000e+00	1.170330e+06	
84	4.200000e+00	1.172967e+06	
85	4.250000e+00	1.175542e+06	
86	4.300000e+00	1.178058e+06	
87	4.350000e+00	1.180517e+06	
88	4.400000e+00	1.182919e+06	
89	4.450000e+00	1.185267e+06	
90	4.500000e+00	1.187562e+06	
91	4.550000e+00	1.189806e+06	
92	4.600000e+00	1.191999e+06	
93	4.650000e+00	1.194145e+06	
94	4.700000e+00	1.196243e+06	
95	4.750000e+00	1.198296e+06	
96	4.800000e+00	1.200304e+06	
97	4.850000e+00	1.202269e+06	
98	4.900000e+00	1.204192e+06	
99	4.950000e+00	1.206074e+06	
100	5.000000e+00	1.207916e+06	
101	5.050000e+00	1.209719e+06	
102	5.100000e+00	1.211484e+06	
103	5.150000e+00	1.213213e+06	
104	5.200000e+00	1.214906e+06	
105	5.250000e+00	1.216564e+06	
106	5.300000e+00	1.218188e+06	
107	5.350000e+00	1.219779e+06	
108	5.400000e+00	1.221338e+06	
109	5.450000e+00	1.222865e+06	
110	5.500000e+00	1.224362e+06	
111	5.550000e+00	1.225828e+06	
112	5.600000e+00	1.227266e+06	

Index   v-sweep         rds             
--------------------------------------------------------------------------------
113	5.650000e+00	1.228675e+06	
114	5.700000e+00	1.230056e+06	
115	5.750000e+00	1.231411e+06	
116	5.800000e+00	1.232739e+06	
117	5.850000e+00	1.234041e+06	
118	5.900000e+00	1.235318e+06	
119	5.950000e+00	1.236570e+06	
120	6.000000e+00	1.237799e+06	
121	6.050000e+00	1.239004e+06	
122	6.100000e+00	1.240186e+06	
123	6.150000e+00	1.241345e+06	
124	6.200000e+00	1.242483e+06	
125	6.250000e+00	1.243600e+06	
126	6.300000e+00	1.244696e+06	
127	6.350000e+00	1.245771e+06	
128	6.400000e+00	1.246826e+06	
129	6.450000e+00	1.247862e+06	
130	6.500000e+00	1.248879e+06	
131	6.550000e+00	1.249877e+06	
132	6.600000e+00	1.250857e+06	
Reset re-loads circuit ***************************

Circuit: ***************************

Doing analysis at TEMP = 125.000000 and TNOM = 125.000000


No. of Data Rows : 133
                          ***************************
                          DC transfer characteristic  Mon Jan  9 13:57:43  2023
--------------------------------------------------------------------------------
Index   v-sweep         rds             
--------------------------------------------------------------------------------
0	0.000000e+00	6.404658e+03	
1	5.000000e-02	6.862164e+03	
2	1.000000e-01	7.375366e+03	
3	1.500000e-01	7.954992e+03	
4	2.000000e-01	8.614698e+03	
5	2.500000e-01	9.372132e+03	
6	3.000000e-01	1.025048e+04	
7	3.500000e-01	1.128076e+04	
8	4.000000e-01	1.250535e+04	
9	4.500000e-01	1.398340e+04	
10	5.000000e-01	1.579936e+04	
11	5.500000e-01	1.807625e+04	
12	6.000000e-01	2.099482e+04	
13	6.500000e-01	2.481459e+04	
14	7.000000e-01	2.986960e+04	
15	7.500000e-01	3.646069e+04	
16	8.000000e-01	4.458982e+04	
17	8.500000e-01	5.380704e+04	
18	9.000000e-01	6.351075e+04	
19	9.500000e-01	7.330057e+04	
20	1.000000e+00	8.299912e+04	
21	1.050000e+00	9.254322e+04	
22	1.100000e+00	1.019132e+05	
23	1.150000e+00	1.111045e+05	
24	1.200000e+00	1.201178e+05	
25	1.250000e+00	1.289556e+05	
26	1.300000e+00	1.376212e+05	
27	1.350000e+00	1.461184e+05	
28	1.400000e+00	1.544507e+05	
29	1.450000e+00	1.626221e+05	
30	1.500000e+00	1.706363e+05	
31	1.550000e+00	1.784970e+05	
32	1.600000e+00	1.862079e+05	
33	1.650000e+00	1.937727e+05	
34	1.700000e+00	2.011949e+05	
35	1.750000e+00	2.084780e+05	
36	1.800000e+00	2.156254e+05	
37	1.850000e+00	2.226404e+05	
38	1.900000e+00	2.295262e+05	
39	1.950000e+00	2.362861e+05	
40	2.000000e+00	2.429231e+05	
41	2.050000e+00	2.494401e+05	
42	2.100000e+00	2.558401e+05	
43	2.150000e+00	2.621259e+05	
44	2.200000e+00	2.683003e+05	
45	2.250000e+00	2.743659e+05	
46	2.300000e+00	2.803254e+05	
47	2.350000e+00	2.861813e+05	
48	2.400000e+00	2.919359e+05	
49	2.450000e+00	2.975918e+05	
50	2.500000e+00	3.031512e+05	
51	2.550000e+00	3.086164e+05	
52	2.600000e+00	3.139896e+05	
53	2.650000e+00	3.192729e+05	
54	2.700000e+00	3.244684e+05	

Index   v-sweep         rds             
--------------------------------------------------------------------------------
55	2.750000e+00	3.295780e+05	
56	2.800000e+00	3.346038e+05	
57	2.850000e+00	3.395476e+05	
58	2.900000e+00	3.444113e+05	
59	2.950000e+00	3.491967e+05	
60	3.000000e+00	3.539055e+05	
61	3.050000e+00	3.585394e+05	
62	3.100000e+00	3.631001e+05	
63	3.150000e+00	3.675891e+05	
64	3.200000e+00	3.720081e+05	
65	3.250000e+00	3.763586e+05	
66	3.300000e+00	3.806420e+05	
67	3.350000e+00	3.848597e+05	
68	3.400000e+00	3.890132e+05	
69	3.450000e+00	3.931039e+05	
70	3.500000e+00	3.971329e+05	
71	3.550000e+00	4.011018e+05	
72	3.600000e+00	4.050116e+05	
73	3.650000e+00	4.088636e+05	
74	3.700000e+00	4.126590e+05	
75	3.750000e+00	4.163990e+05	
76	3.800000e+00	4.200848e+05	
77	3.850000e+00	4.237173e+05	
78	3.900000e+00	4.272976e+05	
79	3.950000e+00	4.308269e+05	
80	4.000000e+00	4.343061e+05	
81	4.050000e+00	4.377362e+05	
82	4.100000e+00	4.411183e+05	
83	4.150000e+00	4.444531e+05	
84	4.200000e+00	4.477417e+05	
85	4.250000e+00	4.509850e+05	
86	4.300000e+00	4.541838e+05	
87	4.350000e+00	4.573389e+05	
88	4.400000e+00	4.604513e+05	
89	4.450000e+00	4.635217e+05	
90	4.500000e+00	4.665509e+05	
91	4.550000e+00	4.695397e+05	
92	4.600000e+00	4.724888e+05	
93	4.650000e+00	4.753990e+05	
94	4.700000e+00	4.782710e+05	
95	4.750000e+00	4.811055e+05	
96	4.800000e+00	4.839032e+05	
97	4.850000e+00	4.866648e+05	
98	4.900000e+00	4.893908e+05	
99	4.950000e+00	4.920820e+05	
100	5.000000e+00	4.947390e+05	
101	5.050000e+00	4.973623e+05	
102	5.100000e+00	4.999527e+05	
103	5.150000e+00	5.025106e+05	
104	5.200000e+00	5.050366e+05	
105	5.250000e+00	5.075313e+05	
106	5.300000e+00	5.099952e+05	
107	5.350000e+00	5.124289e+05	
108	5.400000e+00	5.148329e+05	
109	5.450000e+00	5.172077e+05	
110	5.500000e+00	5.195538e+05	
111	5.550000e+00	5.218716e+05	
112	5.600000e+00	5.241617e+05	

Index   v-sweep         rds             
--------------------------------------------------------------------------------
113	5.650000e+00	5.264245e+05	
114	5.700000e+00	5.286605e+05	
115	5.750000e+00	5.308701e+05	
116	5.800000e+00	5.330537e+05	
117	5.850000e+00	5.352118e+05	
118	5.900000e+00	5.373449e+05	
119	5.950000e+00	5.394532e+05	
120	6.000000e+00	5.415372e+05	
121	6.050000e+00	5.435974e+05	
122	6.100000e+00	5.456340e+05	
123	6.150000e+00	5.476475e+05	
124	6.200000e+00	5.496382e+05	
125	6.250000e+00	5.516066e+05	
126	6.300000e+00	5.535528e+05	
127	6.350000e+00	5.554774e+05	
128	6.400000e+00	5.573806e+05	
129	6.450000e+00	5.592627e+05	
130	6.500000e+00	5.611241e+05	
131	6.550000e+00	5.629652e+05	
132	6.600000e+00	5.647861e+05	
Reset re-loads circuit ***************************

Circuit: ***************************

Doing analysis at TEMP = 125.000000 and TNOM = 125.000000


No. of Data Rows : 133
                          ***************************
                          DC transfer characteristic  Mon Jan  9 13:57:43  2023
--------------------------------------------------------------------------------
Index   v-sweep         rds             
--------------------------------------------------------------------------------
0	0.000000e+00	4.259064e+03	
1	5.000000e-02	4.464251e+03	
2	1.000000e-01	4.684257e+03	
3	1.500000e-01	4.920722e+03	
4	2.000000e-01	5.175534e+03	
5	2.500000e-01	5.450885e+03	
6	3.000000e-01	5.749332e+03	
7	3.500000e-01	6.073872e+03	
8	4.000000e-01	6.428045e+03	
9	4.500000e-01	6.816062e+03	
10	5.000000e-01	7.242963e+03	
11	5.500000e-01	7.714836e+03	
12	6.000000e-01	8.239099e+03	
13	6.500000e-01	8.824879e+03	
14	7.000000e-01	9.483525e+03	
15	7.500000e-01	1.022932e+04	
16	8.000000e-01	1.108047e+04	
17	8.500000e-01	1.206049e+04	
18	9.000000e-01	1.320016e+04	
19	9.500000e-01	1.454032e+04	
20	1.000000e+00	1.613556e+04	
21	1.050000e+00	1.805835e+04	
22	1.100000e+00	2.040106e+04	
23	1.150000e+00	2.326750e+04	
24	1.200000e+00	2.674121e+04	
25	1.250000e+00	3.083404e+04	
26	1.300000e+00	3.546090e+04	
27	1.350000e+00	4.047732e+04	
28	1.400000e+00	4.574044e+04	
29	1.450000e+00	5.114155e+04	
30	1.500000e+00	5.660810e+04	
31	1.550000e+00	6.209433e+04	
32	1.600000e+00	6.757175e+04	
33	1.650000e+00	7.302258e+04	
34	1.700000e+00	7.843556e+04	
35	1.750000e+00	8.380351e+04	
36	1.800000e+00	8.912182e+04	
37	1.850000e+00	9.438754e+04	
38	1.900000e+00	9.959881e+04	
39	1.950000e+00	1.047545e+05	
40	2.000000e+00	1.098541e+05	
41	2.050000e+00	1.148974e+05	
42	2.100000e+00	1.198843e+05	
43	2.150000e+00	1.248151e+05	
44	2.200000e+00	1.296902e+05	
45	2.250000e+00	1.345100e+05	
46	2.300000e+00	1.392749e+05	
47	2.350000e+00	1.439857e+05	
48	2.400000e+00	1.486430e+05	
49	2.450000e+00	1.532473e+05	
50	2.500000e+00	1.577993e+05	
51	2.550000e+00	1.622998e+05	
52	2.600000e+00	1.667493e+05	
53	2.650000e+00	1.711487e+05	
54	2.700000e+00	1.754986e+05	

Index   v-sweep         rds             
--------------------------------------------------------------------------------
55	2.750000e+00	1.797997e+05	
56	2.800000e+00	1.840527e+05	
57	2.850000e+00	1.882582e+05	
58	2.900000e+00	1.924170e+05	
59	2.950000e+00	1.965298e+05	
60	3.000000e+00	2.005971e+05	
61	3.050000e+00	2.046197e+05	
62	3.100000e+00	2.085983e+05	
63	3.150000e+00	2.125334e+05	
64	3.200000e+00	2.164257e+05	
65	3.250000e+00	2.202758e+05	
66	3.300000e+00	2.240844e+05	
67	3.350000e+00	2.278520e+05	
68	3.400000e+00	2.315793e+05	
69	3.450000e+00	2.352668e+05	
70	3.500000e+00	2.389151e+05	
71	3.550000e+00	2.425248e+05	
72	3.600000e+00	2.460964e+05	
73	3.650000e+00	2.496306e+05	
74	3.700000e+00	2.531277e+05	
75	3.750000e+00	2.565885e+05	
76	3.800000e+00	2.600133e+05	
77	3.850000e+00	2.634028e+05	
78	3.900000e+00	2.667574e+05	
79	3.950000e+00	2.700776e+05	
80	4.000000e+00	2.733639e+05	
81	4.050000e+00	2.766168e+05	
82	4.100000e+00	2.798367e+05	
83	4.150000e+00	2.830242e+05	
84	4.200000e+00	2.861797e+05	
85	4.250000e+00	2.893035e+05	
86	4.300000e+00	2.923963e+05	
87	4.350000e+00	2.954584e+05	
88	4.400000e+00	2.984901e+05	
89	4.450000e+00	3.014921e+05	
90	4.500000e+00	3.044646e+05	
91	4.550000e+00	3.074081e+05	
92	4.600000e+00	3.103229e+05	
93	4.650000e+00	3.132095e+05	
94	4.700000e+00	3.160682e+05	
95	4.750000e+00	3.188995e+05	
96	4.800000e+00	3.217036e+05	
97	4.850000e+00	3.244810e+05	
98	4.900000e+00	3.272320e+05	
99	4.950000e+00	3.299570e+05	
100	5.000000e+00	3.326563e+05	
101	5.050000e+00	3.353303e+05	
102	5.100000e+00	3.379792e+05	
103	5.150000e+00	3.406035e+05	
104	5.200000e+00	3.432034e+05	
105	5.250000e+00	3.457793e+05	
106	5.300000e+00	3.483314e+05	
107	5.350000e+00	3.508602e+05	
108	5.400000e+00	3.533658e+05	
109	5.450000e+00	3.558487e+05	
110	5.500000e+00	3.583090e+05	
111	5.550000e+00	3.607471e+05	
112	5.600000e+00	3.631632e+05	

Index   v-sweep         rds             
--------------------------------------------------------------------------------
113	5.650000e+00	3.655577e+05	
114	5.700000e+00	3.679308e+05	
115	5.750000e+00	3.702828e+05	
116	5.800000e+00	3.726139e+05	
117	5.850000e+00	3.749245e+05	
118	5.900000e+00	3.772147e+05	
119	5.950000e+00	3.794848e+05	
120	6.000000e+00	3.817351e+05	
121	6.050000e+00	3.839659e+05	
122	6.100000e+00	3.861773e+05	
123	6.150000e+00	3.883695e+05	
124	6.200000e+00	3.905430e+05	
125	6.250000e+00	3.926978e+05	
126	6.300000e+00	3.948341e+05	
127	6.350000e+00	3.969523e+05	
128	6.400000e+00	3.990526e+05	
129	6.450000e+00	4.011350e+05	
130	6.500000e+00	4.032000e+05	
131	6.550000e+00	4.052476e+05	
132	6.600000e+00	4.072781e+05	
Reset re-loads circuit ***************************

Circuit: ***************************

Doing analysis at TEMP = 125.000000 and TNOM = 125.000000


No. of Data Rows : 133
                          ***************************
                          DC transfer characteristic  Mon Jan  9 13:57:43  2023
--------------------------------------------------------------------------------
Index   v-sweep         rds             
--------------------------------------------------------------------------------
0	0.000000e+00	3.416836e+03	
1	5.000000e-02	3.545239e+03	
2	1.000000e-01	3.680319e+03	
3	1.500000e-01	3.822596e+03	
4	2.000000e-01	3.972649e+03	
5	2.500000e-01	4.131119e+03	
6	3.000000e-01	4.298720e+03	
7	3.500000e-01	4.476251e+03	
8	4.000000e-01	4.664609e+03	
9	4.500000e-01	4.864801e+03	
10	5.000000e-01	5.077963e+03	
11	5.500000e-01	5.305383e+03	
12	6.000000e-01	5.548524e+03	
13	6.500000e-01	5.809057e+03	
14	7.000000e-01	6.088894e+03	
15	7.500000e-01	6.390241e+03	
16	8.000000e-01	6.715647e+03	
17	8.500000e-01	7.068083e+03	
18	9.000000e-01	7.451028e+03	
19	9.500000e-01	7.868586e+03	
20	1.000000e+00	8.325635e+03	
21	1.050000e+00	8.828027e+03	
22	1.100000e+00	9.382850e+03	
23	1.150000e+00	9.998799e+03	
24	1.200000e+00	1.068668e+04	
25	1.250000e+00	1.146019e+04	
26	1.300000e+00	1.233698e+04	
27	1.350000e+00	1.334041e+04	
28	1.400000e+00	1.450193e+04	
29	1.450000e+00	1.586418e+04	
30	1.500000e+00	1.748292e+04	
31	1.550000e+00	1.942298e+04	
32	1.600000e+00	2.174143e+04	
33	1.650000e+00	2.446044e+04	
34	1.700000e+00	2.755077e+04	
35	1.750000e+00	3.094336e+04	
36	1.800000e+00	3.455714e+04	
37	1.850000e+00	3.832043e+04	
38	1.900000e+00	4.217853e+04	
39	1.950000e+00	4.609267e+04	
40	2.000000e+00	5.003629e+04	
41	2.050000e+00	5.399135e+04	
42	2.100000e+00	5.794553e+04	
43	2.150000e+00	6.189037e+04	
44	2.200000e+00	6.581996e+04	
45	2.250000e+00	6.973016e+04	
46	2.300000e+00	7.361800e+04	
47	2.350000e+00	7.748140e+04	
48	2.400000e+00	8.131883e+04	
49	2.450000e+00	8.512923e+04	
50	2.500000e+00	8.891182e+04	
51	2.550000e+00	9.266610e+04	
52	2.600000e+00	9.639169e+04	
53	2.650000e+00	1.000884e+05	
54	2.700000e+00	1.037561e+05	

Index   v-sweep         rds             
--------------------------------------------------------------------------------
55	2.750000e+00	1.073948e+05	
56	2.800000e+00	1.110044e+05	
57	2.850000e+00	1.145852e+05	
58	2.900000e+00	1.181371e+05	
59	2.950000e+00	1.216604e+05	
60	3.000000e+00	1.251552e+05	
61	3.050000e+00	1.286217e+05	
62	3.100000e+00	1.320602e+05	
63	3.150000e+00	1.354707e+05	
64	3.200000e+00	1.388537e+05	
65	3.250000e+00	1.422093e+05	
66	3.300000e+00	1.455377e+05	
67	3.350000e+00	1.488392e+05	
68	3.400000e+00	1.521141e+05	
69	3.450000e+00	1.553626e+05	
70	3.500000e+00	1.585849e+05	
71	3.550000e+00	1.617814e+05	
72	3.600000e+00	1.649523e+05	
73	3.650000e+00	1.680978e+05	
74	3.700000e+00	1.712182e+05	
75	3.750000e+00	1.743138e+05	
76	3.800000e+00	1.773848e+05	
77	3.850000e+00	1.804315e+05	
78	3.900000e+00	1.834540e+05	
79	3.950000e+00	1.864528e+05	
80	4.000000e+00	1.894279e+05	
81	4.050000e+00	1.923798e+05	
82	4.100000e+00	1.953085e+05	
83	4.150000e+00	1.982144e+05	
84	4.200000e+00	2.010976e+05	
85	4.250000e+00	2.039585e+05	
86	4.300000e+00	2.067973e+05	
87	4.350000e+00	2.096141e+05	
88	4.400000e+00	2.124093e+05	
89	4.450000e+00	2.151831e+05	
90	4.500000e+00	2.179356e+05	
91	4.550000e+00	2.206671e+05	
92	4.600000e+00	2.233778e+05	
93	4.650000e+00	2.260680e+05	
94	4.700000e+00	2.287378e+05	
95	4.750000e+00	2.313875e+05	
96	4.800000e+00	2.340173e+05	
97	4.850000e+00	2.366273e+05	
98	4.900000e+00	2.392179e+05	
99	4.950000e+00	2.417891e+05	
100	5.000000e+00	2.443413e+05	
101	5.050000e+00	2.468745e+05	
102	5.100000e+00	2.493890e+05	
103	5.150000e+00	2.518850e+05	
104	5.200000e+00	2.543626e+05	
105	5.250000e+00	2.568221e+05	
106	5.300000e+00	2.592637e+05	
107	5.350000e+00	2.616874e+05	
108	5.400000e+00	2.640936e+05	
109	5.450000e+00	2.664824e+05	
110	5.500000e+00	2.688539e+05	
111	5.550000e+00	2.712084e+05	
112	5.600000e+00	2.735460e+05	

Index   v-sweep         rds             
--------------------------------------------------------------------------------
113	5.650000e+00	2.758669e+05	
114	5.700000e+00	2.781712e+05	
115	5.750000e+00	2.804592e+05	
116	5.800000e+00	2.827309e+05	
117	5.850000e+00	2.849866e+05	
118	5.900000e+00	2.872263e+05	
119	5.950000e+00	2.894504e+05	
120	6.000000e+00	2.916588e+05	
121	6.050000e+00	2.938519e+05	
122	6.100000e+00	2.960296e+05	
123	6.150000e+00	2.981922e+05	
124	6.200000e+00	3.003399e+05	
125	6.250000e+00	3.024727e+05	
126	6.300000e+00	3.045909e+05	
127	6.350000e+00	3.066945e+05	
128	6.400000e+00	3.087837e+05	
129	6.450000e+00	3.108587e+05	
130	6.500000e+00	3.129195e+05	
131	6.550000e+00	3.149664e+05	
132	6.600000e+00	3.169994e+05	
Reset re-loads circuit ***************************

Circuit: ***************************

Doing analysis at TEMP = 125.000000 and TNOM = 125.000000


No. of Data Rows : 133
                          ***************************
                          DC transfer characteristic  Mon Jan  9 13:57:43  2023
--------------------------------------------------------------------------------
Index   v-sweep         rds             
--------------------------------------------------------------------------------
0	0.000000e+00	3.002313e+03	
1	5.000000e-02	3.095419e+03	
2	1.000000e-01	3.192319e+03	
3	1.500000e-01	3.293241e+03	
4	2.000000e-01	3.398432e+03	
5	2.500000e-01	3.508162e+03	
6	3.000000e-01	3.622722e+03	
7	3.500000e-01	3.742432e+03	
8	4.000000e-01	3.867639e+03	
9	4.500000e-01	3.998723e+03	
10	5.000000e-01	4.136101e+03	
11	5.500000e-01	4.280231e+03	
12	6.000000e-01	4.431615e+03	
13	6.500000e-01	4.590809e+03	
14	7.000000e-01	4.758423e+03	
15	7.500000e-01	4.935137e+03	
16	8.000000e-01	5.121702e+03	
17	8.500000e-01	5.318956e+03	
18	9.000000e-01	5.527832e+03	
19	9.500000e-01	5.749376e+03	
20	1.000000e+00	5.984761e+03	
21	1.050000e+00	6.235311e+03	
22	1.100000e+00	6.502523e+03	
23	1.150000e+00	6.788099e+03	
24	1.200000e+00	7.093984e+03	
25	1.250000e+00	7.422412e+03	
26	1.300000e+00	7.775964e+03	
27	1.350000e+00	8.157649e+03	
28	1.400000e+00	8.571001e+03	
29	1.450000e+00	9.020217e+03	
30	1.500000e+00	9.510350e+03	
31	1.550000e+00	1.004758e+04	
32	1.600000e+00	1.063964e+04	
33	1.650000e+00	1.129642e+04	
34	1.700000e+00	1.203096e+04	
35	1.750000e+00	1.286093e+04	
36	1.800000e+00	1.381057e+04	
37	1.850000e+00	1.491280e+04	
38	1.900000e+00	1.620937e+04	
39	1.950000e+00	1.774591e+04	
40	2.000000e+00	1.955906e+04	
41	2.050000e+00	2.166070e+04	
42	2.100000e+00	2.403103e+04	
43	2.150000e+00	2.662653e+04	
44	2.200000e+00	2.939531e+04	
45	2.250000e+00	3.228940e+04	
46	2.300000e+00	3.527006e+04	
47	2.350000e+00	3.830820e+04	
48	2.400000e+00	4.138282e+04	
49	2.450000e+00	4.447894e+04	
50	2.500000e+00	4.758590e+04	
51	2.550000e+00	5.069607e+04	
52	2.600000e+00	5.380398e+04	
53	2.650000e+00	5.690560e+04	
54	2.700000e+00	5.999799e+04	

Index   v-sweep         rds             
--------------------------------------------------------------------------------
55	2.750000e+00	6.307896e+04	
56	2.800000e+00	6.614686e+04	
57	2.850000e+00	6.920046e+04	
58	2.900000e+00	7.223881e+04	
59	2.950000e+00	7.526122e+04	
60	3.000000e+00	7.826714e+04	
61	3.050000e+00	8.125616e+04	
62	3.100000e+00	8.422799e+04	
63	3.150000e+00	8.718241e+04	
64	3.200000e+00	9.011926e+04	
65	3.250000e+00	9.303844e+04	
66	3.300000e+00	9.593988e+04	
67	3.350000e+00	9.882356e+04	
68	3.400000e+00	1.016895e+05	
69	3.450000e+00	1.045376e+05	
70	3.500000e+00	1.073681e+05	
71	3.550000e+00	1.101809e+05	
72	3.600000e+00	1.129762e+05	
73	3.650000e+00	1.157539e+05	
74	3.700000e+00	1.185142e+05	
75	3.750000e+00	1.212572e+05	
76	3.800000e+00	1.239829e+05	
77	3.850000e+00	1.266915e+05	
78	3.900000e+00	1.293831e+05	
79	3.950000e+00	1.320579e+05	
80	4.000000e+00	1.347158e+05	
81	4.050000e+00	1.373570e+05	
82	4.100000e+00	1.399817e+05	
83	4.150000e+00	1.425900e+05	
84	4.200000e+00	1.451819e+05	
85	4.250000e+00	1.477577e+05	
86	4.300000e+00	1.503174e+05	
87	4.350000e+00	1.528611e+05	
88	4.400000e+00	1.553890e+05	
89	4.450000e+00	1.579013e+05	
90	4.500000e+00	1.603979e+05	
91	4.550000e+00	1.628791e+05	
92	4.600000e+00	1.653450e+05	
93	4.650000e+00	1.677956e+05	
94	4.700000e+00	1.702312e+05	
95	4.750000e+00	1.726518e+05	
96	4.800000e+00	1.750576e+05	
97	4.850000e+00	1.774487e+05	
98	4.900000e+00	1.798251e+05	
99	4.950000e+00	1.821871e+05	
100	5.000000e+00	1.845347e+05	
101	5.050000e+00	1.868680e+05	
102	5.100000e+00	1.891873e+05	
103	5.150000e+00	1.914925e+05	
104	5.200000e+00	1.937838e+05	
105	5.250000e+00	1.960613e+05	
106	5.300000e+00	1.983251e+05	
107	5.350000e+00	2.005754e+05	
108	5.400000e+00	2.028123e+05	
109	5.450000e+00	2.050357e+05	
110	5.500000e+00	2.072460e+05	
111	5.550000e+00	2.094431e+05	
112	5.600000e+00	2.116273e+05	

Index   v-sweep         rds             
--------------------------------------------------------------------------------
113	5.650000e+00	2.137985e+05	
114	5.700000e+00	2.159569e+05	
115	5.750000e+00	2.181026e+05	
116	5.800000e+00	2.202357e+05	
117	5.850000e+00	2.223563e+05	
118	5.900000e+00	2.244645e+05	
119	5.950000e+00	2.265604e+05	
120	6.000000e+00	2.286442e+05	
121	6.050000e+00	2.307158e+05	
122	6.100000e+00	2.327755e+05	
123	6.150000e+00	2.348232e+05	
124	6.200000e+00	2.368592e+05	
125	6.250000e+00	2.388834e+05	
126	6.300000e+00	2.408960e+05	
127	6.350000e+00	2.428972e+05	
128	6.400000e+00	2.448868e+05	
129	6.450000e+00	2.468652e+05	
130	6.500000e+00	2.488323e+05	
131	6.550000e+00	2.507883e+05	
132	6.600000e+00	2.527332e+05	
Reset re-loads circuit ***************************

Circuit: ***************************

Doing analysis at TEMP = 125.000000 and TNOM = 125.000000


No. of Data Rows : 133
                          ***************************
                          DC transfer characteristic  Mon Jan  9 13:57:43  2023
--------------------------------------------------------------------------------
Index   v-sweep         rds             
--------------------------------------------------------------------------------
0	0.000000e+00	2.781587e+03	
1	5.000000e-02	2.854829e+03	
2	1.000000e-01	2.930520e+03	
3	1.500000e-01	3.008781e+03	
4	2.000000e-01	3.089738e+03	
5	2.500000e-01	3.173530e+03	
6	3.000000e-01	3.260302e+03	
7	3.500000e-01	3.350212e+03	
8	4.000000e-01	3.443429e+03	
9	4.500000e-01	3.540133e+03	
10	5.000000e-01	3.640521e+03	
11	5.500000e-01	3.744802e+03	
12	6.000000e-01	3.853204e+03	
13	6.500000e-01	3.965971e+03	
14	7.000000e-01	4.083368e+03	
15	7.500000e-01	4.205683e+03	
16	8.000000e-01	4.333226e+03	
17	8.500000e-01	4.466337e+03	
18	9.000000e-01	4.605381e+03	
19	9.500000e-01	4.750761e+03	
20	1.000000e+00	4.902913e+03	
21	1.050000e+00	5.062314e+03	
22	1.100000e+00	5.229488e+03	
23	1.150000e+00	5.405010e+03	
24	1.200000e+00	5.589511e+03	
25	1.250000e+00	5.783689e+03	
26	1.300000e+00	5.988315e+03	
27	1.350000e+00	6.204245e+03	
28	1.400000e+00	6.432431e+03	
29	1.450000e+00	6.673936e+03	
30	1.500000e+00	6.929953e+03	
31	1.550000e+00	7.201825e+03	
32	1.600000e+00	7.491075e+03	
33	1.650000e+00	7.799437e+03	
34	1.700000e+00	8.128899e+03	
35	1.750000e+00	8.481769e+03	
36	1.800000e+00	8.860745e+03	
37	1.850000e+00	9.269034e+03	
38	1.900000e+00	9.710509e+03	
39	1.950000e+00	1.018995e+04	
40	2.000000e+00	1.071341e+04	
41	2.050000e+00	1.128878e+04	
42	2.100000e+00	1.192661e+04	
43	2.150000e+00	1.264130e+04	
44	2.200000e+00	1.345251e+04	
45	2.250000e+00	1.438620e+04	
46	2.300000e+00	1.547391e+04	
47	2.350000e+00	1.674815e+04	
48	2.400000e+00	1.823358e+04	
49	2.450000e+00	1.993761e+04	
50	2.500000e+00	2.184695e+04	
51	2.550000e+00	2.393252e+04	
52	2.600000e+00	2.615869e+04	
53	2.650000e+00	2.849110e+04	
54	2.700000e+00	3.090071e+04	

Index   v-sweep         rds             
--------------------------------------------------------------------------------
55	2.750000e+00	3.336478e+04	
56	2.800000e+00	3.586620e+04	
57	2.850000e+00	3.839236e+04	
58	2.900000e+00	4.093402e+04	
59	2.950000e+00	4.348440e+04	
60	3.000000e+00	4.603851e+04	
61	3.050000e+00	4.859263e+04	
62	3.100000e+00	5.114396e+04	
63	3.150000e+00	5.369041e+04	
64	3.200000e+00	5.623034e+04	
65	3.250000e+00	5.876253e+04	
66	3.300000e+00	6.128601e+04	
67	3.350000e+00	6.380002e+04	
68	3.400000e+00	6.630398e+04	
69	3.450000e+00	6.879743e+04	
70	3.500000e+00	7.128000e+04	
71	3.550000e+00	7.375141e+04	
72	3.600000e+00	7.621143e+04	
73	3.650000e+00	7.865990e+04	
74	3.700000e+00	8.109669e+04	
75	3.750000e+00	8.352169e+04	
76	3.800000e+00	8.593484e+04	
77	3.850000e+00	8.833608e+04	
78	3.900000e+00	9.072539e+04	
79	3.950000e+00	9.310274e+04	
80	4.000000e+00	9.546815e+04	
81	4.050000e+00	9.782161e+04	
82	4.100000e+00	1.001632e+05	
83	4.150000e+00	1.024928e+05	
84	4.200000e+00	1.048106e+05	
85	4.250000e+00	1.071165e+05	
86	4.300000e+00	1.094107e+05	
87	4.350000e+00	1.116931e+05	
88	4.400000e+00	1.139638e+05	
89	4.450000e+00	1.162229e+05	
90	4.500000e+00	1.184705e+05	
91	4.550000e+00	1.207065e+05	
92	4.600000e+00	1.229310e+05	
93	4.650000e+00	1.251441e+05	
94	4.700000e+00	1.273459e+05	
95	4.750000e+00	1.295365e+05	
96	4.800000e+00	1.317158e+05	
97	4.850000e+00	1.338840e+05	
98	4.900000e+00	1.360411e+05	
99	4.950000e+00	1.381872e+05	
100	5.000000e+00	1.403224e+05	
101	5.050000e+00	1.424467e+05	
102	5.100000e+00	1.445602e+05	
103	5.150000e+00	1.466629e+05	
104	5.200000e+00	1.487550e+05	
105	5.250000e+00	1.508365e+05	
106	5.300000e+00	1.529074e+05	
107	5.350000e+00	1.549679e+05	
108	5.400000e+00	1.570180e+05	
109	5.450000e+00	1.590578e+05	
110	5.500000e+00	1.610873e+05	
111	5.550000e+00	1.631066e+05	
112	5.600000e+00	1.651158e+05	

Index   v-sweep         rds             
--------------------------------------------------------------------------------
113	5.650000e+00	1.671149e+05	
114	5.700000e+00	1.691040e+05	
115	5.750000e+00	1.710832e+05	
116	5.800000e+00	1.730526e+05	
117	5.850000e+00	1.750121e+05	
118	5.900000e+00	1.769619e+05	
119	5.950000e+00	1.789021e+05	
120	6.000000e+00	1.808326e+05	
121	6.050000e+00	1.827536e+05	
122	6.100000e+00	1.846652e+05	
123	6.150000e+00	1.865673e+05	
124	6.200000e+00	1.884601e+05	
125	6.250000e+00	1.903436e+05	
126	6.300000e+00	1.922179e+05	
127	6.350000e+00	1.940830e+05	
128	6.400000e+00	1.959391e+05	
129	6.450000e+00	1.977861e+05	
130	6.500000e+00	1.996241e+05	
131	6.550000e+00	2.014532e+05	
132	6.600000e+00	2.032734e+05	
Reset re-loads circuit ***************************

Circuit: ***************************

Note: No ".plot", ".print", or ".fourier" lines; no simulations run
