
Note: Compatibility modes selected: hs

Warning: m=xx on .subckt line will override multiplier m hierarchy!


Circuit: ***************************

Doing analysis at TEMP = -40.000000 and TNOM = -40.000000


No. of Data Rows : 133
                          ***************************
                          DC transfer characteristic  Mon Jan  9 13:57:42  2023
--------------------------------------------------------------------------------
Index   v-sweep         rds             
--------------------------------------------------------------------------------
0	0.000000e+00	3.930733e+04	
1	5.000000e-02	5.064384e+04	
2	1.000000e-01	6.983614e+04	
3	1.500000e-01	1.071883e+05	
4	2.000000e-01	1.873708e+05	
5	2.500000e-01	3.273806e+05	
6	3.000000e-01	4.853361e+05	
7	3.500000e-01	6.288859e+05	
8	4.000000e-01	7.566705e+05	
9	4.500000e-01	8.721319e+05	
10	5.000000e-01	9.776934e+05	
11	5.500000e-01	1.074912e+06	
12	6.000000e-01	1.164878e+06	
13	6.500000e-01	1.248420e+06	
14	7.000000e-01	1.326209e+06	
15	7.500000e-01	1.398808e+06	
16	8.000000e-01	1.466701e+06	
17	8.500000e-01	1.530309e+06	
18	9.000000e-01	1.590003e+06	
19	9.500000e-01	1.646111e+06	
20	1.000000e+00	1.698929e+06	
21	1.050000e+00	1.748717e+06	
22	1.100000e+00	1.795713e+06	
23	1.150000e+00	1.840129e+06	
24	1.200000e+00	1.882157e+06	
25	1.250000e+00	1.921972e+06	
26	1.300000e+00	1.959731e+06	
27	1.350000e+00	1.995579e+06	
28	1.400000e+00	2.029647e+06	
29	1.450000e+00	2.062054e+06	
30	1.500000e+00	2.092910e+06	
31	1.550000e+00	2.122316e+06	
32	1.600000e+00	2.150364e+06	
33	1.650000e+00	2.177139e+06	
34	1.700000e+00	2.202719e+06	
35	1.750000e+00	2.227177e+06	
36	1.800000e+00	2.250578e+06	
37	1.850000e+00	2.272985e+06	
38	1.900000e+00	2.294454e+06	
39	1.950000e+00	2.315039e+06	
40	2.000000e+00	2.334789e+06	
41	2.050000e+00	2.353749e+06	
42	2.100000e+00	2.371962e+06	
43	2.150000e+00	2.389468e+06	
44	2.200000e+00	2.406303e+06	
45	2.250000e+00	2.422502e+06	
46	2.300000e+00	2.438098e+06	
47	2.350000e+00	2.453120e+06	
48	2.400000e+00	2.467597e+06	
49	2.450000e+00	2.481555e+06	
50	2.500000e+00	2.495020e+06	
51	2.550000e+00	2.508014e+06	
52	2.600000e+00	2.520559e+06	
53	2.650000e+00	2.532677e+06	
54	2.700000e+00	2.544387e+06	

Index   v-sweep         rds             
--------------------------------------------------------------------------------
55	2.750000e+00	2.555707e+06	
56	2.800000e+00	2.566654e+06	
57	2.850000e+00	2.577245e+06	
58	2.900000e+00	2.587494e+06	
59	2.950000e+00	2.597418e+06	
60	3.000000e+00	2.607029e+06	
61	3.050000e+00	2.616341e+06	
62	3.100000e+00	2.625365e+06	
63	3.150000e+00	2.634114e+06	
64	3.200000e+00	2.642599e+06	
65	3.250000e+00	2.650830e+06	
66	3.300000e+00	2.658817e+06	
67	3.350000e+00	2.666570e+06	
68	3.400000e+00	2.674098e+06	
69	3.450000e+00	2.681409e+06	
70	3.500000e+00	2.688512e+06	
71	3.550000e+00	2.695414e+06	
72	3.600000e+00	2.702124e+06	
73	3.650000e+00	2.708647e+06	
74	3.700000e+00	2.714990e+06	
75	3.750000e+00	2.721161e+06	
76	3.800000e+00	2.727165e+06	
77	3.850000e+00	2.733008e+06	
78	3.900000e+00	2.738696e+06	
79	3.950000e+00	2.744234e+06	
80	4.000000e+00	2.749627e+06	
81	4.050000e+00	2.754880e+06	
82	4.100000e+00	2.759999e+06	
83	4.150000e+00	2.764986e+06	
84	4.200000e+00	2.769848e+06	
85	4.250000e+00	2.774587e+06	
86	4.300000e+00	2.779208e+06	
87	4.350000e+00	2.783714e+06	
88	4.400000e+00	2.788110e+06	
89	4.450000e+00	2.792398e+06	
90	4.500000e+00	2.796583e+06	
91	4.550000e+00	2.800666e+06	
92	4.600000e+00	2.804653e+06	
93	4.650000e+00	2.808544e+06	
94	4.700000e+00	2.812344e+06	
95	4.750000e+00	2.816056e+06	
96	4.800000e+00	2.819680e+06	
97	4.850000e+00	2.823222e+06	
98	4.900000e+00	2.826681e+06	
99	4.950000e+00	2.830062e+06	
100	5.000000e+00	2.833367e+06	
101	5.050000e+00	2.836597e+06	
102	5.100000e+00	2.839755e+06	
103	5.150000e+00	2.842842e+06	
104	5.200000e+00	2.845862e+06	
105	5.250000e+00	2.848815e+06	
106	5.300000e+00	2.851704e+06	
107	5.350000e+00	2.854530e+06	
108	5.400000e+00	2.857295e+06	
109	5.450000e+00	2.860000e+06	
110	5.500000e+00	2.862649e+06	
111	5.550000e+00	2.865240e+06	
112	5.600000e+00	2.867778e+06	

Index   v-sweep         rds             
--------------------------------------------------------------------------------
113	5.650000e+00	2.870262e+06	
114	5.700000e+00	2.872694e+06	
115	5.750000e+00	2.875076e+06	
116	5.800000e+00	2.877409e+06	
117	5.850000e+00	2.879694e+06	
118	5.900000e+00	2.881932e+06	
119	5.950000e+00	2.884125e+06	
120	6.000000e+00	2.886274e+06	
121	6.050000e+00	2.888379e+06	
122	6.100000e+00	2.890443e+06	
123	6.150000e+00	2.892465e+06	
124	6.200000e+00	2.894448e+06	
125	6.250000e+00	2.896391e+06	
126	6.300000e+00	2.898297e+06	
127	6.350000e+00	2.900165e+06	
128	6.400000e+00	2.901998e+06	
129	6.450000e+00	2.903795e+06	
130	6.500000e+00	2.905557e+06	
131	6.550000e+00	2.907286e+06	
132	6.600000e+00	2.908982e+06	
Reset re-loads circuit ***************************

Circuit: ***************************

Doing analysis at TEMP = -40.000000 and TNOM = -40.000000


No. of Data Rows : 133
                          ***************************
                          DC transfer characteristic  Mon Jan  9 13:57:42  2023
--------------------------------------------------------------------------------
Index   v-sweep         rds             
--------------------------------------------------------------------------------
0	0.000000e+00	1.192652e+04	
1	5.000000e-02	1.293374e+04	
2	1.000000e-01	1.407672e+04	
3	1.500000e-01	1.538461e+04	
4	2.000000e-01	1.689567e+04	
5	2.500000e-01	1.866114e+04	
6	3.000000e-01	2.075115e+04	
7	3.500000e-01	2.326426e+04	
8	4.000000e-01	2.634387e+04	
9	4.500000e-01	3.020807e+04	
10	5.000000e-01	3.520703e+04	
11	5.500000e-01	4.193287e+04	
12	6.000000e-01	5.138450e+04	
13	6.500000e-01	6.497324e+04	
14	7.000000e-01	8.381412e+04	
15	7.500000e-01	1.076619e+05	
16	8.000000e-01	1.351111e+05	
17	8.500000e-01	1.646610e+05	
18	9.000000e-01	1.952396e+05	
19	9.500000e-01	2.261870e+05	
20	1.000000e+00	2.571146e+05	
21	1.050000e+00	2.877940e+05	
22	1.100000e+00	3.180898e+05	
23	1.150000e+00	3.479218e+05	
24	1.200000e+00	3.772430e+05	
25	1.250000e+00	4.060272e+05	
26	1.300000e+00	4.342612e+05	
27	1.350000e+00	4.619407e+05	
28	1.400000e+00	4.890668e+05	
29	1.450000e+00	5.156446e+05	
30	1.500000e+00	5.416817e+05	
31	1.550000e+00	5.671874e+05	
32	1.600000e+00	5.921722e+05	
33	1.650000e+00	6.166472e+05	
34	1.700000e+00	6.406241e+05	
35	1.750000e+00	6.641147e+05	
36	1.800000e+00	6.871309e+05	
37	1.850000e+00	7.096845e+05	
38	1.900000e+00	7.317874e+05	
39	1.950000e+00	7.534511e+05	
40	2.000000e+00	7.746871e+05	
41	2.050000e+00	7.955065e+05	
42	2.100000e+00	8.159202e+05	
43	2.150000e+00	8.359388e+05	
44	2.200000e+00	8.555727e+05	
45	2.250000e+00	8.748320e+05	
46	2.300000e+00	8.937264e+05	
47	2.350000e+00	9.122655e+05	
48	2.400000e+00	9.304585e+05	
49	2.450000e+00	9.483143e+05	
50	2.500000e+00	9.658417e+05	
51	2.550000e+00	9.830490e+05	
52	2.600000e+00	9.999445e+05	
53	2.650000e+00	1.016536e+06	
54	2.700000e+00	1.032831e+06	

Index   v-sweep         rds             
--------------------------------------------------------------------------------
55	2.750000e+00	1.048838e+06	
56	2.800000e+00	1.064563e+06	
57	2.850000e+00	1.080013e+06	
58	2.900000e+00	1.095196e+06	
59	2.950000e+00	1.110117e+06	
60	3.000000e+00	1.124784e+06	
61	3.050000e+00	1.139201e+06	
62	3.100000e+00	1.153377e+06	
63	3.150000e+00	1.167315e+06	
64	3.200000e+00	1.181022e+06	
65	3.250000e+00	1.194504e+06	
66	3.300000e+00	1.207765e+06	
67	3.350000e+00	1.220810e+06	
68	3.400000e+00	1.233646e+06	
69	3.450000e+00	1.246276e+06	
70	3.500000e+00	1.258705e+06	
71	3.550000e+00	1.270938e+06	
72	3.600000e+00	1.282980e+06	
73	3.650000e+00	1.294834e+06	
74	3.700000e+00	1.306505e+06	
75	3.750000e+00	1.317997e+06	
76	3.800000e+00	1.329314e+06	
77	3.850000e+00	1.340459e+06	
78	3.900000e+00	1.351437e+06	
79	3.950000e+00	1.362251e+06	
80	4.000000e+00	1.372904e+06	
81	4.050000e+00	1.383400e+06	
82	4.100000e+00	1.393743e+06	
83	4.150000e+00	1.403936e+06	
84	4.200000e+00	1.413981e+06	
85	4.250000e+00	1.423882e+06	
86	4.300000e+00	1.433642e+06	
87	4.350000e+00	1.443263e+06	
88	4.400000e+00	1.452749e+06	
89	4.450000e+00	1.462103e+06	
90	4.500000e+00	1.471326e+06	
91	4.550000e+00	1.480423e+06	
92	4.600000e+00	1.489394e+06	
93	4.650000e+00	1.498243e+06	
94	4.700000e+00	1.506972e+06	
95	4.750000e+00	1.515584e+06	
96	4.800000e+00	1.524080e+06	
97	4.850000e+00	1.532464e+06	
98	4.900000e+00	1.540736e+06	
99	4.950000e+00	1.548900e+06	
100	5.000000e+00	1.556957e+06	
101	5.050000e+00	1.564910e+06	
102	5.100000e+00	1.572760e+06	
103	5.150000e+00	1.580510e+06	
104	5.200000e+00	1.588161e+06	
105	5.250000e+00	1.595714e+06	
106	5.300000e+00	1.603173e+06	
107	5.350000e+00	1.610538e+06	
108	5.400000e+00	1.617812e+06	
109	5.450000e+00	1.624995e+06	
110	5.500000e+00	1.632090e+06	
111	5.550000e+00	1.639099e+06	
112	5.600000e+00	1.646022e+06	

Index   v-sweep         rds             
--------------------------------------------------------------------------------
113	5.650000e+00	1.652861e+06	
114	5.700000e+00	1.659618e+06	
115	5.750000e+00	1.666294e+06	
116	5.800000e+00	1.672891e+06	
117	5.850000e+00	1.679410e+06	
118	5.900000e+00	1.685852e+06	
119	5.950000e+00	1.692219e+06	
120	6.000000e+00	1.698512e+06	
121	6.050000e+00	1.704732e+06	
122	6.100000e+00	1.710880e+06	
123	6.150000e+00	1.716959e+06	
124	6.200000e+00	1.722968e+06	
125	6.250000e+00	1.728909e+06	
126	6.300000e+00	1.734783e+06	
127	6.350000e+00	1.740592e+06	
128	6.400000e+00	1.746336e+06	
129	6.450000e+00	1.752016e+06	
130	6.500000e+00	1.757634e+06	
131	6.550000e+00	1.763190e+06	
132	6.600000e+00	1.768685e+06	
Reset re-loads circuit ***************************

Circuit: ***************************

Doing analysis at TEMP = -40.000000 and TNOM = -40.000000


No. of Data Rows : 133
                          ***************************
                          DC transfer characteristic  Mon Jan  9 13:57:42  2023
--------------------------------------------------------------------------------
Index   v-sweep         rds             
--------------------------------------------------------------------------------
0	0.000000e+00	7.795023e+03	
1	5.000000e-02	8.251930e+03	
2	1.000000e-01	8.744872e+03	
3	1.500000e-01	9.278185e+03	
4	2.000000e-01	9.856991e+03	
5	2.500000e-01	1.048740e+04	
6	3.000000e-01	1.117677e+04	
7	3.500000e-01	1.193398e+04	
8	4.000000e-01	1.276982e+04	
9	4.500000e-01	1.369752e+04	
10	5.000000e-01	1.473346e+04	
11	5.500000e-01	1.589824e+04	
12	6.000000e-01	1.721841e+04	
13	6.500000e-01	1.872934e+04	
14	7.000000e-01	2.048034e+04	
15	7.500000e-01	2.254437e+04	
16	8.000000e-01	2.503722e+04	
17	8.500000e-01	2.815450e+04	
18	9.000000e-01	3.223404e+04	
19	9.500000e-01	3.781972e+04	
20	1.000000e+00	4.561114e+04	
21	1.050000e+00	5.616657e+04	
22	1.100000e+00	6.955284e+04	
23	1.150000e+00	8.534823e+04	
24	1.200000e+00	1.029386e+05	
25	1.250000e+00	1.217598e+05	
26	1.300000e+00	1.413799e+05	
27	1.350000e+00	1.614925e+05	
28	1.400000e+00	1.818855e+05	
29	1.450000e+00	2.024128e+05	
30	1.500000e+00	2.229726e+05	
31	1.550000e+00	2.434935e+05	
32	1.600000e+00	2.639247e+05	
33	1.650000e+00	2.842297e+05	
34	1.700000e+00	3.043822e+05	
35	1.750000e+00	3.243630e+05	
36	1.800000e+00	3.441584e+05	
37	1.850000e+00	3.637584e+05	
38	1.900000e+00	3.831560e+05	
39	1.950000e+00	4.023463e+05	
40	2.000000e+00	4.213263e+05	
41	2.050000e+00	4.400940e+05	
42	2.100000e+00	4.586487e+05	
43	2.150000e+00	4.769903e+05	
44	2.200000e+00	4.951194e+05	
45	2.250000e+00	5.130371e+05	
46	2.300000e+00	5.307448e+05	
47	2.350000e+00	5.482442e+05	
48	2.400000e+00	5.655375e+05	
49	2.450000e+00	5.826266e+05	
50	2.500000e+00	5.995141e+05	
51	2.550000e+00	6.162022e+05	
52	2.600000e+00	6.326936e+05	
53	2.650000e+00	6.489909e+05	
54	2.700000e+00	6.650966e+05	

Index   v-sweep         rds             
--------------------------------------------------------------------------------
55	2.750000e+00	6.810134e+05	
56	2.800000e+00	6.967441e+05	
57	2.850000e+00	7.122913e+05	
58	2.900000e+00	7.276576e+05	
59	2.950000e+00	7.428459e+05	
60	3.000000e+00	7.578586e+05	
61	3.050000e+00	7.726986e+05	
62	3.100000e+00	7.873683e+05	
63	3.150000e+00	8.018705e+05	
64	3.200000e+00	8.162076e+05	
65	3.250000e+00	8.303822e+05	
66	3.300000e+00	8.443968e+05	
67	3.350000e+00	8.582539e+05	
68	3.400000e+00	8.719559e+05	
69	3.450000e+00	8.855051e+05	
70	3.500000e+00	8.989040e+05	
71	3.550000e+00	9.121549e+05	
72	3.600000e+00	9.252600e+05	
73	3.650000e+00	9.382216e+05	
74	3.700000e+00	9.510420e+05	
75	3.750000e+00	9.637232e+05	
76	3.800000e+00	9.762674e+05	
77	3.850000e+00	9.886768e+05	
78	3.900000e+00	1.000953e+06	
79	3.950000e+00	1.013099e+06	
80	4.000000e+00	1.025116e+06	
81	4.050000e+00	1.037006e+06	
82	4.100000e+00	1.048771e+06	
83	4.150000e+00	1.060413e+06	
84	4.200000e+00	1.071934e+06	
85	4.250000e+00	1.083336e+06	
86	4.300000e+00	1.094619e+06	
87	4.350000e+00	1.105787e+06	
88	4.400000e+00	1.116841e+06	
89	4.450000e+00	1.127783e+06	
90	4.500000e+00	1.138613e+06	
91	4.550000e+00	1.149335e+06	
92	4.600000e+00	1.159949e+06	
93	4.650000e+00	1.170457e+06	
94	4.700000e+00	1.180860e+06	
95	4.750000e+00	1.191161e+06	
96	4.800000e+00	1.201360e+06	
97	4.850000e+00	1.211459e+06	
98	4.900000e+00	1.221460e+06	
99	4.950000e+00	1.231363e+06	
100	5.000000e+00	1.241171e+06	
101	5.050000e+00	1.250884e+06	
102	5.100000e+00	1.260504e+06	
103	5.150000e+00	1.270032e+06	
104	5.200000e+00	1.279470e+06	
105	5.250000e+00	1.288819e+06	
106	5.300000e+00	1.298080e+06	
107	5.350000e+00	1.307254e+06	
108	5.400000e+00	1.316342e+06	
109	5.450000e+00	1.325346e+06	
110	5.500000e+00	1.334267e+06	
111	5.550000e+00	1.343106e+06	
112	5.600000e+00	1.351863e+06	

Index   v-sweep         rds             
--------------------------------------------------------------------------------
113	5.650000e+00	1.360541e+06	
114	5.700000e+00	1.369140e+06	
115	5.750000e+00	1.377662e+06	
116	5.800000e+00	1.386106e+06	
117	5.850000e+00	1.394475e+06	
118	5.900000e+00	1.402770e+06	
119	5.950000e+00	1.410990e+06	
120	6.000000e+00	1.419138e+06	
121	6.050000e+00	1.427214e+06	
122	6.100000e+00	1.435219e+06	
123	6.150000e+00	1.443155e+06	
124	6.200000e+00	1.451021e+06	
125	6.250000e+00	1.458820e+06	
126	6.300000e+00	1.466551e+06	
127	6.350000e+00	1.474216e+06	
128	6.400000e+00	1.481815e+06	
129	6.450000e+00	1.489350e+06	
130	6.500000e+00	1.496820e+06	
131	6.550000e+00	1.504228e+06	
132	6.600000e+00	1.511574e+06	
Reset re-loads circuit ***************************

Circuit: ***************************

Doing analysis at TEMP = -40.000000 and TNOM = -40.000000


No. of Data Rows : 133
                          ***************************
                          DC transfer characteristic  Mon Jan  9 13:57:42  2023
--------------------------------------------------------------------------------
Index   v-sweep         rds             
--------------------------------------------------------------------------------
0	0.000000e+00	6.139422e+03	
1	5.000000e-02	6.428613e+03	
2	1.000000e-01	6.734303e+03	
3	1.500000e-01	7.057882e+03	
4	2.000000e-01	7.400932e+03	
5	2.500000e-01	7.765268e+03	
6	3.000000e-01	8.152987e+03	
7	3.500000e-01	8.566521e+03	
8	4.000000e-01	9.008694e+03	
9	4.500000e-01	9.482779e+03	
10	5.000000e-01	9.992572e+03	
11	5.500000e-01	1.054248e+04	
12	6.000000e-01	1.113762e+04	
13	6.500000e-01	1.178399e+04	
14	7.000000e-01	1.248868e+04	
15	7.500000e-01	1.326015e+04	
16	8.000000e-01	1.410875e+04	
17	8.500000e-01	1.504747e+04	
18	9.000000e-01	1.609326e+04	
19	9.500000e-01	1.726927e+04	
20	1.000000e+00	1.860903e+04	
21	1.050000e+00	2.016420e+04	
22	1.100000e+00	2.201883e+04	
23	1.150000e+00	2.431397e+04	
24	1.200000e+00	2.728252e+04	
25	1.250000e+00	3.127532e+04	
26	1.300000e+00	3.672435e+04	
27	1.350000e+00	4.399743e+04	
28	1.400000e+00	5.322391e+04	
29	1.450000e+00	6.425496e+04	
30	1.500000e+00	7.677519e+04	
31	1.550000e+00	9.043707e+04	
32	1.600000e+00	1.049365e+05	
33	1.650000e+00	1.200340e+05	
34	1.700000e+00	1.355497e+05	
35	1.750000e+00	1.513506e+05	
36	1.800000e+00	1.673389e+05	
37	1.850000e+00	1.834421e+05	
38	1.900000e+00	1.996062e+05	
39	1.950000e+00	2.157904e+05	
40	2.000000e+00	2.319634e+05	
41	2.050000e+00	2.481015e+05	
42	2.100000e+00	2.641861e+05	
43	2.150000e+00	2.802028e+05	
44	2.200000e+00	2.961402e+05	
45	2.250000e+00	3.119895e+05	
46	2.300000e+00	3.277436e+05	
47	2.350000e+00	3.433969e+05	
48	2.400000e+00	3.589451e+05	
49	2.450000e+00	3.743848e+05	
50	2.500000e+00	3.897135e+05	
51	2.550000e+00	4.049290e+05	
52	2.600000e+00	4.200299e+05	
53	2.650000e+00	4.350151e+05	
54	2.700000e+00	4.498840e+05	

Index   v-sweep         rds             
--------------------------------------------------------------------------------
55	2.750000e+00	4.646361e+05	
56	2.800000e+00	4.792712e+05	
57	2.850000e+00	4.937894e+05	
58	2.900000e+00	5.081908e+05	
59	2.950000e+00	5.224759e+05	
60	3.000000e+00	5.366450e+05	
61	3.050000e+00	5.506987e+05	
62	3.100000e+00	5.646377e+05	
63	3.150000e+00	5.784627e+05	
64	3.200000e+00	5.921745e+05	
65	3.250000e+00	6.057740e+05	
66	3.300000e+00	6.192619e+05	
67	3.350000e+00	6.326393e+05	
68	3.400000e+00	6.459071e+05	
69	3.450000e+00	6.590662e+05	
70	3.500000e+00	6.721176e+05	
71	3.550000e+00	6.850624e+05	
72	3.600000e+00	6.979015e+05	
73	3.650000e+00	7.106360e+05	
74	3.700000e+00	7.232670e+05	
75	3.750000e+00	7.357953e+05	
76	3.800000e+00	7.482222e+05	
77	3.850000e+00	7.605486e+05	
78	3.900000e+00	7.727755e+05	
79	3.950000e+00	7.849040e+05	
80	4.000000e+00	7.969352e+05	
81	4.050000e+00	8.088700e+05	
82	4.100000e+00	8.207095e+05	
83	4.150000e+00	8.324547e+05	
84	4.200000e+00	8.441066e+05	
85	4.250000e+00	8.556662e+05	
86	4.300000e+00	8.671346e+05	
87	4.350000e+00	8.785126e+05	
88	4.400000e+00	8.898012e+05	
89	4.450000e+00	9.010015e+05	
90	4.500000e+00	9.121144e+05	
91	4.550000e+00	9.231408e+05	
92	4.600000e+00	9.340817e+05	
93	4.650000e+00	9.449380e+05	
94	4.700000e+00	9.557106e+05	
95	4.750000e+00	9.664005e+05	
96	4.800000e+00	9.770084e+05	
97	4.850000e+00	9.875354e+05	
98	4.900000e+00	9.979823e+05	
99	4.950000e+00	1.008350e+06	
100	5.000000e+00	1.018639e+06	
101	5.050000e+00	1.028851e+06	
102	5.100000e+00	1.038986e+06	
103	5.150000e+00	1.049045e+06	
104	5.200000e+00	1.059030e+06	
105	5.250000e+00	1.068940e+06	
106	5.300000e+00	1.078776e+06	
107	5.350000e+00	1.088540e+06	
108	5.400000e+00	1.098232e+06	
109	5.450000e+00	1.107853e+06	
110	5.500000e+00	1.117403e+06	
111	5.550000e+00	1.126884e+06	
112	5.600000e+00	1.136296e+06	

Index   v-sweep         rds             
--------------------------------------------------------------------------------
113	5.650000e+00	1.145640e+06	
114	5.700000e+00	1.154917e+06	
115	5.750000e+00	1.164127e+06	
116	5.800000e+00	1.173271e+06	
117	5.850000e+00	1.182349e+06	
118	5.900000e+00	1.191363e+06	
119	5.950000e+00	1.200313e+06	
120	6.000000e+00	1.209200e+06	
121	6.050000e+00	1.218024e+06	
122	6.100000e+00	1.226786e+06	
123	6.150000e+00	1.235487e+06	
124	6.200000e+00	1.244127e+06	
125	6.250000e+00	1.252707e+06	
126	6.300000e+00	1.261228e+06	
127	6.350000e+00	1.269690e+06	
128	6.400000e+00	1.278094e+06	
129	6.450000e+00	1.286440e+06	
130	6.500000e+00	1.294729e+06	
131	6.550000e+00	1.302961e+06	
132	6.600000e+00	1.311138e+06	
Reset re-loads circuit ***************************

Circuit: ***************************

Doing analysis at TEMP = -40.000000 and TNOM = -40.000000


No. of Data Rows : 133
                          ***************************
                          DC transfer characteristic  Mon Jan  9 13:57:42  2023
--------------------------------------------------------------------------------
Index   v-sweep         rds             
--------------------------------------------------------------------------------
0	0.000000e+00	5.290401e+03	
1	5.000000e-02	5.501142e+03	
2	1.000000e-01	5.721371e+03	
3	1.500000e-01	5.951706e+03	
4	2.000000e-01	6.192829e+03	
5	2.500000e-01	6.445507e+03	
6	3.000000e-01	6.710609e+03	
7	3.500000e-01	6.989125e+03	
8	4.000000e-01	7.282178e+03	
9	4.500000e-01	7.591051e+03	
10	5.000000e-01	7.917195e+03	
11	5.500000e-01	8.262253e+03	
12	6.000000e-01	8.628078e+03	
13	6.500000e-01	9.016758e+03	
14	7.000000e-01	9.430640e+03	
15	7.500000e-01	9.872367e+03	
16	8.000000e-01	1.034493e+04	
17	8.500000e-01	1.085171e+04	
18	9.000000e-01	1.139661e+04	
19	9.500000e-01	1.198413e+04	
20	1.000000e+00	1.261959e+04	
21	1.050000e+00	1.330942e+04	
22	1.100000e+00	1.406164e+04	
23	1.150000e+00	1.488662e+04	
24	1.200000e+00	1.579842e+04	
25	1.250000e+00	1.681711e+04	
26	1.300000e+00	1.797288e+04	
27	1.350000e+00	1.931321e+04	
28	1.400000e+00	2.091490e+04	
29	1.450000e+00	2.290210e+04	
30	1.500000e+00	2.546629e+04	
31	1.550000e+00	2.887137e+04	
32	1.600000e+00	3.341408e+04	
33	1.650000e+00	3.933023e+04	
34	1.700000e+00	4.670193e+04	
35	1.750000e+00	5.544133e+04	
36	1.800000e+00	6.535148e+04	
37	1.850000e+00	7.620264e+04	
38	1.900000e+00	8.778169e+04	
39	1.950000e+00	9.991132e+04	
40	2.000000e+00	1.124518e+05	
41	2.050000e+00	1.252954e+05	
42	2.100000e+00	1.383602e+05	
43	2.150000e+00	1.515834e+05	
44	2.200000e+00	1.649168e+05	
45	2.250000e+00	1.783231e+05	
46	2.300000e+00	1.917732e+05	
47	2.350000e+00	2.052442e+05	
48	2.400000e+00	2.187180e+05	
49	2.450000e+00	2.321800e+05	
50	2.500000e+00	2.456185e+05	
51	2.550000e+00	2.590239e+05	
52	2.600000e+00	2.723886e+05	
53	2.650000e+00	2.857063e+05	
54	2.700000e+00	2.989716e+05	

Index   v-sweep         rds             
--------------------------------------------------------------------------------
55	2.750000e+00	3.121803e+05	
56	2.800000e+00	3.253289e+05	
57	2.850000e+00	3.384144e+05	
58	2.900000e+00	3.514345e+05	
59	2.950000e+00	3.643872e+05	
60	3.000000e+00	3.772708e+05	
61	3.050000e+00	3.900841e+05	
62	3.100000e+00	4.028259e+05	
63	3.150000e+00	4.154954e+05	
64	3.200000e+00	4.280920e+05	
65	3.250000e+00	4.406152e+05	
66	3.300000e+00	4.530645e+05	
67	3.350000e+00	4.654398e+05	
68	3.400000e+00	4.777408e+05	
69	3.450000e+00	4.899676e+05	
70	3.500000e+00	5.021202e+05	
71	3.550000e+00	5.141986e+05	
72	3.600000e+00	5.262029e+05	
73	3.650000e+00	5.381334e+05	
74	3.700000e+00	5.499903e+05	
75	3.750000e+00	5.617739e+05	
76	3.800000e+00	5.734845e+05	
77	3.850000e+00	5.851224e+05	
78	3.900000e+00	5.966880e+05	
79	3.950000e+00	6.081816e+05	
80	4.000000e+00	6.196037e+05	
81	4.050000e+00	6.309547e+05	
82	4.100000e+00	6.422351e+05	
83	4.150000e+00	6.534452e+05	
84	4.200000e+00	6.645856e+05	
85	4.250000e+00	6.756567e+05	
86	4.300000e+00	6.866590e+05	
87	4.350000e+00	6.975930e+05	
88	4.400000e+00	7.084591e+05	
89	4.450000e+00	7.192579e+05	
90	4.500000e+00	7.299899e+05	
91	4.550000e+00	7.406555e+05	
92	4.600000e+00	7.512553e+05	
93	4.650000e+00	7.617898e+05	
94	4.700000e+00	7.722594e+05	
95	4.750000e+00	7.826647e+05	
96	4.800000e+00	7.930062e+05	
97	4.850000e+00	8.032844e+05	
98	4.900000e+00	8.134998e+05	
99	4.950000e+00	8.236529e+05	
100	5.000000e+00	8.337443e+05	
101	5.050000e+00	8.437743e+05	
102	5.100000e+00	8.537435e+05	
103	5.150000e+00	8.636524e+05	
104	5.200000e+00	8.735016e+05	
105	5.250000e+00	8.832914e+05	
106	5.300000e+00	8.930224e+05	
107	5.350000e+00	9.026950e+05	
108	5.400000e+00	9.123098e+05	
109	5.450000e+00	9.218672e+05	
110	5.500000e+00	9.313677e+05	
111	5.550000e+00	9.408118e+05	
112	5.600000e+00	9.501999e+05	

Index   v-sweep         rds             
--------------------------------------------------------------------------------
113	5.650000e+00	9.595325e+05	
114	5.700000e+00	9.688100e+05	
115	5.750000e+00	9.780330e+05	
116	5.800000e+00	9.872019e+05	
117	5.850000e+00	9.963171e+05	
118	5.900000e+00	1.005379e+06	
119	5.950000e+00	1.014388e+06	
120	6.000000e+00	1.023345e+06	
121	6.050000e+00	1.032250e+06	
122	6.100000e+00	1.041103e+06	
123	6.150000e+00	1.049906e+06	
124	6.200000e+00	1.058658e+06	
125	6.250000e+00	1.067359e+06	
126	6.300000e+00	1.076011e+06	
127	6.350000e+00	1.084613e+06	
128	6.400000e+00	1.093167e+06	
129	6.450000e+00	1.101672e+06	
130	6.500000e+00	1.110128e+06	
131	6.550000e+00	1.118537e+06	
132	6.600000e+00	1.126899e+06	
Reset re-loads circuit ***************************

Circuit: ***************************

Doing analysis at TEMP = -40.000000 and TNOM = -40.000000


No. of Data Rows : 133
                          ***************************
                          DC transfer characteristic  Mon Jan  9 13:57:42  2023
--------------------------------------------------------------------------------
Index   v-sweep         rds             
--------------------------------------------------------------------------------
0	0.000000e+00	4.807320e+03	
1	5.000000e-02	4.973131e+03	
2	1.000000e-01	5.145113e+03	
3	1.500000e-01	5.323588e+03	
4	2.000000e-01	5.508911e+03	
5	2.500000e-01	5.701471e+03	
6	3.000000e-01	5.901704e+03	
7	3.500000e-01	6.110096e+03	
8	4.000000e-01	6.327198e+03	
9	4.500000e-01	6.553624e+03	
10	5.000000e-01	6.790066e+03	
11	5.500000e-01	7.037299e+03	
12	6.000000e-01	7.296186e+03	
13	6.500000e-01	7.567683e+03	
14	7.000000e-01	7.852851e+03	
15	7.500000e-01	8.152860e+03	
16	8.000000e-01	8.468998e+03	
17	8.500000e-01	8.802683e+03	
18	9.000000e-01	9.155477e+03	
19	9.500000e-01	9.529101e+03	
20	1.000000e+00	9.925458e+03	
21	1.050000e+00	1.034667e+04	
22	1.100000e+00	1.079510e+04	
23	1.150000e+00	1.127344e+04	
24	1.200000e+00	1.178479e+04	
25	1.250000e+00	1.233275e+04	
26	1.300000e+00	1.292167e+04	
27	1.350000e+00	1.355691e+04	
28	1.400000e+00	1.424538e+04	
29	1.450000e+00	1.499627e+04	
30	1.500000e+00	1.582247e+04	
31	1.550000e+00	1.674283e+04	
32	1.600000e+00	1.778596e+04	
33	1.650000e+00	1.899651e+04	
34	1.700000e+00	2.044479e+04	
35	1.750000e+00	2.223913e+04	
36	1.800000e+00	2.453647e+04	
37	1.850000e+00	2.753857e+04	
38	1.900000e+00	3.145821e+04	
39	1.950000e+00	3.645721e+04	
40	2.000000e+00	4.259201e+04	
41	2.050000e+00	4.980555e+04	
42	2.100000e+00	5.796396e+04	
43	2.150000e+00	6.690449e+04	
44	2.200000e+00	7.646969e+04	
45	2.250000e+00	8.652340e+04	
46	2.300000e+00	9.695459e+04	
47	2.350000e+00	1.076753e+05	
48	2.400000e+00	1.186168e+05	
49	2.450000e+00	1.297254e+05	
50	2.500000e+00	1.409591e+05	
51	2.550000e+00	1.522850e+05	
52	2.600000e+00	1.636770e+05	
53	2.650000e+00	1.751143e+05	
54	2.700000e+00	1.865801e+05	

Index   v-sweep         rds             
--------------------------------------------------------------------------------
55	2.750000e+00	1.980609e+05	
56	2.800000e+00	2.095456e+05	
57	2.850000e+00	2.210252e+05	
58	2.900000e+00	2.324922e+05	
59	2.950000e+00	2.439403e+05	
60	3.000000e+00	2.553643e+05	
61	3.050000e+00	2.667599e+05	
62	3.100000e+00	2.781233e+05	
63	3.150000e+00	2.894516e+05	
64	3.200000e+00	3.007421e+05	
65	3.250000e+00	3.119925e+05	
66	3.300000e+00	3.232010e+05	
67	3.350000e+00	3.343660e+05	
68	3.400000e+00	3.454860e+05	
69	3.450000e+00	3.565601e+05	
70	3.500000e+00	3.675871e+05	
71	3.550000e+00	3.785662e+05	
72	3.600000e+00	3.894969e+05	
73	3.650000e+00	4.003784e+05	
74	3.700000e+00	4.112104e+05	
75	3.750000e+00	4.219924e+05	
76	3.800000e+00	4.327242e+05	
77	3.850000e+00	4.434055e+05	
78	3.900000e+00	4.540360e+05	
79	3.950000e+00	4.646158e+05	
80	4.000000e+00	4.751447e+05	
81	4.050000e+00	4.856226e+05	
82	4.100000e+00	4.960496e+05	
83	4.150000e+00	5.064256e+05	
84	4.200000e+00	5.167509e+05	
85	4.250000e+00	5.270253e+05	
86	4.300000e+00	5.372491e+05	
87	4.350000e+00	5.474223e+05	
88	4.400000e+00	5.575452e+05	
89	4.450000e+00	5.676178e+05	
90	4.500000e+00	5.776404e+05	
91	4.550000e+00	5.876131e+05	
92	4.600000e+00	5.975361e+05	
93	4.650000e+00	6.074097e+05	
94	4.700000e+00	6.172340e+05	
95	4.750000e+00	6.270093e+05	
96	4.800000e+00	6.367359e+05	
97	4.850000e+00	6.464139e+05	
98	4.900000e+00	6.560437e+05	
99	4.950000e+00	6.656254e+05	
100	5.000000e+00	6.751594e+05	
101	5.050000e+00	6.846458e+05	
102	5.100000e+00	6.940850e+05	
103	5.150000e+00	7.034772e+05	
104	5.200000e+00	7.128228e+05	
105	5.250000e+00	7.221219e+05	
106	5.300000e+00	7.313748e+05	
107	5.350000e+00	7.405819e+05	
108	5.400000e+00	7.497434e+05	
109	5.450000e+00	7.588595e+05	
110	5.500000e+00	7.679306e+05	
111	5.550000e+00	7.769570e+05	
112	5.600000e+00	7.859389e+05	

Index   v-sweep         rds             
--------------------------------------------------------------------------------
113	5.650000e+00	7.948765e+05	
114	5.700000e+00	8.037703e+05	
115	5.750000e+00	8.126204e+05	
116	5.800000e+00	8.214272e+05	
117	5.850000e+00	8.301909e+05	
118	5.900000e+00	8.389117e+05	
119	5.950000e+00	8.475901e+05	
120	6.000000e+00	8.562262e+05	
121	6.050000e+00	8.648204e+05	
122	6.100000e+00	8.733729e+05	
123	6.150000e+00	8.818839e+05	
124	6.200000e+00	8.903538e+05	
125	6.250000e+00	8.987829e+05	
126	6.300000e+00	9.071713e+05	
127	6.350000e+00	9.155194e+05	
128	6.400000e+00	9.238275e+05	
129	6.450000e+00	9.320957e+05	
130	6.500000e+00	9.403245e+05	
131	6.550000e+00	9.485139e+05	
132	6.600000e+00	9.566644e+05	
Reset re-loads circuit ***************************

Circuit: ***************************

Note: No ".plot", ".print", or ".fourier" lines; no simulations run
