
Note: Compatibility modes selected: hs

Warning: m=xx on .subckt line will override multiplier m hierarchy!


Circuit: ***************************

Doing analysis at TEMP = -40.000000 and TNOM = -40.000000


No. of Data Rows : 133
                          ***************************
                          DC transfer characteristic  Mon Jan  9 13:57:42  2023
--------------------------------------------------------------------------------
Index   v-sweep         rds             
--------------------------------------------------------------------------------
0	0.000000e+00	1.389765e+05	
1	5.000000e-02	1.868128e+05	
2	1.000000e-01	2.811918e+05	
3	1.500000e-01	5.226662e+05	
4	2.000000e-01	1.345413e+06	
5	2.500000e-01	4.031475e+06	
6	3.000000e-01	9.822461e+06	
7	3.500000e-01	1.798857e+07	
8	4.000000e-01	2.662851e+07	
9	4.500000e-01	3.440840e+07	
10	5.000000e-01	4.089361e+07	
11	5.500000e-01	4.614355e+07	
12	6.000000e-01	5.037321e+07	
13	6.500000e-01	5.380375e+07	
14	7.000000e-01	5.661820e+07	
15	7.500000e-01	5.895713e+07	
16	8.000000e-01	6.092589e+07	
17	8.500000e-01	6.260304e+07	
18	9.000000e-01	6.404750e+07	
19	9.500000e-01	6.530391e+07	
20	1.000000e+00	6.640648e+07	
21	1.050000e+00	6.738174e+07	
22	1.100000e+00	6.825056e+07	
23	1.150000e+00	6.902951e+07	
24	1.200000e+00	6.973192e+07	
25	1.250000e+00	7.036859e+07	
26	1.300000e+00	7.094842e+07	
27	1.350000e+00	7.147874e+07	
28	1.400000e+00	7.196567e+07	
29	1.450000e+00	7.241438e+07	
30	1.500000e+00	7.282922e+07	
31	1.550000e+00	7.321392e+07	
32	1.600000e+00	7.357167e+07	
33	1.650000e+00	7.390522e+07	
34	1.700000e+00	7.421695e+07	
35	1.750000e+00	7.450896e+07	
36	1.800000e+00	7.478307e+07	
37	1.850000e+00	7.504087e+07	
38	1.900000e+00	7.528379e+07	
39	1.950000e+00	7.551309e+07	
40	2.000000e+00	7.572987e+07	
41	2.050000e+00	7.593514e+07	
42	2.100000e+00	7.612979e+07	
43	2.150000e+00	7.631463e+07	
44	2.200000e+00	7.649038e+07	
45	2.250000e+00	7.665769e+07	
46	2.300000e+00	7.681716e+07	
47	2.350000e+00	7.696932e+07	
48	2.400000e+00	7.711467e+07	
49	2.450000e+00	7.725364e+07	
50	2.500000e+00	7.738665e+07	
51	2.550000e+00	7.751408e+07	
52	2.600000e+00	7.763626e+07	
53	2.650000e+00	7.775351e+07	
54	2.700000e+00	7.786612e+07	

Index   v-sweep         rds             
--------------------------------------------------------------------------------
55	2.750000e+00	7.797436e+07	
56	2.800000e+00	7.807848e+07	
57	2.850000e+00	7.817870e+07	
58	2.900000e+00	7.827525e+07	
59	2.950000e+00	7.836831e+07	
60	3.000000e+00	7.845807e+07	
61	3.050000e+00	7.854470e+07	
62	3.100000e+00	7.862837e+07	
63	3.150000e+00	7.870921e+07	
64	3.200000e+00	7.878737e+07	
65	3.250000e+00	7.886298e+07	
66	3.300000e+00	7.893616e+07	
67	3.350000e+00	7.900702e+07	
68	3.400000e+00	7.907567e+07	
69	3.450000e+00	7.914222e+07	
70	3.500000e+00	7.920674e+07	
71	3.550000e+00	7.926935e+07	
72	3.600000e+00	7.933011e+07	
73	3.650000e+00	7.938910e+07	
74	3.700000e+00	7.944641e+07	
75	3.750000e+00	7.950210e+07	
76	3.800000e+00	7.955624e+07	
77	3.850000e+00	7.960889e+07	
78	3.900000e+00	7.966012e+07	
79	3.950000e+00	7.970997e+07	
80	4.000000e+00	7.975850e+07	
81	4.050000e+00	7.980576e+07	
82	4.100000e+00	7.985180e+07	
83	4.150000e+00	7.989667e+07	
84	4.200000e+00	7.994040e+07	
85	4.250000e+00	7.998305e+07	
86	4.300000e+00	8.002465e+07	
87	4.350000e+00	8.006523e+07	
88	4.400000e+00	8.010484e+07	
89	4.450000e+00	8.014351e+07	
90	4.500000e+00	8.018127e+07	
91	4.550000e+00	8.021814e+07	
92	4.600000e+00	8.025417e+07	
93	4.650000e+00	8.028938e+07	
94	4.700000e+00	8.032379e+07	
95	4.750000e+00	8.035744e+07	
96	4.800000e+00	8.039034e+07	
97	4.850000e+00	8.042253e+07	
98	4.900000e+00	8.045402e+07	
99	4.950000e+00	8.048483e+07	
100	5.000000e+00	8.051499e+07	
101	5.050000e+00	8.054452e+07	
102	5.100000e+00	8.057343e+07	
103	5.150000e+00	8.060175e+07	
104	5.200000e+00	8.062949e+07	
105	5.250000e+00	8.065667e+07	
106	5.300000e+00	8.068330e+07	
107	5.350000e+00	8.070941e+07	
108	5.400000e+00	8.073500e+07	
109	5.450000e+00	8.076010e+07	
110	5.500000e+00	8.078470e+07	
111	5.550000e+00	8.080884e+07	
112	5.600000e+00	8.083252e+07	

Index   v-sweep         rds             
--------------------------------------------------------------------------------
113	5.650000e+00	8.085575e+07	
114	5.700000e+00	8.087855e+07	
115	5.750000e+00	8.090093e+07	
116	5.800000e+00	8.092290e+07	
117	5.850000e+00	8.094447e+07	
118	5.900000e+00	8.096564e+07	
119	5.950000e+00	8.098644e+07	
120	6.000000e+00	8.100687e+07	
121	6.050000e+00	8.102694e+07	
122	6.100000e+00	8.104666e+07	
123	6.150000e+00	8.106604e+07	
124	6.200000e+00	8.108508e+07	
125	6.250000e+00	8.110380e+07	
126	6.300000e+00	8.112220e+07	
127	6.350000e+00	8.114029e+07	
128	6.400000e+00	8.115808e+07	
129	6.450000e+00	8.117558e+07	
130	6.500000e+00	8.119279e+07	
131	6.550000e+00	8.120971e+07	
132	6.600000e+00	8.122637e+07	
Reset re-loads circuit ***************************

Circuit: ***************************

Doing analysis at TEMP = -40.000000 and TNOM = -40.000000


No. of Data Rows : 133
                          ***************************
                          DC transfer characteristic  Mon Jan  9 13:57:42  2023
--------------------------------------------------------------------------------
Index   v-sweep         rds             
--------------------------------------------------------------------------------
0	0.000000e+00	2.769626e+04	
1	5.000000e-02	2.933729e+04	
2	1.000000e-01	3.117383e+04	
3	1.500000e-01	3.324300e+04	
4	2.000000e-01	3.559192e+04	
5	2.500000e-01	3.828133e+04	
6	3.000000e-01	4.139084e+04	
7	3.500000e-01	4.502693e+04	
8	4.000000e-01	4.933511e+04	
9	4.500000e-01	5.451948e+04	
10	5.000000e-01	6.087503e+04	
11	5.500000e-01	6.884319e+04	
12	6.000000e-01	7.911206e+04	
13	6.500000e-01	9.280568e+04	
14	7.000000e-01	1.118583e+05	
15	7.500000e-01	1.397758e+05	
16	8.000000e-01	1.831607e+05	
17	8.500000e-01	2.543712e+05	
18	9.000000e-01	3.743515e+05	
19	9.500000e-01	5.708081e+05	
20	1.000000e+00	8.667287e+05	
21	1.050000e+00	1.266758e+06	
22	1.100000e+00	1.755378e+06	
23	1.150000e+00	2.306168e+06	
24	1.200000e+00	2.891833e+06	
25	1.250000e+00	3.489720e+06	
26	1.300000e+00	4.083296e+06	
27	1.350000e+00	4.661557e+06	
28	1.400000e+00	5.217783e+06	
29	1.450000e+00	5.748311e+06	
30	1.500000e+00	6.251544e+06	
31	1.550000e+00	6.727227e+06	
32	1.600000e+00	7.175938e+06	
33	1.650000e+00	7.598752e+06	
34	1.700000e+00	7.997009e+06	
35	1.750000e+00	8.372176e+06	
36	1.800000e+00	8.725749e+06	
37	1.850000e+00	9.059198e+06	
38	1.900000e+00	9.373934e+06	
39	1.950000e+00	9.671290e+06	
40	2.000000e+00	9.952513e+06	
41	2.050000e+00	1.021876e+07	
42	2.100000e+00	1.047110e+07	
43	2.150000e+00	1.071052e+07	
44	2.200000e+00	1.093792e+07	
45	2.250000e+00	1.115414e+07	
46	2.300000e+00	1.135995e+07	
47	2.350000e+00	1.155604e+07	
48	2.400000e+00	1.174307e+07	
49	2.450000e+00	1.192161e+07	
50	2.500000e+00	1.209222e+07	
51	2.550000e+00	1.225540e+07	
52	2.600000e+00	1.241161e+07	
53	2.650000e+00	1.256128e+07	
54	2.700000e+00	1.270479e+07	

Index   v-sweep         rds             
--------------------------------------------------------------------------------
55	2.750000e+00	1.284252e+07	
56	2.800000e+00	1.297480e+07	
57	2.850000e+00	1.310193e+07	
58	2.900000e+00	1.322422e+07	
59	2.950000e+00	1.334191e+07	
60	3.000000e+00	1.345528e+07	
61	3.050000e+00	1.356454e+07	
62	3.100000e+00	1.366991e+07	
63	3.150000e+00	1.377159e+07	
64	3.200000e+00	1.386977e+07	
65	3.250000e+00	1.396463e+07	
66	3.300000e+00	1.405633e+07	
67	3.350000e+00	1.414502e+07	
68	3.400000e+00	1.423085e+07	
69	3.450000e+00	1.431395e+07	
70	3.500000e+00	1.439445e+07	
71	3.550000e+00	1.447247e+07	
72	3.600000e+00	1.454811e+07	
73	3.650000e+00	1.462149e+07	
74	3.700000e+00	1.469271e+07	
75	3.750000e+00	1.476185e+07	
76	3.800000e+00	1.482901e+07	
77	3.850000e+00	1.489426e+07	
78	3.900000e+00	1.495770e+07	
79	3.950000e+00	1.501939e+07	
80	4.000000e+00	1.507940e+07	
81	4.050000e+00	1.513780e+07	
82	4.100000e+00	1.519466e+07	
83	4.150000e+00	1.525003e+07	
84	4.200000e+00	1.530397e+07	
85	4.250000e+00	1.535653e+07	
86	4.300000e+00	1.540777e+07	
87	4.350000e+00	1.545774e+07	
88	4.400000e+00	1.550648e+07	
89	4.450000e+00	1.555404e+07	
90	4.500000e+00	1.560045e+07	
91	4.550000e+00	1.564577e+07	
92	4.600000e+00	1.569002e+07	
93	4.650000e+00	1.573324e+07	
94	4.700000e+00	1.577548e+07	
95	4.750000e+00	1.581675e+07	
96	4.800000e+00	1.585711e+07	
97	4.850000e+00	1.589656e+07	
98	4.900000e+00	1.593515e+07	
99	4.950000e+00	1.597291e+07	
100	5.000000e+00	1.600985e+07	
101	5.050000e+00	1.604601e+07	
102	5.100000e+00	1.608140e+07	
103	5.150000e+00	1.611606e+07	
104	5.200000e+00	1.615001e+07	
105	5.250000e+00	1.618326e+07	
106	5.300000e+00	1.621584e+07	
107	5.350000e+00	1.624777e+07	
108	5.400000e+00	1.627906e+07	
109	5.450000e+00	1.630975e+07	
110	5.500000e+00	1.633983e+07	
111	5.550000e+00	1.636934e+07	
112	5.600000e+00	1.639828e+07	

Index   v-sweep         rds             
--------------------------------------------------------------------------------
113	5.650000e+00	1.642668e+07	
114	5.700000e+00	1.645454e+07	
115	5.750000e+00	1.648189e+07	
116	5.800000e+00	1.650873e+07	
117	5.850000e+00	1.653509e+07	
118	5.900000e+00	1.656096e+07	
119	5.950000e+00	1.658638e+07	
120	6.000000e+00	1.661134e+07	
121	6.050000e+00	1.663587e+07	
122	6.100000e+00	1.665997e+07	
123	6.150000e+00	1.668364e+07	
124	6.200000e+00	1.670692e+07	
125	6.250000e+00	1.672980e+07	
126	6.300000e+00	1.675229e+07	
127	6.350000e+00	1.677440e+07	
128	6.400000e+00	1.679615e+07	
129	6.450000e+00	1.681754e+07	
130	6.500000e+00	1.683858e+07	
131	6.550000e+00	1.685928e+07	
132	6.600000e+00	1.687965e+07	
Reset re-loads circuit ***************************

Circuit: ***************************

Doing analysis at TEMP = -40.000000 and TNOM = -40.000000


No. of Data Rows : 133
                          ***************************
                          DC transfer characteristic  Mon Jan  9 13:57:42  2023
--------------------------------------------------------------------------------
Index   v-sweep         rds             
--------------------------------------------------------------------------------
0	0.000000e+00	1.650342e+04	
1	5.000000e-02	1.705376e+04	
2	1.000000e-01	1.763840e+04	
3	1.500000e-01	1.826068e+04	
4	2.000000e-01	1.892432e+04	
5	2.500000e-01	1.963359e+04	
6	3.000000e-01	2.039337e+04	
7	3.500000e-01	2.120925e+04	
8	4.000000e-01	2.208767e+04	
9	4.500000e-01	2.303610e+04	
10	5.000000e-01	2.406328e+04	
11	5.500000e-01	2.517941e+04	
12	6.000000e-01	2.639659e+04	
13	6.500000e-01	2.772919e+04	
14	7.000000e-01	2.919444e+04	
15	7.500000e-01	3.081321e+04	
16	8.000000e-01	3.261096e+04	
17	8.500000e-01	3.461914e+04	
18	9.000000e-01	3.687702e+04	
19	9.500000e-01	3.943430e+04	
20	1.000000e+00	4.235480e+04	
21	1.050000e+00	4.572185e+04	
22	1.100000e+00	4.964623e+04	
23	1.150000e+00	5.427845e+04	
24	1.200000e+00	5.982773e+04	
25	1.250000e+00	6.659270e+04	
26	1.300000e+00	7.501174e+04	
27	1.350000e+00	8.574719e+04	
28	1.400000e+00	9.982600e+04	
29	1.450000e+00	1.188659e+05	
30	1.500000e+00	1.453999e+05	
31	1.550000e+00	1.832144e+05	
32	1.600000e+00	2.373918e+05	
33	1.650000e+00	3.135663e+05	
34	1.700000e+00	4.163108e+05	
35	1.750000e+00	5.475415e+05	
36	1.800000e+00	7.060456e+05	
37	1.850000e+00	8.882199e+05	
38	1.900000e+00	1.089270e+06	
39	1.950000e+00	1.304216e+06	
40	2.000000e+00	1.528491e+06	
41	2.050000e+00	1.758211e+06	
42	2.100000e+00	1.990222e+06	
43	2.150000e+00	2.222050e+06	
44	2.200000e+00	2.451808e+06	
45	2.250000e+00	2.678088e+06	
46	2.300000e+00	2.899869e+06	
47	2.350000e+00	3.116432e+06	
48	2.400000e+00	3.327296e+06	
49	2.450000e+00	3.532160e+06	
50	2.500000e+00	3.730861e+06	
51	2.550000e+00	3.923342e+06	
52	2.600000e+00	4.109621e+06	
53	2.650000e+00	4.289777e+06	
54	2.700000e+00	4.463928e+06	

Index   v-sweep         rds             
--------------------------------------------------------------------------------
55	2.750000e+00	4.632224e+06	
56	2.800000e+00	4.794834e+06	
57	2.850000e+00	4.951941e+06	
58	2.900000e+00	5.103735e+06	
59	2.950000e+00	5.250410e+06	
60	3.000000e+00	5.392161e+06	
61	3.050000e+00	5.529180e+06	
62	3.100000e+00	5.661658e+06	
63	3.150000e+00	5.789778e+06	
64	3.200000e+00	5.913721e+06	
65	3.250000e+00	6.033660e+06	
66	3.300000e+00	6.149762e+06	
67	3.350000e+00	6.262187e+06	
68	3.400000e+00	6.371089e+06	
69	3.450000e+00	6.476615e+06	
70	3.500000e+00	6.578905e+06	
71	3.550000e+00	6.678095e+06	
72	3.600000e+00	6.774311e+06	
73	3.650000e+00	6.867677e+06	
74	3.700000e+00	6.958308e+06	
75	3.750000e+00	7.046314e+06	
76	3.800000e+00	7.131803e+06	
77	3.850000e+00	7.214874e+06	
78	3.900000e+00	7.295622e+06	
79	3.950000e+00	7.374140e+06	
80	4.000000e+00	7.450513e+06	
81	4.050000e+00	7.524825e+06	
82	4.100000e+00	7.597154e+06	
83	4.150000e+00	7.667575e+06	
84	4.200000e+00	7.736160e+06	
85	4.250000e+00	7.802977e+06	
86	4.300000e+00	7.868091e+06	
87	4.350000e+00	7.931564e+06	
88	4.400000e+00	7.993455e+06	
89	4.450000e+00	8.053822e+06	
90	4.500000e+00	8.112717e+06	
91	4.550000e+00	8.170193e+06	
92	4.600000e+00	8.226298e+06	
93	4.650000e+00	8.281080e+06	
94	4.700000e+00	8.334584e+06	
95	4.750000e+00	8.386852e+06	
96	4.800000e+00	8.437927e+06	
97	4.850000e+00	8.487848e+06	
98	4.900000e+00	8.536652e+06	
99	4.950000e+00	8.584375e+06	
100	5.000000e+00	8.631053e+06	
101	5.050000e+00	8.676719e+06	
102	5.100000e+00	8.721403e+06	
103	5.150000e+00	8.765139e+06	
104	5.200000e+00	8.807953e+06	
105	5.250000e+00	8.849876e+06	
106	5.300000e+00	8.890933e+06	
107	5.350000e+00	8.931151e+06	
108	5.400000e+00	8.970555e+06	
109	5.450000e+00	9.009169e+06	
110	5.500000e+00	9.047016e+06	
111	5.550000e+00	9.084118e+06	
112	5.600000e+00	9.120497e+06	

Index   v-sweep         rds             
--------------------------------------------------------------------------------
113	5.650000e+00	9.156173e+06	
114	5.700000e+00	9.191167e+06	
115	5.750000e+00	9.225497e+06	
116	5.800000e+00	9.259181e+06	
117	5.850000e+00	9.292239e+06	
118	5.900000e+00	9.324685e+06	
119	5.950000e+00	9.356538e+06	
120	6.000000e+00	9.387813e+06	
121	6.050000e+00	9.418526e+06	
122	6.100000e+00	9.448691e+06	
123	6.150000e+00	9.478322e+06	
124	6.200000e+00	9.507434e+06	
125	6.250000e+00	9.536040e+06	
126	6.300000e+00	9.564153e+06	
127	6.350000e+00	9.591784e+06	
128	6.400000e+00	9.618948e+06	
129	6.450000e+00	9.645654e+06	
130	6.500000e+00	9.671915e+06	
131	6.550000e+00	9.697740e+06	
132	6.600000e+00	9.723142e+06	
Reset re-loads circuit ***************************

Circuit: ***************************

Doing analysis at TEMP = -40.000000 and TNOM = -40.000000


No. of Data Rows : 133
                          ***************************
                          DC transfer characteristic  Mon Jan  9 13:57:42  2023
--------------------------------------------------------------------------------
Index   v-sweep         rds             
--------------------------------------------------------------------------------
0	0.000000e+00	1.248012e+04	
1	5.000000e-02	1.277273e+04	
2	1.000000e-01	1.307755e+04	
3	1.500000e-01	1.339535e+04	
4	2.000000e-01	1.372698e+04	
5	2.500000e-01	1.407337e+04	
6	3.000000e-01	1.443551e+04	
7	3.500000e-01	1.481452e+04	
8	4.000000e-01	1.521158e+04	
9	4.500000e-01	1.562802e+04	
10	5.000000e-01	1.606530e+04	
11	5.500000e-01	1.652502e+04	
12	6.000000e-01	1.700894e+04	
13	6.500000e-01	1.751904e+04	
14	7.000000e-01	1.805748e+04	
15	7.500000e-01	1.862671e+04	
16	8.000000e-01	1.922943e+04	
17	8.500000e-01	1.986871e+04	
18	9.000000e-01	2.054795e+04	
19	9.500000e-01	2.127105e+04	
20	1.000000e+00	2.204239e+04	
21	1.050000e+00	2.286698e+04	
22	1.100000e+00	2.375052e+04	
23	1.150000e+00	2.469961e+04	
24	1.200000e+00	2.572182e+04	
25	1.250000e+00	2.682598e+04	
26	1.300000e+00	2.802240e+04	
27	1.350000e+00	2.932319e+04	
28	1.400000e+00	3.074272e+04	
29	1.450000e+00	3.229813e+04	
30	1.500000e+00	3.401006e+04	
31	1.550000e+00	3.590362e+04	
32	1.600000e+00	3.800962e+04	
33	1.650000e+00	4.036638e+04	
34	1.700000e+00	4.302215e+04	
35	1.750000e+00	4.603856e+04	
36	1.800000e+00	4.949562e+04	
37	1.850000e+00	5.349908e+04	
38	1.900000e+00	5.819144e+04	
39	1.950000e+00	6.376872e+04	
40	2.000000e+00	7.050621e+04	
41	2.050000e+00	7.879786e+04	
42	2.100000e+00	8.921483e+04	
43	2.150000e+00	1.025866e+05	
44	2.200000e+00	1.200959e+05	
45	2.250000e+00	1.433497e+05	
46	2.300000e+00	1.743428e+05	
47	2.350000e+00	2.152234e+05	
48	2.400000e+00	2.678630e+05	
49	2.450000e+00	3.334061e+05	
50	2.500000e+00	4.120356e+05	
51	2.550000e+00	5.030378e+05	
52	2.600000e+00	6.050649e+05	
53	2.650000e+00	7.164379e+05	
54	2.700000e+00	8.353912e+05	

Index   v-sweep         rds             
--------------------------------------------------------------------------------
55	2.750000e+00	9.602320e+05	
56	2.800000e+00	1.089426e+06	
57	2.850000e+00	1.221633e+06	
58	2.900000e+00	1.355712e+06	
59	2.950000e+00	1.490707e+06	
60	3.000000e+00	1.625830e+06	
61	3.050000e+00	1.760439e+06	
62	3.100000e+00	1.894017e+06	
63	3.150000e+00	2.026150e+06	
64	3.200000e+00	2.156514e+06	
65	3.250000e+00	2.284857e+06	
66	3.300000e+00	2.410986e+06	
67	3.350000e+00	2.534759e+06	
68	3.400000e+00	2.656074e+06	
69	3.450000e+00	2.774864e+06	
70	3.500000e+00	2.891087e+06	
71	3.550000e+00	3.004724e+06	
72	3.600000e+00	3.115773e+06	
73	3.650000e+00	3.224247e+06	
74	3.700000e+00	3.330172e+06	
75	3.750000e+00	3.433580e+06	
76	3.800000e+00	3.534512e+06	
77	3.850000e+00	3.633014e+06	
78	3.900000e+00	3.729137e+06	
79	3.950000e+00	3.822932e+06	
80	4.000000e+00	3.914457e+06	
81	4.050000e+00	4.003766e+06	
82	4.100000e+00	4.090919e+06	
83	4.150000e+00	4.175972e+06	
84	4.200000e+00	4.258984e+06	
85	4.250000e+00	4.340011e+06	
86	4.300000e+00	4.419111e+06	
87	4.350000e+00	4.496338e+06	
88	4.400000e+00	4.571749e+06	
89	4.450000e+00	4.645395e+06	
90	4.500000e+00	4.717330e+06	
91	4.550000e+00	4.787605e+06	
92	4.600000e+00	4.856269e+06	
93	4.650000e+00	4.923370e+06	
94	4.700000e+00	4.988955e+06	
95	4.750000e+00	5.053069e+06	
96	4.800000e+00	5.115758e+06	
97	4.850000e+00	5.177062e+06	
98	4.900000e+00	5.237024e+06	
99	4.950000e+00	5.295683e+06	
100	5.000000e+00	5.353078e+06	
101	5.050000e+00	5.409246e+06	
102	5.100000e+00	5.464223e+06	
103	5.150000e+00	5.518044e+06	
104	5.200000e+00	5.570744e+06	
105	5.250000e+00	5.622353e+06	
106	5.300000e+00	5.672904e+06	
107	5.350000e+00	5.722427e+06	
108	5.400000e+00	5.770951e+06	
109	5.450000e+00	5.818504e+06	
110	5.500000e+00	5.865115e+06	
111	5.550000e+00	5.910809e+06	
112	5.600000e+00	5.955611e+06	

Index   v-sweep         rds             
--------------------------------------------------------------------------------
113	5.650000e+00	5.999547e+06	
114	5.700000e+00	6.042640e+06	
115	5.750000e+00	6.084912e+06	
116	5.800000e+00	6.126388e+06	
117	5.850000e+00	6.167086e+06	
118	5.900000e+00	6.207030e+06	
119	5.950000e+00	6.246238e+06	
120	6.000000e+00	6.284730e+06	
121	6.050000e+00	6.322524e+06	
122	6.100000e+00	6.359639e+06	
123	6.150000e+00	6.396093e+06	
124	6.200000e+00	6.431902e+06	
125	6.250000e+00	6.467082e+06	
126	6.300000e+00	6.501650e+06	
127	6.350000e+00	6.535621e+06	
128	6.400000e+00	6.569010e+06	
129	6.450000e+00	6.601831e+06	
130	6.500000e+00	6.634099e+06	
131	6.550000e+00	6.665826e+06	
132	6.600000e+00	6.697025e+06	
Reset re-loads circuit ***************************

Circuit: ***************************

Doing analysis at TEMP = -40.000000 and TNOM = -40.000000


No. of Data Rows : 133
                          ***************************
                          DC transfer characteristic  Mon Jan  9 13:57:42  2023
--------------------------------------------------------------------------------
Index   v-sweep         rds             
--------------------------------------------------------------------------------
0	0.000000e+00	1.055246e+04	
1	5.000000e-02	1.074313e+04	
2	1.000000e-01	1.093972e+04	
3	1.500000e-01	1.114249e+04	
4	2.000000e-01	1.135174e+04	
5	2.500000e-01	1.156778e+04	
6	3.000000e-01	1.179096e+04	
7	3.500000e-01	1.202162e+04	
8	4.000000e-01	1.226015e+04	
9	4.500000e-01	1.250697e+04	
10	5.000000e-01	1.276250e+04	
11	5.500000e-01	1.302721e+04	
12	6.000000e-01	1.330162e+04	
13	6.500000e-01	1.358626e+04	
14	7.000000e-01	1.388171e+04	
15	7.500000e-01	1.418859e+04	
16	8.000000e-01	1.450760e+04	
17	8.500000e-01	1.483945e+04	
18	9.000000e-01	1.518494e+04	
19	9.500000e-01	1.554492e+04	
20	1.000000e+00	1.592033e+04	
21	1.050000e+00	1.631218e+04	
22	1.100000e+00	1.672158e+04	
23	1.150000e+00	1.714972e+04	
24	1.200000e+00	1.759793e+04	
25	1.250000e+00	1.806765e+04	
26	1.300000e+00	1.856047e+04	
27	1.350000e+00	1.907814e+04	
28	1.400000e+00	1.962259e+04	
29	1.450000e+00	2.019595e+04	
30	1.500000e+00	2.080060e+04	
31	1.550000e+00	2.143918e+04	
32	1.600000e+00	2.211464e+04	
33	1.650000e+00	2.283027e+04	
34	1.700000e+00	2.358980e+04	
35	1.750000e+00	2.439740e+04	
36	1.800000e+00	2.525782e+04	
37	1.850000e+00	2.617645e+04	
38	1.900000e+00	2.715947e+04	
39	1.950000e+00	2.821395e+04	
40	2.000000e+00	2.934808e+04	
41	2.050000e+00	3.057135e+04	
42	2.100000e+00	3.189486e+04	
43	2.150000e+00	3.333169e+04	
44	2.200000e+00	3.489734e+04	
45	2.250000e+00	3.661038e+04	
46	2.300000e+00	3.849322e+04	
47	2.350000e+00	4.057323e+04	
48	2.400000e+00	4.288420e+04	
49	2.450000e+00	4.546842e+04	
50	2.500000e+00	4.837956e+04	
51	2.550000e+00	5.168678e+04	
52	2.600000e+00	5.548072e+04	
53	2.650000e+00	5.988214e+04	
54	2.700000e+00	6.505465e+04	

Index   v-sweep         rds             
--------------------------------------------------------------------------------
55	2.750000e+00	7.122294e+04	
56	2.800000e+00	7.869843e+04	
57	2.850000e+00	8.791261e+04	
58	2.900000e+00	9.945486e+04	
59	2.950000e+00	1.141027e+05	
60	3.000000e+00	1.328204e+05	
61	3.050000e+00	1.566962e+05	
62	3.100000e+00	1.868026e+05	
63	3.150000e+00	2.240131e+05	
64	3.200000e+00	2.688429e+05	
65	3.250000e+00	3.213811e+05	
66	3.300000e+00	3.813243e+05	
67	3.350000e+00	4.480751e+05	
68	3.400000e+00	5.208589e+05	
69	3.450000e+00	5.988243e+05	
70	3.500000e+00	6.811167e+05	
71	3.550000e+00	7.669242e+05	
72	3.600000e+00	8.555030e+05	
73	3.650000e+00	9.461885e+05	
74	3.700000e+00	1.038397e+06	
75	3.750000e+00	1.131622e+06	
76	3.800000e+00	1.225429e+06	
77	3.850000e+00	1.319447e+06	
78	3.900000e+00	1.413364e+06	
79	3.950000e+00	1.506916e+06	
80	4.000000e+00	1.599881e+06	
81	4.050000e+00	1.692079e+06	
82	4.100000e+00	1.783356e+06	
83	4.150000e+00	1.873591e+06	
84	4.200000e+00	1.962684e+06	
85	4.250000e+00	2.050555e+06	
86	4.300000e+00	2.137141e+06	
87	4.350000e+00	2.222395e+06	
88	4.400000e+00	2.306280e+06	
89	4.450000e+00	2.388773e+06	
90	4.500000e+00	2.469857e+06	
91	4.550000e+00	2.549523e+06	
92	4.600000e+00	2.627770e+06	
93	4.650000e+00	2.704600e+06	
94	4.700000e+00	2.780020e+06	
95	4.750000e+00	2.854043e+06	
96	4.800000e+00	2.926682e+06	
97	4.850000e+00	2.997954e+06	
98	4.900000e+00	3.067878e+06	
99	4.950000e+00	3.136475e+06	
100	5.000000e+00	3.203767e+06	
101	5.050000e+00	3.269775e+06	
102	5.100000e+00	3.334526e+06	
103	5.150000e+00	3.398041e+06	
104	5.200000e+00	3.460347e+06	
105	5.250000e+00	3.521468e+06	
106	5.300000e+00	3.581429e+06	
107	5.350000e+00	3.640255e+06	
108	5.400000e+00	3.697970e+06	
109	5.450000e+00	3.754601e+06	
110	5.500000e+00	3.810170e+06	
111	5.550000e+00	3.864703e+06	
112	5.600000e+00	3.918223e+06	

Index   v-sweep         rds             
--------------------------------------------------------------------------------
113	5.650000e+00	3.970754e+06	
114	5.700000e+00	4.022318e+06	
115	5.750000e+00	4.072938e+06	
116	5.800000e+00	4.122636e+06	
117	5.850000e+00	4.171435e+06	
118	5.900000e+00	4.219355e+06	
119	5.950000e+00	4.266417e+06	
120	6.000000e+00	4.312641e+06	
121	6.050000e+00	4.358048e+06	
122	6.100000e+00	4.402656e+06	
123	6.150000e+00	4.446484e+06	
124	6.200000e+00	4.489552e+06	
125	6.250000e+00	4.531875e+06	
126	6.300000e+00	4.573473e+06	
127	6.350000e+00	4.614362e+06	
128	6.400000e+00	4.654558e+06	
129	6.450000e+00	4.694078e+06	
130	6.500000e+00	4.732937e+06	
131	6.550000e+00	4.771151e+06	
132	6.600000e+00	4.808735e+06	
Reset re-loads circuit ***************************

Circuit: ***************************

Doing analysis at TEMP = -40.000000 and TNOM = -40.000000


No. of Data Rows : 133
                          ***************************
                          DC transfer characteristic  Mon Jan  9 13:57:42  2023
--------------------------------------------------------------------------------
Index   v-sweep         rds             
--------------------------------------------------------------------------------
0	0.000000e+00	9.520692e+03	
1	5.000000e-02	9.659799e+03	
2	1.000000e-01	9.802294e+03	
3	1.500000e-01	9.948300e+03	
4	2.000000e-01	1.009795e+04	
5	2.500000e-01	1.025138e+04	
6	3.000000e-01	1.040873e+04	
7	3.500000e-01	1.057016e+04	
8	4.000000e-01	1.073583e+04	
9	4.500000e-01	1.090590e+04	
10	5.000000e-01	1.108055e+04	
11	5.500000e-01	1.125998e+04	
12	6.000000e-01	1.144436e+04	
13	6.500000e-01	1.163393e+04	
14	7.000000e-01	1.182888e+04	
15	7.500000e-01	1.202947e+04	
16	8.000000e-01	1.223593e+04	
17	8.500000e-01	1.244853e+04	
18	9.000000e-01	1.266753e+04	
19	9.500000e-01	1.289325e+04	
20	1.000000e+00	1.312598e+04	
21	1.050000e+00	1.336607e+04	
22	1.100000e+00	1.361385e+04	
23	1.150000e+00	1.386972e+04	
24	1.200000e+00	1.413407e+04	
25	1.250000e+00	1.440732e+04	
26	1.300000e+00	1.468995e+04	
27	1.350000e+00	1.498243e+04	
28	1.400000e+00	1.528529e+04	
29	1.450000e+00	1.559909e+04	
30	1.500000e+00	1.592444e+04	
31	1.550000e+00	1.626198e+04	
32	1.600000e+00	1.661242e+04	
33	1.650000e+00	1.697650e+04	
34	1.700000e+00	1.735505e+04	
35	1.750000e+00	1.774893e+04	
36	1.800000e+00	1.815912e+04	
37	1.850000e+00	1.858662e+04	
38	1.900000e+00	1.903259e+04	
39	1.950000e+00	1.949822e+04	
40	2.000000e+00	1.998487e+04	
41	2.050000e+00	2.049399e+04	
42	2.100000e+00	2.102718e+04	
43	2.150000e+00	2.158620e+04	
44	2.200000e+00	2.217298e+04	
45	2.250000e+00	2.278966e+04	
46	2.300000e+00	2.343859e+04	
47	2.350000e+00	2.412239e+04	
48	2.400000e+00	2.484399e+04	
49	2.450000e+00	2.560664e+04	
50	2.500000e+00	2.641398e+04	
51	2.550000e+00	2.727012e+04	
52	2.600000e+00	2.817969e+04	
53	2.650000e+00	2.914795e+04	
54	2.700000e+00	3.018090e+04	

Index   v-sweep         rds             
--------------------------------------------------------------------------------
55	2.750000e+00	3.128538e+04	
56	2.800000e+00	3.246930e+04	
57	2.850000e+00	3.374184e+04	
58	2.900000e+00	3.511366e+04	
59	2.950000e+00	3.659736e+04	
60	3.000000e+00	3.820783e+04	
61	3.050000e+00	3.996292e+04	
62	3.100000e+00	4.188418e+04	
63	3.150000e+00	4.399798e+04	
64	3.200000e+00	4.633692e+04	
65	3.250000e+00	4.894192e+04	
66	3.300000e+00	5.186496e+04	
67	3.350000e+00	5.517312e+04	
68	3.400000e+00	5.895414e+04	
69	3.450000e+00	6.332423e+04	
70	3.500000e+00	6.843890e+04	
71	3.550000e+00	7.450711e+04	
72	3.600000e+00	8.180872e+04	
73	3.650000e+00	9.071292e+04	
74	3.700000e+00	1.016920e+05	
75	3.750000e+00	1.153204e+05	
76	3.800000e+00	1.322467e+05	
77	3.850000e+00	1.531322e+05	
78	3.900000e+00	1.785642e+05	
79	3.950000e+00	2.089696e+05	
80	4.000000e+00	2.445588e+05	
81	4.050000e+00	2.853147e+05	
82	4.100000e+00	3.310220e+05	
83	4.150000e+00	3.813193e+05	
84	4.200000e+00	4.357540e+05	
85	4.250000e+00	4.938305e+05	
86	4.300000e+00	5.550458e+05	
87	4.350000e+00	6.189138e+05	
88	4.400000e+00	6.849794e+05	
89	4.450000e+00	7.528259e+05	
90	4.500000e+00	8.220784e+05	
91	4.550000e+00	8.924029e+05	
92	4.600000e+00	9.635048e+05	
93	4.650000e+00	1.035126e+06	
94	4.700000e+00	1.107041e+06	
95	4.750000e+00	1.179056e+06	
96	4.800000e+00	1.251000e+06	
97	4.850000e+00	1.322730e+06	
98	4.900000e+00	1.394122e+06	
99	4.950000e+00	1.465068e+06	
100	5.000000e+00	1.535479e+06	
101	5.050000e+00	1.605278e+06	
102	5.100000e+00	1.674403e+06	
103	5.150000e+00	1.742798e+06	
104	5.200000e+00	1.810422e+06	
105	5.250000e+00	1.877236e+06	
106	5.300000e+00	1.943214e+06	
107	5.350000e+00	2.008331e+06	
108	5.400000e+00	2.072571e+06	
109	5.450000e+00	2.135921e+06	
110	5.500000e+00	2.198371e+06	
111	5.550000e+00	2.259917e+06	
112	5.600000e+00	2.320556e+06	

Index   v-sweep         rds             
--------------------------------------------------------------------------------
113	5.650000e+00	2.380289e+06	
114	5.700000e+00	2.439118e+06	
115	5.750000e+00	2.497047e+06	
116	5.800000e+00	2.554082e+06	
117	5.850000e+00	2.610232e+06	
118	5.900000e+00	2.665504e+06	
119	5.950000e+00	2.719908e+06	
120	6.000000e+00	2.773455e+06	
121	6.050000e+00	2.826155e+06	
122	6.100000e+00	2.878021e+06	
123	6.150000e+00	2.929065e+06	
124	6.200000e+00	2.979299e+06	
125	6.250000e+00	3.028736e+06	
126	6.300000e+00	3.077389e+06	
127	6.350000e+00	3.125272e+06	
128	6.400000e+00	3.172397e+06	
129	6.450000e+00	3.218778e+06	
130	6.500000e+00	3.264428e+06	
131	6.550000e+00	3.309361e+06	
132	6.600000e+00	3.353590e+06	
Reset re-loads circuit ***************************

Circuit: ***************************

Note: No ".plot", ".print", or ".fourier" lines; no simulations run
