
Note: Compatibility modes selected: hs

Warning: m=xx on .subckt line will override multiplier m hierarchy!


Circuit: ***************************

Doing analysis at TEMP = 25.000000 and TNOM = 25.000000


No. of Data Rows : 133
                          ***************************
                          DC transfer characteristic  Mon Jan  9 13:57:42  2023
--------------------------------------------------------------------------------
Index   v-sweep         rds             
--------------------------------------------------------------------------------
0	0.000000e+00	3.043167e+04	
1	5.000000e-02	3.616727e+04	
2	1.000000e-01	4.425523e+04	
3	1.500000e-01	5.641278e+04	
4	2.000000e-01	7.620953e+04	
5	2.500000e-01	1.107779e+05	
6	3.000000e-01	1.679158e+05	
7	3.500000e-01	2.384249e+05	
8	4.000000e-01	3.030205e+05	
9	4.500000e-01	3.578848e+05	
10	5.000000e-01	4.058060e+05	
11	5.500000e-01	4.488589e+05	
12	6.000000e-01	4.881542e+05	
13	6.500000e-01	5.243312e+05	
14	7.000000e-01	5.578107e+05	
15	7.500000e-01	5.889034e+05	
16	8.000000e-01	6.178570e+05	
17	8.500000e-01	6.448781e+05	
18	9.000000e-01	6.701438e+05	
19	9.500000e-01	6.938091e+05	
20	1.000000e+00	7.160104e+05	
21	1.050000e+00	7.368692e+05	
22	1.100000e+00	7.564941e+05	
23	1.150000e+00	7.749825e+05	
24	1.200000e+00	7.924222e+05	
25	1.250000e+00	8.088925e+05	
26	1.300000e+00	8.244651e+05	
27	1.350000e+00	8.392053e+05	
28	1.400000e+00	8.531721e+05	
29	1.450000e+00	8.664197e+05	
30	1.500000e+00	8.789972e+05	
31	1.550000e+00	8.909498e+05	
32	1.600000e+00	9.023187e+05	
33	1.650000e+00	9.131419e+05	
34	1.700000e+00	9.234540e+05	
35	1.750000e+00	9.332872e+05	
36	1.800000e+00	9.426710e+05	
37	1.850000e+00	9.516327e+05	
38	1.900000e+00	9.601974e+05	
39	1.950000e+00	9.683884e+05	
40	2.000000e+00	9.762274e+05	
41	2.050000e+00	9.837344e+05	
42	2.100000e+00	9.909279e+05	
43	2.150000e+00	9.978254e+05	
44	2.200000e+00	1.004443e+06	
45	2.250000e+00	1.010795e+06	
46	2.300000e+00	1.016897e+06	
47	2.350000e+00	1.022761e+06	
48	2.400000e+00	1.028399e+06	
49	2.450000e+00	1.033823e+06	
50	2.500000e+00	1.039044e+06	
51	2.550000e+00	1.044071e+06	
52	2.600000e+00	1.048914e+06	
53	2.650000e+00	1.053582e+06	
54	2.700000e+00	1.058084e+06	

Index   v-sweep         rds             
--------------------------------------------------------------------------------
55	2.750000e+00	1.062426e+06	
56	2.800000e+00	1.066617e+06	
57	2.850000e+00	1.070664e+06	
58	2.900000e+00	1.074572e+06	
59	2.950000e+00	1.078349e+06	
60	3.000000e+00	1.082000e+06	
61	3.050000e+00	1.085530e+06	
62	3.100000e+00	1.088945e+06	
63	3.150000e+00	1.092250e+06	
64	3.200000e+00	1.095449e+06	
65	3.250000e+00	1.098547e+06	
66	3.300000e+00	1.101548e+06	
67	3.350000e+00	1.104456e+06	
68	3.400000e+00	1.107275e+06	
69	3.450000e+00	1.110009e+06	
70	3.500000e+00	1.112660e+06	
71	3.550000e+00	1.115233e+06	
72	3.600000e+00	1.117730e+06	
73	3.650000e+00	1.120154e+06	
74	3.700000e+00	1.122508e+06	
75	3.750000e+00	1.124795e+06	
76	3.800000e+00	1.127017e+06	
77	3.850000e+00	1.129176e+06	
78	3.900000e+00	1.131276e+06	
79	3.950000e+00	1.133318e+06	
80	4.000000e+00	1.135305e+06	
81	4.050000e+00	1.137238e+06	
82	4.100000e+00	1.139119e+06	
83	4.150000e+00	1.140950e+06	
84	4.200000e+00	1.142734e+06	
85	4.250000e+00	1.144471e+06	
86	4.300000e+00	1.146164e+06	
87	4.350000e+00	1.147813e+06	
88	4.400000e+00	1.149421e+06	
89	4.450000e+00	1.150989e+06	
90	4.500000e+00	1.152519e+06	
91	4.550000e+00	1.154010e+06	
92	4.600000e+00	1.155466e+06	
93	4.650000e+00	1.156887e+06	
94	4.700000e+00	1.158274e+06	
95	4.750000e+00	1.159629e+06	
96	4.800000e+00	1.160952e+06	
97	4.850000e+00	1.162244e+06	
98	4.900000e+00	1.163508e+06	
99	4.950000e+00	1.164743e+06	
100	5.000000e+00	1.165950e+06	
101	5.050000e+00	1.167131e+06	
102	5.100000e+00	1.168286e+06	
103	5.150000e+00	1.169417e+06	
104	5.200000e+00	1.170523e+06	
105	5.250000e+00	1.171606e+06	
106	5.300000e+00	1.172667e+06	
107	5.350000e+00	1.173706e+06	
108	5.400000e+00	1.174724e+06	
109	5.450000e+00	1.175722e+06	
110	5.500000e+00	1.176700e+06	
111	5.550000e+00	1.177659e+06	
112	5.600000e+00	1.178599e+06	

Index   v-sweep         rds             
--------------------------------------------------------------------------------
113	5.650000e+00	1.179522e+06	
114	5.700000e+00	1.180427e+06	
115	5.750000e+00	1.181316e+06	
116	5.800000e+00	1.182189e+06	
117	5.850000e+00	1.183046e+06	
118	5.900000e+00	1.183889e+06	
119	5.950000e+00	1.184716e+06	
120	6.000000e+00	1.185530e+06	
121	6.050000e+00	1.186330e+06	
122	6.100000e+00	1.187117e+06	
123	6.150000e+00	1.187891e+06	
124	6.200000e+00	1.188653e+06	
125	6.250000e+00	1.189403e+06	
126	6.300000e+00	1.190142e+06	
127	6.350000e+00	1.190870e+06	
128	6.400000e+00	1.191587e+06	
129	6.450000e+00	1.192294e+06	
130	6.500000e+00	1.192991e+06	
131	6.550000e+00	1.193678e+06	
132	6.600000e+00	1.194356e+06	
Reset re-loads circuit ***************************

Circuit: ***************************

Doing analysis at TEMP = 25.000000 and TNOM = 25.000000


No. of Data Rows : 133
                          ***************************
                          DC transfer characteristic  Mon Jan  9 13:57:42  2023
--------------------------------------------------------------------------------
Index   v-sweep         rds             
--------------------------------------------------------------------------------
0	0.000000e+00	1.184075e+04	
1	5.000000e-02	1.270325e+04	
2	1.000000e-01	1.366821e+04	
3	1.500000e-01	1.475482e+04	
4	2.000000e-01	1.598745e+04	
5	2.500000e-01	1.739749e+04	
6	3.000000e-01	1.902591e+04	
7	3.500000e-01	2.092707e+04	
8	4.000000e-01	2.317437e+04	
9	4.500000e-01	2.586898e+04	
10	5.000000e-01	2.915329e+04	
11	5.500000e-01	3.323192e+04	
12	6.000000e-01	3.840172e+04	
13	6.500000e-01	4.508345e+04	
14	7.000000e-01	5.380550e+04	
15	7.500000e-01	6.501155e+04	
16	8.000000e-01	7.867341e+04	
17	8.500000e-01	9.416992e+04	
18	9.000000e-01	1.106908e+05	
19	9.500000e-01	1.276131e+05	
20	1.000000e+00	1.445605e+05	
21	1.050000e+00	1.613263e+05	
22	1.100000e+00	1.778012e+05	
23	1.150000e+00	1.939283e+05	
24	1.200000e+00	2.096799e+05	
25	1.250000e+00	2.250446e+05	
26	1.300000e+00	2.400203e+05	
27	1.350000e+00	2.546103e+05	
28	1.400000e+00	2.688212e+05	
29	1.450000e+00	2.826617e+05	
30	1.500000e+00	2.961415e+05	
31	1.550000e+00	3.092709e+05	
32	1.600000e+00	3.220604e+05	
33	1.650000e+00	3.345209e+05	
34	1.700000e+00	3.466627e+05	
35	1.750000e+00	3.584964e+05	
36	1.800000e+00	3.700321e+05	
37	1.850000e+00	3.812797e+05	
38	1.900000e+00	3.922487e+05	
39	1.950000e+00	4.029484e+05	
40	2.000000e+00	4.133878e+05	
41	2.050000e+00	4.235754e+05	
42	2.100000e+00	4.335197e+05	
43	2.150000e+00	4.432286e+05	
44	2.200000e+00	4.527099e+05	
45	2.250000e+00	4.619709e+05	
46	2.300000e+00	4.710187e+05	
47	2.350000e+00	4.798603e+05	
48	2.400000e+00	4.885022e+05	
49	2.450000e+00	4.969507e+05	
50	2.500000e+00	5.052120e+05	
51	2.550000e+00	5.132919e+05	
52	2.600000e+00	5.211960e+05	
53	2.650000e+00	5.289298e+05	
54	2.700000e+00	5.364985e+05	

Index   v-sweep         rds             
--------------------------------------------------------------------------------
55	2.750000e+00	5.439071e+05	
56	2.800000e+00	5.511603e+05	
57	2.850000e+00	5.582630e+05	
58	2.900000e+00	5.652195e+05	
59	2.950000e+00	5.720341e+05	
60	3.000000e+00	5.787111e+05	
61	3.050000e+00	5.852544e+05	
62	3.100000e+00	5.916678e+05	
63	3.150000e+00	5.979551e+05	
64	3.200000e+00	6.041198e+05	
65	3.250000e+00	6.101655e+05	
66	3.300000e+00	6.160953e+05	
67	3.350000e+00	6.219127e+05	
68	3.400000e+00	6.276206e+05	
69	3.450000e+00	6.332220e+05	
70	3.500000e+00	6.387199e+05	
71	3.550000e+00	6.441170e+05	
72	3.600000e+00	6.494160e+05	
73	3.650000e+00	6.546195e+05	
74	3.700000e+00	6.597301e+05	
75	3.750000e+00	6.647502e+05	
76	3.800000e+00	6.696822e+05	
77	3.850000e+00	6.745282e+05	
78	3.900000e+00	6.792906e+05	
79	3.950000e+00	6.839714e+05	
80	4.000000e+00	6.885728e+05	
81	4.050000e+00	6.930966e+05	
82	4.100000e+00	6.975449e+05	
83	4.150000e+00	7.019195e+05	
84	4.200000e+00	7.062223e+05	
85	4.250000e+00	7.104549e+05	
86	4.300000e+00	7.146192e+05	
87	4.350000e+00	7.187166e+05	
88	4.400000e+00	7.227490e+05	
89	4.450000e+00	7.267177e+05	
90	4.500000e+00	7.306243e+05	
91	4.550000e+00	7.344703e+05	
92	4.600000e+00	7.382571e+05	
93	4.650000e+00	7.419861e+05	
94	4.700000e+00	7.456585e+05	
95	4.750000e+00	7.492758e+05	
96	4.800000e+00	7.528390e+05	
97	4.850000e+00	7.563496e+05	
98	4.900000e+00	7.598086e+05	
99	4.950000e+00	7.632173e+05	
100	5.000000e+00	7.665767e+05	
101	5.050000e+00	7.698879e+05	
102	5.100000e+00	7.731520e+05	
103	5.150000e+00	7.763701e+05	
104	5.200000e+00	7.795431e+05	
105	5.250000e+00	7.826719e+05	
106	5.300000e+00	7.857577e+05	
107	5.350000e+00	7.888012e+05	
108	5.400000e+00	7.918034e+05	
109	5.450000e+00	7.947651e+05	
110	5.500000e+00	7.976872e+05	
111	5.550000e+00	8.005706e+05	
112	5.600000e+00	8.034160e+05	

Index   v-sweep         rds             
--------------------------------------------------------------------------------
113	5.650000e+00	8.062242e+05	
114	5.700000e+00	8.089960e+05	
115	5.750000e+00	8.117322e+05	
116	5.800000e+00	8.144334e+05	
117	5.850000e+00	8.171005e+05	
118	5.900000e+00	8.197339e+05	
119	5.950000e+00	8.223346e+05	
120	6.000000e+00	8.249030e+05	
121	6.050000e+00	8.274398e+05	
122	6.100000e+00	8.299458e+05	
123	6.150000e+00	8.324214e+05	
124	6.200000e+00	8.348673e+05	
125	6.250000e+00	8.372840e+05	
126	6.300000e+00	8.396722e+05	
127	6.350000e+00	8.420323e+05	
128	6.400000e+00	8.443649e+05	
129	6.450000e+00	8.466706e+05	
130	6.500000e+00	8.489499e+05	
131	6.550000e+00	8.512032e+05	
132	6.600000e+00	8.534310e+05	
Reset re-loads circuit ***************************

Circuit: ***************************

Doing analysis at TEMP = 25.000000 and TNOM = 25.000000


No. of Data Rows : 133
                          ***************************
                          DC transfer characteristic  Mon Jan  9 13:57:42  2023
--------------------------------------------------------------------------------
Index   v-sweep         rds             
--------------------------------------------------------------------------------
0	0.000000e+00	8.080442e+03	
1	5.000000e-02	8.495433e+03	
2	1.000000e-01	8.940487e+03	
3	1.500000e-01	9.418928e+03	
4	2.000000e-01	9.934625e+03	
5	2.500000e-01	1.049212e+04	
6	3.000000e-01	1.109677e+04	
7	3.500000e-01	1.175495e+04	
8	4.000000e-01	1.247422e+04	
9	4.500000e-01	1.326365e+04	
10	5.000000e-01	1.413408e+04	
11	5.500000e-01	1.509865e+04	
12	6.000000e-01	1.617334e+04	
13	6.500000e-01	1.737788e+04	
14	7.000000e-01	1.873691e+04	
15	7.500000e-01	2.028192e+04	
16	8.000000e-01	2.205417e+04	
17	8.500000e-01	2.410962e+04	
18	9.000000e-01	2.652749e+04	
19	9.500000e-01	2.942519e+04	
20	1.000000e+00	3.298080e+04	
21	1.050000e+00	3.745206e+04	
22	1.100000e+00	4.314617e+04	
23	1.150000e+00	5.028606e+04	
24	1.200000e+00	5.884929e+04	
25	1.250000e+00	6.856883e+04	
26	1.300000e+00	7.908894e+04	
27	1.350000e+00	9.009805e+04	
28	1.400000e+00	1.013702e+05	
29	1.450000e+00	1.127549e+05	
30	1.500000e+00	1.241546e+05	
31	1.550000e+00	1.355068e+05	
32	1.600000e+00	1.467709e+05	
33	1.650000e+00	1.579210e+05	
34	1.700000e+00	1.689398e+05	
35	1.750000e+00	1.798165e+05	
36	1.800000e+00	1.905443e+05	
37	1.850000e+00	2.011191e+05	
38	1.900000e+00	2.115388e+05	
39	1.950000e+00	2.218027e+05	
40	2.000000e+00	2.319110e+05	
41	2.050000e+00	2.418647e+05	
42	2.100000e+00	2.516652e+05	
43	2.150000e+00	2.613144e+05	
44	2.200000e+00	2.708144e+05	
45	2.250000e+00	2.801675e+05	
46	2.300000e+00	2.893760e+05	
47	2.350000e+00	2.984425e+05	
48	2.400000e+00	3.073695e+05	
49	2.450000e+00	3.161596e+05	
50	2.500000e+00	3.248155e+05	
51	2.550000e+00	3.333397e+05	
52	2.600000e+00	3.417348e+05	
53	2.650000e+00	3.500034e+05	
54	2.700000e+00	3.581480e+05	

Index   v-sweep         rds             
--------------------------------------------------------------------------------
55	2.750000e+00	3.661711e+05	
56	2.800000e+00	3.740752e+05	
57	2.850000e+00	3.818626e+05	
58	2.900000e+00	3.895359e+05	
59	2.950000e+00	3.970972e+05	
60	3.000000e+00	4.045488e+05	
61	3.050000e+00	4.118931e+05	
62	3.100000e+00	4.191322e+05	
63	3.150000e+00	4.262682e+05	
64	3.200000e+00	4.333032e+05	
65	3.250000e+00	4.402392e+05	
66	3.300000e+00	4.470784e+05	
67	3.350000e+00	4.538225e+05	
68	3.400000e+00	4.604735e+05	
69	3.450000e+00	4.670334e+05	
70	3.500000e+00	4.735038e+05	
71	3.550000e+00	4.798866e+05	
72	3.600000e+00	4.861835e+05	
73	3.650000e+00	4.923962e+05	
74	3.700000e+00	4.985263e+05	
75	3.750000e+00	5.045755e+05	
76	3.800000e+00	5.105454e+05	
77	3.850000e+00	5.164374e+05	
78	3.900000e+00	5.222532e+05	
79	3.950000e+00	5.279940e+05	
80	4.000000e+00	5.336615e+05	
81	4.050000e+00	5.392569e+05	
82	4.100000e+00	5.447817e+05	
83	4.150000e+00	5.502372e+05	
84	4.200000e+00	5.556246e+05	
85	4.250000e+00	5.609453e+05	
86	4.300000e+00	5.662005e+05	
87	4.350000e+00	5.713914e+05	
88	4.400000e+00	5.765192e+05	
89	4.450000e+00	5.815851e+05	
90	4.500000e+00	5.865901e+05	
91	4.550000e+00	5.915355e+05	
92	4.600000e+00	5.964222e+05	
93	4.650000e+00	6.012514e+05	
94	4.700000e+00	6.060240e+05	
95	4.750000e+00	6.107411e+05	
96	4.800000e+00	6.154037e+05	
97	4.850000e+00	6.200126e+05	
98	4.900000e+00	6.245690e+05	
99	4.950000e+00	6.290736e+05	
100	5.000000e+00	6.335275e+05	
101	5.050000e+00	6.379314e+05	
102	5.100000e+00	6.422863e+05	
103	5.150000e+00	6.465929e+05	
104	5.200000e+00	6.508522e+05	
105	5.250000e+00	6.550649e+05	
106	5.300000e+00	6.592317e+05	
107	5.350000e+00	6.633536e+05	
108	5.400000e+00	6.674312e+05	
109	5.450000e+00	6.714653e+05	
110	5.500000e+00	6.754566e+05	
111	5.550000e+00	6.794058e+05	
112	5.600000e+00	6.833137e+05	

Index   v-sweep         rds             
--------------------------------------------------------------------------------
113	5.650000e+00	6.871808e+05	
114	5.700000e+00	6.910079e+05	
115	5.750000e+00	6.947956e+05	
116	5.800000e+00	6.985445e+05	
117	5.850000e+00	7.022553e+05	
118	5.900000e+00	7.059287e+05	
119	5.950000e+00	7.095651e+05	
120	6.000000e+00	7.131652e+05	
121	6.050000e+00	7.167295e+05	
122	6.100000e+00	7.202587e+05	
123	6.150000e+00	7.237533e+05	
124	6.200000e+00	7.272138e+05	
125	6.250000e+00	7.306407e+05	
126	6.300000e+00	7.340346e+05	
127	6.350000e+00	7.373960e+05	
128	6.400000e+00	7.407254e+05	
129	6.450000e+00	7.440233e+05	
130	6.500000e+00	7.472902e+05	
131	6.550000e+00	7.505265e+05	
132	6.600000e+00	7.537326e+05	
Reset re-loads circuit ***************************

Circuit: ***************************

Doing analysis at TEMP = 25.000000 and TNOM = 25.000000


No. of Data Rows : 133
                          ***************************
                          DC transfer characteristic  Mon Jan  9 13:57:42  2023
--------------------------------------------------------------------------------
Index   v-sweep         rds             
--------------------------------------------------------------------------------
0	0.000000e+00	6.500476e+03	
1	5.000000e-02	6.768340e+03	
2	1.000000e-01	7.050404e+03	
3	1.500000e-01	7.347791e+03	
4	2.000000e-01	7.661762e+03	
5	2.500000e-01	7.993744e+03	
6	3.000000e-01	8.345365e+03	
7	3.500000e-01	8.718488e+03	
8	4.000000e-01	9.115252e+03	
9	4.500000e-01	9.538104e+03	
10	5.000000e-01	9.989849e+03	
11	5.500000e-01	1.047370e+04	
12	6.000000e-01	1.099332e+04	
13	6.500000e-01	1.155292e+04	
14	7.000000e-01	1.215732e+04	
15	7.500000e-01	1.281209e+04	
16	8.000000e-01	1.352366e+04	
17	8.500000e-01	1.429957e+04	
18	9.000000e-01	1.514868e+04	
19	9.500000e-01	1.608165e+04	
20	1.000000e+00	1.711149e+04	
21	1.050000e+00	1.825453e+04	
22	1.100000e+00	1.953198e+04	
23	1.150000e+00	2.097270e+04	
24	1.200000e+00	2.261794e+04	
25	1.250000e+00	2.452970e+04	
26	1.300000e+00	2.680361e+04	
27	1.350000e+00	2.958372e+04	
28	1.400000e+00	3.306426e+04	
29	1.450000e+00	3.744963e+04	
30	1.500000e+00	4.286659e+04	
31	1.550000e+00	4.929231e+04	
32	1.600000e+00	5.657062e+04	
33	1.650000e+00	6.449110e+04	
34	1.700000e+00	7.285690e+04	
35	1.750000e+00	8.151264e+04	
36	1.800000e+00	9.034538e+04	
37	1.850000e+00	9.927591e+04	
38	1.900000e+00	1.082493e+05	
39	1.950000e+00	1.172273e+05	
40	2.000000e+00	1.261832e+05	
41	2.050000e+00	1.350981e+05	
42	2.100000e+00	1.439585e+05	
43	2.150000e+00	1.527548e+05	
44	2.200000e+00	1.614800e+05	
45	2.250000e+00	1.701292e+05	
46	2.300000e+00	1.786987e+05	
47	2.350000e+00	1.871862e+05	
48	2.400000e+00	1.955899e+05	
49	2.450000e+00	2.039088e+05	
50	2.500000e+00	2.121422e+05	
51	2.550000e+00	2.202899e+05	
52	2.600000e+00	2.283520e+05	
53	2.650000e+00	2.363287e+05	
54	2.700000e+00	2.442204e+05	

Index   v-sweep         rds             
--------------------------------------------------------------------------------
55	2.750000e+00	2.520278e+05	
56	2.800000e+00	2.597514e+05	
57	2.850000e+00	2.673921e+05	
58	2.900000e+00	2.749507e+05	
59	2.950000e+00	2.824280e+05	
60	3.000000e+00	2.898251e+05	
61	3.050000e+00	2.971427e+05	
62	3.100000e+00	3.043820e+05	
63	3.150000e+00	3.115439e+05	
64	3.200000e+00	3.186294e+05	
65	3.250000e+00	3.256396e+05	
66	3.300000e+00	3.325754e+05	
67	3.350000e+00	3.394378e+05	
68	3.400000e+00	3.462279e+05	
69	3.450000e+00	3.529467e+05	
70	3.500000e+00	3.595952e+05	
71	3.550000e+00	3.661743e+05	
72	3.600000e+00	3.726852e+05	
73	3.650000e+00	3.791286e+05	
74	3.700000e+00	3.855057e+05	
75	3.750000e+00	3.918173e+05	
76	3.800000e+00	3.980645e+05	
77	3.850000e+00	4.042481e+05	
78	3.900000e+00	4.103690e+05	
79	3.950000e+00	4.164282e+05	
80	4.000000e+00	4.224266e+05	
81	4.050000e+00	4.283650e+05	
82	4.100000e+00	4.342443e+05	
83	4.150000e+00	4.400654e+05	
84	4.200000e+00	4.458291e+05	
85	4.250000e+00	4.515362e+05	
86	4.300000e+00	4.571876e+05	
87	4.350000e+00	4.627840e+05	
88	4.400000e+00	4.683263e+05	
89	4.450000e+00	4.738152e+05	
90	4.500000e+00	4.792515e+05	
91	4.550000e+00	4.846359e+05	
92	4.600000e+00	4.899692e+05	
93	4.650000e+00	4.952521e+05	
94	4.700000e+00	5.004853e+05	
95	4.750000e+00	5.056695e+05	
96	4.800000e+00	5.108054e+05	
97	4.850000e+00	5.158937e+05	
98	4.900000e+00	5.209351e+05	
99	4.950000e+00	5.259302e+05	
100	5.000000e+00	5.308796e+05	
101	5.050000e+00	5.357841e+05	
102	5.100000e+00	5.406442e+05	
103	5.150000e+00	5.454605e+05	
104	5.200000e+00	5.502336e+05	
105	5.250000e+00	5.549642e+05	
106	5.300000e+00	5.596528e+05	
107	5.350000e+00	5.642999e+05	
108	5.400000e+00	5.689063e+05	
109	5.450000e+00	5.734723e+05	
110	5.500000e+00	5.779986e+05	
111	5.550000e+00	5.824857e+05	
112	5.600000e+00	5.869341e+05	

Index   v-sweep         rds             
--------------------------------------------------------------------------------
113	5.650000e+00	5.913443e+05	
114	5.700000e+00	5.957169e+05	
115	5.750000e+00	6.000524e+05	
116	5.800000e+00	6.043511e+05	
117	5.850000e+00	6.086137e+05	
118	5.900000e+00	6.128407e+05	
119	5.950000e+00	6.170323e+05	
120	6.000000e+00	6.211893e+05	
121	6.050000e+00	6.253119e+05	
122	6.100000e+00	6.294006e+05	
123	6.150000e+00	6.334559e+05	
124	6.200000e+00	6.374783e+05	
125	6.250000e+00	6.414680e+05	
126	6.300000e+00	6.454256e+05	
127	6.350000e+00	6.493515e+05	
128	6.400000e+00	6.532461e+05	
129	6.450000e+00	6.571097e+05	
130	6.500000e+00	6.609428e+05	
131	6.550000e+00	6.647457e+05	
132	6.600000e+00	6.685188e+05	
Reset re-loads circuit ***************************

Circuit: ***************************

Doing analysis at TEMP = 25.000000 and TNOM = 25.000000


No. of Data Rows : 133
                          ***************************
                          DC transfer characteristic  Mon Jan  9 13:57:42  2023
--------------------------------------------------------------------------------
Index   v-sweep         rds             
--------------------------------------------------------------------------------
0	0.000000e+00	5.677256e+03	
1	5.000000e-02	5.874387e+03	
2	1.000000e-01	6.079804e+03	
3	1.500000e-01	6.294015e+03	
4	2.000000e-01	6.517579e+03	
5	2.500000e-01	6.751118e+03	
6	3.000000e-01	6.995325e+03	
7	3.500000e-01	7.250979e+03	
8	4.000000e-01	7.518958e+03	
9	4.500000e-01	7.800249e+03	
10	5.000000e-01	8.095962e+03	
11	5.500000e-01	8.407345e+03	
12	6.000000e-01	8.735791e+03	
13	6.500000e-01	9.082859e+03	
14	7.000000e-01	9.450283e+03	
15	7.500000e-01	9.839996e+03	
16	8.000000e-01	1.025415e+04	
17	8.500000e-01	1.069513e+04	
18	9.000000e-01	1.116561e+04	
19	9.500000e-01	1.166856e+04	
20	1.000000e+00	1.220734e+04	
21	1.050000e+00	1.278573e+04	
22	1.100000e+00	1.340803e+04	
23	1.150000e+00	1.407918e+04	
24	1.200000e+00	1.480498e+04	
25	1.250000e+00	1.559228e+04	
26	1.300000e+00	1.644947e+04	
27	1.350000e+00	1.738705e+04	
28	1.400000e+00	1.841880e+04	
29	1.450000e+00	1.956359e+04	
30	1.500000e+00	2.084851e+04	
31	1.550000e+00	2.231410e+04	
32	1.600000e+00	2.402217e+04	
33	1.650000e+00	2.606508e+04	
34	1.700000e+00	2.857020e+04	
35	1.750000e+00	3.168592e+04	
36	1.800000e+00	3.553906e+04	
37	1.850000e+00	4.018102e+04	
38	1.900000e+00	4.556545e+04	
39	1.950000e+00	5.157470e+04	
40	2.000000e+00	5.806703e+04	
41	2.050000e+00	6.491140e+04	
42	2.100000e+00	7.200175e+04	
43	2.150000e+00	7.925790e+04	
44	2.200000e+00	8.662113e+04	
45	2.250000e+00	9.404892e+04	
46	2.300000e+00	1.015105e+05	
47	2.350000e+00	1.089833e+05	
48	2.400000e+00	1.164510e+05	
49	2.450000e+00	1.239012e+05	
50	2.500000e+00	1.313249e+05	
51	2.550000e+00	1.387151e+05	
52	2.600000e+00	1.460665e+05	
53	2.650000e+00	1.533752e+05	
54	2.700000e+00	1.606380e+05	

Index   v-sweep         rds             
--------------------------------------------------------------------------------
55	2.750000e+00	1.678527e+05	
56	2.800000e+00	1.750174e+05	
57	2.850000e+00	1.821309e+05	
58	2.900000e+00	1.891920e+05	
59	2.950000e+00	1.962001e+05	
60	3.000000e+00	2.031547e+05	
61	3.050000e+00	2.100555e+05	
62	3.100000e+00	2.169022e+05	
63	3.150000e+00	2.236949e+05	
64	3.200000e+00	2.304336e+05	
65	3.250000e+00	2.371184e+05	
66	3.300000e+00	2.437495e+05	
67	3.350000e+00	2.503272e+05	
68	3.400000e+00	2.568516e+05	
69	3.450000e+00	2.633233e+05	
70	3.500000e+00	2.697425e+05	
71	3.550000e+00	2.761096e+05	
72	3.600000e+00	2.824251e+05	
73	3.650000e+00	2.886893e+05	
74	3.700000e+00	2.949028e+05	
75	3.750000e+00	3.010659e+05	
76	3.800000e+00	3.071791e+05	
77	3.850000e+00	3.132430e+05	
78	3.900000e+00	3.192579e+05	
79	3.950000e+00	3.252244e+05	
80	4.000000e+00	3.311430e+05	
81	4.050000e+00	3.370142e+05	
82	4.100000e+00	3.428384e+05	
83	4.150000e+00	3.486161e+05	
84	4.200000e+00	3.543478e+05	
85	4.250000e+00	3.600340e+05	
86	4.300000e+00	3.656753e+05	
87	4.350000e+00	3.712720e+05	
88	4.400000e+00	3.768247e+05	
89	4.450000e+00	3.823338e+05	
90	4.500000e+00	3.877999e+05	
91	4.550000e+00	3.932233e+05	
92	4.600000e+00	3.986046e+05	
93	4.650000e+00	4.039442e+05	
94	4.700000e+00	4.092426e+05	
95	4.750000e+00	4.145003e+05	
96	4.800000e+00	4.197176e+05	
97	4.850000e+00	4.248951e+05	
98	4.900000e+00	4.300331e+05	
99	4.950000e+00	4.351322e+05	
100	5.000000e+00	4.401927e+05	
101	5.050000e+00	4.452151e+05	
102	5.100000e+00	4.501998e+05	
103	5.150000e+00	4.551472e+05	
104	5.200000e+00	4.600578e+05	
105	5.250000e+00	4.649319e+05	
106	5.300000e+00	4.697700e+05	
107	5.350000e+00	4.745724e+05	
108	5.400000e+00	4.793395e+05	
109	5.450000e+00	4.840718e+05	
110	5.500000e+00	4.887695e+05	
111	5.550000e+00	4.934332e+05	
112	5.600000e+00	4.980632e+05	

Index   v-sweep         rds             
--------------------------------------------------------------------------------
113	5.650000e+00	5.026598e+05	
114	5.700000e+00	5.072233e+05	
115	5.750000e+00	5.117543e+05	
116	5.800000e+00	5.162530e+05	
117	5.850000e+00	5.207198e+05	
118	5.900000e+00	5.251550e+05	
119	5.950000e+00	5.295589e+05	
120	6.000000e+00	5.339320e+05	
121	6.050000e+00	5.382745e+05	
122	6.100000e+00	5.425868e+05	
123	6.150000e+00	5.468692e+05	
124	6.200000e+00	5.511220e+05	
125	6.250000e+00	5.553456e+05	
126	6.300000e+00	5.595402e+05	
127	6.350000e+00	5.637061e+05	
128	6.400000e+00	5.678438e+05	
129	6.450000e+00	5.719534e+05	
130	6.500000e+00	5.760352e+05	
131	6.550000e+00	5.800897e+05	
132	6.600000e+00	5.841170e+05	
Reset re-loads circuit ***************************

Circuit: ***************************

Doing analysis at TEMP = 25.000000 and TNOM = 25.000000


No. of Data Rows : 133
                          ***************************
                          DC transfer characteristic  Mon Jan  9 13:57:42  2023
--------------------------------------------------------------------------------
Index   v-sweep         rds             
--------------------------------------------------------------------------------
0	0.000000e+00	5.207408e+03	
1	5.000000e-02	5.363499e+03	
2	1.000000e-01	5.525023e+03	
3	1.500000e-01	5.692254e+03	
4	2.000000e-01	5.865485e+03	
5	2.500000e-01	6.045038e+03	
6	3.000000e-01	6.231268e+03	
7	3.500000e-01	6.424565e+03	
8	4.000000e-01	6.625366e+03	
9	4.500000e-01	6.834153e+03	
10	5.000000e-01	7.051465e+03	
11	5.500000e-01	7.277900e+03	
12	6.000000e-01	7.514118e+03	
13	6.500000e-01	7.760850e+03	
14	7.000000e-01	8.018901e+03	
15	7.500000e-01	8.289153e+03	
16	8.000000e-01	8.572575e+03	
17	8.500000e-01	8.870224e+03	
18	9.000000e-01	9.183256e+03	
19	9.500000e-01	9.512930e+03	
20	1.000000e+00	9.860621e+03	
21	1.050000e+00	1.022783e+04	
22	1.100000e+00	1.061619e+04	
23	1.150000e+00	1.102750e+04	
24	1.200000e+00	1.146373e+04	
25	1.250000e+00	1.192705e+04	
26	1.300000e+00	1.241987e+04	
27	1.350000e+00	1.294489e+04	
28	1.400000e+00	1.350516e+04	
29	1.450000e+00	1.410413e+04	
30	1.500000e+00	1.474586e+04	
31	1.550000e+00	1.543513e+04	
32	1.600000e+00	1.617778e+04	
33	1.650000e+00	1.698113e+04	
34	1.700000e+00	1.785479e+04	
35	1.750000e+00	1.881188e+04	
36	1.800000e+00	1.987101e+04	
37	1.850000e+00	2.105962e+04	
38	1.900000e+00	2.241868e+04	
39	1.950000e+00	2.400865e+04	
40	2.000000e+00	2.591387e+04	
41	2.050000e+00	2.823918e+04	
42	2.100000e+00	3.109091e+04	
43	2.150000e+00	3.454372e+04	
44	2.200000e+00	3.861190e+04	
45	2.250000e+00	4.324643e+04	
46	2.300000e+00	4.835763e+04	
47	2.350000e+00	5.384417e+04	
48	2.400000e+00	5.961295e+04	
49	2.450000e+00	6.558736e+04	
50	2.500000e+00	7.170793e+04	
51	2.550000e+00	7.792987e+04	
52	2.600000e+00	8.421980e+04	
53	2.650000e+00	9.055293e+04	
54	2.700000e+00	9.691070e+04	

Index   v-sweep         rds             
--------------------------------------------------------------------------------
55	2.750000e+00	1.032792e+05	
56	2.800000e+00	1.096477e+05	
57	2.850000e+00	1.160083e+05	
58	2.900000e+00	1.223546e+05	
59	2.950000e+00	1.286817e+05	
60	3.000000e+00	1.349858e+05	
61	3.050000e+00	1.412638e+05	
62	3.100000e+00	1.475134e+05	
63	3.150000e+00	1.537327e+05	
64	3.200000e+00	1.599200e+05	
65	3.250000e+00	1.660743e+05	
66	3.300000e+00	1.721945e+05	
67	3.350000e+00	1.782798e+05	
68	3.400000e+00	1.843298e+05	
69	3.450000e+00	1.903439e+05	
70	3.500000e+00	1.963218e+05	
71	3.550000e+00	2.022632e+05	
72	3.600000e+00	2.081679e+05	
73	3.650000e+00	2.140359e+05	
74	3.700000e+00	2.198671e+05	
75	3.750000e+00	2.256615e+05	
76	3.800000e+00	2.314192e+05	
77	3.850000e+00	2.371402e+05	
78	3.900000e+00	2.428246e+05	
79	3.950000e+00	2.484725e+05	
80	4.000000e+00	2.540841e+05	
81	4.050000e+00	2.596596e+05	
82	4.100000e+00	2.651991e+05	
83	4.150000e+00	2.707029e+05	
84	4.200000e+00	2.761712e+05	
85	4.250000e+00	2.816041e+05	
86	4.300000e+00	2.870019e+05	
87	4.350000e+00	2.923649e+05	
88	4.400000e+00	2.976933e+05	
89	4.450000e+00	3.029873e+05	
90	4.500000e+00	3.082472e+05	
91	4.550000e+00	3.134732e+05	
92	4.600000e+00	3.186657e+05	
93	4.650000e+00	3.238248e+05	
94	4.700000e+00	3.289508e+05	
95	4.750000e+00	3.340441e+05	
96	4.800000e+00	3.391048e+05	
97	4.850000e+00	3.441333e+05	
98	4.900000e+00	3.491297e+05	
99	4.950000e+00	3.540945e+05	
100	5.000000e+00	3.590278e+05	
101	5.050000e+00	3.639299e+05	
102	5.100000e+00	3.688010e+05	
103	5.150000e+00	3.736415e+05	
104	5.200000e+00	3.784517e+05	
105	5.250000e+00	3.832316e+05	
106	5.300000e+00	3.879818e+05	
107	5.350000e+00	3.927023e+05	
108	5.400000e+00	3.973935e+05	
109	5.450000e+00	4.020556e+05	
110	5.500000e+00	4.066888e+05	
111	5.550000e+00	4.112935e+05	
112	5.600000e+00	4.158699e+05	

Index   v-sweep         rds             
--------------------------------------------------------------------------------
113	5.650000e+00	4.204182e+05	
114	5.700000e+00	4.249387e+05	
115	5.750000e+00	4.294316e+05	
116	5.800000e+00	4.338972e+05	
117	5.850000e+00	4.383357e+05	
118	5.900000e+00	4.427474e+05	
119	5.950000e+00	4.471325e+05	
120	6.000000e+00	4.514912e+05	
121	6.050000e+00	4.558238e+05	
122	6.100000e+00	4.601305e+05	
123	6.150000e+00	4.644116e+05	
124	6.200000e+00	4.686672e+05	
125	6.250000e+00	4.728976e+05	
126	6.300000e+00	4.771030e+05	
127	6.350000e+00	4.812837e+05	
128	6.400000e+00	4.854399e+05	
129	6.450000e+00	4.895717e+05	
130	6.500000e+00	4.936795e+05	
131	6.550000e+00	4.977633e+05	
132	6.600000e+00	5.018235e+05	
Reset re-loads circuit ***************************

Circuit: ***************************

Note: No ".plot", ".print", or ".fourier" lines; no simulations run
