
Note: Compatibility modes selected: hs

Warning: m=xx on .subckt line will override multiplier m hierarchy!


Circuit: ***************************

Doing analysis at TEMP = 125.000000 and TNOM = 125.000000


No. of Data Rows : 133
                          ***************************
                          DC transfer characteristic  Mon Jan  9 13:57:42  2023
--------------------------------------------------------------------------------
Index   v-sweep         rds             
--------------------------------------------------------------------------------
0	0.000000e+00	6.196689e+03	
1	5.000000e-02	7.493034e+03	
2	1.000000e-01	9.413004e+03	
3	1.500000e-01	1.251842e+04	
4	2.000000e-01	1.819635e+04	
5	2.500000e-01	3.012860e+04	
6	3.000000e-01	5.564147e+04	
7	3.500000e-01	9.640098e+04	
8	4.000000e-01	1.403747e+05	
9	4.500000e-01	1.799511e+05	
10	5.000000e-01	2.151338e+05	
11	5.500000e-01	2.472985e+05	
12	6.000000e-01	2.774055e+05	
13	6.500000e-01	3.060066e+05	
14	7.000000e-01	3.334193e+05	
15	7.500000e-01	3.598351e+05	
16	8.000000e-01	3.853776e+05	
17	8.500000e-01	4.101319e+05	
18	9.000000e-01	4.341603e+05	
19	9.500000e-01	4.575109e+05	
20	1.000000e+00	4.802228e+05	
21	1.050000e+00	5.023289e+05	
22	1.100000e+00	5.238576e+05	
23	1.150000e+00	5.448341e+05	
24	1.200000e+00	5.652814e+05	
25	1.250000e+00	5.852203e+05	
26	1.300000e+00	6.046701e+05	
27	1.350000e+00	6.236488e+05	
28	1.400000e+00	6.421734e+05	
29	1.450000e+00	6.602598e+05	
30	1.500000e+00	6.779230e+05	
31	1.550000e+00	6.951774e+05	
32	1.600000e+00	7.120366e+05	
33	1.650000e+00	7.285134e+05	
34	1.700000e+00	7.446203e+05	
35	1.750000e+00	7.603691e+05	
36	1.800000e+00	7.757711e+05	
37	1.850000e+00	7.908370e+05	
38	1.900000e+00	8.055774e+05	
39	1.950000e+00	8.200021e+05	
40	2.000000e+00	8.341206e+05	
41	2.050000e+00	8.479423e+05	
42	2.100000e+00	8.614757e+05	
43	2.150000e+00	8.747295e+05	
44	2.200000e+00	8.877118e+05	
45	2.250000e+00	9.004304e+05	
46	2.300000e+00	9.128929e+05	
47	2.350000e+00	9.251065e+05	
48	2.400000e+00	9.370782e+05	
49	2.450000e+00	9.488148e+05	
50	2.500000e+00	9.603228e+05	
51	2.550000e+00	9.716084e+05	
52	2.600000e+00	9.826777e+05	
53	2.650000e+00	9.935366e+05	
54	2.700000e+00	1.004191e+06	

Index   v-sweep         rds             
--------------------------------------------------------------------------------
55	2.750000e+00	1.014645e+06	
56	2.800000e+00	1.024906e+06	
57	2.850000e+00	1.034977e+06	
58	2.900000e+00	1.044865e+06	
59	2.950000e+00	1.054572e+06	
60	3.000000e+00	1.064106e+06	
61	3.050000e+00	1.073468e+06	
62	3.100000e+00	1.082665e+06	
63	3.150000e+00	1.091699e+06	
64	3.200000e+00	1.100576e+06	
65	3.250000e+00	1.109299e+06	
66	3.300000e+00	1.117871e+06	
67	3.350000e+00	1.126297e+06	
68	3.400000e+00	1.134579e+06	
69	3.450000e+00	1.142722e+06	
70	3.500000e+00	1.150729e+06	
71	3.550000e+00	1.158602e+06	
72	3.600000e+00	1.166346e+06	
73	3.650000e+00	1.173962e+06	
74	3.700000e+00	1.181454e+06	
75	3.750000e+00	1.188826e+06	
76	3.800000e+00	1.196078e+06	
77	3.850000e+00	1.203215e+06	
78	3.900000e+00	1.210239e+06	
79	3.950000e+00	1.217152e+06	
80	4.000000e+00	1.223956e+06	
81	4.050000e+00	1.230655e+06	
82	4.100000e+00	1.237251e+06	
83	4.150000e+00	1.243745e+06	
84	4.200000e+00	1.250140e+06	
85	4.250000e+00	1.256438e+06	
86	4.300000e+00	1.262642e+06	
87	4.350000e+00	1.268752e+06	
88	4.400000e+00	1.274772e+06	
89	4.450000e+00	1.280702e+06	
90	4.500000e+00	1.286546e+06	
91	4.550000e+00	1.292304e+06	
92	4.600000e+00	1.297978e+06	
93	4.650000e+00	1.303571e+06	
94	4.700000e+00	1.309083e+06	
95	4.750000e+00	1.314517e+06	
96	4.800000e+00	1.319873e+06	
97	4.850000e+00	1.325154e+06	
98	4.900000e+00	1.330362e+06	
99	4.950000e+00	1.335496e+06	
100	5.000000e+00	1.340560e+06	
101	5.050000e+00	1.345553e+06	
102	5.100000e+00	1.350479e+06	
103	5.150000e+00	1.355337e+06	
104	5.200000e+00	1.360130e+06	
105	5.250000e+00	1.364857e+06	
106	5.300000e+00	1.369522e+06	
107	5.350000e+00	1.374124e+06	
108	5.400000e+00	1.378666e+06	
109	5.450000e+00	1.383148e+06	
110	5.500000e+00	1.387571e+06	
111	5.550000e+00	1.391936e+06	
112	5.600000e+00	1.396244e+06	

Index   v-sweep         rds             
--------------------------------------------------------------------------------
113	5.650000e+00	1.400497e+06	
114	5.700000e+00	1.404696e+06	
115	5.750000e+00	1.408841e+06	
116	5.800000e+00	1.412933e+06	
117	5.850000e+00	1.416974e+06	
118	5.900000e+00	1.420964e+06	
119	5.950000e+00	1.424904e+06	
120	6.000000e+00	1.428795e+06	
121	6.050000e+00	1.432637e+06	
122	6.100000e+00	1.436433e+06	
123	6.150000e+00	1.440182e+06	
124	6.200000e+00	1.443885e+06	
125	6.250000e+00	1.447543e+06	
126	6.300000e+00	1.451158e+06	
127	6.350000e+00	1.454728e+06	
128	6.400000e+00	1.458257e+06	
129	6.450000e+00	1.461743e+06	
130	6.500000e+00	1.465187e+06	
131	6.550000e+00	1.468592e+06	
132	6.600000e+00	1.471956e+06	
Reset re-loads circuit ***************************

Circuit: ***************************

Doing analysis at TEMP = 125.000000 and TNOM = 125.000000


No. of Data Rows : 133
                          ***************************
                          DC transfer characteristic  Mon Jan  9 13:57:43  2023
--------------------------------------------------------------------------------
Index   v-sweep         rds             
--------------------------------------------------------------------------------
0	0.000000e+00	1.944808e+03	
1	5.000000e-02	2.075860e+03	
2	1.000000e-01	2.222342e+03	
3	1.500000e-01	2.387131e+03	
4	2.000000e-01	2.573864e+03	
5	2.500000e-01	2.787203e+03	
6	3.000000e-01	3.033227e+03	
7	3.500000e-01	3.319998e+03	
8	4.000000e-01	3.658439e+03	
9	4.500000e-01	4.063682e+03	
10	5.000000e-01	4.557247e+03	
11	5.500000e-01	5.170590e+03	
12	6.000000e-01	5.951018e+03	
13	6.500000e-01	6.971330e+03	
14	7.000000e-01	8.343979e+03	
15	7.500000e-01	1.023417e+04	
16	8.000000e-01	1.284387e+04	
17	8.500000e-01	1.631490e+04	
18	9.000000e-01	2.058844e+04	
19	9.500000e-01	2.541839e+04	
20	1.000000e+00	3.054465e+04	
21	1.050000e+00	3.579695e+04	
22	1.100000e+00	4.108654e+04	
23	1.150000e+00	4.637088e+04	
24	1.200000e+00	5.162970e+04	
25	1.250000e+00	5.685313e+04	
26	1.300000e+00	6.203624e+04	
27	1.350000e+00	6.717653e+04	
28	1.400000e+00	7.227276e+04	
29	1.450000e+00	7.732439e+04	
30	1.500000e+00	8.233124e+04	
31	1.550000e+00	8.729339e+04	
32	1.600000e+00	9.221104e+04	
33	1.650000e+00	9.708450e+04	
34	1.700000e+00	1.019141e+05	
35	1.750000e+00	1.067003e+05	
36	1.800000e+00	1.114435e+05	
37	1.850000e+00	1.161440e+05	
38	1.900000e+00	1.208025e+05	
39	1.950000e+00	1.254192e+05	
40	2.000000e+00	1.299947e+05	
41	2.050000e+00	1.345295e+05	
42	2.100000e+00	1.390240e+05	
43	2.150000e+00	1.434786e+05	
44	2.200000e+00	1.478938e+05	
45	2.250000e+00	1.522701e+05	
46	2.300000e+00	1.566079e+05	
47	2.350000e+00	1.609077e+05	
48	2.400000e+00	1.651699e+05	
49	2.450000e+00	1.693950e+05	
50	2.500000e+00	1.735833e+05	
51	2.550000e+00	1.777354e+05	
52	2.600000e+00	1.818516e+05	
53	2.650000e+00	1.859323e+05	
54	2.700000e+00	1.899780e+05	

Index   v-sweep         rds             
--------------------------------------------------------------------------------
55	2.750000e+00	1.939891e+05	
56	2.800000e+00	1.979660e+05	
57	2.850000e+00	2.019091e+05	
58	2.900000e+00	2.058188e+05	
59	2.950000e+00	2.096955e+05	
60	3.000000e+00	2.135395e+05	
61	3.050000e+00	2.173512e+05	
62	3.100000e+00	2.211311e+05	
63	3.150000e+00	2.248794e+05	
64	3.200000e+00	2.285966e+05	
65	3.250000e+00	2.322830e+05	
66	3.300000e+00	2.359390e+05	
67	3.350000e+00	2.395648e+05	
68	3.400000e+00	2.431610e+05	
69	3.450000e+00	2.467277e+05	
70	3.500000e+00	2.502653e+05	
71	3.550000e+00	2.537743e+05	
72	3.600000e+00	2.572548e+05	
73	3.650000e+00	2.607072e+05	
74	3.700000e+00	2.641319e+05	
75	3.750000e+00	2.675291e+05	
76	3.800000e+00	2.708991e+05	
77	3.850000e+00	2.742423e+05	
78	3.900000e+00	2.775590e+05	
79	3.950000e+00	2.808494e+05	
80	4.000000e+00	2.841139e+05	
81	4.050000e+00	2.873528e+05	
82	4.100000e+00	2.905662e+05	
83	4.150000e+00	2.937545e+05	
84	4.200000e+00	2.969181e+05	
85	4.250000e+00	3.000570e+05	
86	4.300000e+00	3.031717e+05	
87	4.350000e+00	3.062624e+05	
88	4.400000e+00	3.093293e+05	
89	4.450000e+00	3.123728e+05	
90	4.500000e+00	3.153930e+05	
91	4.550000e+00	3.183902e+05	
92	4.600000e+00	3.213647e+05	
93	4.650000e+00	3.243167e+05	
94	4.700000e+00	3.272464e+05	
95	4.750000e+00	3.301541e+05	
96	4.800000e+00	3.330400e+05	
97	4.850000e+00	3.359044e+05	
98	4.900000e+00	3.387475e+05	
99	4.950000e+00	3.415695e+05	
100	5.000000e+00	3.443706e+05	
101	5.050000e+00	3.471510e+05	
102	5.100000e+00	3.499110e+05	
103	5.150000e+00	3.526508e+05	
104	5.200000e+00	3.553706e+05	
105	5.250000e+00	3.580706e+05	
106	5.300000e+00	3.607510e+05	
107	5.350000e+00	3.634120e+05	
108	5.400000e+00	3.660537e+05	
109	5.450000e+00	3.686765e+05	
110	5.500000e+00	3.712805e+05	
111	5.550000e+00	3.738659e+05	
112	5.600000e+00	3.764329e+05	

Index   v-sweep         rds             
--------------------------------------------------------------------------------
113	5.650000e+00	3.789816e+05	
114	5.700000e+00	3.815122e+05	
115	5.750000e+00	3.840251e+05	
116	5.800000e+00	3.865202e+05	
117	5.850000e+00	3.889978e+05	
118	5.900000e+00	3.914581e+05	
119	5.950000e+00	3.939012e+05	
120	6.000000e+00	3.963273e+05	
121	6.050000e+00	3.987366e+05	
122	6.100000e+00	4.011293e+05	
123	6.150000e+00	4.035054e+05	
124	6.200000e+00	4.058653e+05	
125	6.250000e+00	4.082089e+05	
126	6.300000e+00	4.105366e+05	
127	6.350000e+00	4.128484e+05	
128	6.400000e+00	4.151445e+05	
129	6.450000e+00	4.174251e+05	
130	6.500000e+00	4.196902e+05	
131	6.550000e+00	4.219401e+05	
132	6.600000e+00	4.241750e+05	
Reset re-loads circuit ***************************

Circuit: ***************************

Doing analysis at TEMP = 125.000000 and TNOM = 125.000000


No. of Data Rows : 133
                          ***************************
                          DC transfer characteristic  Mon Jan  9 13:57:43  2023
--------------------------------------------------------------------------------
Index   v-sweep         rds             
--------------------------------------------------------------------------------
0	0.000000e+00	1.270501e+03	
1	5.000000e-02	1.326926e+03	
2	1.000000e-01	1.387238e+03	
3	1.500000e-01	1.451845e+03	
4	2.000000e-01	1.521220e+03	
5	2.500000e-01	1.595904e+03	
6	3.000000e-01	1.676524e+03	
7	3.500000e-01	1.763812e+03	
8	4.000000e-01	1.858622e+03	
9	4.500000e-01	1.961962e+03	
10	5.000000e-01	2.075030e+03	
11	5.500000e-01	2.199257e+03	
12	6.000000e-01	2.336369e+03	
13	6.500000e-01	2.488470e+03	
14	7.000000e-01	2.658143e+03	
15	7.500000e-01	2.848604e+03	
16	8.000000e-01	3.063903e+03	
17	8.500000e-01	3.309212e+03	
18	9.000000e-01	3.591244e+03	
19	9.500000e-01	3.918864e+03	
20	1.000000e+00	4.304008e+03	
21	1.050000e+00	4.763072e+03	
22	1.100000e+00	5.318980e+03	
23	1.150000e+00	6.004022e+03	
24	1.200000e+00	6.862739e+03	
25	1.250000e+00	7.951583e+03	
26	1.300000e+00	9.328328e+03	
27	1.350000e+00	1.102755e+04	
28	1.400000e+00	1.303793e+04	
29	1.450000e+00	1.530634e+04	
30	1.500000e+00	1.776424e+04	
31	1.550000e+00	2.035050e+04	
32	1.600000e+00	2.301954e+04	
33	1.650000e+00	2.574009e+04	
34	1.700000e+00	2.849142e+04	
35	1.750000e+00	3.125981e+04	
36	1.800000e+00	3.403612e+04	
37	1.850000e+00	3.681414e+04	
38	1.900000e+00	3.958958e+04	
39	1.950000e+00	4.235944e+04	
40	2.000000e+00	4.512157e+04	
41	2.050000e+00	4.787439e+04	
42	2.100000e+00	5.061678e+04	
43	2.150000e+00	5.334786e+04	
44	2.200000e+00	5.606702e+04	
45	2.250000e+00	5.877377e+04	
46	2.300000e+00	6.146777e+04	
47	2.350000e+00	6.414874e+04	
48	2.400000e+00	6.681648e+04	
49	2.450000e+00	6.947087e+04	
50	2.500000e+00	7.211179e+04	
51	2.550000e+00	7.473918e+04	
52	2.600000e+00	7.735301e+04	
53	2.650000e+00	7.995326e+04	
54	2.700000e+00	8.253992e+04	

Index   v-sweep         rds             
--------------------------------------------------------------------------------
55	2.750000e+00	8.511301e+04	
56	2.800000e+00	8.767256e+04	
57	2.850000e+00	9.021861e+04	
58	2.900000e+00	9.275120e+04	
59	2.950000e+00	9.527037e+04	
60	3.000000e+00	9.777620e+04	
61	3.050000e+00	1.002687e+05	
62	3.100000e+00	1.027480e+05	
63	3.150000e+00	1.052142e+05	
64	3.200000e+00	1.076673e+05	
65	3.250000e+00	1.101073e+05	
66	3.300000e+00	1.125344e+05	
67	3.350000e+00	1.149487e+05	
68	3.400000e+00	1.173502e+05	
69	3.450000e+00	1.197389e+05	
70	3.500000e+00	1.221151e+05	
71	3.550000e+00	1.244787e+05	
72	3.600000e+00	1.268299e+05	
73	3.650000e+00	1.291686e+05	
74	3.700000e+00	1.314951e+05	
75	3.750000e+00	1.338093e+05	
76	3.800000e+00	1.361114e+05	
77	3.850000e+00	1.384015e+05	
78	3.900000e+00	1.406796e+05	
79	3.950000e+00	1.429458e+05	
80	4.000000e+00	1.452002e+05	
81	4.050000e+00	1.474428e+05	
82	4.100000e+00	1.496738e+05	
83	4.150000e+00	1.518933e+05	
84	4.200000e+00	1.541012e+05	
85	4.250000e+00	1.562978e+05	
86	4.300000e+00	1.584830e+05	
87	4.350000e+00	1.606570e+05	
88	4.400000e+00	1.628198e+05	
89	4.450000e+00	1.649715e+05	
90	4.500000e+00	1.671121e+05	
91	4.550000e+00	1.692419e+05	
92	4.600000e+00	1.713608e+05	
93	4.650000e+00	1.734689e+05	
94	4.700000e+00	1.755663e+05	
95	4.750000e+00	1.776530e+05	
96	4.800000e+00	1.797292e+05	
97	4.850000e+00	1.817949e+05	
98	4.900000e+00	1.838502e+05	
99	4.950000e+00	1.858951e+05	
100	5.000000e+00	1.879298e+05	
101	5.050000e+00	1.899543e+05	
102	5.100000e+00	1.919686e+05	
103	5.150000e+00	1.939729e+05	
104	5.200000e+00	1.959672e+05	
105	5.250000e+00	1.979516e+05	
106	5.300000e+00	1.999261e+05	
107	5.350000e+00	2.018908e+05	
108	5.400000e+00	2.038459e+05	
109	5.450000e+00	2.057913e+05	
110	5.500000e+00	2.077271e+05	
111	5.550000e+00	2.096534e+05	
112	5.600000e+00	2.115703e+05	

Index   v-sweep         rds             
--------------------------------------------------------------------------------
113	5.650000e+00	2.134777e+05	
114	5.700000e+00	2.153759e+05	
115	5.750000e+00	2.172648e+05	
116	5.800000e+00	2.191445e+05	
117	5.850000e+00	2.210151e+05	
118	5.900000e+00	2.228767e+05	
119	5.950000e+00	2.247292e+05	
120	6.000000e+00	2.265728e+05	
121	6.050000e+00	2.284075e+05	
122	6.100000e+00	2.302334e+05	
123	6.150000e+00	2.320505e+05	
124	6.200000e+00	2.338589e+05	
125	6.250000e+00	2.356587e+05	
126	6.300000e+00	2.374500e+05	
127	6.350000e+00	2.392326e+05	
128	6.400000e+00	2.410069e+05	
129	6.450000e+00	2.427727e+05	
130	6.500000e+00	2.445302e+05	
131	6.550000e+00	2.462793e+05	
132	6.600000e+00	2.480203e+05	
Reset re-loads circuit ***************************

Circuit: ***************************

Doing analysis at TEMP = 125.000000 and TNOM = 125.000000


No. of Data Rows : 133
                          ***************************
                          DC transfer characteristic  Mon Jan  9 13:57:43  2023
--------------------------------------------------------------------------------
Index   v-sweep         rds             
--------------------------------------------------------------------------------
0	0.000000e+00	1.009525e+03	
1	5.000000e-02	1.044005e+03	
2	1.000000e-01	1.080177e+03	
3	1.500000e-01	1.118165e+03	
4	2.000000e-01	1.158108e+03	
5	2.500000e-01	1.200158e+03	
6	3.000000e-01	1.244482e+03	
7	3.500000e-01	1.291268e+03	
8	4.000000e-01	1.340724e+03	
9	4.500000e-01	1.393082e+03	
10	5.000000e-01	1.448601e+03	
11	5.500000e-01	1.507575e+03	
12	6.000000e-01	1.570331e+03	
13	6.500000e-01	1.637243e+03	
14	7.000000e-01	1.708734e+03	
15	7.500000e-01	1.785287e+03	
16	8.000000e-01	1.867455e+03	
17	8.500000e-01	1.955876e+03	
18	9.000000e-01	2.051288e+03	
19	9.500000e-01	2.154552e+03	
20	1.000000e+00	2.266678e+03	
21	1.050000e+00	2.388857e+03	
22	1.100000e+00	2.522510e+03	
23	1.150000e+00	2.669344e+03	
24	1.200000e+00	2.831435e+03	
25	1.250000e+00	3.011336e+03	
26	1.300000e+00	3.212238e+03	
27	1.350000e+00	3.438193e+03	
28	1.400000e+00	3.694465e+03	
29	1.450000e+00	3.988052e+03	
30	1.500000e+00	4.328495e+03	
31	1.550000e+00	4.729087e+03	
32	1.600000e+00	5.208461e+03	
33	1.650000e+00	5.792008e+03	
34	1.700000e+00	6.511313e+03	
35	1.750000e+00	7.398662e+03	
36	1.800000e+00	8.475983e+03	
37	1.850000e+00	9.744550e+03	
38	1.900000e+00	1.118439e+04	
39	1.950000e+00	1.276339e+04	
40	2.000000e+00	1.444795e+04	
41	2.050000e+00	1.620922e+04	
42	2.100000e+00	1.802484e+04	
43	2.150000e+00	1.987841e+04	
44	2.200000e+00	2.175810e+04	
45	2.250000e+00	2.365548e+04	
46	2.300000e+00	2.556447e+04	
47	2.350000e+00	2.748066e+04	
48	2.400000e+00	2.940082e+04	
49	2.450000e+00	3.132254e+04	
50	2.500000e+00	3.324401e+04	
51	2.550000e+00	3.516386e+04	
52	2.600000e+00	3.708101e+04	
53	2.650000e+00	3.899463e+04	
54	2.700000e+00	4.090408e+04	

Index   v-sweep         rds             
--------------------------------------------------------------------------------
55	2.750000e+00	4.280884e+04	
56	2.800000e+00	4.470850e+04	
57	2.850000e+00	4.660273e+04	
58	2.900000e+00	4.849125e+04	
59	2.950000e+00	5.037387e+04	
60	3.000000e+00	5.225039e+04	
61	3.050000e+00	5.412068e+04	
62	3.100000e+00	5.598464e+04	
63	3.150000e+00	5.784215e+04	
64	3.200000e+00	5.969316e+04	
65	3.250000e+00	6.153759e+04	
66	3.300000e+00	6.337542e+04	
67	3.350000e+00	6.520659e+04	
68	3.400000e+00	6.703108e+04	
69	3.450000e+00	6.884888e+04	
70	3.500000e+00	7.065997e+04	
71	3.550000e+00	7.246435e+04	
72	3.600000e+00	7.426201e+04	
73	3.650000e+00	7.605295e+04	
74	3.700000e+00	7.783719e+04	
75	3.750000e+00	7.961472e+04	
76	3.800000e+00	8.138557e+04	
77	3.850000e+00	8.314974e+04	
78	3.900000e+00	8.490725e+04	
79	3.950000e+00	8.665812e+04	
80	4.000000e+00	8.840236e+04	
81	4.050000e+00	9.014000e+04	
82	4.100000e+00	9.187106e+04	
83	4.150000e+00	9.359556e+04	
84	4.200000e+00	9.531353e+04	
85	4.250000e+00	9.702499e+04	
86	4.300000e+00	9.872996e+04	
87	4.350000e+00	1.004285e+05	
88	4.400000e+00	1.021205e+05	
89	4.450000e+00	1.038062e+05	
90	4.500000e+00	1.054855e+05	
91	4.550000e+00	1.071584e+05	
92	4.600000e+00	1.088251e+05	
93	4.650000e+00	1.104854e+05	
94	4.700000e+00	1.121394e+05	
95	4.750000e+00	1.137872e+05	
96	4.800000e+00	1.154288e+05	
97	4.850000e+00	1.170643e+05	
98	4.900000e+00	1.186935e+05	
99	4.950000e+00	1.203167e+05	
100	5.000000e+00	1.219337e+05	
101	5.050000e+00	1.235447e+05	
102	5.100000e+00	1.251496e+05	
103	5.150000e+00	1.267486e+05	
104	5.200000e+00	1.283415e+05	
105	5.250000e+00	1.299285e+05	
106	5.300000e+00	1.315096e+05	
107	5.350000e+00	1.330848e+05	
108	5.400000e+00	1.346541e+05	
109	5.450000e+00	1.362176e+05	
110	5.500000e+00	1.377753e+05	
111	5.550000e+00	1.393272e+05	
112	5.600000e+00	1.408733e+05	

Index   v-sweep         rds             
--------------------------------------------------------------------------------
113	5.650000e+00	1.424138e+05	
114	5.700000e+00	1.439485e+05	
115	5.750000e+00	1.454776e+05	
116	5.800000e+00	1.470011e+05	
117	5.850000e+00	1.485189e+05	
118	5.900000e+00	1.500312e+05	
119	5.950000e+00	1.515379e+05	
120	6.000000e+00	1.530391e+05	
121	6.050000e+00	1.545348e+05	
122	6.100000e+00	1.560250e+05	
123	6.150000e+00	1.575098e+05	
124	6.200000e+00	1.589892e+05	
125	6.250000e+00	1.604632e+05	
126	6.300000e+00	1.619318e+05	
127	6.350000e+00	1.633951e+05	
128	6.400000e+00	1.648531e+05	
129	6.450000e+00	1.663058e+05	
130	6.500000e+00	1.677532e+05	
131	6.550000e+00	1.691955e+05	
132	6.600000e+00	1.706325e+05	
Reset re-loads circuit ***************************

Circuit: ***************************

Doing analysis at TEMP = 125.000000 and TNOM = 125.000000


No. of Data Rows : 133
                          ***************************
                          DC transfer characteristic  Mon Jan  9 13:57:43  2023
--------------------------------------------------------------------------------
Index   v-sweep         rds             
--------------------------------------------------------------------------------
0	0.000000e+00	8.820228e+02	
1	5.000000e-02	9.066480e+02	
2	1.000000e-01	9.322115e+02	
3	1.500000e-01	9.587666e+02	
4	2.000000e-01	9.863706e+02	
5	2.500000e-01	1.015085e+03	
6	3.000000e-01	1.044978e+03	
7	3.500000e-01	1.076120e+03	
8	4.000000e-01	1.108591e+03	
9	4.500000e-01	1.142476e+03	
10	5.000000e-01	1.177867e+03	
11	5.500000e-01	1.214866e+03	
12	6.000000e-01	1.253583e+03	
13	6.500000e-01	1.294138e+03	
14	7.000000e-01	1.336665e+03	
15	7.500000e-01	1.381307e+03	
16	8.000000e-01	1.428226e+03	
17	8.500000e-01	1.477597e+03	
18	9.000000e-01	1.529618e+03	
19	9.500000e-01	1.584503e+03	
20	1.000000e+00	1.642495e+03	
21	1.050000e+00	1.703864e+03	
22	1.100000e+00	1.768911e+03	
23	1.150000e+00	1.837975e+03	
24	1.200000e+00	1.911439e+03	
25	1.250000e+00	1.989737e+03	
26	1.300000e+00	2.073362e+03	
27	1.350000e+00	2.162881e+03	
28	1.400000e+00	2.258943e+03	
29	1.450000e+00	2.362302e+03	
30	1.500000e+00	2.473840e+03	
31	1.550000e+00	2.594595e+03	
32	1.600000e+00	2.725802e+03	
33	1.650000e+00	2.868954e+03	
34	1.700000e+00	3.025881e+03	
35	1.750000e+00	3.198870e+03	
36	1.800000e+00	3.390843e+03	
37	1.850000e+00	3.605634e+03	
38	1.900000e+00	3.848409e+03	
39	1.950000e+00	4.126297e+03	
40	2.000000e+00	4.449255e+03	
41	2.050000e+00	4.831043e+03	
42	2.100000e+00	5.289736e+03	
43	2.150000e+00	5.846605e+03	
44	2.200000e+00	6.522100e+03	
45	2.250000e+00	7.329541e+03	
46	2.300000e+00	8.270080e+03	
47	2.350000e+00	9.332623e+03	
48	2.400000e+00	1.049839e+04	
49	2.450000e+00	1.174649e+04	
50	2.500000e+00	1.305778e+04	
51	2.550000e+00	1.441647e+04	
52	2.600000e+00	1.581024e+04	
53	2.650000e+00	1.722978e+04	
54	2.700000e+00	1.866814e+04	

Index   v-sweep         rds             
--------------------------------------------------------------------------------
55	2.750000e+00	2.012012e+04	
56	2.800000e+00	2.158183e+04	
57	2.850000e+00	2.305036e+04	
58	2.900000e+00	2.452346e+04	
59	2.950000e+00	2.599943e+04	
60	3.000000e+00	2.747692e+04	
61	3.050000e+00	2.895489e+04	
62	3.100000e+00	3.043252e+04	
63	3.150000e+00	3.190914e+04	
64	3.200000e+00	3.338423e+04	
65	3.250000e+00	3.485734e+04	
66	3.300000e+00	3.632814e+04	
67	3.350000e+00	3.779632e+04	
68	3.400000e+00	3.926164e+04	
69	3.450000e+00	4.072392e+04	
70	3.500000e+00	4.218298e+04	
71	3.550000e+00	4.363868e+04	
72	3.600000e+00	4.509091e+04	
73	3.650000e+00	4.653957e+04	
74	3.700000e+00	4.798457e+04	
75	3.750000e+00	4.942585e+04	
76	3.800000e+00	5.086335e+04	
77	3.850000e+00	5.229702e+04	
78	3.900000e+00	5.372681e+04	
79	3.950000e+00	5.515270e+04	
80	4.000000e+00	5.657465e+04	
81	4.050000e+00	5.799265e+04	
82	4.100000e+00	5.940666e+04	
83	4.150000e+00	6.081668e+04	
84	4.200000e+00	6.222270e+04	
85	4.250000e+00	6.362470e+04	
86	4.300000e+00	6.502268e+04	
87	4.350000e+00	6.641663e+04	
88	4.400000e+00	6.780655e+04	
89	4.450000e+00	6.919245e+04	
90	4.500000e+00	7.057432e+04	
91	4.550000e+00	7.195216e+04	
92	4.600000e+00	7.332597e+04	
93	4.650000e+00	7.469577e+04	
94	4.700000e+00	7.606156e+04	
95	4.750000e+00	7.742334e+04	
96	4.800000e+00	7.878112e+04	
97	4.850000e+00	8.013492e+04	
98	4.900000e+00	8.148472e+04	
99	4.950000e+00	8.283056e+04	
100	5.000000e+00	8.417243e+04	
101	5.050000e+00	8.551035e+04	
102	5.100000e+00	8.684432e+04	
103	5.150000e+00	8.817437e+04	
104	5.200000e+00	8.950049e+04	
105	5.250000e+00	9.082270e+04	
106	5.300000e+00	9.214101e+04	
107	5.350000e+00	9.345544e+04	
108	5.400000e+00	9.476599e+04	
109	5.450000e+00	9.607269e+04	
110	5.500000e+00	9.737553e+04	
111	5.550000e+00	9.867453e+04	
112	5.600000e+00	9.996972e+04	

Index   v-sweep         rds             
--------------------------------------------------------------------------------
113	5.650000e+00	1.012611e+05	
114	5.700000e+00	1.025487e+05	
115	5.750000e+00	1.038325e+05	
116	5.800000e+00	1.051125e+05	
117	5.850000e+00	1.063887e+05	
118	5.900000e+00	1.076613e+05	
119	5.950000e+00	1.089300e+05	
120	6.000000e+00	1.101951e+05	
121	6.050000e+00	1.114565e+05	
122	6.100000e+00	1.127142e+05	
123	6.150000e+00	1.139682e+05	
124	6.200000e+00	1.152185e+05	
125	6.250000e+00	1.164652e+05	
126	6.300000e+00	1.177082e+05	
127	6.350000e+00	1.189477e+05	
128	6.400000e+00	1.201835e+05	
129	6.450000e+00	1.214157e+05	
130	6.500000e+00	1.226444e+05	
131	6.550000e+00	1.238694e+05	
132	6.600000e+00	1.250910e+05	
Reset re-loads circuit ***************************

Circuit: ***************************

Doing analysis at TEMP = 125.000000 and TNOM = 125.000000


No. of Data Rows : 133
                          ***************************
                          DC transfer characteristic  Mon Jan  9 13:57:43  2023
--------------------------------------------------------------------------------
Index   v-sweep         rds             
--------------------------------------------------------------------------------
0	0.000000e+00	8.144409e+02	
1	5.000000e-02	8.336133e+02	
2	1.000000e-01	8.533809e+02	
3	1.500000e-01	8.737709e+02	
4	2.000000e-01	8.948123e+02	
5	2.500000e-01	9.165360e+02	
6	3.000000e-01	9.389747e+02	
7	3.500000e-01	9.621633e+02	
8	4.000000e-01	9.861392e+02	
9	4.500000e-01	1.010942e+03	
10	5.000000e-01	1.036614e+03	
11	5.500000e-01	1.063202e+03	
12	6.000000e-01	1.090753e+03	
13	6.500000e-01	1.119321e+03	
14	7.000000e-01	1.148961e+03	
15	7.500000e-01	1.179734e+03	
16	8.000000e-01	1.211705e+03	
17	8.500000e-01	1.244945e+03	
18	9.000000e-01	1.279529e+03	
19	9.500000e-01	1.315538e+03	
20	1.000000e+00	1.353063e+03	
21	1.050000e+00	1.392199e+03	
22	1.100000e+00	1.433052e+03	
23	1.150000e+00	1.475735e+03	
24	1.200000e+00	1.520373e+03	
25	1.250000e+00	1.567102e+03	
26	1.300000e+00	1.616072e+03	
27	1.350000e+00	1.667446e+03	
28	1.400000e+00	1.721404e+03	
29	1.450000e+00	1.778147e+03	
30	1.500000e+00	1.837894e+03	
31	1.550000e+00	1.900890e+03	
32	1.600000e+00	1.967409e+03	
33	1.650000e+00	2.037755e+03	
34	1.700000e+00	2.112273e+03	
35	1.750000e+00	2.191348e+03	
36	1.800000e+00	2.275421e+03	
37	1.850000e+00	2.364995e+03	
38	1.900000e+00	2.460646e+03	
39	1.950000e+00	2.563048e+03	
40	2.000000e+00	2.672987e+03	
41	2.050000e+00	2.791402e+03	
42	2.100000e+00	2.919426e+03	
43	2.150000e+00	3.058453e+03	
44	2.200000e+00	3.210238e+03	
45	2.250000e+00	3.377045e+03	
46	2.300000e+00	3.561869e+03	
47	2.350000e+00	3.768769e+03	
48	2.400000e+00	4.003330e+03	
49	2.450000e+00	4.273252e+03	
50	2.500000e+00	4.588904e+03	
51	2.550000e+00	4.963462e+03	
52	2.600000e+00	5.411921e+03	
53	2.650000e+00	5.948480e+03	
54	2.700000e+00	6.582763e+03	

Index   v-sweep         rds             
--------------------------------------------------------------------------------
55	2.750000e+00	7.316787e+03	
56	2.800000e+00	8.144580e+03	
57	2.850000e+00	9.054479e+03	
58	2.900000e+00	1.003244e+04	
59	2.950000e+00	1.106471e+04	
60	3.000000e+00	1.213927e+04	
61	3.050000e+00	1.324629e+04	
62	3.100000e+00	1.437804e+04	
63	3.150000e+00	1.552853e+04	
64	3.200000e+00	1.669319e+04	
65	3.250000e+00	1.786850e+04	
66	3.300000e+00	1.905177e+04	
67	3.350000e+00	2.024093e+04	
68	3.400000e+00	2.143434e+04	
69	3.450000e+00	2.263073e+04	
70	3.500000e+00	2.382910e+04	
71	3.550000e+00	2.502863e+04	
72	3.600000e+00	2.622868e+04	
73	3.650000e+00	2.742872e+04	
74	3.700000e+00	2.862833e+04	
75	3.750000e+00	2.982714e+04	
76	3.800000e+00	3.102487e+04	
77	3.850000e+00	3.222127e+04	
78	3.900000e+00	3.341614e+04	
79	3.950000e+00	3.460930e+04	
80	4.000000e+00	3.580060e+04	
81	4.050000e+00	3.698993e+04	
82	4.100000e+00	3.817719e+04	
83	4.150000e+00	3.936227e+04	
84	4.200000e+00	4.054510e+04	
85	4.250000e+00	4.172562e+04	
86	4.300000e+00	4.290376e+04	
87	4.350000e+00	4.407949e+04	
88	4.400000e+00	4.525275e+04	
89	4.450000e+00	4.642352e+04	
90	4.500000e+00	4.759175e+04	
91	4.550000e+00	4.875743e+04	
92	4.600000e+00	4.992052e+04	
93	4.650000e+00	5.108102e+04	
94	4.700000e+00	5.223890e+04	
95	4.750000e+00	5.339414e+04	
96	4.800000e+00	5.454674e+04	
97	4.850000e+00	5.569669e+04	
98	4.900000e+00	5.684397e+04	
99	4.950000e+00	5.798859e+04	
100	5.000000e+00	5.913053e+04	
101	5.050000e+00	6.026979e+04	
102	5.100000e+00	6.140636e+04	
103	5.150000e+00	6.254026e+04	
104	5.200000e+00	6.367146e+04	
105	5.250000e+00	6.479998e+04	
106	5.300000e+00	6.592582e+04	
107	5.350000e+00	6.704897e+04	
108	5.400000e+00	6.816944e+04	
109	5.450000e+00	6.928723e+04	
110	5.500000e+00	7.040234e+04	
111	5.550000e+00	7.151477e+04	
112	5.600000e+00	7.262453e+04	

Index   v-sweep         rds             
--------------------------------------------------------------------------------
113	5.650000e+00	7.373163e+04	
114	5.700000e+00	7.483606e+04	
115	5.750000e+00	7.593784e+04	
116	5.800000e+00	7.703696e+04	
117	5.850000e+00	7.813343e+04	
118	5.900000e+00	7.922726e+04	
119	5.950000e+00	8.031845e+04	
120	6.000000e+00	8.140700e+04	
121	6.050000e+00	8.249293e+04	
122	6.100000e+00	8.357625e+04	
123	6.150000e+00	8.465694e+04	
124	6.200000e+00	8.573503e+04	
125	6.250000e+00	8.681052e+04	
126	6.300000e+00	8.788341e+04	
127	6.350000e+00	8.895371e+04	
128	6.400000e+00	9.002144e+04	
129	6.450000e+00	9.108658e+04	
130	6.500000e+00	9.214916e+04	
131	6.550000e+00	9.320918e+04	
132	6.600000e+00	9.426665e+04	
Reset re-loads circuit ***************************

Circuit: ***************************

Note: No ".plot", ".print", or ".fourier" lines; no simulations run
