
Note: Compatibility modes selected: hs

Warning: m=xx on .subckt line will override multiplier m hierarchy!


Circuit: ***************************

Doing analysis at TEMP = 25.000000 and TNOM = 25.000000


No. of Data Rows : 133
                          ***************************
                          DC transfer characteristic  Mon Jan  9 13:57:41  2023
--------------------------------------------------------------------------------
Index   v-sweep         rds             
--------------------------------------------------------------------------------
0	0.000000e+00	1.493156e+04	
1	5.000000e-02	1.859299e+04	
2	1.000000e-01	2.453979e+04	
3	1.500000e-01	3.563717e+04	
4	2.000000e-01	6.109177e+04	
5	2.500000e-01	1.343805e+05	
6	3.000000e-01	3.492313e+05	
7	3.500000e-01	8.187694e+05	
8	4.000000e-01	1.528875e+06	
9	4.500000e-01	2.341446e+06	
10	5.000000e-01	3.124798e+06	
11	5.500000e-01	3.813948e+06	
12	6.000000e-01	4.395283e+06	
13	6.500000e-01	4.878608e+06	
14	7.000000e-01	5.280309e+06	
15	7.500000e-01	5.616313e+06	
16	8.000000e-01	5.899973e+06	
17	8.500000e-01	6.141871e+06	
18	9.000000e-01	6.350220e+06	
19	9.500000e-01	6.531365e+06	
20	1.000000e+00	6.690226e+06	
21	1.050000e+00	6.830647e+06	
22	1.100000e+00	6.955657e+06	
23	1.150000e+00	7.067665e+06	
24	1.200000e+00	7.168612e+06	
25	1.250000e+00	7.260070e+06	
26	1.300000e+00	7.343329e+06	
27	1.350000e+00	7.419455e+06	
28	1.400000e+00	7.489337e+06	
29	1.450000e+00	7.553720e+06	
30	1.500000e+00	7.613236e+06	
31	1.550000e+00	7.668422e+06	
32	1.600000e+00	7.719739e+06	
33	1.650000e+00	7.767584e+06	
34	1.700000e+00	7.812301e+06	
35	1.750000e+00	7.854191e+06	
36	1.800000e+00	7.893514e+06	
37	1.850000e+00	7.930501e+06	
38	1.900000e+00	7.965357e+06	
39	1.950000e+00	7.998261e+06	
40	2.000000e+00	8.029374e+06	
41	2.050000e+00	8.058839e+06	
42	2.100000e+00	8.086784e+06	
43	2.150000e+00	8.113324e+06	
44	2.200000e+00	8.138563e+06	
45	2.250000e+00	8.162595e+06	
46	2.300000e+00	8.185503e+06	
47	2.350000e+00	8.207367e+06	
48	2.400000e+00	8.228254e+06	
49	2.450000e+00	8.248230e+06	
50	2.500000e+00	8.267353e+06	
51	2.550000e+00	8.285675e+06	
52	2.600000e+00	8.303247e+06	
53	2.650000e+00	8.320114e+06	
54	2.700000e+00	8.336317e+06	

Index   v-sweep         rds             
--------------------------------------------------------------------------------
55	2.750000e+00	8.351894e+06	
56	2.800000e+00	8.366880e+06	
57	2.850000e+00	8.381310e+06	
58	2.900000e+00	8.395212e+06	
59	2.950000e+00	8.408616e+06	
60	3.000000e+00	8.421547e+06	
61	3.050000e+00	8.434031e+06	
62	3.100000e+00	8.446088e+06	
63	3.150000e+00	8.457742e+06	
64	3.200000e+00	8.469012e+06	
65	3.250000e+00	8.479916e+06	
66	3.300000e+00	8.490471e+06	
67	3.350000e+00	8.500695e+06	
68	3.400000e+00	8.510602e+06	
69	3.450000e+00	8.520207e+06	
70	3.500000e+00	8.529523e+06	
71	3.550000e+00	8.538563e+06	
72	3.600000e+00	8.547338e+06	
73	3.650000e+00	8.555861e+06	
74	3.700000e+00	8.564142e+06	
75	3.750000e+00	8.572191e+06	
76	3.800000e+00	8.580017e+06	
77	3.850000e+00	8.587630e+06	
78	3.900000e+00	8.595038e+06	
79	3.950000e+00	8.602248e+06	
80	4.000000e+00	8.609270e+06	
81	4.050000e+00	8.616109e+06	
82	4.100000e+00	8.622774e+06	
83	4.150000e+00	8.629270e+06	
84	4.200000e+00	8.635603e+06	
85	4.250000e+00	8.641780e+06	
86	4.300000e+00	8.647807e+06	
87	4.350000e+00	8.653688e+06	
88	4.400000e+00	8.659428e+06	
89	4.450000e+00	8.665034e+06	
90	4.500000e+00	8.670508e+06	
91	4.550000e+00	8.675857e+06	
92	4.600000e+00	8.681083e+06	
93	4.650000e+00	8.686191e+06	
94	4.700000e+00	8.691186e+06	
95	4.750000e+00	8.696070e+06	
96	4.800000e+00	8.700847e+06	
97	4.850000e+00	8.705521e+06	
98	4.900000e+00	8.710095e+06	
99	4.950000e+00	8.714572e+06	
100	5.000000e+00	8.718955e+06	
101	5.050000e+00	8.723246e+06	
102	5.100000e+00	8.727450e+06	
103	5.150000e+00	8.731567e+06	
104	5.200000e+00	8.735602e+06	
105	5.250000e+00	8.739556e+06	
106	5.300000e+00	8.743431e+06	
107	5.350000e+00	8.747231e+06	
108	5.400000e+00	8.750956e+06	
109	5.450000e+00	8.754610e+06	
110	5.500000e+00	8.758194e+06	
111	5.550000e+00	8.761710e+06	
112	5.600000e+00	8.765160e+06	

Index   v-sweep         rds             
--------------------------------------------------------------------------------
113	5.650000e+00	8.768546e+06	
114	5.700000e+00	8.771869e+06	
115	5.750000e+00	8.775131e+06	
116	5.800000e+00	8.778335e+06	
117	5.850000e+00	8.781481e+06	
118	5.900000e+00	8.784570e+06	
119	5.950000e+00	8.787606e+06	
120	6.000000e+00	8.790587e+06	
121	6.050000e+00	8.793517e+06	
122	6.100000e+00	8.796397e+06	
123	6.150000e+00	8.799227e+06	
124	6.200000e+00	8.802009e+06	
125	6.250000e+00	8.804744e+06	
126	6.300000e+00	8.807433e+06	
127	6.350000e+00	8.810078e+06	
128	6.400000e+00	8.812679e+06	
129	6.450000e+00	8.815238e+06	
130	6.500000e+00	8.817755e+06	
131	6.550000e+00	8.820232e+06	
132	6.600000e+00	8.822669e+06	
Reset re-loads circuit ***************************

Circuit: ***************************

Doing analysis at TEMP = 25.000000 and TNOM = 25.000000


No. of Data Rows : 133
                          ***************************
                          DC transfer characteristic  Mon Jan  9 13:57:41  2023
--------------------------------------------------------------------------------
Index   v-sweep         rds             
--------------------------------------------------------------------------------
0	0.000000e+00	3.697396e+03	
1	5.000000e-02	3.902214e+03	
2	1.000000e-01	4.129780e+03	
3	1.500000e-01	4.384100e+03	
4	2.000000e-01	4.670178e+03	
5	2.500000e-01	4.994350e+03	
6	3.000000e-01	5.364747e+03	
7	3.500000e-01	5.791985e+03	
8	4.000000e-01	6.290183e+03	
9	4.500000e-01	6.878519e+03	
10	5.000000e-01	7.583703e+03	
11	5.500000e-01	8.443989e+03	
12	6.000000e-01	9.516010e+03	
13	6.500000e-01	1.088686e+04	
14	7.000000e-01	1.269647e+04	
15	7.500000e-01	1.518071e+04	
16	8.000000e-01	1.875721e+04	
17	8.500000e-01	2.419412e+04	
18	9.000000e-01	3.290927e+04	
19	9.500000e-01	4.733488e+04	
20	1.000000e+00	7.088093e+04	
21	1.050000e+00	1.067780e+05	
22	1.100000e+00	1.562428e+05	
23	1.150000e+00	2.177620e+05	
24	1.200000e+00	2.880371e+05	
25	1.250000e+00	3.633960e+05	
26	1.300000e+00	4.406962e+05	
27	1.350000e+00	5.176234e+05	
28	1.400000e+00	5.926413e+05	
29	1.450000e+00	6.648214e+05	
30	1.500000e+00	7.336649e+05	
31	1.550000e+00	7.989604e+05	
32	1.600000e+00	8.606789e+05	
33	1.650000e+00	9.189030e+05	
34	1.700000e+00	9.737793e+05	
35	1.750000e+00	1.025488e+06	
36	1.800000e+00	1.074224e+06	
37	1.850000e+00	1.120184e+06	
38	1.900000e+00	1.163561e+06	
39	1.950000e+00	1.204537e+06	
40	2.000000e+00	1.243286e+06	
41	2.050000e+00	1.279967e+06	
42	2.100000e+00	1.314729e+06	
43	2.150000e+00	1.347710e+06	
44	2.200000e+00	1.379035e+06	
45	2.250000e+00	1.408820e+06	
46	2.300000e+00	1.437171e+06	
47	2.350000e+00	1.464186e+06	
48	2.400000e+00	1.489953e+06	
49	2.450000e+00	1.514555e+06	
50	2.500000e+00	1.538067e+06	
51	2.550000e+00	1.560558e+06	
52	2.600000e+00	1.582092e+06	
53	2.650000e+00	1.602727e+06	
54	2.700000e+00	1.622518e+06	

Index   v-sweep         rds             
--------------------------------------------------------------------------------
55	2.750000e+00	1.641514e+06	
56	2.800000e+00	1.659762e+06	
57	2.850000e+00	1.677305e+06	
58	2.900000e+00	1.694182e+06	
59	2.950000e+00	1.710429e+06	
60	3.000000e+00	1.726082e+06	
61	3.050000e+00	1.741171e+06	
62	3.100000e+00	1.755727e+06	
63	3.150000e+00	1.769776e+06	
64	3.200000e+00	1.783346e+06	
65	3.250000e+00	1.796458e+06	
66	3.300000e+00	1.809137e+06	
67	3.350000e+00	1.821403e+06	
68	3.400000e+00	1.833276e+06	
69	3.450000e+00	1.844774e+06	
70	3.500000e+00	1.855915e+06	
71	3.550000e+00	1.866714e+06	
72	3.600000e+00	1.877188e+06	
73	3.650000e+00	1.887351e+06	
74	3.700000e+00	1.897215e+06	
75	3.750000e+00	1.906795e+06	
76	3.800000e+00	1.916102e+06	
77	3.850000e+00	1.925148e+06	
78	3.900000e+00	1.933943e+06	
79	3.950000e+00	1.942497e+06	
80	4.000000e+00	1.950821e+06	
81	4.050000e+00	1.958923e+06	
82	4.100000e+00	1.966812e+06	
83	4.150000e+00	1.974497e+06	
84	4.200000e+00	1.981984e+06	
85	4.250000e+00	1.989283e+06	
86	4.300000e+00	1.996399e+06	
87	4.350000e+00	2.003339e+06	
88	4.400000e+00	2.010110e+06	
89	4.450000e+00	2.016718e+06	
90	4.500000e+00	2.023168e+06	
91	4.550000e+00	2.029467e+06	
92	4.600000e+00	2.035619e+06	
93	4.650000e+00	2.041630e+06	
94	4.700000e+00	2.047503e+06	
95	4.750000e+00	2.053245e+06	
96	4.800000e+00	2.058859e+06	
97	4.850000e+00	2.064349e+06	
98	4.900000e+00	2.069720e+06	
99	4.950000e+00	2.074975e+06	
100	5.000000e+00	2.080118e+06	
101	5.050000e+00	2.085152e+06	
102	5.100000e+00	2.090081e+06	
103	5.150000e+00	2.094908e+06	
104	5.200000e+00	2.099637e+06	
105	5.250000e+00	2.104270e+06	
106	5.300000e+00	2.108810e+06	
107	5.350000e+00	2.113259e+06	
108	5.400000e+00	2.117621e+06	
109	5.450000e+00	2.121898e+06	
110	5.500000e+00	2.126093e+06	
111	5.550000e+00	2.130207e+06	
112	5.600000e+00	2.134244e+06	

Index   v-sweep         rds             
--------------------------------------------------------------------------------
113	5.650000e+00	2.138204e+06	
114	5.700000e+00	2.142091e+06	
115	5.750000e+00	2.145907e+06	
116	5.800000e+00	2.149652e+06	
117	5.850000e+00	2.153330e+06	
118	5.900000e+00	2.156942e+06	
119	5.950000e+00	2.160490e+06	
120	6.000000e+00	2.163975e+06	
121	6.050000e+00	2.167399e+06	
122	6.100000e+00	2.170764e+06	
123	6.150000e+00	2.174071e+06	
124	6.200000e+00	2.177322e+06	
125	6.250000e+00	2.180517e+06	
126	6.300000e+00	2.183660e+06	
127	6.350000e+00	2.186749e+06	
128	6.400000e+00	2.189788e+06	
129	6.450000e+00	2.192778e+06	
130	6.500000e+00	2.195718e+06	
131	6.550000e+00	2.198612e+06	
132	6.600000e+00	2.201459e+06	
Reset re-loads circuit ***************************

Circuit: ***************************

Doing analysis at TEMP = 25.000000 and TNOM = 25.000000


No. of Data Rows : 133
                          ***************************
                          DC transfer characteristic  Mon Jan  9 13:57:42  2023
--------------------------------------------------------------------------------
Index   v-sweep         rds             
--------------------------------------------------------------------------------
0	0.000000e+00	2.266197e+03	
1	5.000000e-02	2.338385e+03	
2	1.000000e-01	2.414898e+03	
3	1.500000e-01	2.496138e+03	
4	2.000000e-01	2.582555e+03	
5	2.500000e-01	2.674660e+03	
6	3.000000e-01	2.773034e+03	
7	3.500000e-01	2.878338e+03	
8	4.000000e-01	2.991332e+03	
9	4.500000e-01	3.112888e+03	
10	5.000000e-01	3.244017e+03	
11	5.500000e-01	3.385897e+03	
12	6.000000e-01	3.539904e+03	
13	6.500000e-01	3.707662e+03	
14	7.000000e-01	3.891098e+03	
15	7.500000e-01	4.092516e+03	
16	8.000000e-01	4.314694e+03	
17	8.500000e-01	4.561014e+03	
18	9.000000e-01	4.835634e+03	
19	9.500000e-01	5.143721e+03	
20	1.000000e+00	5.491781e+03	
21	1.050000e+00	5.888115e+03	
22	1.100000e+00	6.343483e+03	
23	1.150000e+00	6.872069e+03	
24	1.200000e+00	7.492943e+03	
25	1.250000e+00	8.232301e+03	
26	1.300000e+00	9.126998e+03	
27	1.350000e+00	1.023025e+04	
28	1.400000e+00	1.162100e+04	
29	1.450000e+00	1.341936e+04	
30	1.500000e+00	1.581162e+04	
31	1.550000e+00	1.908765e+04	
32	1.600000e+00	2.368666e+04	
33	1.650000e+00	3.022533e+04	
34	1.700000e+00	3.945026e+04	
35	1.750000e+00	5.206619e+04	
36	1.800000e+00	6.849560e+04	
37	1.850000e+00	8.872928e+04	
38	1.900000e+00	1.123613e+05	
39	1.950000e+00	1.387471e+05	
40	2.000000e+00	1.671706e+05	
41	2.050000e+00	1.969578e+05	
42	2.100000e+00	2.275316e+05	
43	2.150000e+00	2.584270e+05	
44	2.200000e+00	2.892846e+05	
45	2.250000e+00	3.198352e+05	
46	2.300000e+00	3.498830e+05	
47	2.350000e+00	3.792896e+05	
48	2.400000e+00	4.079614e+05	
49	2.450000e+00	4.358381e+05	
50	2.500000e+00	4.628848e+05	
51	2.550000e+00	4.890855e+05	
52	2.600000e+00	5.144378e+05	
53	2.650000e+00	5.389494e+05	
54	2.700000e+00	5.626352e+05	

Index   v-sweep         rds             
--------------------------------------------------------------------------------
55	2.750000e+00	5.855151e+05	
56	2.800000e+00	6.076124e+05	
57	2.850000e+00	6.289525e+05	
58	2.900000e+00	6.495621e+05	
59	2.950000e+00	6.694687e+05	
60	3.000000e+00	6.886997e+05	
61	3.050000e+00	7.072822e+05	
62	3.100000e+00	7.252430e+05	
63	3.150000e+00	7.426079e+05	
64	3.200000e+00	7.594023e+05	
65	3.250000e+00	7.756503e+05	
66	3.300000e+00	7.913752e+05	
67	3.350000e+00	8.065995e+05	
68	3.400000e+00	8.213444e+05	
69	3.450000e+00	8.356304e+05	
70	3.500000e+00	8.494769e+05	
71	3.550000e+00	8.629026e+05	
72	3.600000e+00	8.759249e+05	
73	3.650000e+00	8.885609e+05	
74	3.700000e+00	9.008263e+05	
75	3.750000e+00	9.127365e+05	
76	3.800000e+00	9.243059e+05	
77	3.850000e+00	9.355482e+05	
78	3.900000e+00	9.464766e+05	
79	3.950000e+00	9.571034e+05	
80	4.000000e+00	9.674405e+05	
81	4.050000e+00	9.774991e+05	
82	4.100000e+00	9.872900e+05	
83	4.150000e+00	9.968234e+05	
84	4.200000e+00	1.006109e+06	
85	4.250000e+00	1.015156e+06	
86	4.300000e+00	1.023973e+06	
87	4.350000e+00	1.032569e+06	
88	4.400000e+00	1.040952e+06	
89	4.450000e+00	1.049129e+06	
90	4.500000e+00	1.057107e+06	
91	4.550000e+00	1.064894e+06	
92	4.600000e+00	1.072497e+06	
93	4.650000e+00	1.079921e+06	
94	4.700000e+00	1.087172e+06	
95	4.750000e+00	1.094257e+06	
96	4.800000e+00	1.101182e+06	
97	4.850000e+00	1.107950e+06	
98	4.900000e+00	1.114568e+06	
99	4.950000e+00	1.121041e+06	
100	5.000000e+00	1.127372e+06	
101	5.050000e+00	1.133568e+06	
102	5.100000e+00	1.139630e+06	
103	5.150000e+00	1.145565e+06	
104	5.200000e+00	1.151376e+06	
105	5.250000e+00	1.157066e+06	
106	5.300000e+00	1.162640e+06	
107	5.350000e+00	1.168101e+06	
108	5.400000e+00	1.173451e+06	
109	5.450000e+00	1.178696e+06	
110	5.500000e+00	1.183836e+06	
111	5.550000e+00	1.188877e+06	
112	5.600000e+00	1.193819e+06	

Index   v-sweep         rds             
--------------------------------------------------------------------------------
113	5.650000e+00	1.198667e+06	
114	5.700000e+00	1.203423e+06	
115	5.750000e+00	1.208089e+06	
116	5.800000e+00	1.212669e+06	
117	5.850000e+00	1.217163e+06	
118	5.900000e+00	1.221575e+06	
119	5.950000e+00	1.225907e+06	
120	6.000000e+00	1.230161e+06	
121	6.050000e+00	1.234339e+06	
122	6.100000e+00	1.238443e+06	
123	6.150000e+00	1.242475e+06	
124	6.200000e+00	1.246437e+06	
125	6.250000e+00	1.250330e+06	
126	6.300000e+00	1.254157e+06	
127	6.350000e+00	1.257919e+06	
128	6.400000e+00	1.261617e+06	
129	6.450000e+00	1.265254e+06	
130	6.500000e+00	1.268830e+06	
131	6.550000e+00	1.272348e+06	
132	6.600000e+00	1.275808e+06	
Reset re-loads circuit ***************************

Circuit: ***************************

Doing analysis at TEMP = 25.000000 and TNOM = 25.000000


No. of Data Rows : 133
                          ***************************
                          DC transfer characteristic  Mon Jan  9 13:57:42  2023
--------------------------------------------------------------------------------
Index   v-sweep         rds             
--------------------------------------------------------------------------------
0	0.000000e+00	1.733978e+03	
1	5.000000e-02	1.772942e+03	
2	1.000000e-01	1.813484e+03	
3	1.500000e-01	1.855701e+03	
4	2.000000e-01	1.899699e+03	
5	2.500000e-01	1.945592e+03	
6	3.000000e-01	1.993507e+03	
7	3.500000e-01	2.043579e+03	
8	4.000000e-01	2.095956e+03	
9	4.500000e-01	2.150803e+03	
10	5.000000e-01	2.208297e+03	
11	5.500000e-01	2.268635e+03	
12	6.000000e-01	2.332033e+03	
13	6.500000e-01	2.398728e+03	
14	7.000000e-01	2.468987e+03	
15	7.500000e-01	2.543101e+03	
16	8.000000e-01	2.621397e+03	
17	8.500000e-01	2.704238e+03	
18	9.000000e-01	2.792033e+03	
19	9.500000e-01	2.885239e+03	
20	1.000000e+00	2.984373e+03	
21	1.050000e+00	3.090018e+03	
22	1.100000e+00	3.202839e+03	
23	1.150000e+00	3.323592e+03	
24	1.200000e+00	3.453145e+03	
25	1.250000e+00	3.592498e+03	
26	1.300000e+00	3.742807e+03	
27	1.350000e+00	3.905420e+03	
28	1.400000e+00	4.081916e+03	
29	1.450000e+00	4.274155e+03	
30	1.500000e+00	4.484348e+03	
31	1.550000e+00	4.715141e+03	
32	1.600000e+00	4.969732e+03	
33	1.650000e+00	5.252017e+03	
34	1.700000e+00	5.566796e+03	
35	1.750000e+00	5.920051e+03	
36	1.800000e+00	6.319333e+03	
37	1.850000e+00	6.774312e+03	
38	1.900000e+00	7.297558e+03	
39	1.950000e+00	7.905701e+03	
40	2.000000e+00	8.621145e+03	
41	2.050000e+00	9.474649e+03	
42	2.100000e+00	1.050924e+04	
43	2.150000e+00	1.178606e+04	
44	2.200000e+00	1.339287e+04	
45	2.250000e+00	1.545522e+04	
46	2.300000e+00	1.814865e+04	
47	2.350000e+00	2.170555e+04	
48	2.400000e+00	2.640507e+04	
49	2.450000e+00	3.253495e+04	
50	2.500000e+00	4.032939e+04	
51	2.550000e+00	4.990977e+04	
52	2.600000e+00	6.125939e+04	
53	2.650000e+00	7.424020e+04	
54	2.700000e+00	8.863440e+04	

Index   v-sweep         rds             
--------------------------------------------------------------------------------
55	2.750000e+00	1.041887e+05	
56	2.800000e+00	1.206481e+05	
57	2.850000e+00	1.377764e+05	
58	2.900000e+00	1.553660e+05	
59	2.950000e+00	1.732405e+05	
60	3.000000e+00	1.912542e+05	
61	3.050000e+00	2.092883e+05	
62	3.100000e+00	2.272477e+05	
63	3.150000e+00	2.450571e+05	
64	3.200000e+00	2.626578e+05	
65	3.250000e+00	2.800046e+05	
66	3.300000e+00	2.970634e+05	
67	3.350000e+00	3.138087e+05	
68	3.400000e+00	3.302228e+05	
69	3.450000e+00	3.462932e+05	
70	3.500000e+00	3.620126e+05	
71	3.550000e+00	3.773769e+05	
72	3.600000e+00	3.923853e+05	
73	3.650000e+00	4.070393e+05	
74	3.700000e+00	4.213420e+05	
75	3.750000e+00	4.352982e+05	
76	3.800000e+00	4.489136e+05	
77	3.850000e+00	4.621949e+05	
78	3.900000e+00	4.751492e+05	
79	3.950000e+00	4.877842e+05	
80	4.000000e+00	5.001078e+05	
81	4.050000e+00	5.121283e+05	
82	4.100000e+00	5.238537e+05	
83	4.150000e+00	5.352924e+05	
84	4.200000e+00	5.464526e+05	
85	4.250000e+00	5.573424e+05	
86	4.300000e+00	5.679698e+05	
87	4.350000e+00	5.783427e+05	
88	4.400000e+00	5.884687e+05	
89	4.450000e+00	5.983554e+05	
90	4.500000e+00	6.080101e+05	
91	4.550000e+00	6.174400e+05	
92	4.600000e+00	6.266518e+05	
93	4.650000e+00	6.356524e+05	
94	4.700000e+00	6.444482e+05	
95	4.750000e+00	6.530455e+05	
96	4.800000e+00	6.614504e+05	
97	4.850000e+00	6.696687e+05	
98	4.900000e+00	6.777062e+05	
99	4.950000e+00	6.855683e+05	
100	5.000000e+00	6.932603e+05	
101	5.050000e+00	7.007873e+05	
102	5.100000e+00	7.081542e+05	
103	5.150000e+00	7.153659e+05	
104	5.200000e+00	7.224269e+05	
105	5.250000e+00	7.293415e+05	
106	5.300000e+00	7.361142e+05	
107	5.350000e+00	7.427490e+05	
108	5.400000e+00	7.492499e+05	
109	5.450000e+00	7.556207e+05	
110	5.500000e+00	7.618651e+05	
111	5.550000e+00	7.679867e+05	
112	5.600000e+00	7.739890e+05	

Index   v-sweep         rds             
--------------------------------------------------------------------------------
113	5.650000e+00	7.798753e+05	
114	5.700000e+00	7.856487e+05	
115	5.750000e+00	7.913124e+05	
116	5.800000e+00	7.968694e+05	
117	5.850000e+00	8.023226e+05	
118	5.900000e+00	8.076747e+05	
119	5.950000e+00	8.129285e+05	
120	6.000000e+00	8.180866e+05	
121	6.050000e+00	8.231514e+05	
122	6.100000e+00	8.281255e+05	
123	6.150000e+00	8.330111e+05	
124	6.200000e+00	8.378106e+05	
125	6.250000e+00	8.425261e+05	
126	6.300000e+00	8.471599e+05	
127	6.350000e+00	8.517138e+05	
128	6.400000e+00	8.561900e+05	
129	6.450000e+00	8.605904e+05	
130	6.500000e+00	8.649168e+05	
131	6.550000e+00	8.691711e+05	
132	6.600000e+00	8.733550e+05	
Reset re-loads circuit ***************************

Circuit: ***************************

Doing analysis at TEMP = 25.000000 and TNOM = 25.000000


No. of Data Rows : 133
                          ***************************
                          DC transfer characteristic  Mon Jan  9 13:57:42  2023
--------------------------------------------------------------------------------
Index   v-sweep         rds             
--------------------------------------------------------------------------------
0	0.000000e+00	1.475038e+03	
1	5.000000e-02	1.500567e+03	
2	1.000000e-01	1.526867e+03	
3	1.500000e-01	1.553972e+03	
4	2.000000e-01	1.581921e+03	
5	2.500000e-01	1.610753e+03	
6	3.000000e-01	1.640511e+03	
7	3.500000e-01	1.671241e+03	
8	4.000000e-01	1.702989e+03	
9	4.500000e-01	1.735808e+03	
10	5.000000e-01	1.769753e+03	
11	5.500000e-01	1.804882e+03	
12	6.000000e-01	1.841259e+03	
13	6.500000e-01	1.878951e+03	
14	7.000000e-01	1.918030e+03	
15	7.500000e-01	1.958575e+03	
16	8.000000e-01	2.000669e+03	
17	8.500000e-01	2.044402e+03	
18	9.000000e-01	2.089873e+03	
19	9.500000e-01	2.137187e+03	
20	1.000000e+00	2.186458e+03	
21	1.050000e+00	2.237810e+03	
22	1.100000e+00	2.291377e+03	
23	1.150000e+00	2.347307e+03	
24	1.200000e+00	2.405758e+03	
25	1.250000e+00	2.466905e+03	
26	1.300000e+00	2.530939e+03	
27	1.350000e+00	2.598069e+03	
28	1.400000e+00	2.668526e+03	
29	1.450000e+00	2.742564e+03	
30	1.500000e+00	2.820462e+03	
31	1.550000e+00	2.902531e+03	
32	1.600000e+00	2.989115e+03	
33	1.650000e+00	3.080598e+03	
34	1.700000e+00	3.177410e+03	
35	1.750000e+00	3.280030e+03	
36	1.800000e+00	3.388999e+03	
37	1.850000e+00	3.504926e+03	
38	1.900000e+00	3.628503e+03	
39	1.950000e+00	3.760517e+03	
40	2.000000e+00	3.901865e+03	
41	2.050000e+00	4.053581e+03	
42	2.100000e+00	4.216855e+03	
43	2.150000e+00	4.393073e+03	
44	2.200000e+00	4.583851e+03	
45	2.250000e+00	4.791091e+03	
46	2.300000e+00	5.017044e+03	
47	2.350000e+00	5.264402e+03	
48	2.400000e+00	5.536405e+03	
49	2.450000e+00	5.836996e+03	
50	2.500000e+00	6.171023e+03	
51	2.550000e+00	6.544516e+03	
52	2.600000e+00	6.965076e+03	
53	2.650000e+00	7.442410e+03	
54	2.700000e+00	7.989111e+03	

Index   v-sweep         rds             
--------------------------------------------------------------------------------
55	2.750000e+00	8.621753e+03	
56	2.800000e+00	9.362490e+03	
57	2.850000e+00	1.024132e+04	
58	2.900000e+00	1.129923e+04	
59	2.950000e+00	1.259235e+04	
60	3.000000e+00	1.419675e+04	
61	3.050000e+00	1.621272e+04	
62	3.100000e+00	1.876574e+04	
63	3.150000e+00	2.200031e+04	
64	3.200000e+00	2.606358e+04	
65	3.250000e+00	3.108098e+04	
66	3.300000e+00	3.713217e+04	
67	3.350000e+00	4.423738e+04	
68	3.400000e+00	5.235857e+04	
69	3.450000e+00	6.141210e+04	
70	3.500000e+00	7.128597e+04	
71	3.550000e+00	8.185574e+04	
72	3.600000e+00	9.299647e+04	
73	3.650000e+00	1.045902e+05	
74	3.700000e+00	1.165302e+05	
75	3.750000e+00	1.287223e+05	
76	3.800000e+00	1.410853e+05	
77	3.850000e+00	1.535497e+05	
78	3.900000e+00	1.660573e+05	
79	3.950000e+00	1.785593e+05	
80	4.000000e+00	1.910154e+05	
81	4.050000e+00	2.033922e+05	
82	4.100000e+00	2.156625e+05	
83	4.150000e+00	2.278045e+05	
84	4.200000e+00	2.398004e+05	
85	4.250000e+00	2.516363e+05	
86	4.300000e+00	2.633012e+05	
87	4.350000e+00	2.747868e+05	
88	4.400000e+00	2.860869e+05	
89	4.450000e+00	2.971972e+05	
90	4.500000e+00	3.081147e+05	
91	4.550000e+00	3.188378e+05	
92	4.600000e+00	3.293659e+05	
93	4.650000e+00	3.396994e+05	
94	4.700000e+00	3.498391e+05	
95	4.750000e+00	3.597867e+05	
96	4.800000e+00	3.695442e+05	
97	4.850000e+00	3.791139e+05	
98	4.900000e+00	3.884987e+05	
99	4.950000e+00	3.977014e+05	
100	5.000000e+00	4.067254e+05	
101	5.050000e+00	4.155738e+05	
102	5.100000e+00	4.242501e+05	
103	5.150000e+00	4.327578e+05	
104	5.200000e+00	4.411004e+05	
105	5.250000e+00	4.492815e+05	
106	5.300000e+00	4.573047e+05	
107	5.350000e+00	4.651734e+05	
108	5.400000e+00	4.728914e+05	
109	5.450000e+00	4.804619e+05	
110	5.500000e+00	4.878886e+05	
111	5.550000e+00	4.951748e+05	
112	5.600000e+00	5.023238e+05	

Index   v-sweep         rds             
--------------------------------------------------------------------------------
113	5.650000e+00	5.093390e+05	
114	5.700000e+00	5.162236e+05	
115	5.750000e+00	5.229807e+05	
116	5.800000e+00	5.296135e+05	
117	5.850000e+00	5.361249e+05	
118	5.900000e+00	5.425179e+05	
119	5.950000e+00	5.487953e+05	
120	6.000000e+00	5.549601e+05	
121	6.050000e+00	5.610148e+05	
122	6.100000e+00	5.669623e+05	
123	6.150000e+00	5.728050e+05	
124	6.200000e+00	5.785455e+05	
125	6.250000e+00	5.841862e+05	
126	6.300000e+00	5.897296e+05	
127	6.350000e+00	5.951780e+05	
128	6.400000e+00	6.005336e+05	
129	6.450000e+00	6.057987e+05	
130	6.500000e+00	6.109753e+05	
131	6.550000e+00	6.160656e+05	
132	6.600000e+00	6.210715e+05	
Reset re-loads circuit ***************************

Circuit: ***************************

Doing analysis at TEMP = 25.000000 and TNOM = 25.000000


No. of Data Rows : 133
                          ***************************
                          DC transfer characteristic  Mon Jan  9 13:57:42  2023
--------------------------------------------------------------------------------
Index   v-sweep         rds             
--------------------------------------------------------------------------------
0	0.000000e+00	1.335009e+03	
1	5.000000e-02	1.353665e+03	
2	1.000000e-01	1.372765e+03	
3	1.500000e-01	1.392324e+03	
4	2.000000e-01	1.412360e+03	
5	2.500000e-01	1.432889e+03	
6	3.000000e-01	1.453931e+03	
7	3.500000e-01	1.475504e+03	
8	4.000000e-01	1.497629e+03	
9	4.500000e-01	1.520328e+03	
10	5.000000e-01	1.543622e+03	
11	5.500000e-01	1.567535e+03	
12	6.000000e-01	1.592093e+03	
13	6.500000e-01	1.617322e+03	
14	7.000000e-01	1.643249e+03	
15	7.500000e-01	1.669904e+03	
16	8.000000e-01	1.697318e+03	
17	8.500000e-01	1.725523e+03	
18	9.000000e-01	1.754555e+03	
19	9.500000e-01	1.784450e+03	
20	1.000000e+00	1.815248e+03	
21	1.050000e+00	1.846989e+03	
22	1.100000e+00	1.879717e+03	
23	1.150000e+00	1.913480e+03	
24	1.200000e+00	1.948327e+03	
25	1.250000e+00	1.984311e+03	
26	1.300000e+00	2.021488e+03	
27	1.350000e+00	2.059919e+03	
28	1.400000e+00	2.099668e+03	
29	1.450000e+00	2.140805e+03	
30	1.500000e+00	2.183402e+03	
31	1.550000e+00	2.227540e+03	
32	1.600000e+00	2.273303e+03	
33	1.650000e+00	2.320782e+03	
34	1.700000e+00	2.370077e+03	
35	1.750000e+00	2.421293e+03	
36	1.800000e+00	2.474544e+03	
37	1.850000e+00	2.529955e+03	
38	1.900000e+00	2.587660e+03	
39	1.950000e+00	2.647804e+03	
40	2.000000e+00	2.710546e+03	
41	2.050000e+00	2.776057e+03	
42	2.100000e+00	2.844526e+03	
43	2.150000e+00	2.916158e+03	
44	2.200000e+00	2.991177e+03	
45	2.250000e+00	3.069831e+03	
46	2.300000e+00	3.152391e+03	
47	2.350000e+00	3.239157e+03	
48	2.400000e+00	3.330459e+03	
49	2.450000e+00	3.426665e+03	
50	2.500000e+00	3.528183e+03	
51	2.550000e+00	3.635468e+03	
52	2.600000e+00	3.749030e+03	
53	2.650000e+00	3.869441e+03	
54	2.700000e+00	3.997345e+03	

Index   v-sweep         rds             
--------------------------------------------------------------------------------
55	2.750000e+00	4.133473e+03	
56	2.800000e+00	4.278654e+03	
57	2.850000e+00	4.433834e+03	
58	2.900000e+00	4.600100e+03	
59	2.950000e+00	4.778708e+03	
60	3.000000e+00	4.971112e+03	
61	3.050000e+00	5.179015e+03	
62	3.100000e+00	5.404419e+03	
63	3.150000e+00	5.649700e+03	
64	3.200000e+00	5.917701e+03	
65	3.250000e+00	6.211857e+03	
66	3.300000e+00	6.536361e+03	
67	3.350000e+00	6.896388e+03	
68	3.400000e+00	7.298405e+03	
69	3.450000e+00	7.750594e+03	
70	3.500000e+00	8.263446e+03	
71	3.550000e+00	8.850576e+03	
72	3.600000e+00	9.529856e+03	
73	3.650000e+00	1.032493e+04	
74	3.700000e+00	1.126716e+04	
75	3.750000e+00	1.239796e+04	
76	3.800000e+00	1.377102e+04	
77	3.850000e+00	1.545379e+04	
78	3.900000e+00	1.752652e+04	
79	3.950000e+00	2.007764e+04	
80	4.000000e+00	2.319450e+04	
81	4.050000e+00	2.695126e+04	
82	4.100000e+00	3.139744e+04	
83	4.150000e+00	3.655112e+04	
84	4.200000e+00	4.239863e+04	
85	4.250000e+00	4.889972e+04	
86	4.300000e+00	5.599541e+04	
87	4.350000e+00	6.361617e+04	
88	4.400000e+00	7.168859e+04	
89	4.450000e+00	8.014029e+04	
90	4.500000e+00	8.890296e+04	
91	4.550000e+00	9.791408e+04	
92	4.600000e+00	1.071176e+05	
93	4.650000e+00	1.164641e+05	
94	4.700000e+00	1.259104e+05	
95	4.750000e+00	1.354192e+05	
96	4.800000e+00	1.449584e+05	
97	4.850000e+00	1.545006e+05	
98	4.900000e+00	1.640224e+05	
99	4.950000e+00	1.735042e+05	
100	5.000000e+00	1.829294e+05	
101	5.050000e+00	1.922839e+05	
102	5.100000e+00	2.015562e+05	
103	5.150000e+00	2.107367e+05	
104	5.200000e+00	2.198174e+05	
105	5.250000e+00	2.287921e+05	
106	5.300000e+00	2.376555e+05	
107	5.350000e+00	2.464035e+05	
108	5.400000e+00	2.550332e+05	
109	5.450000e+00	2.635421e+05	
110	5.500000e+00	2.719287e+05	
111	5.550000e+00	2.801918e+05	
112	5.600000e+00	2.883310e+05	

Index   v-sweep         rds             
--------------------------------------------------------------------------------
113	5.650000e+00	2.963461e+05	
114	5.700000e+00	3.042373e+05	
115	5.750000e+00	3.120053e+05	
116	5.800000e+00	3.196508e+05	
117	5.850000e+00	3.271749e+05	
118	5.900000e+00	3.345787e+05	
119	5.950000e+00	3.418638e+05	
120	6.000000e+00	3.490314e+05	
121	6.050000e+00	3.560833e+05	
122	6.100000e+00	3.630211e+05	
123	6.150000e+00	3.698466e+05	
124	6.200000e+00	3.765616e+05	
125	6.250000e+00	3.831679e+05	
126	6.300000e+00	3.896674e+05	
127	6.350000e+00	3.960619e+05	
128	6.400000e+00	4.023534e+05	
129	6.450000e+00	4.085437e+05	
130	6.500000e+00	4.146348e+05	
131	6.550000e+00	4.206285e+05	
132	6.600000e+00	4.265267e+05	
Reset re-loads circuit ***************************

Circuit: ***************************

Note: No ".plot", ".print", or ".fourier" lines; no simulations run
