
Note: Compatibility modes selected: hs

Warning: m=xx on .subckt line will override multiplier m hierarchy!


Circuit: ***************************

Doing analysis at TEMP = 125.000000 and TNOM = 125.000000


No. of Data Rows : 133
                          ***************************
                          DC transfer characteristic  Mon Jan  9 13:57:42  2023
--------------------------------------------------------------------------------
Index   v-sweep         rds             
--------------------------------------------------------------------------------
0	0.000000e+00	1.622789e+04	
1	5.000000e-02	1.884533e+04	
2	1.000000e-01	2.243884e+04	
3	1.500000e-01	2.766484e+04	
4	2.000000e-01	3.589945e+04	
5	2.500000e-01	5.044062e+04	
6	3.000000e-01	8.040648e+04	
7	3.500000e-01	1.526408e+05	
8	4.000000e-01	3.313499e+05	
9	4.500000e-01	6.980054e+05	
10	5.000000e-01	1.266531e+06	
11	5.500000e-01	1.959620e+06	
12	6.000000e-01	2.677297e+06	
13	6.500000e-01	3.351762e+06	
14	7.000000e-01	3.953644e+06	
15	7.500000e-01	4.477869e+06	
16	8.000000e-01	4.930503e+06	
17	8.500000e-01	5.321202e+06	
18	9.000000e-01	5.659779e+06	
19	9.500000e-01	5.954938e+06	
20	1.000000e+00	6.213975e+06	
21	1.050000e+00	6.442860e+06	
22	1.100000e+00	6.646432e+06	
23	1.150000e+00	6.828612e+06	
24	1.200000e+00	6.992584e+06	
25	1.250000e+00	7.140946e+06	
26	1.300000e+00	7.275837e+06	
27	1.350000e+00	7.399024e+06	
28	1.400000e+00	7.511982e+06	
29	1.450000e+00	7.615947e+06	
30	1.500000e+00	7.711965e+06	
31	1.550000e+00	7.800924e+06	
32	1.600000e+00	7.883586e+06	
33	1.650000e+00	7.960603e+06	
34	1.700000e+00	8.032541e+06	
35	1.750000e+00	8.099894e+06	
36	1.800000e+00	8.163091e+06	
37	1.850000e+00	8.222509e+06	
38	1.900000e+00	8.278481e+06	
39	1.950000e+00	8.331301e+06	
40	2.000000e+00	8.381230e+06	
41	2.050000e+00	8.428502e+06	
42	2.100000e+00	8.473325e+06	
43	2.150000e+00	8.515886e+06	
44	2.200000e+00	8.556353e+06	
45	2.250000e+00	8.594877e+06	
46	2.300000e+00	8.631597e+06	
47	2.350000e+00	8.666637e+06	
48	2.400000e+00	8.700109e+06	
49	2.450000e+00	8.732118e+06	
50	2.500000e+00	8.762758e+06	
51	2.550000e+00	8.792114e+06	
52	2.600000e+00	8.820267e+06	
53	2.650000e+00	8.847289e+06	
54	2.700000e+00	8.873246e+06	

Index   v-sweep         rds             
--------------------------------------------------------------------------------
55	2.750000e+00	8.898201e+06	
56	2.800000e+00	8.922210e+06	
57	2.850000e+00	8.945326e+06	
58	2.900000e+00	8.967599e+06	
59	2.950000e+00	8.989073e+06	
60	3.000000e+00	9.009791e+06	
61	3.050000e+00	9.029792e+06	
62	3.100000e+00	9.049113e+06	
63	3.150000e+00	9.067786e+06	
64	3.200000e+00	9.085846e+06	
65	3.250000e+00	9.103320e+06	
66	3.300000e+00	9.120237e+06	
67	3.350000e+00	9.136624e+06	
68	3.400000e+00	9.152504e+06	
69	3.450000e+00	9.167901e+06	
70	3.500000e+00	9.182836e+06	
71	3.550000e+00	9.197330e+06	
72	3.600000e+00	9.211402e+06	
73	3.650000e+00	9.225070e+06	
74	3.700000e+00	9.238351e+06	
75	3.750000e+00	9.251261e+06	
76	3.800000e+00	9.263815e+06	
77	3.850000e+00	9.276028e+06	
78	3.900000e+00	9.287913e+06	
79	3.950000e+00	9.299484e+06	
80	4.000000e+00	9.310753e+06	
81	4.050000e+00	9.321730e+06	
82	4.100000e+00	9.332428e+06	
83	4.150000e+00	9.342857e+06	
84	4.200000e+00	9.353026e+06	
85	4.250000e+00	9.362945e+06	
86	4.300000e+00	9.372624e+06	
87	4.350000e+00	9.382070e+06	
88	4.400000e+00	9.391292e+06	
89	4.450000e+00	9.400298e+06	
90	4.500000e+00	9.409095e+06	
91	4.550000e+00	9.417691e+06	
92	4.600000e+00	9.426091e+06	
93	4.650000e+00	9.434303e+06	
94	4.700000e+00	9.442333e+06	
95	4.750000e+00	9.450187e+06	
96	4.800000e+00	9.457870e+06	
97	4.850000e+00	9.465388e+06	
98	4.900000e+00	9.472746e+06	
99	4.950000e+00	9.479949e+06	
100	5.000000e+00	9.487002e+06	
101	5.050000e+00	9.493909e+06	
102	5.100000e+00	9.500675e+06	
103	5.150000e+00	9.507304e+06	
104	5.200000e+00	9.513801e+06	
105	5.250000e+00	9.520168e+06	
106	5.300000e+00	9.526410e+06	
107	5.350000e+00	9.532531e+06	
108	5.400000e+00	9.538533e+06	
109	5.450000e+00	9.544421e+06	
110	5.500000e+00	9.550197e+06	
111	5.550000e+00	9.555865e+06	
112	5.600000e+00	9.561427e+06	

Index   v-sweep         rds             
--------------------------------------------------------------------------------
113	5.650000e+00	9.566887e+06	
114	5.700000e+00	9.572246e+06	
115	5.750000e+00	9.577509e+06	
116	5.800000e+00	9.582677e+06	
117	5.850000e+00	9.587753e+06	
118	5.900000e+00	9.592739e+06	
119	5.950000e+00	9.597638e+06	
120	6.000000e+00	9.602452e+06	
121	6.050000e+00	9.607183e+06	
122	6.100000e+00	9.611833e+06	
123	6.150000e+00	9.616404e+06	
124	6.200000e+00	9.620898e+06	
125	6.250000e+00	9.625317e+06	
126	6.300000e+00	9.629664e+06	
127	6.350000e+00	9.633938e+06	
128	6.400000e+00	9.638143e+06	
129	6.450000e+00	9.642280e+06	
130	6.500000e+00	9.646351e+06	
131	6.550000e+00	9.650357e+06	
132	6.600000e+00	9.654299e+06	
Reset re-loads circuit ***************************

Circuit: ***************************

Doing analysis at TEMP = 125.000000 and TNOM = 125.000000


No. of Data Rows : 133
                          ***************************
                          DC transfer characteristic  Mon Jan  9 13:57:42  2023
--------------------------------------------------------------------------------
Index   v-sweep         rds             
--------------------------------------------------------------------------------
0	0.000000e+00	5.267100e+03	
1	5.000000e-02	5.529201e+03	
2	1.000000e-01	5.817101e+03	
3	1.500000e-01	6.134802e+03	
4	2.000000e-01	6.487178e+03	
5	2.500000e-01	6.880223e+03	
6	3.000000e-01	7.321395e+03	
7	3.500000e-01	7.820090e+03	
8	4.000000e-01	8.388310e+03	
9	4.500000e-01	9.041631e+03	
10	5.000000e-01	9.800627e+03	
11	5.500000e-01	1.069303e+04	
12	6.000000e-01	1.175708e+04	
13	6.500000e-01	1.304697e+04	
14	7.000000e-01	1.464178e+04	
15	7.500000e-01	1.666112e+04	
16	8.000000e-01	1.929311e+04	
17	8.500000e-01	2.284666e+04	
18	9.000000e-01	2.785143e+04	
19	9.500000e-01	3.524680e+04	
20	1.000000e+00	4.670773e+04	
21	1.050000e+00	6.505498e+04	
22	1.100000e+00	9.432157e+04	
23	1.150000e+00	1.386817e+05	
24	1.200000e+00	2.003486e+05	
25	1.250000e+00	2.782603e+05	
26	1.300000e+00	3.687509e+05	
27	1.350000e+00	4.672257e+05	
28	1.400000e+00	5.694795e+05	
29	1.450000e+00	6.722639e+05	
30	1.500000e+00	7.733322e+05	
31	1.550000e+00	8.712620e+05	
32	1.600000e+00	9.652351e+05	
33	1.650000e+00	1.054847e+06	
34	1.700000e+00	1.139963e+06	
35	1.750000e+00	1.220620e+06	
36	1.800000e+00	1.296954e+06	
37	1.850000e+00	1.369161e+06	
38	1.900000e+00	1.437465e+06	
39	1.950000e+00	1.502101e+06	
40	2.000000e+00	1.563303e+06	
41	2.050000e+00	1.621298e+06	
42	2.100000e+00	1.676302e+06	
43	2.150000e+00	1.728519e+06	
44	2.200000e+00	1.778139e+06	
45	2.250000e+00	1.825338e+06	
46	2.300000e+00	1.870278e+06	
47	2.350000e+00	1.913110e+06	
48	2.400000e+00	1.953974e+06	
49	2.450000e+00	1.992996e+06	
50	2.500000e+00	2.030295e+06	
51	2.550000e+00	2.065979e+06	
52	2.600000e+00	2.100148e+06	
53	2.650000e+00	2.132896e+06	
54	2.700000e+00	2.164306e+06	

Index   v-sweep         rds             
--------------------------------------------------------------------------------
55	2.750000e+00	2.194457e+06	
56	2.800000e+00	2.223424e+06	
57	2.850000e+00	2.251273e+06	
58	2.900000e+00	2.278067e+06	
59	2.950000e+00	2.303863e+06	
60	3.000000e+00	2.328717e+06	
61	3.050000e+00	2.352678e+06	
62	3.100000e+00	2.375794e+06	
63	3.150000e+00	2.398107e+06	
64	3.200000e+00	2.419658e+06	
65	3.250000e+00	2.440486e+06	
66	3.300000e+00	2.460626e+06	
67	3.350000e+00	2.480112e+06	
68	3.400000e+00	2.498974e+06	
69	3.450000e+00	2.517242e+06	
70	3.500000e+00	2.534943e+06	
71	3.550000e+00	2.552103e+06	
72	3.600000e+00	2.568746e+06	
73	3.650000e+00	2.584896e+06	
74	3.700000e+00	2.600574e+06	
75	3.750000e+00	2.615799e+06	
76	3.800000e+00	2.630592e+06	
77	3.850000e+00	2.644971e+06	
78	3.900000e+00	2.658951e+06	
79	3.950000e+00	2.672551e+06	
80	4.000000e+00	2.685784e+06	
81	4.050000e+00	2.698666e+06	
82	4.100000e+00	2.711210e+06	
83	4.150000e+00	2.723429e+06	
84	4.200000e+00	2.735336e+06	
85	4.250000e+00	2.746942e+06	
86	4.300000e+00	2.758259e+06	
87	4.350000e+00	2.769297e+06	
88	4.400000e+00	2.780067e+06	
89	4.450000e+00	2.790578e+06	
90	4.500000e+00	2.800839e+06	
91	4.550000e+00	2.810859e+06	
92	4.600000e+00	2.820646e+06	
93	4.650000e+00	2.830208e+06	
94	4.700000e+00	2.839554e+06	
95	4.750000e+00	2.848689e+06	
96	4.800000e+00	2.857622e+06	
97	4.850000e+00	2.866359e+06	
98	4.900000e+00	2.874906e+06	
99	4.950000e+00	2.883269e+06	
100	5.000000e+00	2.891454e+06	
101	5.050000e+00	2.899466e+06	
102	5.100000e+00	2.907312e+06	
103	5.150000e+00	2.914996e+06	
104	5.200000e+00	2.922524e+06	
105	5.250000e+00	2.929899e+06	
106	5.300000e+00	2.937126e+06	
107	5.350000e+00	2.944210e+06	
108	5.400000e+00	2.951155e+06	
109	5.450000e+00	2.957965e+06	
110	5.500000e+00	2.964644e+06	
111	5.550000e+00	2.971196e+06	
112	5.600000e+00	2.977623e+06	

Index   v-sweep         rds             
--------------------------------------------------------------------------------
113	5.650000e+00	2.983931e+06	
114	5.700000e+00	2.990121e+06	
115	5.750000e+00	2.996198e+06	
116	5.800000e+00	3.002164e+06	
117	5.850000e+00	3.008022e+06	
118	5.900000e+00	3.013775e+06	
119	5.950000e+00	3.019426e+06	
120	6.000000e+00	3.024978e+06	
121	6.050000e+00	3.030433e+06	
122	6.100000e+00	3.035793e+06	
123	6.150000e+00	3.041062e+06	
124	6.200000e+00	3.046241e+06	
125	6.250000e+00	3.051333e+06	
126	6.300000e+00	3.056340e+06	
127	6.350000e+00	3.061263e+06	
128	6.400000e+00	3.066106e+06	
129	6.450000e+00	3.070870e+06	
130	6.500000e+00	3.075556e+06	
131	6.550000e+00	3.080167e+06	
132	6.600000e+00	3.084705e+06	
Reset re-loads circuit ***************************

Circuit: ***************************

Doing analysis at TEMP = 125.000000 and TNOM = 125.000000


No. of Data Rows : 133
                          ***************************
                          DC transfer characteristic  Mon Jan  9 13:57:42  2023
--------------------------------------------------------------------------------
Index   v-sweep         rds             
--------------------------------------------------------------------------------
0	0.000000e+00	3.378880e+03	
1	5.000000e-02	3.479855e+03	
2	1.000000e-01	3.586471e+03	
3	1.500000e-01	3.699214e+03	
4	2.000000e-01	3.818625e+03	
5	2.500000e-01	3.945315e+03	
6	3.000000e-01	4.079970e+03	
7	3.500000e-01	4.223363e+03	
8	4.000000e-01	4.376374e+03	
9	4.500000e-01	4.540002e+03	
10	5.000000e-01	4.715392e+03	
11	5.500000e-01	4.903857e+03	
12	6.000000e-01	5.106915e+03	
13	6.500000e-01	5.326328e+03	
14	7.000000e-01	5.564153e+03	
15	7.500000e-01	5.822807e+03	
16	8.000000e-01	6.105149e+03	
17	8.500000e-01	6.414586e+03	
18	9.000000e-01	6.755210e+03	
19	9.500000e-01	7.131980e+03	
20	1.000000e+00	7.550962e+03	
21	1.050000e+00	8.019659e+03	
22	1.100000e+00	8.547454e+03	
23	1.150000e+00	9.146239e+03	
24	1.200000e+00	9.831304e+03	
25	1.250000e+00	1.062263e+04	
26	1.300000e+00	1.154678e+04	
27	1.350000e+00	1.263981e+04	
28	1.400000e+00	1.395174e+04	
29	1.450000e+00	1.555360e+04	
30	1.500000e+00	1.754878e+04	
31	1.550000e+00	2.009148e+04	
32	1.600000e+00	2.341597e+04	
33	1.650000e+00	2.788091e+04	
34	1.700000e+00	3.402659e+04	
35	1.750000e+00	4.262293e+04	
36	1.800000e+00	5.464759e+04	
37	1.850000e+00	7.111764e+04	
38	1.900000e+00	9.278507e+04	
39	1.950000e+00	1.198650e+05	
40	2.000000e+00	1.519808e+05	
41	2.050000e+00	1.883279e+05	
42	2.100000e+00	2.279145e+05	
43	2.150000e+00	2.697549e+05	
44	2.200000e+00	3.129792e+05	
45	2.250000e+00	3.568735e+05	
46	2.300000e+00	4.008802e+05	
47	2.350000e+00	4.445787e+05	
48	2.400000e+00	4.876613e+05	
49	2.450000e+00	5.299093e+05	
50	2.500000e+00	5.711726e+05	
51	2.550000e+00	6.113534e+05	
52	2.600000e+00	6.503925e+05	
53	2.650000e+00	6.882599e+05	
54	2.700000e+00	7.249465e+05	

Index   v-sweep         rds             
--------------------------------------------------------------------------------
55	2.750000e+00	7.604590e+05	
56	2.800000e+00	7.948147e+05	
57	2.850000e+00	8.280389e+05	
58	2.900000e+00	8.601621e+05	
59	2.950000e+00	8.912184e+05	
60	3.000000e+00	9.212439e+05	
61	3.050000e+00	9.502757e+05	
62	3.100000e+00	9.783513e+05	
63	3.150000e+00	1.005508e+06	
64	3.200000e+00	1.031783e+06	
65	3.250000e+00	1.057211e+06	
66	3.300000e+00	1.081828e+06	
67	3.350000e+00	1.105668e+06	
68	3.400000e+00	1.128762e+06	
69	3.450000e+00	1.151141e+06	
70	3.500000e+00	1.172836e+06	
71	3.550000e+00	1.193875e+06	
72	3.600000e+00	1.214284e+06	
73	3.650000e+00	1.234091e+06	
74	3.700000e+00	1.253319e+06	
75	3.750000e+00	1.271992e+06	
76	3.800000e+00	1.290133e+06	
77	3.850000e+00	1.307763e+06	
78	3.900000e+00	1.324902e+06	
79	3.950000e+00	1.341570e+06	
80	4.000000e+00	1.357784e+06	
81	4.050000e+00	1.373563e+06	
82	4.100000e+00	1.388923e+06	
83	4.150000e+00	1.403881e+06	
84	4.200000e+00	1.418450e+06	
85	4.250000e+00	1.432647e+06	
86	4.300000e+00	1.446483e+06	
87	4.350000e+00	1.459974e+06	
88	4.400000e+00	1.473130e+06	
89	4.450000e+00	1.485965e+06	
90	4.500000e+00	1.498489e+06	
91	4.550000e+00	1.510713e+06	
92	4.600000e+00	1.522648e+06	
93	4.650000e+00	1.534304e+06	
94	4.700000e+00	1.545689e+06	
95	4.750000e+00	1.556815e+06	
96	4.800000e+00	1.567688e+06	
97	4.850000e+00	1.578317e+06	
98	4.900000e+00	1.588711e+06	
99	4.950000e+00	1.598876e+06	
100	5.000000e+00	1.608821e+06	
101	5.050000e+00	1.618552e+06	
102	5.100000e+00	1.628076e+06	
103	5.150000e+00	1.637399e+06	
104	5.200000e+00	1.646528e+06	
105	5.250000e+00	1.655468e+06	
106	5.300000e+00	1.664226e+06	
107	5.350000e+00	1.672806e+06	
108	5.400000e+00	1.681214e+06	
109	5.450000e+00	1.689456e+06	
110	5.500000e+00	1.697535e+06	
111	5.550000e+00	1.705456e+06	
112	5.600000e+00	1.713225e+06	

Index   v-sweep         rds             
--------------------------------------------------------------------------------
113	5.650000e+00	1.720845e+06	
114	5.700000e+00	1.728321e+06	
115	5.750000e+00	1.735656e+06	
116	5.800000e+00	1.742855e+06	
117	5.850000e+00	1.749921e+06	
118	5.900000e+00	1.756858e+06	
119	5.950000e+00	1.763669e+06	
120	6.000000e+00	1.770357e+06	
121	6.050000e+00	1.776927e+06	
122	6.100000e+00	1.783381e+06	
123	6.150000e+00	1.789721e+06	
124	6.200000e+00	1.795952e+06	
125	6.250000e+00	1.802076e+06	
126	6.300000e+00	1.808095e+06	
127	6.350000e+00	1.814012e+06	
128	6.400000e+00	1.819829e+06	
129	6.450000e+00	1.825550e+06	
130	6.500000e+00	1.831176e+06	
131	6.550000e+00	1.836710e+06	
132	6.600000e+00	1.842155e+06	
Reset re-loads circuit ***************************

Circuit: ***************************

Doing analysis at TEMP = 125.000000 and TNOM = 125.000000


No. of Data Rows : 133
                          ***************************
                          DC transfer characteristic  Mon Jan  9 13:57:42  2023
--------------------------------------------------------------------------------
Index   v-sweep         rds             
--------------------------------------------------------------------------------
0	0.000000e+00	2.633105e+03	
1	5.000000e-02	2.689439e+03	
2	1.000000e-01	2.747940e+03	
3	1.500000e-01	2.808735e+03	
4	2.000000e-01	2.871962e+03	
5	2.500000e-01	2.937769e+03	
6	3.000000e-01	3.006316e+03	
7	3.500000e-01	3.077780e+03	
8	4.000000e-01	3.152348e+03	
9	4.500000e-01	3.230229e+03	
10	5.000000e-01	3.311647e+03	
11	5.500000e-01	3.396849e+03	
12	6.000000e-01	3.486104e+03	
13	6.500000e-01	3.579709e+03	
14	7.000000e-01	3.677988e+03	
15	7.500000e-01	3.781301e+03	
16	8.000000e-01	3.890044e+03	
17	8.500000e-01	4.004658e+03	
18	9.000000e-01	4.125628e+03	
19	9.500000e-01	4.253501e+03	
20	1.000000e+00	4.388883e+03	
21	1.050000e+00	4.532455e+03	
22	1.100000e+00	4.684984e+03	
23	1.150000e+00	4.847335e+03	
24	1.200000e+00	5.020488e+03	
25	1.250000e+00	5.205558e+03	
26	1.300000e+00	5.403820e+03	
27	1.350000e+00	5.616738e+03	
28	1.400000e+00	5.846000e+03	
29	1.450000e+00	6.093563e+03	
30	1.500000e+00	6.361714e+03	
31	1.550000e+00	6.653134e+03	
32	1.600000e+00	6.970995e+03	
33	1.650000e+00	7.319073e+03	
34	1.700000e+00	7.701900e+03	
35	1.750000e+00	8.124964e+03	
36	1.800000e+00	8.594976e+03	
37	1.850000e+00	9.120226e+03	
38	1.900000e+00	9.711082e+03	
39	1.950000e+00	1.038067e+04	
40	2.000000e+00	1.114585e+04	
41	2.050000e+00	1.202861e+04	
42	2.100000e+00	1.305810e+04	
43	2.150000e+00	1.427366e+04	
44	2.200000e+00	1.572930e+04	
45	2.250000e+00	1.750038e+04	
46	2.300000e+00	1.969331e+04	
47	2.350000e+00	2.245892e+04	
48	2.400000e+00	2.600868e+04	
49	2.450000e+00	3.062907e+04	
50	2.500000e+00	3.668263e+04	
51	2.550000e+00	4.457888e+04	
52	2.600000e+00	5.470576e+04	
53	2.650000e+00	6.733896e+04	
54	2.700000e+00	8.257231e+04	

Index   v-sweep         rds             
--------------------------------------------------------------------------------
55	2.750000e+00	1.003039e+05	
56	2.800000e+00	1.202763e+05	
57	2.850000e+00	1.421411e+05	
58	2.900000e+00	1.655196e+05	
59	2.950000e+00	1.900456e+05	
60	3.000000e+00	2.153889e+05	
61	3.050000e+00	2.412654e+05	
62	3.100000e+00	2.674379e+05	
63	3.150000e+00	2.937133e+05	
64	3.200000e+00	3.199364e+05	
65	3.250000e+00	3.459847e+05	
66	3.300000e+00	3.717627e+05	
67	3.350000e+00	3.971969e+05	
68	3.400000e+00	4.222316e+05	
69	3.450000e+00	4.468257e+05	
70	3.500000e+00	4.709496e+05	
71	3.550000e+00	4.945830e+05	
72	3.600000e+00	5.177131e+05	
73	3.650000e+00	5.403326e+05	
74	3.700000e+00	5.624392e+05	
75	3.750000e+00	5.840340e+05	
76	3.800000e+00	6.051212e+05	
77	3.850000e+00	6.257069e+05	
78	3.900000e+00	6.457992e+05	
79	3.950000e+00	6.654073e+05	
80	4.000000e+00	6.845413e+05	
81	4.050000e+00	7.032121e+05	
82	4.100000e+00	7.214311e+05	
83	4.150000e+00	7.392098e+05	
84	4.200000e+00	7.565602e+05	
85	4.250000e+00	7.734938e+05	
86	4.300000e+00	7.900227e+05	
87	4.350000e+00	8.061584e+05	
88	4.400000e+00	8.219124e+05	
89	4.450000e+00	8.372960e+05	
90	4.500000e+00	8.523203e+05	
91	4.550000e+00	8.669961e+05	
92	4.600000e+00	8.813340e+05	
93	4.650000e+00	8.953441e+05	
94	4.700000e+00	9.090364e+05	
95	4.750000e+00	9.224205e+05	
96	4.800000e+00	9.355059e+05	
97	4.850000e+00	9.483015e+05	
98	4.900000e+00	9.608162e+05	
99	4.950000e+00	9.730583e+05	
100	5.000000e+00	9.850361e+05	
101	5.050000e+00	9.967574e+05	
102	5.100000e+00	1.008230e+06	
103	5.150000e+00	1.019461e+06	
104	5.200000e+00	1.030458e+06	
105	5.250000e+00	1.041227e+06	
106	5.300000e+00	1.051776e+06	
107	5.350000e+00	1.062110e+06	
108	5.400000e+00	1.072236e+06	
109	5.450000e+00	1.082159e+06	
110	5.500000e+00	1.091886e+06	
111	5.550000e+00	1.101422e+06	
112	5.600000e+00	1.110772e+06	

Index   v-sweep         rds             
--------------------------------------------------------------------------------
113	5.650000e+00	1.119942e+06	
114	5.700000e+00	1.128937e+06	
115	5.750000e+00	1.137760e+06	
116	5.800000e+00	1.146418e+06	
117	5.850000e+00	1.154914e+06	
118	5.900000e+00	1.163253e+06	
119	5.950000e+00	1.171439e+06	
120	6.000000e+00	1.179476e+06	
121	6.050000e+00	1.187369e+06	
122	6.100000e+00	1.195119e+06	
123	6.150000e+00	1.202733e+06	
124	6.200000e+00	1.210212e+06	
125	6.250000e+00	1.217561e+06	
126	6.300000e+00	1.224782e+06	
127	6.350000e+00	1.231880e+06	
128	6.400000e+00	1.238856e+06	
129	6.450000e+00	1.245714e+06	
130	6.500000e+00	1.252458e+06	
131	6.550000e+00	1.259089e+06	
132	6.600000e+00	1.265610e+06	
Reset re-loads circuit ***************************

Circuit: ***************************

Doing analysis at TEMP = 125.000000 and TNOM = 125.000000


No. of Data Rows : 133
                          ***************************
                          DC transfer characteristic  Mon Jan  9 13:57:42  2023
--------------------------------------------------------------------------------
Index   v-sweep         rds             
--------------------------------------------------------------------------------
0	0.000000e+00	2.258376e+03	
1	5.000000e-02	2.295840e+03	
2	1.000000e-01	2.334388e+03	
3	1.500000e-01	2.374069e+03	
4	2.000000e-01	2.414932e+03	
5	2.500000e-01	2.457033e+03	
6	3.000000e-01	2.500426e+03	
7	3.500000e-01	2.545174e+03	
8	4.000000e-01	2.591340e+03	
9	4.500000e-01	2.638992e+03	
10	5.000000e-01	2.688204e+03	
11	5.500000e-01	2.739052e+03	
12	6.000000e-01	2.791620e+03	
13	6.500000e-01	2.845996e+03	
14	7.000000e-01	2.902276e+03	
15	7.500000e-01	2.960560e+03	
16	8.000000e-01	3.020957e+03	
17	8.500000e-01	3.083585e+03	
18	9.000000e-01	3.148569e+03	
19	9.500000e-01	3.216044e+03	
20	1.000000e+00	3.286157e+03	
21	1.050000e+00	3.359065e+03	
22	1.100000e+00	3.434937e+03	
23	1.150000e+00	3.513959e+03	
24	1.200000e+00	3.596331e+03	
25	1.250000e+00	3.682271e+03	
26	1.300000e+00	3.772014e+03	
27	1.350000e+00	3.865819e+03	
28	1.400000e+00	3.963968e+03	
29	1.450000e+00	4.066770e+03	
30	1.500000e+00	4.174564e+03	
31	1.550000e+00	4.287723e+03	
32	1.600000e+00	4.406657e+03	
33	1.650000e+00	4.531820e+03	
34	1.700000e+00	4.663716e+03	
35	1.750000e+00	4.802902e+03	
36	1.800000e+00	4.950002e+03	
37	1.850000e+00	5.105711e+03	
38	1.900000e+00	5.270809e+03	
39	1.950000e+00	5.446172e+03	
40	2.000000e+00	5.632793e+03	
41	2.050000e+00	5.831794e+03	
42	2.100000e+00	6.044453e+03	
43	2.150000e+00	6.272232e+03	
44	2.200000e+00	6.516812e+03	
45	2.250000e+00	6.780131e+03	
46	2.300000e+00	7.064443e+03	
47	2.350000e+00	7.372380e+03	
48	2.400000e+00	7.707040e+03	
49	2.450000e+00	8.072091e+03	
50	2.500000e+00	8.471913e+03	
51	2.550000e+00	8.911784e+03	
52	2.600000e+00	9.398117e+03	
53	2.650000e+00	9.938791e+03	
54	2.700000e+00	1.054359e+04	

Index   v-sweep         rds             
--------------------------------------------------------------------------------
55	2.750000e+00	1.122483e+04	
56	2.800000e+00	1.199819e+04	
57	2.850000e+00	1.288393e+04	
58	2.900000e+00	1.390859e+04	
59	2.950000e+00	1.510741e+04	
60	3.000000e+00	1.652774e+04	
61	3.050000e+00	1.823365e+04	
62	3.100000e+00	2.031181e+04	
63	3.150000e+00	2.287811e+04	
64	3.200000e+00	2.608305e+04	
65	3.250000e+00	3.011189e+04	
66	3.300000e+00	3.517436e+04	
67	3.350000e+00	4.148022e+04	
68	3.400000e+00	4.920424e+04	
69	3.450000e+00	5.845244e+04	
70	3.500000e+00	6.924358e+04	
71	3.550000e+00	8.151185e+04	
72	3.600000e+00	9.512605e+04	
73	3.650000e+00	1.099151e+05	
74	3.700000e+00	1.256915e+05	
75	3.750000e+00	1.422691e+05	
76	3.800000e+00	1.594737e+05	
77	3.850000e+00	1.771488e+05	
78	3.900000e+00	1.951578e+05	
79	3.950000e+00	2.133836e+05	
80	4.000000e+00	2.317273e+05	
81	4.050000e+00	2.501065e+05	
82	4.100000e+00	2.684528e+05	
83	4.150000e+00	2.867101e+05	
84	4.200000e+00	3.048325e+05	
85	4.250000e+00	3.227833e+05	
86	4.300000e+00	3.405326e+05	
87	4.350000e+00	3.580571e+05	
88	4.400000e+00	3.753384e+05	
89	4.450000e+00	3.923625e+05	
90	4.500000e+00	4.091187e+05	
91	4.550000e+00	4.255996e+05	
92	4.600000e+00	4.418000e+05	
93	4.650000e+00	4.577169e+05	
94	4.700000e+00	4.733489e+05	
95	4.750000e+00	4.886959e+05	
96	4.800000e+00	5.037590e+05	
97	4.850000e+00	5.185403e+05	
98	4.900000e+00	5.330426e+05	
99	4.950000e+00	5.472693e+05	
100	5.000000e+00	5.612242e+05	
101	5.050000e+00	5.749116e+05	
102	5.100000e+00	5.883362e+05	
103	5.150000e+00	6.015027e+05	
104	5.200000e+00	6.144160e+05	
105	5.250000e+00	6.270813e+05	
106	5.300000e+00	6.395038e+05	
107	5.350000e+00	6.516886e+05	
108	5.400000e+00	6.636410e+05	
109	5.450000e+00	6.753661e+05	
110	5.500000e+00	6.868691e+05	
111	5.550000e+00	6.981553e+05	
112	5.600000e+00	7.092295e+05	

Index   v-sweep         rds             
--------------------------------------------------------------------------------
113	5.650000e+00	7.200969e+05	
114	5.700000e+00	7.307622e+05	
115	5.750000e+00	7.412304e+05	
116	5.800000e+00	7.515062e+05	
117	5.850000e+00	7.615941e+05	
118	5.900000e+00	7.714988e+05	
119	5.950000e+00	7.812246e+05	
120	6.000000e+00	7.907758e+05	
121	6.050000e+00	8.001567e+05	
122	6.100000e+00	8.093713e+05	
123	6.150000e+00	8.184238e+05	
124	6.200000e+00	8.273178e+05	
125	6.250000e+00	8.360574e+05	
126	6.300000e+00	8.446461e+05	
127	6.350000e+00	8.530876e+05	
128	6.400000e+00	8.613854e+05	
129	6.450000e+00	8.695428e+05	
130	6.500000e+00	8.775632e+05	
131	6.550000e+00	8.854498e+05	
132	6.600000e+00	8.932058e+05	
Reset re-loads circuit ***************************

Circuit: ***************************

Doing analysis at TEMP = 125.000000 and TNOM = 125.000000


No. of Data Rows : 133
                          ***************************
                          DC transfer characteristic  Mon Jan  9 13:57:42  2023
--------------------------------------------------------------------------------
Index   v-sweep         rds             
--------------------------------------------------------------------------------
0	0.000000e+00	2.050140e+03	
1	5.000000e-02	2.077705e+03	
2	1.000000e-01	2.105902e+03	
3	1.500000e-01	2.134753e+03	
4	2.000000e-01	2.164281e+03	
5	2.500000e-01	2.194510e+03	
6	3.000000e-01	2.225466e+03	
7	3.500000e-01	2.257175e+03	
8	4.000000e-01	2.289664e+03	
9	4.500000e-01	2.322963e+03	
10	5.000000e-01	2.357102e+03	
11	5.500000e-01	2.392114e+03	
12	6.000000e-01	2.428031e+03	
13	6.500000e-01	2.464891e+03	
14	7.000000e-01	2.502729e+03	
15	7.500000e-01	2.541586e+03	
16	8.000000e-01	2.581503e+03	
17	8.500000e-01	2.622523e+03	
18	9.000000e-01	2.664694e+03	
19	9.500000e-01	2.708065e+03	
20	1.000000e+00	2.752686e+03	
21	1.050000e+00	2.798613e+03	
22	1.100000e+00	2.845904e+03	
23	1.150000e+00	2.894621e+03	
24	1.200000e+00	2.944828e+03	
25	1.250000e+00	2.996595e+03	
26	1.300000e+00	3.049997e+03	
27	1.350000e+00	3.105110e+03	
28	1.400000e+00	3.162020e+03	
29	1.450000e+00	3.220814e+03	
30	1.500000e+00	3.281589e+03	
31	1.550000e+00	3.344446e+03	
32	1.600000e+00	3.409494e+03	
33	1.650000e+00	3.476848e+03	
34	1.700000e+00	3.546634e+03	
35	1.750000e+00	3.618987e+03	
36	1.800000e+00	3.694049e+03	
37	1.850000e+00	3.771977e+03	
38	1.900000e+00	3.852937e+03	
39	1.950000e+00	3.937110e+03	
40	2.000000e+00	4.024692e+03	
41	2.050000e+00	4.115892e+03	
42	2.100000e+00	4.210942e+03	
43	2.150000e+00	4.310089e+03	
44	2.200000e+00	4.413605e+03	
45	2.250000e+00	4.521786e+03	
46	2.300000e+00	4.634954e+03	
47	2.350000e+00	4.753464e+03	
48	2.400000e+00	4.877703e+03	
49	2.450000e+00	5.008098e+03	
50	2.500000e+00	5.145120e+03	
51	2.550000e+00	5.289288e+03	
52	2.600000e+00	5.441180e+03	
53	2.650000e+00	5.601436e+03	
54	2.700000e+00	5.770768e+03	

Index   v-sweep         rds             
--------------------------------------------------------------------------------
55	2.750000e+00	5.949977e+03	
56	2.800000e+00	6.139957e+03	
57	2.850000e+00	6.341718e+03	
58	2.900000e+00	6.556399e+03	
59	2.950000e+00	6.785295e+03	
60	3.000000e+00	7.029883e+03	
61	3.050000e+00	7.291854e+03	
62	3.100000e+00	7.573156e+03	
63	3.150000e+00	7.876049e+03	
64	3.200000e+00	8.203162e+03	
65	3.250000e+00	8.557587e+03	
66	3.300000e+00	8.942974e+03	
67	3.350000e+00	9.363679e+03	
68	3.400000e+00	9.824935e+03	
69	3.450000e+00	1.033310e+04	
70	3.500000e+00	1.089598e+04	
71	3.550000e+00	1.152323e+04	
72	3.600000e+00	1.222702e+04	
73	3.650000e+00	1.302276e+04	
74	3.700000e+00	1.393029e+04	
75	3.750000e+00	1.497535e+04	
76	3.800000e+00	1.619164e+04	
77	3.850000e+00	1.762347e+04	
78	3.900000e+00	1.932881e+04	
79	3.950000e+00	2.138254e+04	
80	4.000000e+00	2.387870e+04	
81	4.050000e+00	2.693003e+04	
82	4.100000e+00	3.066271e+04	
83	4.150000e+00	3.520472e+04	
84	4.200000e+00	4.066923e+04	
85	4.250000e+00	4.713726e+04	
86	4.300000e+00	5.464549e+04	
87	4.350000e+00	6.318309e+04	
88	4.400000e+00	7.269724e+04	
89	4.450000e+00	8.310418e+04	
90	4.500000e+00	9.430147e+04	
91	4.550000e+00	1.061789e+05	
92	4.600000e+00	1.186267e+05	
93	4.650000e+00	1.315406e+05	
94	4.700000e+00	1.448251e+05	
95	4.750000e+00	1.583949e+05	
96	4.800000e+00	1.721747e+05	
97	4.850000e+00	1.860993e+05	
98	4.900000e+00	2.001123e+05	
99	4.950000e+00	2.141657e+05	
100	5.000000e+00	2.282187e+05	
101	5.050000e+00	2.422368e+05	
102	5.100000e+00	2.561911e+05	
103	5.150000e+00	2.700572e+05	
104	5.200000e+00	2.838150e+05	
105	5.250000e+00	2.974479e+05	
106	5.300000e+00	3.109420e+05	
107	5.350000e+00	3.242862e+05	
108	5.400000e+00	3.374716e+05	
109	5.450000e+00	3.504911e+05	
110	5.500000e+00	3.633391e+05	
111	5.550000e+00	3.760114e+05	
112	5.600000e+00	3.885051e+05	

Index   v-sweep         rds             
--------------------------------------------------------------------------------
113	5.650000e+00	4.008180e+05	
114	5.700000e+00	4.129491e+05	
115	5.750000e+00	4.248977e+05	
116	5.800000e+00	4.366639e+05	
117	5.850000e+00	4.482484e+05	
118	5.900000e+00	4.596522e+05	
119	5.950000e+00	4.708767e+05	
120	6.000000e+00	4.819235e+05	
121	6.050000e+00	4.927945e+05	
122	6.100000e+00	5.034920e+05	
123	6.150000e+00	5.140182e+05	
124	6.200000e+00	5.243756e+05	
125	6.250000e+00	5.345666e+05	
126	6.300000e+00	5.445940e+05	
127	6.350000e+00	5.544605e+05	
128	6.400000e+00	5.641686e+05	
129	6.450000e+00	5.737214e+05	
130	6.500000e+00	5.831214e+05	
131	6.550000e+00	5.923716e+05	
132	6.600000e+00	6.014747e+05	
Reset re-loads circuit ***************************

Circuit: ***************************

Note: No ".plot", ".print", or ".fourier" lines; no simulations run
