
Note: Compatibility modes selected: hs

Warning: m=xx on .subckt line will override multiplier m hierarchy!


Circuit: ***************************

Doing analysis at TEMP = 25.000000 and TNOM = 25.000000


No. of Data Rows : 133
                          ***************************
                          DC transfer characteristic  Mon Jan  9 13:57:41  2023
--------------------------------------------------------------------------------
Index   v-sweep         rds             
--------------------------------------------------------------------------------
0	0.000000e+00	5.931583e+03	
1	5.000000e-02	7.873067e+03	
2	1.000000e-01	1.146902e+04	
3	1.500000e-01	1.959875e+04	
4	2.000000e-01	4.106275e+04	
5	2.500000e-01	8.523132e+04	
6	3.000000e-01	1.388587e+05	
7	3.500000e-01	1.884027e+05	
8	4.000000e-01	2.326824e+05	
9	4.500000e-01	2.731515e+05	
10	5.000000e-01	3.108792e+05	
11	5.500000e-01	3.464864e+05	
12	6.000000e-01	3.803409e+05	
13	6.500000e-01	4.126766e+05	
14	7.000000e-01	4.436548e+05	
15	7.500000e-01	4.733948e+05	
16	8.000000e-01	5.019908e+05	
17	8.500000e-01	5.295201e+05	
18	9.000000e-01	5.560490e+05	
19	9.500000e-01	5.816354e+05	
20	1.000000e+00	6.063311e+05	
21	1.050000e+00	6.301829e+05	
22	1.100000e+00	6.532336e+05	
23	1.150000e+00	6.755227e+05	
24	1.200000e+00	6.970867e+05	
25	1.250000e+00	7.179595e+05	
26	1.300000e+00	7.381731e+05	
27	1.350000e+00	7.577570e+05	
28	1.400000e+00	7.767393e+05	
29	1.450000e+00	7.951460e+05	
30	1.500000e+00	8.130020e+05	
31	1.550000e+00	8.303306e+05	
32	1.600000e+00	8.471537e+05	
33	1.650000e+00	8.634922e+05	
34	1.700000e+00	8.793657e+05	
35	1.750000e+00	8.947929e+05	
36	1.800000e+00	9.097914e+05	
37	1.850000e+00	9.243781e+05	
38	1.900000e+00	9.385688e+05	
39	1.950000e+00	9.523786e+05	
40	2.000000e+00	9.658220e+05	
41	2.050000e+00	9.789127e+05	
42	2.100000e+00	9.916635e+05	
43	2.150000e+00	1.004087e+06	
44	2.200000e+00	1.016195e+06	
45	2.250000e+00	1.027999e+06	
46	2.300000e+00	1.039509e+06	
47	2.350000e+00	1.050735e+06	
48	2.400000e+00	1.061689e+06	
49	2.450000e+00	1.072378e+06	
50	2.500000e+00	1.082812e+06	
51	2.550000e+00	1.092999e+06	
52	2.600000e+00	1.102948e+06	
53	2.650000e+00	1.112667e+06	
54	2.700000e+00	1.122162e+06	

Index   v-sweep         rds             
--------------------------------------------------------------------------------
55	2.750000e+00	1.131442e+06	
56	2.800000e+00	1.140512e+06	
57	2.850000e+00	1.149380e+06	
58	2.900000e+00	1.158052e+06	
59	2.950000e+00	1.166534e+06	
60	3.000000e+00	1.174832e+06	
61	3.050000e+00	1.182951e+06	
62	3.100000e+00	1.190898e+06	
63	3.150000e+00	1.198676e+06	
64	3.200000e+00	1.206291e+06	
65	3.250000e+00	1.213748e+06	
66	3.300000e+00	1.221052e+06	
67	3.350000e+00	1.228206e+06	
68	3.400000e+00	1.235216e+06	
69	3.450000e+00	1.242085e+06	
70	3.500000e+00	1.248817e+06	
71	3.550000e+00	1.255416e+06	
72	3.600000e+00	1.261886e+06	
73	3.650000e+00	1.268229e+06	
74	3.700000e+00	1.274451e+06	
75	3.750000e+00	1.280554e+06	
76	3.800000e+00	1.286541e+06	
77	3.850000e+00	1.292415e+06	
78	3.900000e+00	1.298179e+06	
79	3.950000e+00	1.303836e+06	
80	4.000000e+00	1.309389e+06	
81	4.050000e+00	1.314841e+06	
82	4.100000e+00	1.320194e+06	
83	4.150000e+00	1.325451e+06	
84	4.200000e+00	1.330613e+06	
85	4.250000e+00	1.335684e+06	
86	4.300000e+00	1.340666e+06	
87	4.350000e+00	1.345560e+06	
88	4.400000e+00	1.350370e+06	
89	4.450000e+00	1.355096e+06	
90	4.500000e+00	1.359742e+06	
91	4.550000e+00	1.364309e+06	
92	4.600000e+00	1.368798e+06	
93	4.650000e+00	1.373212e+06	
94	4.700000e+00	1.377553e+06	
95	4.750000e+00	1.381822e+06	
96	4.800000e+00	1.386020e+06	
97	4.850000e+00	1.390150e+06	
98	4.900000e+00	1.394213e+06	
99	4.950000e+00	1.398211e+06	
100	5.000000e+00	1.402144e+06	
101	5.050000e+00	1.406015e+06	
102	5.100000e+00	1.409824e+06	
103	5.150000e+00	1.413574e+06	
104	5.200000e+00	1.417265e+06	
105	5.250000e+00	1.420899e+06	
106	5.300000e+00	1.424477e+06	
107	5.350000e+00	1.428000e+06	
108	5.400000e+00	1.431469e+06	
109	5.450000e+00	1.434885e+06	
110	5.500000e+00	1.438251e+06	
111	5.550000e+00	1.441565e+06	
112	5.600000e+00	1.444831e+06	

Index   v-sweep         rds             
--------------------------------------------------------------------------------
113	5.650000e+00	1.448048e+06	
114	5.700000e+00	1.451218e+06	
115	5.750000e+00	1.454341e+06	
116	5.800000e+00	1.457419e+06	
117	5.850000e+00	1.460453e+06	
118	5.900000e+00	1.463443e+06	
119	5.950000e+00	1.466390e+06	
120	6.000000e+00	1.469295e+06	
121	6.050000e+00	1.472159e+06	
122	6.100000e+00	1.474983e+06	
123	6.150000e+00	1.477767e+06	
124	6.200000e+00	1.480513e+06	
125	6.250000e+00	1.483221e+06	
126	6.300000e+00	1.485891e+06	
127	6.350000e+00	1.488525e+06	
128	6.400000e+00	1.491123e+06	
129	6.450000e+00	1.493686e+06	
130	6.500000e+00	1.496214e+06	
131	6.550000e+00	1.498708e+06	
132	6.600000e+00	1.501169e+06	
Reset re-loads circuit ***************************

Circuit: ***************************

Doing analysis at TEMP = 25.000000 and TNOM = 25.000000


No. of Data Rows : 133
                          ***************************
                          DC transfer characteristic  Mon Jan  9 13:57:42  2023
--------------------------------------------------------------------------------
Index   v-sweep         rds             
--------------------------------------------------------------------------------
0	0.000000e+00	1.430680e+03	
1	5.000000e-02	1.541518e+03	
2	1.000000e-01	1.667191e+03	
3	1.500000e-01	1.810867e+03	
4	2.000000e-01	1.976684e+03	
5	2.500000e-01	2.170144e+03	
6	3.000000e-01	2.398728e+03	
7	3.500000e-01	2.672861e+03	
8	4.000000e-01	3.007484e+03	
9	4.500000e-01	3.424722e+03	
10	5.000000e-01	3.958547e+03	
11	5.500000e-01	4.663049e+03	
12	6.000000e-01	5.626560e+03	
13	6.500000e-01	6.990679e+03	
14	7.000000e-01	8.952871e+03	
15	7.500000e-01	1.169278e+04	
16	8.000000e-01	1.522558e+04	
17	8.500000e-01	1.937451e+04	
18	9.000000e-01	2.391095e+04	
19	9.500000e-01	2.866104e+04	
20	1.000000e+00	3.351769e+04	
21	1.050000e+00	3.841928e+04	
22	1.100000e+00	4.333049e+04	
23	1.150000e+00	4.823057e+04	
24	1.200000e+00	5.310703e+04	
25	1.250000e+00	5.795209e+04	
26	1.300000e+00	6.276085e+04	
27	1.350000e+00	6.753016e+04	
28	1.400000e+00	7.225802e+04	
29	1.450000e+00	7.694314e+04	
30	1.500000e+00	8.158478e+04	
31	1.550000e+00	8.618250e+04	
32	1.600000e+00	9.073615e+04	
33	1.650000e+00	9.524572e+04	
34	1.700000e+00	9.971136e+04	
35	1.750000e+00	1.041333e+05	
36	1.800000e+00	1.085118e+05	
37	1.850000e+00	1.128473e+05	
38	1.900000e+00	1.171401e+05	
39	1.950000e+00	1.213907e+05	
40	2.000000e+00	1.255994e+05	
41	2.050000e+00	1.297668e+05	
42	2.100000e+00	1.338934e+05	
43	2.150000e+00	1.379795e+05	
44	2.200000e+00	1.420257e+05	
45	2.250000e+00	1.460325e+05	
46	2.300000e+00	1.500003e+05	
47	2.350000e+00	1.539296e+05	
48	2.400000e+00	1.578209e+05	
49	2.450000e+00	1.616747e+05	
50	2.500000e+00	1.654915e+05	
51	2.550000e+00	1.692717e+05	
52	2.600000e+00	1.730158e+05	
53	2.650000e+00	1.767243e+05	
54	2.700000e+00	1.803975e+05	

Index   v-sweep         rds             
--------------------------------------------------------------------------------
55	2.750000e+00	1.840361e+05	
56	2.800000e+00	1.876404e+05	
57	2.850000e+00	1.912108e+05	
58	2.900000e+00	1.947478e+05	
59	2.950000e+00	1.982519e+05	
60	3.000000e+00	2.017233e+05	
61	3.050000e+00	2.051627e+05	
62	3.100000e+00	2.085703e+05	
63	3.150000e+00	2.119466e+05	
64	3.200000e+00	2.152920e+05	
65	3.250000e+00	2.186069e+05	
66	3.300000e+00	2.218917e+05	
67	3.350000e+00	2.251467e+05	
68	3.400000e+00	2.283723e+05	
69	3.450000e+00	2.315689e+05	
70	3.500000e+00	2.347369e+05	
71	3.550000e+00	2.378766e+05	
72	3.600000e+00	2.409884e+05	
73	3.650000e+00	2.440726e+05	
74	3.700000e+00	2.471296e+05	
75	3.750000e+00	2.501598e+05	
76	3.800000e+00	2.531633e+05	
77	3.850000e+00	2.561407e+05	
78	3.900000e+00	2.590921e+05	
79	3.950000e+00	2.620180e+05	
80	4.000000e+00	2.649186e+05	
81	4.050000e+00	2.677942e+05	
82	4.100000e+00	2.706452e+05	
83	4.150000e+00	2.734719e+05	
84	4.200000e+00	2.762745e+05	
85	4.250000e+00	2.790533e+05	
86	4.300000e+00	2.818086e+05	
87	4.350000e+00	2.845408e+05	
88	4.400000e+00	2.872500e+05	
89	4.450000e+00	2.899366e+05	
90	4.500000e+00	2.926008e+05	
91	4.550000e+00	2.952430e+05	
92	4.600000e+00	2.978632e+05	
93	4.650000e+00	3.004619e+05	
94	4.700000e+00	3.030393e+05	
95	4.750000e+00	3.055955e+05	
96	4.800000e+00	3.081309e+05	
97	4.850000e+00	3.106458e+05	
98	4.900000e+00	3.131403e+05	
99	4.950000e+00	3.156146e+05	
100	5.000000e+00	3.180691e+05	
101	5.050000e+00	3.205039e+05	
102	5.100000e+00	3.229193e+05	
103	5.150000e+00	3.253154e+05	
104	5.200000e+00	3.276926e+05	
105	5.250000e+00	3.300510e+05	
106	5.300000e+00	3.323908e+05	
107	5.350000e+00	3.347123e+05	
108	5.400000e+00	3.370156e+05	
109	5.450000e+00	3.393010e+05	
110	5.500000e+00	3.415687e+05	
111	5.550000e+00	3.438187e+05	
112	5.600000e+00	3.460515e+05	

Index   v-sweep         rds             
--------------------------------------------------------------------------------
113	5.650000e+00	3.482671e+05	
114	5.700000e+00	3.504657e+05	
115	5.750000e+00	3.526475e+05	
116	5.800000e+00	3.548127e+05	
117	5.850000e+00	3.569615e+05	
118	5.900000e+00	3.590941e+05	
119	5.950000e+00	3.612106e+05	
120	6.000000e+00	3.633112e+05	
121	6.050000e+00	3.653961e+05	
122	6.100000e+00	3.674655e+05	
123	6.150000e+00	3.695194e+05	
124	6.200000e+00	3.715582e+05	
125	6.250000e+00	3.735818e+05	
126	6.300000e+00	3.755906e+05	
127	6.350000e+00	3.775847e+05	
128	6.400000e+00	3.795642e+05	
129	6.450000e+00	3.815292e+05	
130	6.500000e+00	3.834800e+05	
131	6.550000e+00	3.854166e+05	
132	6.600000e+00	3.873393e+05	
Reset re-loads circuit ***************************

Circuit: ***************************

Doing analysis at TEMP = 25.000000 and TNOM = 25.000000


No. of Data Rows : 133
                          ***************************
                          DC transfer characteristic  Mon Jan  9 13:57:42  2023
--------------------------------------------------------------------------------
Index   v-sweep         rds             
--------------------------------------------------------------------------------
0	0.000000e+00	9.010384e+02	
1	5.000000e-02	9.465085e+02	
2	1.000000e-01	9.954023e+02	
3	1.500000e-01	1.048115e+03	
4	2.000000e-01	1.105107e+03	
5	2.500000e-01	1.166913e+03	
6	3.000000e-01	1.234163e+03	
7	3.500000e-01	1.307605e+03	
8	4.000000e-01	1.388126e+03	
9	4.500000e-01	1.476796e+03	
10	5.000000e-01	1.574913e+03	
11	5.500000e-01	1.684068e+03	
12	6.000000e-01	1.806237e+03	
13	6.500000e-01	1.943907e+03	
14	7.000000e-01	2.100259e+03	
15	7.500000e-01	2.279447e+03	
16	8.000000e-01	2.487029e+03	
17	8.500000e-01	2.730662e+03	
18	9.000000e-01	3.021287e+03	
19	9.500000e-01	3.375185e+03	
20	1.000000e+00	3.817475e+03	
21	1.050000e+00	4.387326e+03	
22	1.100000e+00	5.142535e+03	
23	1.150000e+00	6.154494e+03	
24	1.200000e+00	7.482668e+03	
25	1.250000e+00	9.140980e+03	
26	1.300000e+00	1.109139e+04	
27	1.350000e+00	1.326929e+04	
28	1.400000e+00	1.561076e+04	
29	1.450000e+00	1.806481e+04	
30	1.500000e+00	2.059455e+04	
31	1.550000e+00	2.317423e+04	
32	1.600000e+00	2.578609e+04	
33	1.650000e+00	2.841774e+04	
34	1.700000e+00	3.106048e+04	
35	1.750000e+00	3.370807e+04	
36	1.800000e+00	3.635598e+04	
37	1.850000e+00	3.900087e+04	
38	1.900000e+00	4.164024e+04	
39	1.950000e+00	4.427220e+04	
40	2.000000e+00	4.689530e+04	
41	2.050000e+00	4.950842e+04	
42	2.100000e+00	5.211072e+04	
43	2.150000e+00	5.470150e+04	
44	2.200000e+00	5.728024e+04	
45	2.250000e+00	5.984653e+04	
46	2.300000e+00	6.240004e+04	
47	2.350000e+00	6.494054e+04	
48	2.400000e+00	6.746782e+04	
49	2.450000e+00	6.998175e+04	
50	2.500000e+00	7.248222e+04	
51	2.550000e+00	7.496915e+04	
52	2.600000e+00	7.744250e+04	
53	2.650000e+00	7.990224e+04	
54	2.700000e+00	8.234836e+04	

Index   v-sweep         rds             
--------------------------------------------------------------------------------
55	2.750000e+00	8.478087e+04	
56	2.800000e+00	8.719980e+04	
57	2.850000e+00	8.960516e+04	
58	2.900000e+00	9.199700e+04	
59	2.950000e+00	9.437537e+04	
60	3.000000e+00	9.674032e+04	
61	3.050000e+00	9.909190e+04	
62	3.100000e+00	1.014302e+05	
63	3.150000e+00	1.037553e+05	
64	3.200000e+00	1.060672e+05	
65	3.250000e+00	1.083660e+05	
66	3.300000e+00	1.106518e+05	
67	3.350000e+00	1.129247e+05	
68	3.400000e+00	1.151847e+05	
69	3.450000e+00	1.174320e+05	
70	3.500000e+00	1.196665e+05	
71	3.550000e+00	1.218885e+05	
72	3.600000e+00	1.240980e+05	
73	3.650000e+00	1.262950e+05	
74	3.700000e+00	1.284797e+05	
75	3.750000e+00	1.306521e+05	
76	3.800000e+00	1.328124e+05	
77	3.850000e+00	1.349606e+05	
78	3.900000e+00	1.370967e+05	
79	3.950000e+00	1.392210e+05	
80	4.000000e+00	1.413334e+05	
81	4.050000e+00	1.434341e+05	
82	4.100000e+00	1.455231e+05	
83	4.150000e+00	1.476006e+05	
84	4.200000e+00	1.496665e+05	
85	4.250000e+00	1.517211e+05	
86	4.300000e+00	1.537643e+05	
87	4.350000e+00	1.557963e+05	
88	4.400000e+00	1.578172e+05	
89	4.450000e+00	1.598270e+05	
90	4.500000e+00	1.618258e+05	
91	4.550000e+00	1.638137e+05	
92	4.600000e+00	1.657908e+05	
93	4.650000e+00	1.677571e+05	
94	4.700000e+00	1.697128e+05	
95	4.750000e+00	1.716579e+05	
96	4.800000e+00	1.735925e+05	
97	4.850000e+00	1.755167e+05	
98	4.900000e+00	1.774305e+05	
99	4.950000e+00	1.793340e+05	
100	5.000000e+00	1.812274e+05	
101	5.050000e+00	1.831106e+05	
102	5.100000e+00	1.849838e+05	
103	5.150000e+00	1.868471e+05	
104	5.200000e+00	1.887004e+05	
105	5.250000e+00	1.905440e+05	
106	5.300000e+00	1.923777e+05	
107	5.350000e+00	1.942018e+05	
108	5.400000e+00	1.960164e+05	
109	5.450000e+00	1.978213e+05	
110	5.500000e+00	1.996168e+05	
111	5.550000e+00	2.014030e+05	
112	5.600000e+00	2.031798e+05	

Index   v-sweep         rds             
--------------------------------------------------------------------------------
113	5.650000e+00	2.049473e+05	
114	5.700000e+00	2.067057e+05	
115	5.750000e+00	2.084550e+05	
116	5.800000e+00	2.101952e+05	
117	5.850000e+00	2.119264e+05	
118	5.900000e+00	2.136487e+05	
119	5.950000e+00	2.153622e+05	
120	6.000000e+00	2.170669e+05	
121	6.050000e+00	2.187628e+05	
122	6.100000e+00	2.204501e+05	
123	6.150000e+00	2.221288e+05	
124	6.200000e+00	2.237990e+05	
125	6.250000e+00	2.254607e+05	
126	6.300000e+00	2.271140e+05	
127	6.350000e+00	2.287589e+05	
128	6.400000e+00	2.303956e+05	
129	6.450000e+00	2.320240e+05	
130	6.500000e+00	2.336442e+05	
131	6.550000e+00	2.352564e+05	
132	6.600000e+00	2.368605e+05	
Reset re-loads circuit ***************************

Circuit: ***************************

Doing analysis at TEMP = 25.000000 and TNOM = 25.000000


No. of Data Rows : 133
                          ***************************
                          DC transfer characteristic  Mon Jan  9 13:57:42  2023
--------------------------------------------------------------------------------
Index   v-sweep         rds             
--------------------------------------------------------------------------------
0	0.000000e+00	7.045675e+02	
1	5.000000e-02	7.320707e+02	
2	1.000000e-01	7.610354e+02	
3	1.500000e-01	7.915778e+02	
4	2.000000e-01	8.238272e+02	
5	2.500000e-01	8.579277e+02	
6	3.000000e-01	8.940399e+02	
7	3.500000e-01	9.323443e+02	
8	4.000000e-01	9.730434e+02	
9	4.500000e-01	1.016366e+03	
10	5.000000e-01	1.062572e+03	
11	5.500000e-01	1.111955e+03	
12	6.000000e-01	1.164854e+03	
13	6.500000e-01	1.221653e+03	
14	7.000000e-01	1.282801e+03	
15	7.500000e-01	1.348815e+03	
16	8.000000e-01	1.420302e+03	
17	8.500000e-01	1.497977e+03	
18	9.000000e-01	1.582692e+03	
19	9.500000e-01	1.675473e+03	
20	1.000000e+00	1.777572e+03	
21	1.050000e+00	1.890543e+03	
22	1.100000e+00	2.016360e+03	
23	1.150000e+00	2.157596e+03	
24	1.200000e+00	2.317718e+03	
25	1.250000e+00	2.501580e+03	
26	1.300000e+00	2.716275e+03	
27	1.350000e+00	2.972554e+03	
28	1.400000e+00	3.287011e+03	
29	1.450000e+00	3.684724e+03	
30	1.500000e+00	4.200408e+03	
31	1.550000e+00	4.873954e+03	
32	1.600000e+00	5.737891e+03	
33	1.650000e+00	6.803399e+03	
34	1.700000e+00	8.056869e+03	
35	1.750000e+00	9.468743e+03	
36	1.800000e+00	1.100529e+04	
37	1.850000e+00	1.263610e+04	
38	1.900000e+00	1.433669e+04	
39	1.950000e+00	1.608840e+04	
40	2.000000e+00	1.787736e+04	
41	2.050000e+00	1.969329e+04	
42	2.100000e+00	2.152859e+04	
43	2.150000e+00	2.337755e+04	
44	2.200000e+00	2.523587e+04	
45	2.250000e+00	2.710028e+04	
46	2.300000e+00	2.896824e+04	
47	2.350000e+00	3.083775e+04	
48	2.400000e+00	3.270727e+04	
49	2.450000e+00	3.457554e+04	
50	2.500000e+00	3.644157e+04	
51	2.550000e+00	3.830455e+04	
52	2.600000e+00	4.016381e+04	
53	2.650000e+00	4.201883e+04	
54	2.700000e+00	4.386916e+04	

Index   v-sweep         rds             
--------------------------------------------------------------------------------
55	2.750000e+00	4.571442e+04	
56	2.800000e+00	4.755431e+04	
57	2.850000e+00	4.938858e+04	
58	2.900000e+00	5.121701e+04	
59	2.950000e+00	5.303943e+04	
60	3.000000e+00	5.485569e+04	
61	3.050000e+00	5.666567e+04	
62	3.100000e+00	5.846926e+04	
63	3.150000e+00	6.026637e+04	
64	3.200000e+00	6.205694e+04	
65	3.250000e+00	6.384091e+04	
66	3.300000e+00	6.561823e+04	
67	3.350000e+00	6.738886e+04	
68	3.400000e+00	6.915279e+04	
69	3.450000e+00	7.090997e+04	
70	3.500000e+00	7.266041e+04	
71	3.550000e+00	7.440409e+04	
72	3.600000e+00	7.614100e+04	
73	3.650000e+00	7.787114e+04	
74	3.700000e+00	7.959453e+04	
75	3.750000e+00	8.131115e+04	
76	3.800000e+00	8.302103e+04	
77	3.850000e+00	8.472417e+04	
78	3.900000e+00	8.642059e+04	
79	3.950000e+00	8.811030e+04	
80	4.000000e+00	8.979332e+04	
81	4.050000e+00	9.146967e+04	
82	4.100000e+00	9.313937e+04	
83	4.150000e+00	9.480245e+04	
84	4.200000e+00	9.645892e+04	
85	4.250000e+00	9.810880e+04	
86	4.300000e+00	9.975213e+04	
87	4.350000e+00	1.013889e+05	
88	4.400000e+00	1.030192e+05	
89	4.450000e+00	1.046430e+05	
90	4.500000e+00	1.062604e+05	
91	4.550000e+00	1.078714e+05	
92	4.600000e+00	1.094759e+05	
93	4.650000e+00	1.110741e+05	
94	4.700000e+00	1.126659e+05	
95	4.750000e+00	1.142515e+05	
96	4.800000e+00	1.158307e+05	
97	4.850000e+00	1.174038e+05	
98	4.900000e+00	1.189706e+05	
99	4.950000e+00	1.205312e+05	
100	5.000000e+00	1.220856e+05	
101	5.050000e+00	1.236339e+05	
102	5.100000e+00	1.251761e+05	
103	5.150000e+00	1.267123e+05	
104	5.200000e+00	1.282424e+05	
105	5.250000e+00	1.297665e+05	
106	5.300000e+00	1.312847e+05	
107	5.350000e+00	1.327968e+05	
108	5.400000e+00	1.343031e+05	
109	5.450000e+00	1.358035e+05	
110	5.500000e+00	1.372980e+05	
111	5.550000e+00	1.387867e+05	
112	5.600000e+00	1.402696e+05	

Index   v-sweep         rds             
--------------------------------------------------------------------------------
113	5.650000e+00	1.417468e+05	
114	5.700000e+00	1.432182e+05	
115	5.750000e+00	1.446839e+05	
116	5.800000e+00	1.461439e+05	
117	5.850000e+00	1.475983e+05	
118	5.900000e+00	1.490471e+05	
119	5.950000e+00	1.504902e+05	
120	6.000000e+00	1.519279e+05	
121	6.050000e+00	1.533599e+05	
122	6.100000e+00	1.547865e+05	
123	6.150000e+00	1.562076e+05	
124	6.200000e+00	1.576233e+05	
125	6.250000e+00	1.590336e+05	
126	6.300000e+00	1.604385e+05	
127	6.350000e+00	1.618380e+05	
128	6.400000e+00	1.632322e+05	
129	6.450000e+00	1.646211e+05	
130	6.500000e+00	1.660047e+05	
131	6.550000e+00	1.673831e+05	
132	6.600000e+00	1.687562e+05	
Reset re-loads circuit ***************************

Circuit: ***************************

Doing analysis at TEMP = 25.000000 and TNOM = 25.000000


No. of Data Rows : 133
                          ***************************
                          DC transfer characteristic  Mon Jan  9 13:57:42  2023
--------------------------------------------------------------------------------
Index   v-sweep         rds             
--------------------------------------------------------------------------------
0	0.000000e+00	6.100612e+02	
1	5.000000e-02	6.296548e+02	
2	1.000000e-01	6.500550e+02	
3	1.500000e-01	6.713106e+02	
4	2.000000e-01	6.934747e+02	
5	2.500000e-01	7.166048e+02	
6	3.000000e-01	7.407639e+02	
7	3.500000e-01	7.660200e+02	
8	4.000000e-01	7.924481e+02	
9	4.500000e-01	8.201298e+02	
10	5.000000e-01	8.491548e+02	
11	5.500000e-01	8.796218e+02	
12	6.000000e-01	9.116393e+02	
13	6.500000e-01	9.453272e+02	
14	7.000000e-01	9.808183e+02	
15	7.500000e-01	1.018260e+03	
16	8.000000e-01	1.057816e+03	
17	8.500000e-01	1.099669e+03	
18	9.000000e-01	1.144024e+03	
19	9.500000e-01	1.191113e+03	
20	1.000000e+00	1.241195e+03	
21	1.050000e+00	1.294567e+03	
22	1.100000e+00	1.351569e+03	
23	1.150000e+00	1.412589e+03	
24	1.200000e+00	1.478081e+03	
25	1.250000e+00	1.548574e+03	
26	1.300000e+00	1.624701e+03	
27	1.350000e+00	1.707222e+03	
28	1.400000e+00	1.797070e+03	
29	1.450000e+00	1.895424e+03	
30	1.500000e+00	2.003806e+03	
31	1.550000e+00	2.124258e+03	
32	1.600000e+00	2.259614e+03	
33	1.650000e+00	2.413961e+03	
34	1.700000e+00	2.593373e+03	
35	1.750000e+00	2.807018e+03	
36	1.800000e+00	3.068572e+03	
37	1.850000e+00	3.397359e+03	
38	1.900000e+00	3.817724e+03	
39	1.950000e+00	4.354806e+03	
40	2.000000e+00	5.027026e+03	
41	2.050000e+00	5.839627e+03	
42	2.100000e+00	6.783999e+03	
43	2.150000e+00	7.842450e+03	
44	2.200000e+00	8.994243e+03	
45	2.250000e+00	1.021978e+04	
46	2.300000e+00	1.150245e+04	
47	2.350000e+00	1.282897e+04	
48	2.400000e+00	1.418900e+04	
49	2.450000e+00	1.557461e+04	
50	2.500000e+00	1.697970e+04	
51	2.550000e+00	1.839959e+04	
52	2.600000e+00	1.983065e+04	
53	2.650000e+00	2.127004e+04	
54	2.700000e+00	2.271554e+04	

Index   v-sweep         rds             
--------------------------------------------------------------------------------
55	2.750000e+00	2.416536e+04	
56	2.800000e+00	2.561809e+04	
57	2.850000e+00	2.707258e+04	
58	2.900000e+00	2.852789e+04	
59	2.950000e+00	2.998325e+04	
60	3.000000e+00	3.143802e+04	
61	3.050000e+00	3.289168e+04	
62	3.100000e+00	3.434378e+04	
63	3.150000e+00	3.579395e+04	
64	3.200000e+00	3.724188e+04	
65	3.250000e+00	3.868729e+04	
66	3.300000e+00	4.012997e+04	
67	3.350000e+00	4.156971e+04	
68	3.400000e+00	4.300635e+04	
69	3.450000e+00	4.443975e+04	
70	3.500000e+00	4.586978e+04	
71	3.550000e+00	4.729633e+04	
72	3.600000e+00	4.871932e+04	
73	3.650000e+00	5.013866e+04	
74	3.700000e+00	5.155429e+04	
75	3.750000e+00	5.296614e+04	
76	3.800000e+00	5.437417e+04	
77	3.850000e+00	5.577833e+04	
78	3.900000e+00	5.717858e+04	
79	3.950000e+00	5.857490e+04	
80	4.000000e+00	5.996725e+04	
81	4.050000e+00	6.135560e+04	
82	4.100000e+00	6.273995e+04	
83	4.150000e+00	6.412028e+04	
84	4.200000e+00	6.549656e+04	
85	4.250000e+00	6.686880e+04	
86	4.300000e+00	6.823699e+04	
87	4.350000e+00	6.960111e+04	
88	4.400000e+00	7.096117e+04	
89	4.450000e+00	7.231716e+04	
90	4.500000e+00	7.366908e+04	
91	4.550000e+00	7.501693e+04	
92	4.600000e+00	7.636072e+04	
93	4.650000e+00	7.770046e+04	
94	4.700000e+00	7.903613e+04	
95	4.750000e+00	8.036775e+04	
96	4.800000e+00	8.169533e+04	
97	4.850000e+00	8.301887e+04	
98	4.900000e+00	8.433838e+04	
99	4.950000e+00	8.565387e+04	
100	5.000000e+00	8.696534e+04	
101	5.050000e+00	8.827281e+04	
102	5.100000e+00	8.957629e+04	
103	5.150000e+00	9.087578e+04	
104	5.200000e+00	9.217130e+04	
105	5.250000e+00	9.346286e+04	
106	5.300000e+00	9.475047e+04	
107	5.350000e+00	9.603414e+04	
108	5.400000e+00	9.731389e+04	
109	5.450000e+00	9.858972e+04	
110	5.500000e+00	9.986165e+04	
111	5.550000e+00	1.011297e+05	
112	5.600000e+00	1.023939e+05	

Index   v-sweep         rds             
--------------------------------------------------------------------------------
113	5.650000e+00	1.036542e+05	
114	5.700000e+00	1.049106e+05	
115	5.750000e+00	1.061632e+05	
116	5.800000e+00	1.074120e+05	
117	5.850000e+00	1.086570e+05	
118	5.900000e+00	1.098982e+05	
119	5.950000e+00	1.111356e+05	
120	6.000000e+00	1.123692e+05	
121	6.050000e+00	1.135991e+05	
122	6.100000e+00	1.148253e+05	
123	6.150000e+00	1.160477e+05	
124	6.200000e+00	1.172664e+05	
125	6.250000e+00	1.184814e+05	
126	6.300000e+00	1.196927e+05	
127	6.350000e+00	1.209004e+05	
128	6.400000e+00	1.221044e+05	
129	6.450000e+00	1.233047e+05	
130	6.500000e+00	1.245014e+05	
131	6.550000e+00	1.256945e+05	
132	6.600000e+00	1.268841e+05	
Reset re-loads circuit ***************************

Circuit: ***************************

Doing analysis at TEMP = 25.000000 and TNOM = 25.000000


No. of Data Rows : 133
                          ***************************
                          DC transfer characteristic  Mon Jan  9 13:57:42  2023
--------------------------------------------------------------------------------
Index   v-sweep         rds             
--------------------------------------------------------------------------------
0	0.000000e+00	5.603046e+02	
1	5.000000e-02	5.755514e+02	
2	1.000000e-01	5.913091e+02	
3	1.500000e-01	6.076027e+02	
4	2.000000e-01	6.244586e+02	
5	2.500000e-01	6.419054e+02	
6	3.000000e-01	6.599735e+02	
7	3.500000e-01	6.786955e+02	
8	4.000000e-01	6.981065e+02	
9	4.500000e-01	7.182440e+02	
10	5.000000e-01	7.391488e+02	
11	5.500000e-01	7.608643e+02	
12	6.000000e-01	7.834377e+02	
13	6.500000e-01	8.069200e+02	
14	7.000000e-01	8.313661e+02	
15	7.500000e-01	8.568358e+02	
16	8.000000e-01	8.833937e+02	
17	8.500000e-01	9.111103e+02	
18	9.000000e-01	9.400619e+02	
19	9.500000e-01	9.703322e+02	
20	1.000000e+00	1.002012e+03	
21	1.050000e+00	1.035202e+03	
22	1.100000e+00	1.070012e+03	
23	1.150000e+00	1.106562e+03	
24	1.200000e+00	1.144985e+03	
25	1.250000e+00	1.185430e+03	
26	1.300000e+00	1.228061e+03	
27	1.350000e+00	1.273062e+03	
28	1.400000e+00	1.320639e+03	
29	1.450000e+00	1.371026e+03	
30	1.500000e+00	1.424488e+03	
31	1.550000e+00	1.481332e+03	
32	1.600000e+00	1.541912e+03	
33	1.650000e+00	1.606645e+03	
34	1.700000e+00	1.676030e+03	
35	1.750000e+00	1.750677e+03	
36	1.800000e+00	1.831343e+03	
37	1.850000e+00	1.919004e+03	
38	1.900000e+00	2.014945e+03	
39	1.950000e+00	2.120923e+03	
40	2.000000e+00	2.239416e+03	
41	2.050000e+00	2.374006e+03	
42	2.100000e+00	2.529963e+03	
43	2.150000e+00	2.715018e+03	
44	2.200000e+00	2.940190e+03	
45	2.250000e+00	3.220169e+03	
46	2.300000e+00	3.572345e+03	
47	2.350000e+00	4.013745e+03	
48	2.400000e+00	4.556492e+03	
49	2.450000e+00	5.204236e+03	
50	2.500000e+00	5.951803e+03	
51	2.550000e+00	6.787837e+03	
52	2.600000e+00	7.698366e+03	
53	2.650000e+00	8.669543e+03	
54	2.700000e+00	9.689115e+03	

Index   v-sweep         rds             
--------------------------------------------------------------------------------
55	2.750000e+00	1.074690e+04	
56	2.800000e+00	1.183470e+04	
57	2.850000e+00	1.294605e+04	
58	2.900000e+00	1.407589e+04	
59	2.950000e+00	1.522022e+04	
60	3.000000e+00	1.637592e+04	
61	3.050000e+00	1.754049e+04	
62	3.100000e+00	1.871196e+04	
63	3.150000e+00	1.988874e+04	
64	3.200000e+00	2.106955e+04	
65	3.250000e+00	2.225334e+04	
66	3.300000e+00	2.343924e+04	
67	3.350000e+00	2.462655e+04	
68	3.400000e+00	2.581467e+04	
69	3.450000e+00	2.700311e+04	
70	3.500000e+00	2.819145e+04	
71	3.550000e+00	2.937933e+04	
72	3.600000e+00	3.056646e+04	
73	3.650000e+00	3.175257e+04	
74	3.700000e+00	3.293745e+04	
75	3.750000e+00	3.412091e+04	
76	3.800000e+00	3.530277e+04	
77	3.850000e+00	3.648290e+04	
78	3.900000e+00	3.766118e+04	
79	3.950000e+00	3.883748e+04	
80	4.000000e+00	4.001173e+04	
81	4.050000e+00	4.118383e+04	
82	4.100000e+00	4.235372e+04	
83	4.150000e+00	4.352132e+04	
84	4.200000e+00	4.468658e+04	
85	4.250000e+00	4.584946e+04	
86	4.300000e+00	4.700990e+04	
87	4.350000e+00	4.816787e+04	
88	4.400000e+00	4.932334e+04	
89	4.450000e+00	5.047627e+04	
90	4.500000e+00	5.162664e+04	
91	4.550000e+00	5.277442e+04	
92	4.600000e+00	5.391960e+04	
93	4.650000e+00	5.506215e+04	
94	4.700000e+00	5.620207e+04	
95	4.750000e+00	5.733933e+04	
96	4.800000e+00	5.847393e+04	
97	4.850000e+00	5.960586e+04	
98	4.900000e+00	6.073510e+04	
99	4.950000e+00	6.186166e+04	
100	5.000000e+00	6.298552e+04	
101	5.050000e+00	6.410668e+04	
102	5.100000e+00	6.522514e+04	
103	5.150000e+00	6.634089e+04	
104	5.200000e+00	6.745394e+04	
105	5.250000e+00	6.856428e+04	
106	5.300000e+00	6.967191e+04	
107	5.350000e+00	7.077684e+04	
108	5.400000e+00	7.187906e+04	
109	5.450000e+00	7.297857e+04	
110	5.500000e+00	7.407538e+04	
111	5.550000e+00	7.516949e+04	
112	5.600000e+00	7.626091e+04	

Index   v-sweep         rds             
--------------------------------------------------------------------------------
113	5.650000e+00	7.734963e+04	
114	5.700000e+00	7.843566e+04	
115	5.750000e+00	7.951900e+04	
116	5.800000e+00	8.059966e+04	
117	5.850000e+00	8.167765e+04	
118	5.900000e+00	8.275296e+04	
119	5.950000e+00	8.382561e+04	
120	6.000000e+00	8.489560e+04	
121	6.050000e+00	8.596293e+04	
122	6.100000e+00	8.702761e+04	
123	6.150000e+00	8.808964e+04	
124	6.200000e+00	8.914904e+04	
125	6.250000e+00	9.020581e+04	
126	6.300000e+00	9.125995e+04	
127	6.350000e+00	9.231147e+04	
128	6.400000e+00	9.336038e+04	
129	6.450000e+00	9.440669e+04	
130	6.500000e+00	9.545039e+04	
131	6.550000e+00	9.649151e+04	
132	6.600000e+00	9.753004e+04	
Reset re-loads circuit ***************************

Circuit: ***************************

Note: No ".plot", ".print", or ".fourier" lines; no simulations run
