
Note: Compatibility modes selected: hs

Warning: m=xx on .subckt line will override multiplier m hierarchy!


Circuit: ***************************

Doing analysis at TEMP = 125.000000 and TNOM = 125.000000


No. of Data Rows : 798
                          ***************************
                          DC transfer characteristic  Mon Jan  9 13:58:37  2023
--------------------------------------------------------------------------------
Index   v-sweep         -i(vds)         
--------------------------------------------------------------------------------
0	0.000000e+00	-4.17739e-26	
1	5.000000e-02	1.314975e-06	
2	1.000000e-01	2.453723e-06	
3	1.500000e-01	3.422738e-06	
4	2.000000e-01	4.226590e-06	
5	2.500000e-01	4.870388e-06	
6	3.000000e-01	5.362129e-06	
7	3.500000e-01	5.717505e-06	
8	4.000000e-01	5.966455e-06	
9	4.500000e-01	6.148670e-06	
10	5.000000e-01	6.294932e-06	
11	5.500000e-01	6.420932e-06	
12	6.000000e-01	6.533799e-06	
13	6.500000e-01	6.637150e-06	
14	7.000000e-01	6.733130e-06	
15	7.500000e-01	6.823162e-06	
16	8.000000e-01	6.908269e-06	
17	8.500000e-01	6.989219e-06	
18	9.000000e-01	7.066609e-06	
19	9.500000e-01	7.140915e-06	
20	1.000000e+00	7.212523e-06	
21	1.050000e+00	7.281750e-06	
22	1.100000e+00	7.348864e-06	
23	1.150000e+00	7.414086e-06	
24	1.200000e+00	7.477609e-06	
25	1.250000e+00	7.539595e-06	
26	1.300000e+00	7.600186e-06	
27	1.350000e+00	7.659506e-06	
28	1.400000e+00	7.717662e-06	
29	1.450000e+00	7.774749e-06	
30	1.500000e+00	7.830853e-06	
31	1.550000e+00	7.886048e-06	
32	1.600000e+00	7.940400e-06	
33	1.650000e+00	7.993969e-06	
34	1.700000e+00	8.046811e-06	
35	1.750000e+00	8.098973e-06	
36	1.800000e+00	8.150500e-06	
37	1.850000e+00	8.201432e-06	
38	1.900000e+00	8.251806e-06	
39	1.950000e+00	8.301655e-06	
40	2.000000e+00	8.351010e-06	
41	2.050000e+00	8.399899e-06	
42	2.100000e+00	8.448348e-06	
43	2.150000e+00	8.496381e-06	
44	2.200000e+00	8.544020e-06	
45	2.250000e+00	8.591286e-06	
46	2.300000e+00	8.638198e-06	
47	2.350000e+00	8.684773e-06	
48	2.400000e+00	8.731029e-06	
49	2.450000e+00	8.776981e-06	
50	2.500000e+00	8.822643e-06	
51	2.550000e+00	8.868030e-06	
52	2.600000e+00	8.913154e-06	
53	2.650000e+00	8.958029e-06	
54	2.700000e+00	9.002667e-06	

Index   v-sweep         -i(vds)         
--------------------------------------------------------------------------------
55	2.750000e+00	9.047079e-06	
56	2.800000e+00	9.091278e-06	
57	2.850000e+00	9.135275e-06	
58	2.900000e+00	9.179081e-06	
59	2.950000e+00	9.222710e-06	
60	3.000000e+00	9.266172e-06	
61	3.050000e+00	9.309481e-06	
62	3.100000e+00	9.352650e-06	
63	3.150000e+00	9.395693e-06	
64	3.200000e+00	9.438626e-06	
65	3.250000e+00	9.481465e-06	
66	3.300000e+00	9.524227e-06	
67	3.350000e+00	9.566932e-06	
68	3.400000e+00	9.609600e-06	
69	3.450000e+00	9.652254e-06	
70	3.500000e+00	9.694919e-06	
71	3.550000e+00	9.737621e-06	
72	3.600000e+00	9.780391e-06	
73	3.650000e+00	9.823260e-06	
74	3.700000e+00	9.866263e-06	
75	3.750000e+00	9.909437e-06	
76	3.800000e+00	9.952824e-06	
77	3.850000e+00	9.996468e-06	
78	3.900000e+00	1.004042e-05	
79	3.950000e+00	1.008472e-05	
80	4.000000e+00	1.012944e-05	
81	4.050000e+00	1.017462e-05	
82	4.100000e+00	1.022034e-05	
83	4.150000e+00	1.026666e-05	
84	4.200000e+00	1.031366e-05	
85	4.250000e+00	1.036140e-05	
86	4.300000e+00	1.040998e-05	
87	4.350000e+00	1.045947e-05	
88	4.400000e+00	1.050997e-05	
89	4.450000e+00	1.056157e-05	
90	4.500000e+00	1.061437e-05	
91	4.550000e+00	1.066849e-05	
92	4.600000e+00	1.072402e-05	
93	4.650000e+00	1.078108e-05	
94	4.700000e+00	1.083980e-05	
95	4.750000e+00	1.090030e-05	
96	4.800000e+00	1.096272e-05	
97	4.850000e+00	1.102718e-05	
98	4.900000e+00	1.109383e-05	
99	4.950000e+00	1.116281e-05	
100	5.000000e+00	1.123429e-05	
101	5.050000e+00	1.130841e-05	
102	5.100000e+00	1.138533e-05	
103	5.150000e+00	1.146523e-05	
104	5.200000e+00	1.154828e-05	
105	5.250000e+00	1.163465e-05	
106	5.300000e+00	1.172452e-05	
107	5.350000e+00	1.181809e-05	
108	5.400000e+00	1.191554e-05	
109	5.450000e+00	1.201706e-05	
110	5.500000e+00	1.212287e-05	
111	5.550000e+00	1.223317e-05	
112	5.600000e+00	1.234816e-05	

Index   v-sweep         -i(vds)         
--------------------------------------------------------------------------------
113	5.650000e+00	1.246806e-05	
114	5.700000e+00	1.259309e-05	
115	5.750000e+00	1.272347e-05	
116	5.800000e+00	1.285942e-05	
117	5.850000e+00	1.300118e-05	
118	5.900000e+00	1.314899e-05	
119	5.950000e+00	1.330307e-05	
120	6.000000e+00	1.346368e-05	
121	6.050000e+00	1.363105e-05	
122	6.100000e+00	1.380543e-05	
123	6.150000e+00	1.398708e-05	
124	6.200000e+00	1.417624e-05	
125	6.250000e+00	1.437319e-05	
126	6.300000e+00	1.457817e-05	
127	6.350000e+00	1.479145e-05	
128	6.400000e+00	1.501330e-05	
129	6.450000e+00	1.524398e-05	
130	6.500000e+00	1.548377e-05	
131	6.550000e+00	1.573293e-05	
132	6.600000e+00	1.599175e-05	
133	0.000000e+00	-2.70315e-25	
134	5.000000e-02	3.055676e-06	
135	1.000000e-01	5.932739e-06	
136	1.500000e-01	8.637305e-06	
137	2.000000e-01	1.117323e-05	
138	2.500000e-01	1.354372e-05	
139	3.000000e-01	1.575181e-05	
140	3.500000e-01	1.780042e-05	
141	4.000000e-01	1.969245e-05	
142	4.500000e-01	2.143080e-05	
143	5.000000e-01	2.301837e-05	
144	5.500000e-01	2.445816e-05	
145	6.000000e-01	2.575331e-05	
146	6.500000e-01	2.690730e-05	
147	7.000000e-01	2.792422e-05	
148	7.500000e-01	2.880942e-05	
149	8.000000e-01	2.957047e-05	
150	8.500000e-01	3.021862e-05	
151	9.000000e-01	3.076939e-05	
152	9.500000e-01	3.124085e-05	
153	1.000000e+00	3.165017e-05	
154	1.050000e+00	3.201127e-05	
155	1.100000e+00	3.233456e-05	
156	1.150000e+00	3.262762e-05	
157	1.200000e+00	3.289610e-05	
158	1.250000e+00	3.314421e-05	
159	1.300000e+00	3.337521e-05	
160	1.350000e+00	3.359163e-05	
161	1.400000e+00	3.379549e-05	
162	1.450000e+00	3.398842e-05	
163	1.500000e+00	3.417177e-05	
164	1.550000e+00	3.434663e-05	
165	1.600000e+00	3.451395e-05	
166	1.650000e+00	3.467450e-05	
167	1.700000e+00	3.482895e-05	
168	1.750000e+00	3.497788e-05	
169	1.800000e+00	3.512179e-05	
170	1.850000e+00	3.526111e-05	

Index   v-sweep         -i(vds)         
--------------------------------------------------------------------------------
171	1.900000e+00	3.539623e-05	
172	1.950000e+00	3.552747e-05	
173	2.000000e+00	3.565514e-05	
174	2.050000e+00	3.577950e-05	
175	2.100000e+00	3.590079e-05	
176	2.150000e+00	3.601922e-05	
177	2.200000e+00	3.613499e-05	
178	2.250000e+00	3.624825e-05	
179	2.300000e+00	3.635918e-05	
180	2.350000e+00	3.646791e-05	
181	2.400000e+00	3.657458e-05	
182	2.450000e+00	3.667930e-05	
183	2.500000e+00	3.678218e-05	
184	2.550000e+00	3.688333e-05	
185	2.600000e+00	3.698283e-05	
186	2.650000e+00	3.708077e-05	
187	2.700000e+00	3.717723e-05	
188	2.750000e+00	3.727228e-05	
189	2.800000e+00	3.736599e-05	
190	2.850000e+00	3.745843e-05	
191	2.900000e+00	3.754965e-05	
192	2.950000e+00	3.763971e-05	
193	3.000000e+00	3.772867e-05	
194	3.050000e+00	3.781657e-05	
195	3.100000e+00	3.790346e-05	
196	3.150000e+00	3.798940e-05	
197	3.200000e+00	3.807441e-05	
198	3.250000e+00	3.815856e-05	
199	3.300000e+00	3.824187e-05	
200	3.350000e+00	3.832440e-05	
201	3.400000e+00	3.840620e-05	
202	3.450000e+00	3.848729e-05	
203	3.500000e+00	3.856774e-05	
204	3.550000e+00	3.864759e-05	
205	3.600000e+00	3.872689e-05	
206	3.650000e+00	3.880570e-05	
207	3.700000e+00	3.888408e-05	
208	3.750000e+00	3.896209e-05	
209	3.800000e+00	3.903981e-05	
210	3.850000e+00	3.911730e-05	
211	3.900000e+00	3.919464e-05	
212	3.950000e+00	3.927194e-05	
213	4.000000e+00	3.934928e-05	
214	4.050000e+00	3.942676e-05	
215	4.100000e+00	3.950451e-05	
216	4.150000e+00	3.958265e-05	
217	4.200000e+00	3.966131e-05	
218	4.250000e+00	3.974064e-05	
219	4.300000e+00	3.982080e-05	
220	4.350000e+00	3.990195e-05	
221	4.400000e+00	3.998427e-05	
222	4.450000e+00	4.006797e-05	
223	4.500000e+00	4.015325e-05	
224	4.550000e+00	4.024034e-05	
225	4.600000e+00	4.032946e-05	
226	4.650000e+00	4.042088e-05	
227	4.700000e+00	4.051486e-05	
228	4.750000e+00	4.061169e-05	

Index   v-sweep         -i(vds)         
--------------------------------------------------------------------------------
229	4.800000e+00	4.071165e-05	
230	4.850000e+00	4.081507e-05	
231	4.900000e+00	4.092228e-05	
232	4.950000e+00	4.103362e-05	
233	5.000000e+00	4.114945e-05	
234	5.050000e+00	4.127016e-05	
235	5.100000e+00	4.139613e-05	
236	5.150000e+00	4.152779e-05	
237	5.200000e+00	4.166555e-05	
238	5.250000e+00	4.180986e-05	
239	5.300000e+00	4.196119e-05	
240	5.350000e+00	4.211999e-05	
241	5.400000e+00	4.228678e-05	
242	5.450000e+00	4.246205e-05	
243	5.500000e+00	4.264633e-05	
244	5.550000e+00	4.284014e-05	
245	5.600000e+00	4.304405e-05	
246	5.650000e+00	4.325862e-05	
247	5.700000e+00	4.348442e-05	
248	5.750000e+00	4.372205e-05	
249	5.800000e+00	4.397212e-05	
250	5.850000e+00	4.423524e-05	
251	5.900000e+00	4.451204e-05	
252	5.950000e+00	4.480317e-05	
253	6.000000e+00	4.510928e-05	
254	6.050000e+00	4.543103e-05	
255	6.100000e+00	4.576910e-05	
256	6.150000e+00	4.612417e-05	
257	6.200000e+00	4.649693e-05	
258	6.250000e+00	4.688810e-05	
259	6.300000e+00	4.729837e-05	
260	6.350000e+00	4.772847e-05	
261	6.400000e+00	4.817913e-05	
262	6.450000e+00	4.865107e-05	
263	6.500000e+00	4.914504e-05	
264	6.550000e+00	4.966177e-05	
265	6.600000e+00	5.020203e-05	
266	0.000000e+00	-3.09590e-22	
267	5.000000e-02	4.321516e-06	
268	1.000000e-01	8.469350e-06	
269	1.500000e-01	1.244922e-05	
270	2.000000e-01	1.626468e-05	
271	2.500000e-01	1.991869e-05	
272	3.000000e-01	2.341398e-05	
273	3.500000e-01	2.675321e-05	
274	4.000000e-01	2.993895e-05	
275	4.500000e-01	3.297375e-05	
276	5.000000e-01	3.586008e-05	
277	5.500000e-01	3.860040e-05	
278	6.000000e-01	4.119709e-05	
279	6.500000e-01	4.365253e-05	
280	7.000000e-01	4.596905e-05	
281	7.500000e-01	4.814897e-05	
282	8.000000e-01	5.019460e-05	
283	8.500000e-01	5.210822e-05	
284	9.000000e-01	5.389216e-05	
285	9.500000e-01	5.554873e-05	
286	1.000000e+00	5.708033e-05	

Index   v-sweep         -i(vds)         
--------------------------------------------------------------------------------
287	1.050000e+00	5.848940e-05	
288	1.100000e+00	5.977857e-05	
289	1.150000e+00	6.095071e-05	
290	1.200000e+00	6.200919e-05	
291	1.250000e+00	6.295832e-05	
292	1.300000e+00	6.380404e-05	
293	1.350000e+00	6.455464e-05	
294	1.400000e+00	6.522066e-05	
295	1.450000e+00	6.581389e-05	
296	1.500000e+00	6.634580e-05	
297	1.550000e+00	6.682655e-05	
298	1.600000e+00	6.726460e-05	
299	1.650000e+00	6.766681e-05	
300	1.700000e+00	6.803870e-05	
301	1.750000e+00	6.838468e-05	
302	1.800000e+00	6.870833e-05	
303	1.850000e+00	6.901258e-05	
304	1.900000e+00	6.929982e-05	
305	1.950000e+00	6.957204e-05	
306	2.000000e+00	6.983092e-05	
307	2.050000e+00	7.007786e-05	
308	2.100000e+00	7.031407e-05	
309	2.150000e+00	7.054059e-05	
310	2.200000e+00	7.075829e-05	
311	2.250000e+00	7.096796e-05	
312	2.300000e+00	7.117028e-05	
313	2.350000e+00	7.136585e-05	
314	2.400000e+00	7.155519e-05	
315	2.450000e+00	7.173877e-05	
316	2.500000e+00	7.191701e-05	
317	2.550000e+00	7.209028e-05	
318	2.600000e+00	7.225892e-05	
319	2.650000e+00	7.242324e-05	
320	2.700000e+00	7.258351e-05	
321	2.750000e+00	7.273998e-05	
322	2.800000e+00	7.289288e-05	
323	2.850000e+00	7.304242e-05	
324	2.900000e+00	7.318878e-05	
325	2.950000e+00	7.333214e-05	
326	3.000000e+00	7.347267e-05	
327	3.050000e+00	7.361051e-05	
328	3.100000e+00	7.374579e-05	
329	3.150000e+00	7.387865e-05	
330	3.200000e+00	7.400921e-05	
331	3.250000e+00	7.413757e-05	
332	3.300000e+00	7.426383e-05	
333	3.350000e+00	7.438811e-05	
334	3.400000e+00	7.451048e-05	
335	3.450000e+00	7.463103e-05	
336	3.500000e+00	7.474985e-05	
337	3.550000e+00	7.486701e-05	
338	3.600000e+00	7.498260e-05	
339	3.650000e+00	7.509669e-05	
340	3.700000e+00	7.520935e-05	
341	3.750000e+00	7.532067e-05	
342	3.800000e+00	7.543071e-05	
343	3.850000e+00	7.553956e-05	
344	3.900000e+00	7.564729e-05	

Index   v-sweep         -i(vds)         
--------------------------------------------------------------------------------
345	3.950000e+00	7.575400e-05	
346	4.000000e+00	7.585977e-05	
347	4.050000e+00	7.596470e-05	
348	4.100000e+00	7.606889e-05	
349	4.150000e+00	7.617247e-05	
350	4.200000e+00	7.627554e-05	
351	4.250000e+00	7.637824e-05	
352	4.300000e+00	7.648073e-05	
353	4.350000e+00	7.658315e-05	
354	4.400000e+00	7.668568e-05	
355	4.450000e+00	7.678851e-05	
356	4.500000e+00	7.689185e-05	
357	4.550000e+00	7.699591e-05	
358	4.600000e+00	7.710095e-05	
359	4.650000e+00	7.720723e-05	
360	4.700000e+00	7.731504e-05	
361	4.750000e+00	7.742467e-05	
362	4.800000e+00	7.753646e-05	
363	4.850000e+00	7.765077e-05	
364	4.900000e+00	7.776799e-05	
365	4.950000e+00	7.788850e-05	
366	5.000000e+00	7.801276e-05	
367	5.050000e+00	7.814121e-05	
368	5.100000e+00	7.827435e-05	
369	5.150000e+00	7.841270e-05	
370	5.200000e+00	7.855679e-05	
371	5.250000e+00	7.870721e-05	
372	5.300000e+00	7.886456e-05	
373	5.350000e+00	7.902947e-05	
374	5.400000e+00	7.920260e-05	
375	5.450000e+00	7.938466e-05	
376	5.500000e+00	7.957635e-05	
377	5.550000e+00	7.977843e-05	
378	5.600000e+00	7.999169e-05	
379	5.650000e+00	8.021693e-05	
380	5.700000e+00	8.045499e-05	
381	5.750000e+00	8.070673e-05	
382	5.800000e+00	8.097306e-05	
383	5.850000e+00	8.125488e-05	
384	5.900000e+00	8.155316e-05	
385	5.950000e+00	8.186885e-05	
386	6.000000e+00	8.220297e-05	
387	6.050000e+00	8.255653e-05	
388	6.100000e+00	8.293058e-05	
389	6.150000e+00	8.332619e-05	
390	6.200000e+00	8.374444e-05	
391	6.250000e+00	8.418646e-05	
392	6.300000e+00	8.465336e-05	
393	6.350000e+00	8.514631e-05	
394	6.400000e+00	8.566647e-05	
395	6.450000e+00	8.621502e-05	
396	6.500000e+00	8.679316e-05	
397	6.550000e+00	8.740211e-05	
398	6.600000e+00	8.804310e-05	
399	0.000000e+00	-7.48823e-21	
400	5.000000e-02	5.244569e-06	
401	1.000000e-01	1.032494e-05	
402	1.500000e-01	1.524632e-05	

Index   v-sweep         -i(vds)         
--------------------------------------------------------------------------------
403	2.000000e-01	2.001187e-05	
404	2.500000e-01	2.462413e-05	
405	3.000000e-01	2.908547e-05	
406	3.500000e-01	3.339817e-05	
407	4.000000e-01	3.756445e-05	
408	4.500000e-01	4.158650e-05	
409	5.000000e-01	4.546646e-05	
410	5.500000e-01	4.920643e-05	
411	6.000000e-01	5.280846e-05	
412	6.500000e-01	5.627458e-05	
413	7.000000e-01	5.960677e-05	
414	7.500000e-01	6.280697e-05	
415	8.000000e-01	6.587711e-05	
416	8.500000e-01	6.881906e-05	
417	9.000000e-01	7.163470e-05	
418	9.500000e-01	7.432586e-05	
419	1.000000e+00	7.689438e-05	
420	1.050000e+00	7.934206e-05	
421	1.100000e+00	8.167070e-05	
422	1.150000e+00	8.388210e-05	
423	1.200000e+00	8.597801e-05	
424	1.250000e+00	8.796022e-05	
425	1.300000e+00	8.983044e-05	
426	1.350000e+00	9.159040e-05	
427	1.400000e+00	9.324173e-05	
428	1.450000e+00	9.478602e-05	
429	1.500000e+00	9.622470e-05	
430	1.550000e+00	9.755905e-05	
431	1.600000e+00	9.879021e-05	
432	1.650000e+00	9.991940e-05	
433	1.700000e+00	1.009486e-04	
434	1.750000e+00	1.018815e-04	
435	1.800000e+00	1.027244e-04	
436	1.850000e+00	1.034855e-04	
437	1.900000e+00	1.041747e-04	
438	1.950000e+00	1.048015e-04	
439	2.000000e+00	1.053749e-04	
440	2.050000e+00	1.059025e-04	
441	2.100000e+00	1.063908e-04	
442	2.150000e+00	1.068451e-04	
443	2.200000e+00	1.072698e-04	
444	2.250000e+00	1.076688e-04	
445	2.300000e+00	1.080449e-04	
446	2.350000e+00	1.084010e-04	
447	2.400000e+00	1.087390e-04	
448	2.450000e+00	1.090610e-04	
449	2.500000e+00	1.093685e-04	
450	2.550000e+00	1.096628e-04	
451	2.600000e+00	1.099451e-04	
452	2.650000e+00	1.102166e-04	
453	2.700000e+00	1.104781e-04	
454	2.750000e+00	1.107303e-04	
455	2.800000e+00	1.109741e-04	
456	2.850000e+00	1.112101e-04	
457	2.900000e+00	1.114387e-04	
458	2.950000e+00	1.116606e-04	
459	3.000000e+00	1.118762e-04	
460	3.050000e+00	1.120858e-04	

Index   v-sweep         -i(vds)         
--------------------------------------------------------------------------------
461	3.100000e+00	1.122900e-04	
462	3.150000e+00	1.124889e-04	
463	3.200000e+00	1.126830e-04	
464	3.250000e+00	1.128724e-04	
465	3.300000e+00	1.130575e-04	
466	3.350000e+00	1.132385e-04	
467	3.400000e+00	1.134156e-04	
468	3.450000e+00	1.135891e-04	
469	3.500000e+00	1.137590e-04	
470	3.550000e+00	1.139256e-04	
471	3.600000e+00	1.140891e-04	
472	3.650000e+00	1.142495e-04	
473	3.700000e+00	1.144071e-04	
474	3.750000e+00	1.145619e-04	
475	3.800000e+00	1.147141e-04	
476	3.850000e+00	1.148639e-04	
477	3.900000e+00	1.150112e-04	
478	3.950000e+00	1.151563e-04	
479	4.000000e+00	1.152993e-04	
480	4.050000e+00	1.154402e-04	
481	4.100000e+00	1.155791e-04	
482	4.150000e+00	1.157162e-04	
483	4.200000e+00	1.158515e-04	
484	4.250000e+00	1.159852e-04	
485	4.300000e+00	1.161174e-04	
486	4.350000e+00	1.162483e-04	
487	4.400000e+00	1.163778e-04	
488	4.450000e+00	1.165063e-04	
489	4.500000e+00	1.166337e-04	
490	4.550000e+00	1.167604e-04	
491	4.600000e+00	1.168865e-04	
492	4.650000e+00	1.170121e-04	
493	4.700000e+00	1.171375e-04	
494	4.750000e+00	1.172630e-04	
495	4.800000e+00	1.173887e-04	
496	4.850000e+00	1.175149e-04	
497	4.900000e+00	1.176421e-04	
498	4.950000e+00	1.177704e-04	
499	5.000000e+00	1.179003e-04	
500	5.050000e+00	1.180322e-04	
501	5.100000e+00	1.181664e-04	
502	5.150000e+00	1.183035e-04	
503	5.200000e+00	1.184440e-04	
504	5.250000e+00	1.185883e-04	
505	5.300000e+00	1.187370e-04	
506	5.350000e+00	1.188908e-04	
507	5.400000e+00	1.190503e-04	
508	5.450000e+00	1.192161e-04	
509	5.500000e+00	1.193891e-04	
510	5.550000e+00	1.195700e-04	
511	5.600000e+00	1.197596e-04	
512	5.650000e+00	1.199587e-04	
513	5.700000e+00	1.201683e-04	
514	5.750000e+00	1.203894e-04	
515	5.800000e+00	1.206228e-04	
516	5.850000e+00	1.208697e-04	
517	5.900000e+00	1.211311e-04	
518	5.950000e+00	1.214081e-04	

Index   v-sweep         -i(vds)         
--------------------------------------------------------------------------------
519	6.000000e+00	1.217020e-04	
520	6.050000e+00	1.220138e-04	
521	6.100000e+00	1.223449e-04	
522	6.150000e+00	1.226965e-04	
523	6.200000e+00	1.230701e-04	
524	6.250000e+00	1.234668e-04	
525	6.300000e+00	1.238882e-04	
526	6.350000e+00	1.243356e-04	
527	6.400000e+00	1.248106e-04	
528	6.450000e+00	1.253147e-04	
529	6.500000e+00	1.258494e-04	
530	6.550000e+00	1.264162e-04	
531	6.600000e+00	1.270169e-04	
532	0.000000e+00	3.684833e-21	
533	5.000000e-02	5.902344e-06	
534	1.000000e-01	1.165250e-05	
535	1.500000e-01	1.725520e-05	
536	2.000000e-01	2.271316e-05	
537	2.500000e-01	2.802856e-05	
538	3.000000e-01	3.320336e-05	
539	3.500000e-01	3.823946e-05	
540	4.000000e-01	4.313874e-05	
541	4.500000e-01	4.790300e-05	
542	5.000000e-01	5.253406e-05	
543	5.500000e-01	5.703368e-05	
544	6.000000e-01	6.140359e-05	
545	6.500000e-01	6.564550e-05	
546	7.000000e-01	6.976106e-05	
547	7.500000e-01	7.375192e-05	
548	8.000000e-01	7.761970e-05	
549	8.500000e-01	8.136595e-05	
550	9.000000e-01	8.499226e-05	
551	9.500000e-01	8.850013e-05	
552	1.000000e+00	9.189109e-05	
553	1.050000e+00	9.516661e-05	
554	1.100000e+00	9.832818e-05	
555	1.150000e+00	1.013772e-04	
556	1.200000e+00	1.043153e-04	
557	1.250000e+00	1.071437e-04	
558	1.300000e+00	1.098639e-04	
559	1.350000e+00	1.124773e-04	
560	1.400000e+00	1.149853e-04	
561	1.450000e+00	1.173894e-04	
562	1.500000e+00	1.196909e-04	
563	1.550000e+00	1.218912e-04	
564	1.600000e+00	1.239917e-04	
565	1.650000e+00	1.259935e-04	
566	1.700000e+00	1.278981e-04	
567	1.750000e+00	1.297066e-04	
568	1.800000e+00	1.314200e-04	
569	1.850000e+00	1.330392e-04	
570	1.900000e+00	1.345646e-04	
571	1.950000e+00	1.359966e-04	
572	2.000000e+00	1.373348e-04	
573	2.050000e+00	1.385788e-04	
574	2.100000e+00	1.397287e-04	
575	2.150000e+00	1.407858e-04	
576	2.200000e+00	1.417537e-04	

Index   v-sweep         -i(vds)         
--------------------------------------------------------------------------------
577	2.250000e+00	1.426385e-04	
578	2.300000e+00	1.434476e-04	
579	2.350000e+00	1.441895e-04	
580	2.400000e+00	1.448724e-04	
581	2.450000e+00	1.455038e-04	
582	2.500000e+00	1.460901e-04	
583	2.550000e+00	1.466371e-04	
584	2.600000e+00	1.471495e-04	
585	2.650000e+00	1.476314e-04	
586	2.700000e+00	1.480864e-04	
587	2.750000e+00	1.485172e-04	
588	2.800000e+00	1.489265e-04	
589	2.850000e+00	1.493163e-04	
590	2.900000e+00	1.496886e-04	
591	2.950000e+00	1.500449e-04	
592	3.000000e+00	1.503867e-04	
593	3.050000e+00	1.507152e-04	
594	3.100000e+00	1.510314e-04	
595	3.150000e+00	1.513364e-04	
596	3.200000e+00	1.516310e-04	
597	3.250000e+00	1.519159e-04	
598	3.300000e+00	1.521919e-04	
599	3.350000e+00	1.524595e-04	
600	3.400000e+00	1.527193e-04	
601	3.450000e+00	1.529718e-04	
602	3.500000e+00	1.532174e-04	
603	3.550000e+00	1.534566e-04	
604	3.600000e+00	1.536898e-04	
605	3.650000e+00	1.539172e-04	
606	3.700000e+00	1.541393e-04	
607	3.750000e+00	1.543563e-04	
608	3.800000e+00	1.545684e-04	
609	3.850000e+00	1.547759e-04	
610	3.900000e+00	1.549791e-04	
611	3.950000e+00	1.551782e-04	
612	4.000000e+00	1.553733e-04	
613	4.050000e+00	1.555646e-04	
614	4.100000e+00	1.557524e-04	
615	4.150000e+00	1.559368e-04	
616	4.200000e+00	1.561179e-04	
617	4.250000e+00	1.562959e-04	
618	4.300000e+00	1.564709e-04	
619	4.350000e+00	1.566431e-04	
620	4.400000e+00	1.568126e-04	
621	4.450000e+00	1.569795e-04	
622	4.500000e+00	1.571440e-04	
623	4.550000e+00	1.573062e-04	
624	4.600000e+00	1.574662e-04	
625	4.650000e+00	1.576242e-04	
626	4.700000e+00	1.577804e-04	
627	4.750000e+00	1.579348e-04	
628	4.800000e+00	1.580877e-04	
629	4.850000e+00	1.582392e-04	
630	4.900000e+00	1.583895e-04	
631	4.950000e+00	1.585389e-04	
632	5.000000e+00	1.586876e-04	
633	5.050000e+00	1.588359e-04	
634	5.100000e+00	1.589840e-04	

Index   v-sweep         -i(vds)         
--------------------------------------------------------------------------------
635	5.150000e+00	1.591322e-04	
636	5.200000e+00	1.592809e-04	
637	5.250000e+00	1.594305e-04	
638	5.300000e+00	1.595814e-04	
639	5.350000e+00	1.597340e-04	
640	5.400000e+00	1.598887e-04	
641	5.450000e+00	1.600462e-04	
642	5.500000e+00	1.602071e-04	
643	5.550000e+00	1.603718e-04	
644	5.600000e+00	1.605411e-04	
645	5.650000e+00	1.607157e-04	
646	5.700000e+00	1.608964e-04	
647	5.750000e+00	1.610839e-04	
648	5.800000e+00	1.612792e-04	
649	5.850000e+00	1.614831e-04	
650	5.900000e+00	1.616967e-04	
651	5.950000e+00	1.619210e-04	
652	6.000000e+00	1.621571e-04	
653	6.050000e+00	1.624061e-04	
654	6.100000e+00	1.626692e-04	
655	6.150000e+00	1.629477e-04	
656	6.200000e+00	1.632430e-04	
657	6.250000e+00	1.635564e-04	
658	6.300000e+00	1.638893e-04	
659	6.350000e+00	1.642433e-04	
660	6.400000e+00	1.646199e-04	
661	6.450000e+00	1.650206e-04	
662	6.500000e+00	1.654473e-04	
663	6.550000e+00	1.659015e-04	
664	6.600000e+00	1.663851e-04	
665	0.000000e+00	-2.48811e-20	
666	5.000000e-02	6.356184e-06	
667	1.000000e-01	1.257309e-05	
668	1.500000e-01	1.865502e-05	
669	2.000000e-01	2.460436e-05	
670	2.500000e-01	3.042289e-05	
671	3.000000e-01	3.611225e-05	
672	3.500000e-01	4.167399e-05	
673	4.000000e-01	4.710965e-05	
674	4.500000e-01	5.242074e-05	
675	5.000000e-01	5.760874e-05	
676	5.500000e-01	6.267511e-05	
677	6.000000e-01	6.762129e-05	
678	6.500000e-01	7.244870e-05	
679	7.000000e-01	7.715872e-05	
680	7.500000e-01	8.175273e-05	
681	8.000000e-01	8.623206e-05	
682	8.500000e-01	9.059804e-05	
683	9.000000e-01	9.485196e-05	
684	9.500000e-01	9.899509e-05	
685	1.000000e+00	1.030287e-04	
686	1.050000e+00	1.069540e-04	
687	1.100000e+00	1.107723e-04	
688	1.150000e+00	1.144846e-04	
689	1.200000e+00	1.180923e-04	
690	1.250000e+00	1.215965e-04	
691	1.300000e+00	1.249983e-04	
692	1.350000e+00	1.282989e-04	

Index   v-sweep         -i(vds)         
--------------------------------------------------------------------------------
693	1.400000e+00	1.314994e-04	
694	1.450000e+00	1.346011e-04	
695	1.500000e+00	1.376049e-04	
696	1.550000e+00	1.405121e-04	
697	1.600000e+00	1.433237e-04	
698	1.650000e+00	1.460409e-04	
699	1.700000e+00	1.486648e-04	
700	1.750000e+00	1.511965e-04	
701	1.800000e+00	1.536371e-04	
702	1.850000e+00	1.559876e-04	
703	1.900000e+00	1.582492e-04	
704	1.950000e+00	1.604229e-04	
705	2.000000e+00	1.625098e-04	
706	2.050000e+00	1.645106e-04	
707	2.100000e+00	1.664265e-04	
708	2.150000e+00	1.682581e-04	
709	2.200000e+00	1.700060e-04	
710	2.250000e+00	1.716706e-04	
711	2.300000e+00	1.732518e-04	
712	2.350000e+00	1.747493e-04	
713	2.400000e+00	1.761621e-04	
714	2.450000e+00	1.774890e-04	
715	2.500000e+00	1.787291e-04	
716	2.550000e+00	1.798823e-04	
717	2.600000e+00	1.809502e-04	
718	2.650000e+00	1.819367e-04	
719	2.700000e+00	1.828474e-04	
720	2.750000e+00	1.836892e-04	
721	2.800000e+00	1.844689e-04	
722	2.850000e+00	1.851935e-04	
723	2.900000e+00	1.858693e-04	
724	2.950000e+00	1.865019e-04	
725	3.000000e+00	1.870960e-04	
726	3.050000e+00	1.876560e-04	
727	3.100000e+00	1.881856e-04	
728	3.150000e+00	1.886877e-04	
729	3.200000e+00	1.891652e-04	
730	3.250000e+00	1.896205e-04	
731	3.300000e+00	1.900555e-04	
732	3.350000e+00	1.904721e-04	
733	3.400000e+00	1.908718e-04	
734	3.450000e+00	1.912561e-04	
735	3.500000e+00	1.916261e-04	
736	3.550000e+00	1.919829e-04	
737	3.600000e+00	1.923276e-04	
738	3.650000e+00	1.926610e-04	
739	3.700000e+00	1.929838e-04	
740	3.750000e+00	1.932968e-04	
741	3.800000e+00	1.936006e-04	
742	3.850000e+00	1.938959e-04	
743	3.900000e+00	1.941830e-04	
744	3.950000e+00	1.944625e-04	
745	4.000000e+00	1.947349e-04	
746	4.050000e+00	1.950005e-04	
747	4.100000e+00	1.952597e-04	
748	4.150000e+00	1.955129e-04	
749	4.200000e+00	1.957603e-04	
750	4.250000e+00	1.960023e-04	

Index   v-sweep         -i(vds)         
--------------------------------------------------------------------------------
751	4.300000e+00	1.962391e-04	
752	4.350000e+00	1.964709e-04	
753	4.400000e+00	1.966981e-04	
754	4.450000e+00	1.969208e-04	
755	4.500000e+00	1.971393e-04	
756	4.550000e+00	1.973536e-04	
757	4.600000e+00	1.975641e-04	
758	4.650000e+00	1.977709e-04	
759	4.700000e+00	1.979741e-04	
760	4.750000e+00	1.981739e-04	
761	4.800000e+00	1.983705e-04	
762	4.850000e+00	1.985640e-04	
763	4.900000e+00	1.987547e-04	
764	4.950000e+00	1.989425e-04	
765	5.000000e+00	1.991278e-04	
766	5.050000e+00	1.993107e-04	
767	5.100000e+00	1.994913e-04	
768	5.150000e+00	1.996699e-04	
769	5.200000e+00	1.998466e-04	
770	5.250000e+00	2.000218e-04	
771	5.300000e+00	2.001955e-04	
772	5.350000e+00	2.003681e-04	
773	5.400000e+00	2.005400e-04	
774	5.450000e+00	2.007113e-04	
775	5.500000e+00	2.008824e-04	
776	5.550000e+00	2.010538e-04	
777	5.600000e+00	2.012258e-04	
778	5.650000e+00	2.013990e-04	
779	5.700000e+00	2.015737e-04	
780	5.750000e+00	2.017507e-04	
781	5.800000e+00	2.019303e-04	
782	5.850000e+00	2.021134e-04	
783	5.900000e+00	2.023007e-04	
784	5.950000e+00	2.024928e-04	
785	6.000000e+00	2.026906e-04	
786	6.050000e+00	2.028950e-04	
787	6.100000e+00	2.031070e-04	
788	6.150000e+00	2.033275e-04	
789	6.200000e+00	2.035577e-04	
790	6.250000e+00	2.037986e-04	
791	6.300000e+00	2.040516e-04	
792	6.350000e+00	2.043178e-04	
793	6.400000e+00	2.045987e-04	
794	6.450000e+00	2.048957e-04	
795	6.500000e+00	2.052102e-04	
796	6.550000e+00	2.055439e-04	
797	6.600000e+00	2.058985e-04	
Note: No ".plot", ".print", or ".fourier" lines; no simulations run
