
Note: Compatibility modes selected: hs

Warning: m=xx on .subckt line will override multiplier m hierarchy!


Circuit: ***************************

Doing analysis at TEMP = 125.000000 and TNOM = 125.000000


No. of Data Rows : 798
                          ***************************
                          DC transfer characteristic  Mon Jan  9 13:58:37  2023
--------------------------------------------------------------------------------
Index   v-sweep         -i(vds)         
--------------------------------------------------------------------------------
0	0.000000e+00	-2.43186e-27	
1	5.000000e-02	5.855589e-07	
2	1.000000e-01	1.081492e-06	
3	1.500000e-01	1.492494e-06	
4	2.000000e-01	1.821119e-06	
5	2.500000e-01	2.070120e-06	
6	3.000000e-01	2.244457e-06	
7	3.500000e-01	2.354944e-06	
8	4.000000e-01	2.420842e-06	
9	4.500000e-01	2.462617e-06	
10	5.000000e-01	2.492744e-06	
11	5.500000e-01	2.516751e-06	
12	6.000000e-01	2.537037e-06	
13	6.500000e-01	2.554784e-06	
14	7.000000e-01	2.570657e-06	
15	7.500000e-01	2.585075e-06	
16	8.000000e-01	2.598325e-06	
17	8.500000e-01	2.610610e-06	
18	9.000000e-01	2.622084e-06	
19	9.500000e-01	2.632865e-06	
20	1.000000e+00	2.643047e-06	
21	1.050000e+00	2.652706e-06	
22	1.100000e+00	2.661903e-06	
23	1.150000e+00	2.670690e-06	
24	1.200000e+00	2.679109e-06	
25	1.250000e+00	2.687198e-06	
26	1.300000e+00	2.694988e-06	
27	1.350000e+00	2.702506e-06	
28	1.400000e+00	2.709776e-06	
29	1.450000e+00	2.716817e-06	
30	1.500000e+00	2.723649e-06	
31	1.550000e+00	2.730288e-06	
32	1.600000e+00	2.736747e-06	
33	1.650000e+00	2.743039e-06	
34	1.700000e+00	2.749177e-06	
35	1.750000e+00	2.755169e-06	
36	1.800000e+00	2.761027e-06	
37	1.850000e+00	2.766757e-06	
38	1.900000e+00	2.772368e-06	
39	1.950000e+00	2.777867e-06	
40	2.000000e+00	2.783260e-06	
41	2.050000e+00	2.788552e-06	
42	2.100000e+00	2.793751e-06	
43	2.150000e+00	2.798859e-06	
44	2.200000e+00	2.803883e-06	
45	2.250000e+00	2.808826e-06	
46	2.300000e+00	2.813692e-06	
47	2.350000e+00	2.818486e-06	
48	2.400000e+00	2.823210e-06	
49	2.450000e+00	2.827867e-06	
50	2.500000e+00	2.832462e-06	
51	2.550000e+00	2.836996e-06	
52	2.600000e+00	2.841474e-06	
53	2.650000e+00	2.845896e-06	
54	2.700000e+00	2.850267e-06	

Index   v-sweep         -i(vds)         
--------------------------------------------------------------------------------
55	2.750000e+00	2.854589e-06	
56	2.800000e+00	2.858865e-06	
57	2.850000e+00	2.863096e-06	
58	2.900000e+00	2.867287e-06	
59	2.950000e+00	2.871441e-06	
60	3.000000e+00	2.875559e-06	
61	3.050000e+00	2.879646e-06	
62	3.100000e+00	2.883706e-06	
63	3.150000e+00	2.887741e-06	
64	3.200000e+00	2.891756e-06	
65	3.250000e+00	2.895756e-06	
66	3.300000e+00	2.899746e-06	
67	3.350000e+00	2.903730e-06	
68	3.400000e+00	2.907716e-06	
69	3.450000e+00	2.911709e-06	
70	3.500000e+00	2.915716e-06	
71	3.550000e+00	2.919746e-06	
72	3.600000e+00	2.923806e-06	
73	3.650000e+00	2.927907e-06	
74	3.700000e+00	2.932057e-06	
75	3.750000e+00	2.936268e-06	
76	3.800000e+00	2.940552e-06	
77	3.850000e+00	2.944920e-06	
78	3.900000e+00	2.949386e-06	
79	3.950000e+00	2.953966e-06	
80	4.000000e+00	2.958674e-06	
81	4.050000e+00	2.963527e-06	
82	4.100000e+00	2.968542e-06	
83	4.150000e+00	2.973739e-06	
84	4.200000e+00	2.979136e-06	
85	4.250000e+00	2.984756e-06	
86	4.300000e+00	2.990619e-06	
87	4.350000e+00	2.996749e-06	
88	4.400000e+00	3.003170e-06	
89	4.450000e+00	3.009909e-06	
90	4.500000e+00	3.016990e-06	
91	4.550000e+00	3.024444e-06	
92	4.600000e+00	3.032298e-06	
93	4.650000e+00	3.040582e-06	
94	4.700000e+00	3.049328e-06	
95	4.750000e+00	3.058570e-06	
96	4.800000e+00	3.068339e-06	
97	4.850000e+00	3.078671e-06	
98	4.900000e+00	3.089602e-06	
99	4.950000e+00	3.101170e-06	
100	5.000000e+00	3.113411e-06	
101	5.050000e+00	3.126366e-06	
102	5.100000e+00	3.140075e-06	
103	5.150000e+00	3.154579e-06	
104	5.200000e+00	3.169919e-06	
105	5.250000e+00	3.186141e-06	
106	5.300000e+00	3.203286e-06	
107	5.350000e+00	3.221402e-06	
108	5.400000e+00	3.240533e-06	
109	5.450000e+00	3.260727e-06	
110	5.500000e+00	3.282032e-06	
111	5.550000e+00	3.304495e-06	
112	5.600000e+00	3.328166e-06	

Index   v-sweep         -i(vds)         
--------------------------------------------------------------------------------
113	5.650000e+00	3.353095e-06	
114	5.700000e+00	3.379333e-06	
115	5.750000e+00	3.406932e-06	
116	5.800000e+00	3.435942e-06	
117	5.850000e+00	3.466417e-06	
118	5.900000e+00	3.498410e-06	
119	5.950000e+00	3.531975e-06	
120	6.000000e+00	3.567166e-06	
121	6.050000e+00	3.604038e-06	
122	6.100000e+00	3.642645e-06	
123	6.150000e+00	3.683044e-06	
124	6.200000e+00	3.725290e-06	
125	6.250000e+00	3.769439e-06	
126	6.300000e+00	3.815548e-06	
127	6.350000e+00	3.863674e-06	
128	6.400000e+00	3.913875e-06	
129	6.450000e+00	3.966206e-06	
130	6.500000e+00	4.020726e-06	
131	6.550000e+00	4.077493e-06	
132	6.600000e+00	4.136564e-06	
133	0.000000e+00	-1.81698e-25	
134	5.000000e-02	1.629242e-06	
135	1.000000e-01	3.164069e-06	
136	1.500000e-01	4.608957e-06	
137	2.000000e-01	5.966018e-06	
138	2.500000e-01	7.236739e-06	
139	3.000000e-01	8.422428e-06	
140	3.500000e-01	9.524340e-06	
141	4.000000e-01	1.054371e-05	
142	4.500000e-01	1.148174e-05	
143	5.000000e-01	1.233967e-05	
144	5.500000e-01	1.311871e-05	
145	6.000000e-01	1.382011e-05	
146	6.500000e-01	1.444520e-05	
147	7.000000e-01	1.499544e-05	
148	7.500000e-01	1.547255e-05	
149	8.000000e-01	1.587886e-05	
150	8.500000e-01	1.621777e-05	
151	9.000000e-01	1.649468e-05	
152	9.500000e-01	1.671769e-05	
153	1.000000e+00	1.689714e-05	
154	1.050000e+00	1.704355e-05	
155	1.100000e+00	1.716569e-05	
156	1.150000e+00	1.726995e-05	
157	1.200000e+00	1.736076e-05	
158	1.250000e+00	1.744120e-05	
159	1.300000e+00	1.751342e-05	
160	1.350000e+00	1.757898e-05	
161	1.400000e+00	1.763904e-05	
162	1.450000e+00	1.769450e-05	
163	1.500000e+00	1.774603e-05	
164	1.550000e+00	1.779418e-05	
165	1.600000e+00	1.783939e-05	
166	1.650000e+00	1.788202e-05	
167	1.700000e+00	1.792237e-05	
168	1.750000e+00	1.796069e-05	
169	1.800000e+00	1.799718e-05	
170	1.850000e+00	1.803203e-05	

Index   v-sweep         -i(vds)         
--------------------------------------------------------------------------------
171	1.900000e+00	1.806538e-05	
172	1.950000e+00	1.809738e-05	
173	2.000000e+00	1.812814e-05	
174	2.050000e+00	1.815776e-05	
175	2.100000e+00	1.818634e-05	
176	2.150000e+00	1.821394e-05	
177	2.200000e+00	1.824064e-05	
178	2.250000e+00	1.826651e-05	
179	2.300000e+00	1.829161e-05	
180	2.350000e+00	1.831597e-05	
181	2.400000e+00	1.833966e-05	
182	2.450000e+00	1.836271e-05	
183	2.500000e+00	1.838516e-05	
184	2.550000e+00	1.840704e-05	
185	2.600000e+00	1.842840e-05	
186	2.650000e+00	1.844925e-05	
187	2.700000e+00	1.846962e-05	
188	2.750000e+00	1.848954e-05	
189	2.800000e+00	1.850904e-05	
190	2.850000e+00	1.852813e-05	
191	2.900000e+00	1.854683e-05	
192	2.950000e+00	1.856517e-05	
193	3.000000e+00	1.858315e-05	
194	3.050000e+00	1.860080e-05	
195	3.100000e+00	1.861814e-05	
196	3.150000e+00	1.863517e-05	
197	3.200000e+00	1.865192e-05	
198	3.250000e+00	1.866839e-05	
199	3.300000e+00	1.868461e-05	
200	3.350000e+00	1.870058e-05	
201	3.400000e+00	1.871633e-05	
202	3.450000e+00	1.873186e-05	
203	3.500000e+00	1.874720e-05	
204	3.550000e+00	1.876236e-05	
205	3.600000e+00	1.877736e-05	
206	3.650000e+00	1.879222e-05	
207	3.700000e+00	1.880697e-05	
208	3.750000e+00	1.882162e-05	
209	3.800000e+00	1.883620e-05	
210	3.850000e+00	1.885074e-05	
211	3.900000e+00	1.886528e-05	
212	3.950000e+00	1.887985e-05	
213	4.000000e+00	1.889448e-05	
214	4.050000e+00	1.890923e-05	
215	4.100000e+00	1.892413e-05	
216	4.150000e+00	1.893923e-05	
217	4.200000e+00	1.895460e-05	
218	4.250000e+00	1.897029e-05	
219	4.300000e+00	1.898637e-05	
220	4.350000e+00	1.900291e-05	
221	4.400000e+00	1.901998e-05	
222	4.450000e+00	1.903767e-05	
223	4.500000e+00	1.905606e-05	
224	4.550000e+00	1.907525e-05	
225	4.600000e+00	1.909534e-05	
226	4.650000e+00	1.911644e-05	
227	4.700000e+00	1.913866e-05	
228	4.750000e+00	1.916212e-05	

Index   v-sweep         -i(vds)         
--------------------------------------------------------------------------------
229	4.800000e+00	1.918695e-05	
230	4.850000e+00	1.921329e-05	
231	4.900000e+00	1.924127e-05	
232	4.950000e+00	1.927105e-05	
233	5.000000e+00	1.930278e-05	
234	5.050000e+00	1.933663e-05	
235	5.100000e+00	1.937276e-05	
236	5.150000e+00	1.941136e-05	
237	5.200000e+00	1.945261e-05	
238	5.250000e+00	1.949669e-05	
239	5.300000e+00	1.954382e-05	
240	5.350000e+00	1.959419e-05	
241	5.400000e+00	1.964802e-05	
242	5.450000e+00	1.970553e-05	
243	5.500000e+00	1.976694e-05	
244	5.550000e+00	1.983249e-05	
245	5.600000e+00	1.990242e-05	
246	5.650000e+00	1.997696e-05	
247	5.700000e+00	2.005638e-05	
248	5.750000e+00	2.014093e-05	
249	5.800000e+00	2.023086e-05	
250	5.850000e+00	2.032646e-05	
251	5.900000e+00	2.042798e-05	
252	5.950000e+00	2.053572e-05	
253	6.000000e+00	2.064995e-05	
254	6.050000e+00	2.077096e-05	
255	6.100000e+00	2.089905e-05	
256	6.150000e+00	2.103450e-05	
257	6.200000e+00	2.117763e-05	
258	6.250000e+00	2.132873e-05	
259	6.300000e+00	2.148811e-05	
260	6.350000e+00	2.165608e-05	
261	6.400000e+00	2.183296e-05	
262	6.450000e+00	2.201906e-05	
263	6.500000e+00	2.221470e-05	
264	6.550000e+00	2.242021e-05	
265	6.600000e+00	2.263591e-05	
266	0.000000e+00	-3.12916e-25	
267	5.000000e-02	2.427847e-06	
268	1.000000e-01	4.762911e-06	
269	1.500000e-01	7.009506e-06	
270	2.000000e-01	9.169651e-06	
271	2.500000e-01	1.124475e-05	
272	3.000000e-01	1.323602e-05	
273	3.500000e-01	1.514465e-05	
274	4.000000e-01	1.697175e-05	
275	4.500000e-01	1.871847e-05	
276	5.000000e-01	2.038588e-05	
277	5.500000e-01	2.197508e-05	
278	6.000000e-01	2.348713e-05	
279	6.500000e-01	2.492309e-05	
280	7.000000e-01	2.628398e-05	
281	7.500000e-01	2.757083e-05	
282	8.000000e-01	2.878464e-05	
283	8.500000e-01	2.992640e-05	
284	9.000000e-01	3.099710e-05	
285	9.500000e-01	3.199770e-05	
286	1.000000e+00	3.292916e-05	

Index   v-sweep         -i(vds)         
--------------------------------------------------------------------------------
287	1.050000e+00	3.379243e-05	
288	1.100000e+00	3.458846e-05	
289	1.150000e+00	3.531820e-05	
290	1.200000e+00	3.598265e-05	
291	1.250000e+00	3.658284e-05	
292	1.300000e+00	3.711999e-05	
293	1.350000e+00	3.759564e-05	
294	1.400000e+00	3.801206e-05	
295	1.450000e+00	3.837272e-05	
296	1.500000e+00	3.868274e-05	
297	1.550000e+00	3.894869e-05	
298	1.600000e+00	3.917779e-05	
299	1.650000e+00	3.937685e-05	
300	1.700000e+00	3.955167e-05	
301	1.750000e+00	3.970693e-05	
302	1.800000e+00	3.984626e-05	
303	1.850000e+00	3.997248e-05	
304	1.900000e+00	4.008778e-05	
305	1.950000e+00	4.019386e-05	
306	2.000000e+00	4.029208e-05	
307	2.050000e+00	4.038354e-05	
308	2.100000e+00	4.046911e-05	
309	2.150000e+00	4.054951e-05	
310	2.200000e+00	4.062536e-05	
311	2.250000e+00	4.069715e-05	
312	2.300000e+00	4.076531e-05	
313	2.350000e+00	4.083019e-05	
314	2.400000e+00	4.089212e-05	
315	2.450000e+00	4.095137e-05	
316	2.500000e+00	4.100816e-05	
317	2.550000e+00	4.106270e-05	
318	2.600000e+00	4.111518e-05	
319	2.650000e+00	4.116575e-05	
320	2.700000e+00	4.121456e-05	
321	2.750000e+00	4.126172e-05	
322	2.800000e+00	4.130737e-05	
323	2.850000e+00	4.135159e-05	
324	2.900000e+00	4.139449e-05	
325	2.950000e+00	4.143613e-05	
326	3.000000e+00	4.147661e-05	
327	3.050000e+00	4.151599e-05	
328	3.100000e+00	4.155434e-05	
329	3.150000e+00	4.159170e-05	
330	3.200000e+00	4.162814e-05	
331	3.250000e+00	4.166371e-05	
332	3.300000e+00	4.169845e-05	
333	3.350000e+00	4.173239e-05	
334	3.400000e+00	4.176559e-05	
335	3.450000e+00	4.179808e-05	
336	3.500000e+00	4.182989e-05	
337	3.550000e+00	4.186106e-05	
338	3.600000e+00	4.189162e-05	
339	3.650000e+00	4.192159e-05	
340	3.700000e+00	4.195101e-05	
341	3.750000e+00	4.197991e-05	
342	3.800000e+00	4.200831e-05	
343	3.850000e+00	4.203624e-05	
344	3.900000e+00	4.206374e-05	

Index   v-sweep         -i(vds)         
--------------------------------------------------------------------------------
345	3.950000e+00	4.209083e-05	
346	4.000000e+00	4.211756e-05	
347	4.050000e+00	4.214394e-05	
348	4.100000e+00	4.217003e-05	
349	4.150000e+00	4.219587e-05	
350	4.200000e+00	4.222149e-05	
351	4.250000e+00	4.224694e-05	
352	4.300000e+00	4.227230e-05	
353	4.350000e+00	4.229760e-05	
354	4.400000e+00	4.232292e-05	
355	4.450000e+00	4.234834e-05	
356	4.500000e+00	4.237394e-05	
357	4.550000e+00	4.239980e-05	
358	4.600000e+00	4.242602e-05	
359	4.650000e+00	4.245272e-05	
360	4.700000e+00	4.248000e-05	
361	4.750000e+00	4.250801e-05	
362	4.800000e+00	4.253687e-05	
363	4.850000e+00	4.256675e-05	
364	4.900000e+00	4.259780e-05	
365	4.950000e+00	4.263020e-05	
366	5.000000e+00	4.266415e-05	
367	5.050000e+00	4.269984e-05	
368	5.100000e+00	4.273750e-05	
369	5.150000e+00	4.277735e-05	
370	5.200000e+00	4.281965e-05	
371	5.250000e+00	4.286466e-05	
372	5.300000e+00	4.291265e-05	
373	5.350000e+00	4.296392e-05	
374	5.400000e+00	4.301878e-05	
375	5.450000e+00	4.307755e-05	
376	5.500000e+00	4.314057e-05	
377	5.550000e+00	4.320819e-05	
378	5.600000e+00	4.328080e-05	
379	5.650000e+00	4.335877e-05	
380	5.700000e+00	4.344250e-05	
381	5.750000e+00	4.353243e-05	
382	5.800000e+00	4.362897e-05	
383	5.850000e+00	4.373259e-05	
384	5.900000e+00	4.384373e-05	
385	5.950000e+00	4.396289e-05	
386	6.000000e+00	4.409055e-05	
387	6.050000e+00	4.422722e-05	
388	6.100000e+00	4.437342e-05	
389	6.150000e+00	4.452968e-05	
390	6.200000e+00	4.469655e-05	
391	6.250000e+00	4.487459e-05	
392	6.300000e+00	4.506437e-05	
393	6.350000e+00	4.526647e-05	
394	6.400000e+00	4.548148e-05	
395	6.450000e+00	4.571001e-05	
396	6.500000e+00	4.595266e-05	
397	6.550000e+00	4.621008e-05	
398	6.600000e+00	4.648288e-05	
399	0.000000e+00	-7.86733e-26	
400	5.000000e-02	3.029402e-06	
401	1.000000e-01	5.970434e-06	
402	1.500000e-01	8.827192e-06	

Index   v-sweep         -i(vds)         
--------------------------------------------------------------------------------
403	2.000000e-01	1.160154e-05	
404	2.500000e-01	1.429472e-05	
405	3.000000e-01	1.690783e-05	
406	3.500000e-01	1.944188e-05	
407	4.000000e-01	2.189789e-05	
408	4.500000e-01	2.427683e-05	
409	5.000000e-01	2.657967e-05	
410	5.500000e-01	2.880737e-05	
411	6.000000e-01	3.096086e-05	
412	6.500000e-01	3.304107e-05	
413	7.000000e-01	3.504892e-05	
414	7.500000e-01	3.698531e-05	
415	8.000000e-01	3.885111e-05	
416	8.500000e-01	4.064720e-05	
417	9.000000e-01	4.237445e-05	
418	9.500000e-01	4.403370e-05	
419	1.000000e+00	4.562579e-05	
420	1.050000e+00	4.715154e-05	
421	1.100000e+00	4.861177e-05	
422	1.150000e+00	5.000726e-05	
423	1.200000e+00	5.133881e-05	
424	1.250000e+00	5.260719e-05	
425	1.300000e+00	5.381315e-05	
426	1.350000e+00	5.495745e-05	
427	1.400000e+00	5.604080e-05	
428	1.450000e+00	5.706392e-05	
429	1.500000e+00	5.802746e-05	
430	1.550000e+00	5.893209e-05	
431	1.600000e+00	5.977839e-05	
432	1.650000e+00	6.056689e-05	
433	1.700000e+00	6.129805e-05	
434	1.750000e+00	6.197223e-05	
435	1.800000e+00	6.258973e-05	
436	1.850000e+00	6.315087e-05	
437	1.900000e+00	6.365632e-05	
438	1.950000e+00	6.410753e-05	
439	2.000000e+00	6.450730e-05	
440	2.050000e+00	6.485991e-05	
441	2.100000e+00	6.517082e-05	
442	2.150000e+00	6.544590e-05	
443	2.200000e+00	6.569071e-05	
444	2.250000e+00	6.591017e-05	
445	2.300000e+00	6.610842e-05	
446	2.350000e+00	6.628881e-05	
447	2.400000e+00	6.645409e-05	
448	2.450000e+00	6.660647e-05	
449	2.500000e+00	6.674774e-05	
450	2.550000e+00	6.687938e-05	
451	2.600000e+00	6.700260e-05	
452	2.650000e+00	6.711840e-05	
453	2.700000e+00	6.722763e-05	
454	2.750000e+00	6.733099e-05	
455	2.800000e+00	6.742910e-05	
456	2.850000e+00	6.752245e-05	
457	2.900000e+00	6.761151e-05	
458	2.950000e+00	6.769666e-05	
459	3.000000e+00	6.777824e-05	
460	3.050000e+00	6.785654e-05	

Index   v-sweep         -i(vds)         
--------------------------------------------------------------------------------
461	3.100000e+00	6.793183e-05	
462	3.150000e+00	6.800433e-05	
463	3.200000e+00	6.807426e-05	
464	3.250000e+00	6.814179e-05	
465	3.300000e+00	6.820710e-05	
466	3.350000e+00	6.827033e-05	
467	3.400000e+00	6.833162e-05	
468	3.450000e+00	6.839108e-05	
469	3.500000e+00	6.844884e-05	
470	3.550000e+00	6.850498e-05	
471	3.600000e+00	6.855961e-05	
472	3.650000e+00	6.861281e-05	
473	3.700000e+00	6.866465e-05	
474	3.750000e+00	6.871522e-05	
475	3.800000e+00	6.876457e-05	
476	3.850000e+00	6.881276e-05	
477	3.900000e+00	6.885986e-05	
478	3.950000e+00	6.890592e-05	
479	4.000000e+00	6.895099e-05	
480	4.050000e+00	6.899512e-05	
481	4.100000e+00	6.903835e-05	
482	4.150000e+00	6.908073e-05	
483	4.200000e+00	6.912231e-05	
484	4.250000e+00	6.916312e-05	
485	4.300000e+00	6.920321e-05	
486	4.350000e+00	6.924263e-05	
487	4.400000e+00	6.928142e-05	
488	4.450000e+00	6.931963e-05	
489	4.500000e+00	6.935730e-05	
490	4.550000e+00	6.939451e-05	
491	4.600000e+00	6.943130e-05	
492	4.650000e+00	6.946775e-05	
493	4.700000e+00	6.950392e-05	
494	4.750000e+00	6.953989e-05	
495	4.800000e+00	6.957576e-05	
496	4.850000e+00	6.961162e-05	
497	4.900000e+00	6.964758e-05	
498	4.950000e+00	6.968376e-05	
499	5.000000e+00	6.972029e-05	
500	5.050000e+00	6.975732e-05	
501	5.100000e+00	6.979501e-05	
502	5.150000e+00	6.983354e-05	
503	5.200000e+00	6.987310e-05	
504	5.250000e+00	6.991390e-05	
505	5.300000e+00	6.995618e-05	
506	5.350000e+00	7.000017e-05	
507	5.400000e+00	7.004616e-05	
508	5.450000e+00	7.009442e-05	
509	5.500000e+00	7.014528e-05	
510	5.550000e+00	7.019907e-05	
511	5.600000e+00	7.025614e-05	
512	5.650000e+00	7.031688e-05	
513	5.700000e+00	7.038169e-05	
514	5.750000e+00	7.045101e-05	
515	5.800000e+00	7.052528e-05	
516	5.850000e+00	7.060499e-05	
517	5.900000e+00	7.069064e-05	
518	5.950000e+00	7.078276e-05	

Index   v-sweep         -i(vds)         
--------------------------------------------------------------------------------
519	6.000000e+00	7.088191e-05	
520	6.050000e+00	7.098868e-05	
521	6.100000e+00	7.110366e-05	
522	6.150000e+00	7.122749e-05	
523	6.200000e+00	7.136083e-05	
524	6.250000e+00	7.150436e-05	
525	6.300000e+00	7.165879e-05	
526	6.350000e+00	7.182485e-05	
527	6.400000e+00	7.200330e-05	
528	6.450000e+00	7.219491e-05	
529	6.500000e+00	7.240048e-05	
530	6.550000e+00	7.262083e-05	
531	6.600000e+00	7.285682e-05	
532	0.000000e+00	4.174431e-26	
533	5.000000e-02	3.468805e-06	
534	1.000000e-01	6.855240e-06	
535	1.500000e-01	1.016319e-05	
536	2.000000e-01	1.339433e-05	
537	2.500000e-01	1.654976e-05	
538	3.000000e-01	1.963041e-05	
539	3.500000e-01	2.263714e-05	
540	4.000000e-01	2.557080e-05	
541	4.500000e-01	2.843222e-05	
542	5.000000e-01	3.122224e-05	
543	5.500000e-01	3.394165e-05	
544	6.000000e-01	3.659126e-05	
545	6.500000e-01	3.917185e-05	
546	7.000000e-01	4.168422e-05	
547	7.500000e-01	4.412913e-05	
548	8.000000e-01	4.650733e-05	
549	8.500000e-01	4.881958e-05	
550	9.000000e-01	5.106661e-05	
551	9.500000e-01	5.324916e-05	
552	1.000000e+00	5.536793e-05	
553	1.050000e+00	5.742365e-05	
554	1.100000e+00	5.941702e-05	
555	1.150000e+00	6.134871e-05	
556	1.200000e+00	6.321942e-05	
557	1.250000e+00	6.502982e-05	
558	1.300000e+00	6.678058e-05	
559	1.350000e+00	6.847234e-05	
560	1.400000e+00	7.010576e-05	
561	1.450000e+00	7.168147e-05	
562	1.500000e+00	7.320009e-05	
563	1.550000e+00	7.466226e-05	
564	1.600000e+00	7.606857e-05	
565	1.650000e+00	7.741962e-05	
566	1.700000e+00	7.871599e-05	
567	1.750000e+00	7.995826e-05	
568	1.800000e+00	8.114697e-05	
569	1.850000e+00	8.228266e-05	
570	1.900000e+00	8.336582e-05	
571	1.950000e+00	8.439693e-05	
572	2.000000e+00	8.537640e-05	
573	2.050000e+00	8.630458e-05	
574	2.100000e+00	8.718174e-05	
575	2.150000e+00	8.800801e-05	
576	2.200000e+00	8.878336e-05	

Index   v-sweep         -i(vds)         
--------------------------------------------------------------------------------
577	2.250000e+00	8.950759e-05	
578	2.300000e+00	9.018028e-05	
579	2.350000e+00	9.080095e-05	
580	2.400000e+00	9.136930e-05	
581	2.450000e+00	9.188570e-05	
582	2.500000e+00	9.235165e-05	
583	2.550000e+00	9.277007e-05	
584	2.600000e+00	9.314511e-05	
585	2.650000e+00	9.348165e-05	
586	2.700000e+00	9.378466e-05	
587	2.750000e+00	9.405882e-05	
588	2.800000e+00	9.430826e-05	
589	2.850000e+00	9.453652e-05	
590	2.900000e+00	9.474657e-05	
591	2.950000e+00	9.494088e-05	
592	3.000000e+00	9.512152e-05	
593	3.050000e+00	9.529019e-05	
594	3.100000e+00	9.544833e-05	
595	3.150000e+00	9.559714e-05	
596	3.200000e+00	9.573765e-05	
597	3.250000e+00	9.587073e-05	
598	3.300000e+00	9.599711e-05	
599	3.350000e+00	9.611744e-05	
600	3.400000e+00	9.623227e-05	
601	3.450000e+00	9.634209e-05	
602	3.500000e+00	9.644733e-05	
603	3.550000e+00	9.654835e-05	
604	3.600000e+00	9.664549e-05	
605	3.650000e+00	9.673904e-05	
606	3.700000e+00	9.682927e-05	
607	3.750000e+00	9.691640e-05	
608	3.800000e+00	9.700065e-05	
609	3.850000e+00	9.708222e-05	
610	3.900000e+00	9.716126e-05	
611	3.950000e+00	9.723794e-05	
612	4.000000e+00	9.731241e-05	
613	4.050000e+00	9.738478e-05	
614	4.100000e+00	9.745519e-05	
615	4.150000e+00	9.752374e-05	
616	4.200000e+00	9.759052e-05	
617	4.250000e+00	9.765564e-05	
618	4.300000e+00	9.771918e-05	
619	4.350000e+00	9.778122e-05	
620	4.400000e+00	9.784183e-05	
621	4.450000e+00	9.790109e-05	
622	4.500000e+00	9.795906e-05	
623	4.550000e+00	9.801580e-05	
624	4.600000e+00	9.807138e-05	
625	4.650000e+00	9.812585e-05	
626	4.700000e+00	9.817927e-05	
627	4.750000e+00	9.823170e-05	
628	4.800000e+00	9.828320e-05	
629	4.850000e+00	9.833383e-05	
630	4.900000e+00	9.838365e-05	
631	4.950000e+00	9.843272e-05	
632	5.000000e+00	9.848112e-05	
633	5.050000e+00	9.852893e-05	
634	5.100000e+00	9.857622e-05	

Index   v-sweep         -i(vds)         
--------------------------------------------------------------------------------
635	5.150000e+00	9.862309e-05	
636	5.200000e+00	9.866964e-05	
637	5.250000e+00	9.871598e-05	
638	5.300000e+00	9.876224e-05	
639	5.350000e+00	9.880856e-05	
640	5.400000e+00	9.885509e-05	
641	5.450000e+00	9.890199e-05	
642	5.500000e+00	9.894946e-05	
643	5.550000e+00	9.899771e-05	
644	5.600000e+00	9.904697e-05	
645	5.650000e+00	9.909747e-05	
646	5.700000e+00	9.914951e-05	
647	5.750000e+00	9.920338e-05	
648	5.800000e+00	9.925941e-05	
649	5.850000e+00	9.931795e-05	
650	5.900000e+00	9.937939e-05	
651	5.950000e+00	9.944413e-05	
652	6.000000e+00	9.951262e-05	
653	6.050000e+00	9.958534e-05	
654	6.100000e+00	9.966280e-05	
655	6.150000e+00	9.974553e-05	
656	6.200000e+00	9.983411e-05	
657	6.250000e+00	9.992915e-05	
658	6.300000e+00	1.000313e-04	
659	6.350000e+00	1.001412e-04	
660	6.400000e+00	1.002597e-04	
661	6.450000e+00	1.003874e-04	
662	6.500000e+00	1.005251e-04	
663	6.550000e+00	1.006737e-04	
664	6.600000e+00	1.008340e-04	
665	0.000000e+00	1.056206e-25	
666	5.000000e-02	3.778487e-06	
667	1.000000e-01	7.481288e-06	
668	1.500000e-01	1.111210e-05	
669	2.000000e-01	1.467244e-05	
670	2.500000e-01	1.816326e-05	
671	3.000000e-01	2.158532e-05	
672	3.500000e-01	2.493935e-05	
673	4.000000e-01	2.822606e-05	
674	4.500000e-01	3.144613e-05	
675	5.000000e-01	3.460025e-05	
676	5.500000e-01	3.768909e-05	
677	6.000000e-01	4.071332e-05	
678	6.500000e-01	4.367361e-05	
679	7.000000e-01	4.657059e-05	
680	7.500000e-01	4.940493e-05	
681	8.000000e-01	5.217724e-05	
682	8.500000e-01	5.488817e-05	
683	9.000000e-01	5.753833e-05	
684	9.500000e-01	6.012834e-05	
685	1.000000e+00	6.265880e-05	
686	1.050000e+00	6.513030e-05	
687	1.100000e+00	6.754345e-05	
688	1.150000e+00	6.989883e-05	
689	1.200000e+00	7.219701e-05	
690	1.250000e+00	7.443857e-05	
691	1.300000e+00	7.662406e-05	
692	1.350000e+00	7.875405e-05	

Index   v-sweep         -i(vds)         
--------------------------------------------------------------------------------
693	1.400000e+00	8.082909e-05	
694	1.450000e+00	8.284972e-05	
695	1.500000e+00	8.481648e-05	
696	1.550000e+00	8.672990e-05	
697	1.600000e+00	8.859050e-05	
698	1.650000e+00	9.039882e-05	
699	1.700000e+00	9.215535e-05	
700	1.750000e+00	9.386060e-05	
701	1.800000e+00	9.551508e-05	
702	1.850000e+00	9.711928e-05	
703	1.900000e+00	9.867369e-05	
704	1.950000e+00	1.001788e-04	
705	2.000000e+00	1.016350e-04	
706	2.050000e+00	1.030429e-04	
707	2.100000e+00	1.044028e-04	
708	2.150000e+00	1.057153e-04	
709	2.200000e+00	1.069806e-04	
710	2.250000e+00	1.081994e-04	
711	2.300000e+00	1.093718e-04	
712	2.350000e+00	1.104984e-04	
713	2.400000e+00	1.115794e-04	
714	2.450000e+00	1.126151e-04	
715	2.500000e+00	1.136058e-04	
716	2.550000e+00	1.145514e-04	
717	2.600000e+00	1.154522e-04	
718	2.650000e+00	1.163079e-04	
719	2.700000e+00	1.171182e-04	
720	2.750000e+00	1.178825e-04	
721	2.800000e+00	1.186001e-04	
722	2.850000e+00	1.192699e-04	
723	2.900000e+00	1.198911e-04	
724	2.950000e+00	1.204633e-04	
725	3.000000e+00	1.209871e-04	
726	3.050000e+00	1.214641e-04	
727	3.100000e+00	1.218974e-04	
728	3.150000e+00	1.222907e-04	
729	3.200000e+00	1.226482e-04	
730	3.250000e+00	1.229743e-04	
731	3.300000e+00	1.232729e-04	
732	3.350000e+00	1.235474e-04	
733	3.400000e+00	1.238011e-04	
734	3.450000e+00	1.240365e-04	
735	3.500000e+00	1.242558e-04	
736	3.550000e+00	1.244611e-04	
737	3.600000e+00	1.246538e-04	
738	3.650000e+00	1.248354e-04	
739	3.700000e+00	1.250070e-04	
740	3.750000e+00	1.251697e-04	
741	3.800000e+00	1.253243e-04	
742	3.850000e+00	1.254716e-04	
743	3.900000e+00	1.256122e-04	
744	3.950000e+00	1.257468e-04	
745	4.000000e+00	1.258757e-04	
746	4.050000e+00	1.259995e-04	
747	4.100000e+00	1.261186e-04	
748	4.150000e+00	1.262333e-04	
749	4.200000e+00	1.263439e-04	
750	4.250000e+00	1.264507e-04	

Index   v-sweep         -i(vds)         
--------------------------------------------------------------------------------
751	4.300000e+00	1.265541e-04	
752	4.350000e+00	1.266541e-04	
753	4.400000e+00	1.267510e-04	
754	4.450000e+00	1.268450e-04	
755	4.500000e+00	1.269363e-04	
756	4.550000e+00	1.270250e-04	
757	4.600000e+00	1.271113e-04	
758	4.650000e+00	1.271953e-04	
759	4.700000e+00	1.272772e-04	
760	4.750000e+00	1.273570e-04	
761	4.800000e+00	1.274348e-04	
762	4.850000e+00	1.275108e-04	
763	4.900000e+00	1.275851e-04	
764	4.950000e+00	1.276576e-04	
765	5.000000e+00	1.277286e-04	
766	5.050000e+00	1.277981e-04	
767	5.100000e+00	1.278661e-04	
768	5.150000e+00	1.279328e-04	
769	5.200000e+00	1.279982e-04	
770	5.250000e+00	1.280623e-04	
771	5.300000e+00	1.281253e-04	
772	5.350000e+00	1.281872e-04	
773	5.400000e+00	1.282482e-04	
774	5.450000e+00	1.283082e-04	
775	5.500000e+00	1.283674e-04	
776	5.550000e+00	1.284258e-04	
777	5.600000e+00	1.284837e-04	
778	5.650000e+00	1.285410e-04	
779	5.700000e+00	1.285979e-04	
780	5.750000e+00	1.286547e-04	
781	5.800000e+00	1.287113e-04	
782	5.850000e+00	1.287680e-04	
783	5.900000e+00	1.288250e-04	
784	5.950000e+00	1.288826e-04	
785	6.000000e+00	1.289408e-04	
786	6.050000e+00	1.290001e-04	
787	6.100000e+00	1.290608e-04	
788	6.150000e+00	1.291230e-04	
789	6.200000e+00	1.291872e-04	
790	6.250000e+00	1.292538e-04	
791	6.300000e+00	1.293232e-04	
792	6.350000e+00	1.293958e-04	
793	6.400000e+00	1.294722e-04	
794	6.450000e+00	1.295529e-04	
795	6.500000e+00	1.296383e-04	
796	6.550000e+00	1.297293e-04	
797	6.600000e+00	1.298263e-04	
Note: No ".plot", ".print", or ".fourier" lines; no simulations run
