
Note: Compatibility modes selected: hs

Warning: m=xx on .subckt line will override multiplier m hierarchy!


Circuit: ***************************

Doing analysis at TEMP = 25.000000 and TNOM = 25.000000


No. of Data Rows : 798
                          ***************************
                          DC transfer characteristic  Mon Jan  9 13:58:36  2023
--------------------------------------------------------------------------------
Index   v-sweep         -i(vds)         
--------------------------------------------------------------------------------
0	0.000000e+00	-4.40608e-31	
1	5.000000e-02	1.054736e-06	
2	1.000000e-01	1.911409e-06	
3	1.500000e-01	2.575601e-06	
4	2.000000e-01	3.056189e-06	
5	2.500000e-01	3.372357e-06	
6	3.000000e-01	3.565314e-06	
7	3.500000e-01	3.689292e-06	
8	4.000000e-01	3.780633e-06	
9	4.500000e-01	3.855015e-06	
10	5.000000e-01	3.918988e-06	
11	5.500000e-01	3.975781e-06	
12	6.000000e-01	4.027255e-06	
13	6.500000e-01	4.074603e-06	
14	7.000000e-01	4.118646e-06	
15	7.500000e-01	4.159977e-06	
16	8.000000e-01	4.199041e-06	
17	8.500000e-01	4.236183e-06	
18	9.000000e-01	4.271672e-06	
19	9.500000e-01	4.305725e-06	
20	1.000000e+00	4.338521e-06	
21	1.050000e+00	4.370206e-06	
22	1.100000e+00	4.400902e-06	
23	1.150000e+00	4.430713e-06	
24	1.200000e+00	4.459728e-06	
25	1.250000e+00	4.488021e-06	
26	1.300000e+00	4.515660e-06	
27	1.350000e+00	4.542700e-06	
28	1.400000e+00	4.569193e-06	
29	1.450000e+00	4.595183e-06	
30	1.500000e+00	4.620708e-06	
31	1.550000e+00	4.645804e-06	
32	1.600000e+00	4.670501e-06	
33	1.650000e+00	4.694829e-06	
34	1.700000e+00	4.718811e-06	
35	1.750000e+00	4.742471e-06	
36	1.800000e+00	4.765830e-06	
37	1.850000e+00	4.788906e-06	
38	1.900000e+00	4.811716e-06	
39	1.950000e+00	4.834276e-06	
40	2.000000e+00	4.856600e-06	
41	2.050000e+00	4.878702e-06	
42	2.100000e+00	4.900594e-06	
43	2.150000e+00	4.922287e-06	
44	2.200000e+00	4.943791e-06	
45	2.250000e+00	4.965116e-06	
46	2.300000e+00	4.986272e-06	
47	2.350000e+00	5.007266e-06	
48	2.400000e+00	5.028107e-06	
49	2.450000e+00	5.048801e-06	
50	2.500000e+00	5.069358e-06	
51	2.550000e+00	5.089782e-06	
52	2.600000e+00	5.110081e-06	
53	2.650000e+00	5.130262e-06	
54	2.700000e+00	5.150330e-06	

Index   v-sweep         -i(vds)         
--------------------------------------------------------------------------------
55	2.750000e+00	5.170292e-06	
56	2.800000e+00	5.190154e-06	
57	2.850000e+00	5.209923e-06	
58	2.900000e+00	5.229606e-06	
59	2.950000e+00	5.249210e-06	
60	3.000000e+00	5.268742e-06	
61	3.050000e+00	5.288210e-06	
62	3.100000e+00	5.307622e-06	
63	3.150000e+00	5.326987e-06	
64	3.200000e+00	5.346316e-06	
65	3.250000e+00	5.365619e-06	
66	3.300000e+00	5.384908e-06	
67	3.350000e+00	5.404195e-06	
68	3.400000e+00	5.423494e-06	
69	3.450000e+00	5.442820e-06	
70	3.500000e+00	5.462190e-06	
71	3.550000e+00	5.481622e-06	
72	3.600000e+00	5.501135e-06	
73	3.650000e+00	5.520749e-06	
74	3.700000e+00	5.540489e-06	
75	3.750000e+00	5.560377e-06	
76	3.800000e+00	5.580442e-06	
77	3.850000e+00	5.600711e-06	
78	3.900000e+00	5.621215e-06	
79	3.950000e+00	5.641987e-06	
80	4.000000e+00	5.663062e-06	
81	4.050000e+00	5.684477e-06	
82	4.100000e+00	5.706271e-06	
83	4.150000e+00	5.728486e-06	
84	4.200000e+00	5.751168e-06	
85	4.250000e+00	5.774363e-06	
86	4.300000e+00	5.798120e-06	
87	4.350000e+00	5.822492e-06	
88	4.400000e+00	5.847534e-06	
89	4.450000e+00	5.873302e-06	
90	4.500000e+00	5.899857e-06	
91	4.550000e+00	5.927261e-06	
92	4.600000e+00	5.955581e-06	
93	4.650000e+00	5.984884e-06	
94	4.700000e+00	6.015240e-06	
95	4.750000e+00	6.046725e-06	
96	4.800000e+00	6.079412e-06	
97	4.850000e+00	6.113383e-06	
98	4.900000e+00	6.148717e-06	
99	4.950000e+00	6.185501e-06	
100	5.000000e+00	6.223819e-06	
101	5.050000e+00	6.263762e-06	
102	5.100000e+00	6.305422e-06	
103	5.150000e+00	6.348892e-06	
104	5.200000e+00	6.394271e-06	
105	5.250000e+00	6.441658e-06	
106	5.300000e+00	6.491154e-06	
107	5.350000e+00	6.542864e-06	
108	5.400000e+00	6.596894e-06	
109	5.450000e+00	6.653353e-06	
110	5.500000e+00	6.712353e-06	
111	5.550000e+00	6.774005e-06	
112	5.600000e+00	6.838426e-06	

Index   v-sweep         -i(vds)         
--------------------------------------------------------------------------------
113	5.650000e+00	6.905733e-06	
114	5.700000e+00	6.976044e-06	
115	5.750000e+00	7.049482e-06	
116	5.800000e+00	7.126170e-06	
117	5.850000e+00	7.206231e-06	
118	5.900000e+00	7.289794e-06	
119	5.950000e+00	7.376985e-06	
120	6.000000e+00	7.467936e-06	
121	6.050000e+00	7.562777e-06	
122	6.100000e+00	7.661641e-06	
123	6.150000e+00	7.764663e-06	
124	6.200000e+00	7.871979e-06	
125	6.250000e+00	7.983725e-06	
126	6.300000e+00	8.100040e-06	
127	6.350000e+00	8.221063e-06	
128	6.400000e+00	8.346935e-06	
129	6.450000e+00	8.477797e-06	
130	6.500000e+00	8.613792e-06	
131	6.550000e+00	8.755063e-06	
132	6.600000e+00	8.901754e-06	
133	0.000000e+00	-1.38531e-30	
134	5.000000e-02	3.166709e-06	
135	1.000000e-01	6.127049e-06	
136	1.500000e-01	8.885421e-06	
137	2.000000e-01	1.144613e-05	
138	2.500000e-01	1.381339e-05	
139	3.000000e-01	1.599133e-05	
140	3.500000e-01	1.798399e-05	
141	4.000000e-01	1.979538e-05	
142	4.500000e-01	2.142946e-05	
143	5.000000e-01	2.289024e-05	
144	5.500000e-01	2.418182e-05	
145	6.000000e-01	2.530866e-05	
146	6.500000e-01	2.627592e-05	
147	7.000000e-01	2.709052e-05	
148	7.500000e-01	2.776312e-05	
149	8.000000e-01	2.831052e-05	
150	8.500000e-01	2.875534e-05	
151	9.000000e-01	2.912139e-05	
152	9.500000e-01	2.942880e-05	
153	1.000000e+00	2.969253e-05	
154	1.050000e+00	2.992316e-05	
155	1.100000e+00	3.012814e-05	
156	1.150000e+00	3.031277e-05	
157	1.200000e+00	3.048094e-05	
158	1.250000e+00	3.063553e-05	
159	1.300000e+00	3.077877e-05	
160	1.350000e+00	3.091236e-05	
161	1.400000e+00	3.103767e-05	
162	1.450000e+00	3.115579e-05	
163	1.500000e+00	3.126763e-05	
164	1.550000e+00	3.137392e-05	
165	1.600000e+00	3.147527e-05	
166	1.650000e+00	3.157221e-05	
167	1.700000e+00	3.166519e-05	
168	1.750000e+00	3.175457e-05	
169	1.800000e+00	3.184069e-05	
170	1.850000e+00	3.192384e-05	

Index   v-sweep         -i(vds)         
--------------------------------------------------------------------------------
171	1.900000e+00	3.200425e-05	
172	1.950000e+00	3.208217e-05	
173	2.000000e+00	3.215777e-05	
174	2.050000e+00	3.223123e-05	
175	2.100000e+00	3.230270e-05	
176	2.150000e+00	3.237233e-05	
177	2.200000e+00	3.244023e-05	
178	2.250000e+00	3.250653e-05	
179	2.300000e+00	3.257132e-05	
180	2.350000e+00	3.263469e-05	
181	2.400000e+00	3.269673e-05	
182	2.450000e+00	3.275751e-05	
183	2.500000e+00	3.281711e-05	
184	2.550000e+00	3.287559e-05	
185	2.600000e+00	3.293301e-05	
186	2.650000e+00	3.298943e-05	
187	2.700000e+00	3.304489e-05	
188	2.750000e+00	3.309945e-05	
189	2.800000e+00	3.315315e-05	
190	2.850000e+00	3.320603e-05	
191	2.900000e+00	3.325813e-05	
192	2.950000e+00	3.330949e-05	
193	3.000000e+00	3.336015e-05	
194	3.050000e+00	3.341013e-05	
195	3.100000e+00	3.345948e-05	
196	3.150000e+00	3.350822e-05	
197	3.200000e+00	3.355640e-05	
198	3.250000e+00	3.360403e-05	
199	3.300000e+00	3.365117e-05	
200	3.350000e+00	3.369784e-05	
201	3.400000e+00	3.374408e-05	
202	3.450000e+00	3.378992e-05	
203	3.500000e+00	3.383542e-05	
204	3.550000e+00	3.388062e-05	
205	3.600000e+00	3.392557e-05	
206	3.650000e+00	3.397031e-05	
207	3.700000e+00	3.401491e-05	
208	3.750000e+00	3.405943e-05	
209	3.800000e+00	3.410394e-05	
210	3.850000e+00	3.414852e-05	
211	3.900000e+00	3.419324e-05	
212	3.950000e+00	3.423820e-05	
213	4.000000e+00	3.428350e-05	
214	4.050000e+00	3.432923e-05	
215	4.100000e+00	3.437553e-05	
216	4.150000e+00	3.442250e-05	
217	4.200000e+00	3.447030e-05	
218	4.250000e+00	3.451905e-05	
219	4.300000e+00	3.456893e-05	
220	4.350000e+00	3.462009e-05	
221	4.400000e+00	3.467271e-05	
222	4.450000e+00	3.472699e-05	
223	4.500000e+00	3.478313e-05	
224	4.550000e+00	3.484135e-05	
225	4.600000e+00	3.490186e-05	
226	4.650000e+00	3.496493e-05	
227	4.700000e+00	3.503079e-05	
228	4.750000e+00	3.509972e-05	

Index   v-sweep         -i(vds)         
--------------------------------------------------------------------------------
229	4.800000e+00	3.517199e-05	
230	4.850000e+00	3.524791e-05	
231	4.900000e+00	3.532778e-05	
232	4.950000e+00	3.541192e-05	
233	5.000000e+00	3.550067e-05	
234	5.050000e+00	3.559437e-05	
235	5.100000e+00	3.569339e-05	
236	5.150000e+00	3.579811e-05	
237	5.200000e+00	3.590890e-05	
238	5.250000e+00	3.602617e-05	
239	5.300000e+00	3.615034e-05	
240	5.350000e+00	3.628182e-05	
241	5.400000e+00	3.642107e-05	
242	5.450000e+00	3.656852e-05	
243	5.500000e+00	3.672464e-05	
244	5.550000e+00	3.688991e-05	
245	5.600000e+00	3.706481e-05	
246	5.650000e+00	3.724983e-05	
247	5.700000e+00	3.744548e-05	
248	5.750000e+00	3.765227e-05	
249	5.800000e+00	3.787074e-05	
250	5.850000e+00	3.810140e-05	
251	5.900000e+00	3.834482e-05	
252	5.950000e+00	3.860153e-05	
253	6.000000e+00	3.887211e-05	
254	6.050000e+00	3.915711e-05	
255	6.100000e+00	3.945711e-05	
256	6.150000e+00	3.977269e-05	
257	6.200000e+00	4.010445e-05	
258	6.250000e+00	4.045297e-05	
259	6.300000e+00	4.081885e-05	
260	6.350000e+00	4.120269e-05	
261	6.400000e+00	4.160512e-05	
262	6.450000e+00	4.202673e-05	
263	6.500000e+00	4.246815e-05	
264	6.550000e+00	4.292999e-05	
265	6.600000e+00	4.341288e-05	
266	0.000000e+00	-7.49384e-22	
267	5.000000e-02	4.714557e-06	
268	1.000000e-01	9.223309e-06	
269	1.500000e-01	1.353044e-05	
270	2.000000e-01	1.764004e-05	
271	2.500000e-01	2.155610e-05	
272	3.000000e-01	2.528254e-05	
273	3.500000e-01	2.882314e-05	
274	4.000000e-01	3.218161e-05	
275	4.500000e-01	3.536154e-05	
276	5.000000e-01	3.836643e-05	
277	5.500000e-01	4.119971e-05	
278	6.000000e-01	4.386470e-05	
279	6.500000e-01	4.636465e-05	
280	7.000000e-01	4.870274e-05	
281	7.500000e-01	5.088206e-05	
282	8.000000e-01	5.290560e-05	
283	8.500000e-01	5.477623e-05	
284	9.000000e-01	5.649658e-05	
285	9.500000e-01	5.806898e-05	
286	1.000000e+00	5.949524e-05	

Index   v-sweep         -i(vds)         
--------------------------------------------------------------------------------
287	1.050000e+00	6.077651e-05	
288	1.100000e+00	6.191336e-05	
289	1.150000e+00	6.290701e-05	
290	1.200000e+00	6.376206e-05	
291	1.250000e+00	6.448941e-05	
292	1.300000e+00	6.510620e-05	
293	1.350000e+00	6.563206e-05	
294	1.400000e+00	6.608532e-05	
295	1.450000e+00	6.648112e-05	
296	1.500000e+00	6.683121e-05	
297	1.550000e+00	6.714455e-05	
298	1.600000e+00	6.742793e-05	
299	1.650000e+00	6.768657e-05	
300	1.700000e+00	6.792446e-05	
301	1.750000e+00	6.814479e-05	
302	1.800000e+00	6.835006e-05	
303	1.850000e+00	6.854229e-05	
304	1.900000e+00	6.872314e-05	
305	1.950000e+00	6.889397e-05	
306	2.000000e+00	6.905592e-05	
307	2.050000e+00	6.920994e-05	
308	2.100000e+00	6.935685e-05	
309	2.150000e+00	6.949735e-05	
310	2.200000e+00	6.963202e-05	
311	2.250000e+00	6.976141e-05	
312	2.300000e+00	6.988594e-05	
313	2.350000e+00	7.000604e-05	
314	2.400000e+00	7.012204e-05	
315	2.450000e+00	7.023425e-05	
316	2.500000e+00	7.034297e-05	
317	2.550000e+00	7.044843e-05	
318	2.600000e+00	7.055086e-05	
319	2.650000e+00	7.065046e-05	
320	2.700000e+00	7.074741e-05	
321	2.750000e+00	7.084188e-05	
322	2.800000e+00	7.093402e-05	
323	2.850000e+00	7.102396e-05	
324	2.900000e+00	7.111183e-05	
325	2.950000e+00	7.119774e-05	
326	3.000000e+00	7.128181e-05	
327	3.050000e+00	7.136412e-05	
328	3.100000e+00	7.144478e-05	
329	3.150000e+00	7.152385e-05	
330	3.200000e+00	7.160144e-05	
331	3.250000e+00	7.167759e-05	
332	3.300000e+00	7.175240e-05	
333	3.350000e+00	7.182592e-05	
334	3.400000e+00	7.189822e-05	
335	3.450000e+00	7.196935e-05	
336	3.500000e+00	7.203939e-05	
337	3.550000e+00	7.210838e-05	
338	3.600000e+00	7.217640e-05	
339	3.650000e+00	7.224350e-05	
340	3.700000e+00	7.230975e-05	
341	3.750000e+00	7.237521e-05	
342	3.800000e+00	7.243995e-05	
343	3.850000e+00	7.250405e-05	
344	3.900000e+00	7.256759e-05	

Index   v-sweep         -i(vds)         
--------------------------------------------------------------------------------
345	3.950000e+00	7.263066e-05	
346	4.000000e+00	7.269335e-05	
347	4.050000e+00	7.275577e-05	
348	4.100000e+00	7.281803e-05	
349	4.150000e+00	7.288026e-05	
350	4.200000e+00	7.294260e-05	
351	4.250000e+00	7.300519e-05	
352	4.300000e+00	7.306822e-05	
353	4.350000e+00	7.313185e-05	
354	4.400000e+00	7.319628e-05	
355	4.450000e+00	7.326174e-05	
356	4.500000e+00	7.332846e-05	
357	4.550000e+00	7.339670e-05	
358	4.600000e+00	7.346673e-05	
359	4.650000e+00	7.353885e-05	
360	4.700000e+00	7.361338e-05	
361	4.750000e+00	7.369067e-05	
362	4.800000e+00	7.377108e-05	
363	4.850000e+00	7.385501e-05	
364	4.900000e+00	7.394287e-05	
365	4.950000e+00	7.403511e-05	
366	5.000000e+00	7.413220e-05	
367	5.050000e+00	7.423464e-05	
368	5.100000e+00	7.434295e-05	
369	5.150000e+00	7.445768e-05	
370	5.200000e+00	7.457942e-05	
371	5.250000e+00	7.470875e-05	
372	5.300000e+00	7.484633e-05	
373	5.350000e+00	7.499281e-05	
374	5.400000e+00	7.514888e-05	
375	5.450000e+00	7.531524e-05	
376	5.500000e+00	7.549266e-05	
377	5.550000e+00	7.568189e-05	
378	5.600000e+00	7.588372e-05	
379	5.650000e+00	7.609898e-05	
380	5.700000e+00	7.632852e-05	
381	5.750000e+00	7.657319e-05	
382	5.800000e+00	7.683390e-05	
383	5.850000e+00	7.711156e-05	
384	5.900000e+00	7.740712e-05	
385	5.950000e+00	7.772152e-05	
386	6.000000e+00	7.805576e-05	
387	6.050000e+00	7.841083e-05	
388	6.100000e+00	7.878776e-05	
389	6.150000e+00	7.918758e-05	
390	6.200000e+00	7.961136e-05	
391	6.250000e+00	8.006017e-05	
392	6.300000e+00	8.053510e-05	
393	6.350000e+00	8.103725e-05	
394	6.400000e+00	8.156774e-05	
395	6.450000e+00	8.212770e-05	
396	6.500000e+00	8.271828e-05	
397	6.550000e+00	8.334062e-05	
398	6.600000e+00	8.399589e-05	
399	0.000000e+00	9.338136e-21	
400	5.000000e-02	5.864703e-06	
401	1.000000e-01	1.153101e-05	
402	1.500000e-01	1.700259e-05	

Index   v-sweep         -i(vds)         
--------------------------------------------------------------------------------
403	2.000000e-01	2.228305e-05	
404	2.500000e-01	2.737590e-05	
405	3.000000e-01	3.228461e-05	
406	3.500000e-01	3.701253e-05	
407	4.000000e-01	4.156297e-05	
408	4.500000e-01	4.593910e-05	
409	5.000000e-01	5.014406e-05	
410	5.500000e-01	5.418087e-05	
411	6.000000e-01	5.805248e-05	
412	6.500000e-01	6.176175e-05	
413	7.000000e-01	6.531149e-05	
414	7.500000e-01	6.870442e-05	
415	8.000000e-01	7.194321e-05	
416	8.500000e-01	7.503047e-05	
417	9.000000e-01	7.796878e-05	
418	9.500000e-01	8.076063e-05	
419	1.000000e+00	8.340848e-05	
420	1.050000e+00	8.591471e-05	
421	1.100000e+00	8.828158e-05	
422	1.150000e+00	9.051122e-05	
423	1.200000e+00	9.260552e-05	
424	1.250000e+00	9.456603e-05	
425	1.300000e+00	9.639371e-05	
426	1.350000e+00	9.808870e-05	
427	1.400000e+00	9.964991e-05	
428	1.450000e+00	1.010749e-04	
429	1.500000e+00	1.023602e-04	
430	1.550000e+00	1.035034e-04	
431	1.600000e+00	1.045064e-04	
432	1.650000e+00	1.053777e-04	
433	1.700000e+00	1.061319e-04	
434	1.750000e+00	1.067866e-04	
435	1.800000e+00	1.073591e-04	
436	1.850000e+00	1.078644e-04	
437	1.900000e+00	1.083148e-04	
438	1.950000e+00	1.087201e-04	
439	2.000000e+00	1.090880e-04	
440	2.050000e+00	1.094246e-04	
441	2.100000e+00	1.097346e-04	
442	2.150000e+00	1.100220e-04	
443	2.200000e+00	1.102898e-04	
444	2.250000e+00	1.105405e-04	
445	2.300000e+00	1.107763e-04	
446	2.350000e+00	1.109989e-04	
447	2.400000e+00	1.112098e-04	
448	2.450000e+00	1.114101e-04	
449	2.500000e+00	1.116010e-04	
450	2.550000e+00	1.117834e-04	
451	2.600000e+00	1.119579e-04	
452	2.650000e+00	1.121254e-04	
453	2.700000e+00	1.122865e-04	
454	2.750000e+00	1.124415e-04	
455	2.800000e+00	1.125911e-04	
456	2.850000e+00	1.127356e-04	
457	2.900000e+00	1.128754e-04	
458	2.950000e+00	1.130108e-04	
459	3.000000e+00	1.131421e-04	
460	3.050000e+00	1.132697e-04	

Index   v-sweep         -i(vds)         
--------------------------------------------------------------------------------
461	3.100000e+00	1.133936e-04	
462	3.150000e+00	1.135142e-04	
463	3.200000e+00	1.136317e-04	
464	3.250000e+00	1.137462e-04	
465	3.300000e+00	1.138579e-04	
466	3.350000e+00	1.139669e-04	
467	3.400000e+00	1.140735e-04	
468	3.450000e+00	1.141777e-04	
469	3.500000e+00	1.142796e-04	
470	3.550000e+00	1.143795e-04	
471	3.600000e+00	1.144773e-04	
472	3.650000e+00	1.145731e-04	
473	3.700000e+00	1.146672e-04	
474	3.750000e+00	1.147595e-04	
475	3.800000e+00	1.148502e-04	
476	3.850000e+00	1.149393e-04	
477	3.900000e+00	1.150269e-04	
478	3.950000e+00	1.151132e-04	
479	4.000000e+00	1.151981e-04	
480	4.050000e+00	1.152819e-04	
481	4.100000e+00	1.153645e-04	
482	4.150000e+00	1.154461e-04	
483	4.200000e+00	1.155268e-04	
484	4.250000e+00	1.156068e-04	
485	4.300000e+00	1.156860e-04	
486	4.350000e+00	1.157647e-04	
487	4.400000e+00	1.158431e-04	
488	4.450000e+00	1.159213e-04	
489	4.500000e+00	1.159994e-04	
490	4.550000e+00	1.160777e-04	
491	4.600000e+00	1.161564e-04	
492	4.650000e+00	1.162358e-04	
493	4.700000e+00	1.163161e-04	
494	4.750000e+00	1.163976e-04	
495	4.800000e+00	1.164806e-04	
496	4.850000e+00	1.165656e-04	
497	4.900000e+00	1.166528e-04	
498	4.950000e+00	1.167427e-04	
499	5.000000e+00	1.168357e-04	
500	5.050000e+00	1.169323e-04	
501	5.100000e+00	1.170331e-04	
502	5.150000e+00	1.171386e-04	
503	5.200000e+00	1.172494e-04	
504	5.250000e+00	1.173661e-04	
505	5.300000e+00	1.174894e-04	
506	5.350000e+00	1.176200e-04	
507	5.400000e+00	1.177586e-04	
508	5.450000e+00	1.179062e-04	
509	5.500000e+00	1.180634e-04	
510	5.550000e+00	1.182313e-04	
511	5.600000e+00	1.184106e-04	
512	5.650000e+00	1.186025e-04	
513	5.700000e+00	1.188078e-04	
514	5.750000e+00	1.190277e-04	
515	5.800000e+00	1.192632e-04	
516	5.850000e+00	1.195155e-04	
517	5.900000e+00	1.197858e-04	
518	5.950000e+00	1.200752e-04	

Index   v-sweep         -i(vds)         
--------------------------------------------------------------------------------
519	6.000000e+00	1.203851e-04	
520	6.050000e+00	1.207167e-04	
521	6.100000e+00	1.210714e-04	
522	6.150000e+00	1.214504e-04	
523	6.200000e+00	1.218554e-04	
524	6.250000e+00	1.222875e-04	
525	6.300000e+00	1.227485e-04	
526	6.350000e+00	1.232396e-04	
527	6.400000e+00	1.237625e-04	
528	6.450000e+00	1.243188e-04	
529	6.500000e+00	1.249100e-04	
530	6.550000e+00	1.255377e-04	
531	6.600000e+00	1.262036e-04	
532	0.000000e+00	1.307760e-21	
533	5.000000e-02	6.699627e-06	
534	1.000000e-01	1.321293e-05	
535	1.500000e-01	1.954300e-05	
536	2.000000e-01	2.569287e-05	
537	2.500000e-01	3.166552e-05	
538	3.000000e-01	3.746389e-05	
539	3.500000e-01	4.309085e-05	
540	4.000000e-01	4.854921e-05	
541	4.500000e-01	5.384170e-05	
542	5.000000e-01	5.897102e-05	
543	5.500000e-01	6.393977e-05	
544	6.000000e-01	6.875050e-05	
545	6.500000e-01	7.340568e-05	
546	7.000000e-01	7.790772e-05	
547	7.500000e-01	8.225896e-05	
548	8.000000e-01	8.646171e-05	
549	8.500000e-01	9.051819e-05	
550	9.000000e-01	9.443058e-05	
551	9.500000e-01	9.820105e-05	
552	1.000000e+00	1.018317e-04	
553	1.050000e+00	1.053245e-04	
554	1.100000e+00	1.086817e-04	
555	1.150000e+00	1.119051e-04	
556	1.200000e+00	1.149968e-04	
557	1.250000e+00	1.179587e-04	
558	1.300000e+00	1.207927e-04	
559	1.350000e+00	1.235007e-04	
560	1.400000e+00	1.260843e-04	
561	1.450000e+00	1.285454e-04	
562	1.500000e+00	1.308852e-04	
563	1.550000e+00	1.331050e-04	
564	1.600000e+00	1.352055e-04	
565	1.650000e+00	1.371869e-04	
566	1.700000e+00	1.390483e-04	
567	1.750000e+00	1.407875e-04	
568	1.800000e+00	1.424010e-04	
569	1.850000e+00	1.438836e-04	
570	1.900000e+00	1.452303e-04	
571	1.950000e+00	1.464383e-04	
572	2.000000e+00	1.475100e-04	
573	2.050000e+00	1.484539e-04	
574	2.100000e+00	1.492837e-04	
575	2.150000e+00	1.500152e-04	
576	2.200000e+00	1.506636e-04	

Index   v-sweep         -i(vds)         
--------------------------------------------------------------------------------
577	2.250000e+00	1.512426e-04	
578	2.300000e+00	1.517637e-04	
579	2.350000e+00	1.522363e-04	
580	2.400000e+00	1.526680e-04	
581	2.450000e+00	1.530649e-04	
582	2.500000e+00	1.534320e-04	
583	2.550000e+00	1.537734e-04	
584	2.600000e+00	1.540924e-04	
585	2.650000e+00	1.543917e-04	
586	2.700000e+00	1.546737e-04	
587	2.750000e+00	1.549402e-04	
588	2.800000e+00	1.551930e-04	
589	2.850000e+00	1.554333e-04	
590	2.900000e+00	1.556624e-04	
591	2.950000e+00	1.558814e-04	
592	3.000000e+00	1.560911e-04	
593	3.050000e+00	1.562924e-04	
594	3.100000e+00	1.564859e-04	
595	3.150000e+00	1.566722e-04	
596	3.200000e+00	1.568519e-04	
597	3.250000e+00	1.570255e-04	
598	3.300000e+00	1.571933e-04	
599	3.350000e+00	1.573559e-04	
600	3.400000e+00	1.575136e-04	
601	3.450000e+00	1.576666e-04	
602	3.500000e+00	1.578152e-04	
603	3.550000e+00	1.579598e-04	
604	3.600000e+00	1.581006e-04	
605	3.650000e+00	1.582377e-04	
606	3.700000e+00	1.583714e-04	
607	3.750000e+00	1.585019e-04	
608	3.800000e+00	1.586294e-04	
609	3.850000e+00	1.587539e-04	
610	3.900000e+00	1.588757e-04	
611	3.950000e+00	1.589949e-04	
612	4.000000e+00	1.591116e-04	
613	4.050000e+00	1.592259e-04	
614	4.100000e+00	1.593380e-04	
615	4.150000e+00	1.594480e-04	
616	4.200000e+00	1.595560e-04	
617	4.250000e+00	1.596621e-04	
618	4.300000e+00	1.597663e-04	
619	4.350000e+00	1.598690e-04	
620	4.400000e+00	1.599700e-04	
621	4.450000e+00	1.600696e-04	
622	4.500000e+00	1.601679e-04	
623	4.550000e+00	1.602651e-04	
624	4.600000e+00	1.603612e-04	
625	4.650000e+00	1.604564e-04	
626	4.700000e+00	1.605510e-04	
627	4.750000e+00	1.606451e-04	
628	4.800000e+00	1.607389e-04	
629	4.850000e+00	1.608327e-04	
630	4.900000e+00	1.609267e-04	
631	4.950000e+00	1.610213e-04	
632	5.000000e+00	1.611167e-04	
633	5.050000e+00	1.612133e-04	
634	5.100000e+00	1.613115e-04	

Index   v-sweep         -i(vds)         
--------------------------------------------------------------------------------
635	5.150000e+00	1.614118e-04	
636	5.200000e+00	1.615145e-04	
637	5.250000e+00	1.616202e-04	
638	5.300000e+00	1.617295e-04	
639	5.350000e+00	1.618429e-04	
640	5.400000e+00	1.619611e-04	
641	5.450000e+00	1.620847e-04	
642	5.500000e+00	1.622146e-04	
643	5.550000e+00	1.623515e-04	
644	5.600000e+00	1.624962e-04	
645	5.650000e+00	1.626497e-04	
646	5.700000e+00	1.628130e-04	
647	5.750000e+00	1.629869e-04	
648	5.800000e+00	1.631727e-04	
649	5.850000e+00	1.633714e-04	
650	5.900000e+00	1.635843e-04	
651	5.950000e+00	1.638125e-04	
652	6.000000e+00	1.640574e-04	
653	6.050000e+00	1.643203e-04	
654	6.100000e+00	1.646027e-04	
655	6.150000e+00	1.649060e-04	
656	6.200000e+00	1.652318e-04	
657	6.250000e+00	1.655817e-04	
658	6.300000e+00	1.659573e-04	
659	6.350000e+00	1.663602e-04	
660	6.400000e+00	1.667923e-04	
661	6.450000e+00	1.672554e-04	
662	6.500000e+00	1.677512e-04	
663	6.550000e+00	1.682817e-04	
664	6.600000e+00	1.688488e-04	
665	0.000000e+00	-1.33487e-20	
666	5.000000e-02	7.286200e-06	
667	1.000000e-01	1.440050e-05	
668	1.500000e-01	2.134544e-05	
669	2.000000e-01	2.812353e-05	
670	2.500000e-01	3.473724e-05	
671	3.000000e-01	4.118901e-05	
672	3.500000e-01	4.748122e-05	
673	4.000000e-01	5.361621e-05	
674	4.500000e-01	5.959630e-05	
675	5.000000e-01	6.542374e-05	
676	5.500000e-01	7.110073e-05	
677	6.000000e-01	7.662942e-05	
678	6.500000e-01	8.201192e-05	
679	7.000000e-01	8.725027e-05	
680	7.500000e-01	9.234648e-05	
681	8.000000e-01	9.730250e-05	
682	8.500000e-01	1.021202e-04	
683	9.000000e-01	1.068015e-04	
684	9.500000e-01	1.113482e-04	
685	1.000000e+00	1.157620e-04	
686	1.050000e+00	1.200447e-04	
687	1.100000e+00	1.241979e-04	
688	1.150000e+00	1.282235e-04	
689	1.200000e+00	1.321230e-04	
690	1.250000e+00	1.358980e-04	
691	1.300000e+00	1.395502e-04	
692	1.350000e+00	1.430812e-04	

Index   v-sweep         -i(vds)         
--------------------------------------------------------------------------------
693	1.400000e+00	1.464925e-04	
694	1.450000e+00	1.497858e-04	
695	1.500000e+00	1.529626e-04	
696	1.550000e+00	1.560243e-04	
697	1.600000e+00	1.589726e-04	
698	1.650000e+00	1.618088e-04	
699	1.700000e+00	1.645344e-04	
700	1.750000e+00	1.671507e-04	
701	1.800000e+00	1.696589e-04	
702	1.850000e+00	1.720599e-04	
703	1.900000e+00	1.743545e-04	
704	1.950000e+00	1.765430e-04	
705	2.000000e+00	1.786251e-04	
706	2.050000e+00	1.805995e-04	
707	2.100000e+00	1.824641e-04	
708	2.150000e+00	1.842151e-04	
709	2.200000e+00	1.858473e-04	
710	2.250000e+00	1.873547e-04	
711	2.300000e+00	1.887321e-04	
712	2.350000e+00	1.899775e-04	
713	2.400000e+00	1.910938e-04	
714	2.450000e+00	1.920893e-04	
715	2.500000e+00	1.929759e-04	
716	2.550000e+00	1.937674e-04	
717	2.600000e+00	1.944772e-04	
718	2.650000e+00	1.951174e-04	
719	2.700000e+00	1.956986e-04	
720	2.750000e+00	1.962295e-04	
721	2.800000e+00	1.967173e-04	
722	2.850000e+00	1.971681e-04	
723	2.900000e+00	1.975868e-04	
724	2.950000e+00	1.979776e-04	
725	3.000000e+00	1.983438e-04	
726	3.050000e+00	1.986882e-04	
727	3.100000e+00	1.990134e-04	
728	3.150000e+00	1.993213e-04	
729	3.200000e+00	1.996137e-04	
730	3.250000e+00	1.998921e-04	
731	3.300000e+00	2.001579e-04	
732	3.350000e+00	2.004121e-04	
733	3.400000e+00	2.006557e-04	
734	3.450000e+00	2.008896e-04	
735	3.500000e+00	2.011146e-04	
736	3.550000e+00	2.013314e-04	
737	3.600000e+00	2.015406e-04	
738	3.650000e+00	2.017427e-04	
739	3.700000e+00	2.019382e-04	
740	3.750000e+00	2.021275e-04	
741	3.800000e+00	2.023112e-04	
742	3.850000e+00	2.024894e-04	
743	3.900000e+00	2.026626e-04	
744	3.950000e+00	2.028310e-04	
745	4.000000e+00	2.029949e-04	
746	4.050000e+00	2.031546e-04	
747	4.100000e+00	2.033103e-04	
748	4.150000e+00	2.034623e-04	
749	4.200000e+00	2.036106e-04	
750	4.250000e+00	2.037556e-04	

Index   v-sweep         -i(vds)         
--------------------------------------------------------------------------------
751	4.300000e+00	2.038973e-04	
752	4.350000e+00	2.040360e-04	
753	4.400000e+00	2.041717e-04	
754	4.450000e+00	2.043047e-04	
755	4.500000e+00	2.044351e-04	
756	4.550000e+00	2.045629e-04	
757	4.600000e+00	2.046885e-04	
758	4.650000e+00	2.048118e-04	
759	4.700000e+00	2.049330e-04	
760	4.750000e+00	2.050522e-04	
761	4.800000e+00	2.051697e-04	
762	4.850000e+00	2.052855e-04	
763	4.900000e+00	2.053999e-04	
764	4.950000e+00	2.055129e-04	
765	5.000000e+00	2.056249e-04	
766	5.050000e+00	2.057359e-04	
767	5.100000e+00	2.058463e-04	
768	5.150000e+00	2.059563e-04	
769	5.200000e+00	2.060662e-04	
770	5.250000e+00	2.061763e-04	
771	5.300000e+00	2.062869e-04	
772	5.350000e+00	2.063985e-04	
773	5.400000e+00	2.065114e-04	
774	5.450000e+00	2.066262e-04	
775	5.500000e+00	2.067433e-04	
776	5.550000e+00	2.068634e-04	
777	5.600000e+00	2.069870e-04	
778	5.650000e+00	2.071148e-04	
779	5.700000e+00	2.072475e-04	
780	5.750000e+00	2.073859e-04	
781	5.800000e+00	2.075309e-04	
782	5.850000e+00	2.076834e-04	
783	5.900000e+00	2.078443e-04	
784	5.950000e+00	2.080148e-04	
785	6.000000e+00	2.081958e-04	
786	6.050000e+00	2.083886e-04	
787	6.100000e+00	2.085945e-04	
788	6.150000e+00	2.088147e-04	
789	6.200000e+00	2.090507e-04	
790	6.250000e+00	2.093040e-04	
791	6.300000e+00	2.095760e-04	
792	6.350000e+00	2.098685e-04	
793	6.400000e+00	2.101830e-04	
794	6.450000e+00	2.105214e-04	
795	6.500000e+00	2.108856e-04	
796	6.550000e+00	2.112773e-04	
797	6.600000e+00	2.116986e-04	
Note: No ".plot", ".print", or ".fourier" lines; no simulations run
