
Note: Compatibility modes selected: hs

Warning: m=xx on .subckt line will override multiplier m hierarchy!


Circuit: ***************************

Doing analysis at TEMP = 25.000000 and TNOM = 25.000000


No. of Data Rows : 798
                          ***************************
                          DC transfer characteristic  Mon Jan  9 13:58:36  2023
--------------------------------------------------------------------------------
Index   v-sweep         -i(vds)         
--------------------------------------------------------------------------------
0	0.000000e+00	-1.55558e-21	
1	5.000000e-02	1.504591e-06	
2	1.000000e-01	2.683369e-06	
3	1.500000e-01	3.541757e-06	
4	2.000000e-01	4.094428e-06	
5	2.500000e-01	4.385001e-06	
6	3.000000e-01	4.506022e-06	
7	3.500000e-01	4.553702e-06	
8	4.000000e-01	4.576092e-06	
9	4.500000e-01	4.589258e-06	
10	5.000000e-01	4.598461e-06	
11	5.500000e-01	4.605676e-06	
12	6.000000e-01	4.611764e-06	
13	6.500000e-01	4.617150e-06	
14	7.000000e-01	4.622065e-06	
15	7.500000e-01	4.626647e-06	
16	8.000000e-01	4.630983e-06	
17	8.500000e-01	4.635130e-06	
18	9.000000e-01	4.639127e-06	
19	9.500000e-01	4.643003e-06	
20	1.000000e+00	4.646779e-06	
21	1.050000e+00	4.650472e-06	
22	1.100000e+00	4.654094e-06	
23	1.150000e+00	4.657654e-06	
24	1.200000e+00	4.661162e-06	
25	1.250000e+00	4.664622e-06	
26	1.300000e+00	4.668041e-06	
27	1.350000e+00	4.671423e-06	
28	1.400000e+00	4.674772e-06	
29	1.450000e+00	4.678092e-06	
30	1.500000e+00	4.681384e-06	
31	1.550000e+00	4.684651e-06	
32	1.600000e+00	4.687896e-06	
33	1.650000e+00	4.691119e-06	
34	1.700000e+00	4.694324e-06	
35	1.750000e+00	4.697511e-06	
36	1.800000e+00	4.700682e-06	
37	1.850000e+00	4.703837e-06	
38	1.900000e+00	4.706978e-06	
39	1.950000e+00	4.710106e-06	
40	2.000000e+00	4.713221e-06	
41	2.050000e+00	4.716324e-06	
42	2.100000e+00	4.719417e-06	
43	2.150000e+00	4.722499e-06	
44	2.200000e+00	4.725572e-06	
45	2.250000e+00	4.728635e-06	
46	2.300000e+00	4.731691e-06	
47	2.350000e+00	4.734738e-06	
48	2.400000e+00	4.737778e-06	
49	2.450000e+00	4.740812e-06	
50	2.500000e+00	4.743840e-06	
51	2.550000e+00	4.746864e-06	
52	2.600000e+00	4.749884e-06	
53	2.650000e+00	4.752902e-06	
54	2.700000e+00	4.755918e-06	

Index   v-sweep         -i(vds)         
--------------------------------------------------------------------------------
55	2.750000e+00	4.758935e-06	
56	2.800000e+00	4.761955e-06	
57	2.850000e+00	4.764980e-06	
58	2.900000e+00	4.768013e-06	
59	2.950000e+00	4.771056e-06	
60	3.000000e+00	4.774114e-06	
61	3.050000e+00	4.777191e-06	
62	3.100000e+00	4.780292e-06	
63	3.150000e+00	4.783422e-06	
64	3.200000e+00	4.786589e-06	
65	3.250000e+00	4.789798e-06	
66	3.300000e+00	4.793059e-06	
67	3.350000e+00	4.796381e-06	
68	3.400000e+00	4.799773e-06	
69	3.450000e+00	4.803248e-06	
70	3.500000e+00	4.806818e-06	
71	3.550000e+00	4.810497e-06	
72	3.600000e+00	4.814299e-06	
73	3.650000e+00	4.818243e-06	
74	3.700000e+00	4.822345e-06	
75	3.750000e+00	4.826625e-06	
76	3.800000e+00	4.831105e-06	
77	3.850000e+00	4.835806e-06	
78	3.900000e+00	4.840755e-06	
79	3.950000e+00	4.845976e-06	
80	4.000000e+00	4.851497e-06	
81	4.050000e+00	4.857349e-06	
82	4.100000e+00	4.863562e-06	
83	4.150000e+00	4.870170e-06	
84	4.200000e+00	4.877208e-06	
85	4.250000e+00	4.884713e-06	
86	4.300000e+00	4.892724e-06	
87	4.350000e+00	4.901281e-06	
88	4.400000e+00	4.910428e-06	
89	4.450000e+00	4.920208e-06	
90	4.500000e+00	4.930668e-06	
91	4.550000e+00	4.941856e-06	
92	4.600000e+00	4.953823e-06	
93	4.650000e+00	4.966621e-06	
94	4.700000e+00	4.980303e-06	
95	4.750000e+00	4.994924e-06	
96	4.800000e+00	5.010543e-06	
97	4.850000e+00	5.027219e-06	
98	4.900000e+00	5.045011e-06	
99	4.950000e+00	5.063984e-06	
100	5.000000e+00	5.084201e-06	
101	5.050000e+00	5.105727e-06	
102	5.100000e+00	5.128630e-06	
103	5.150000e+00	5.152980e-06	
104	5.200000e+00	5.178846e-06	
105	5.250000e+00	5.206300e-06	
106	5.300000e+00	5.235416e-06	
107	5.350000e+00	5.266267e-06	
108	5.400000e+00	5.298930e-06	
109	5.450000e+00	5.333482e-06	
110	5.500000e+00	5.370000e-06	
111	5.550000e+00	5.408565e-06	
112	5.600000e+00	5.449256e-06	

Index   v-sweep         -i(vds)         
--------------------------------------------------------------------------------
113	5.650000e+00	5.492154e-06	
114	5.700000e+00	5.537343e-06	
115	5.750000e+00	5.584906e-06	
116	5.800000e+00	5.634926e-06	
117	5.850000e+00	5.687489e-06	
118	5.900000e+00	5.742680e-06	
119	5.950000e+00	5.800586e-06	
120	6.000000e+00	5.861294e-06	
121	6.050000e+00	5.924891e-06	
122	6.100000e+00	5.991465e-06	
123	6.150000e+00	6.061106e-06	
124	6.200000e+00	6.133901e-06	
125	6.250000e+00	6.209942e-06	
126	6.300000e+00	6.289317e-06	
127	6.350000e+00	6.372117e-06	
128	6.400000e+00	6.458431e-06	
129	6.450000e+00	6.548352e-06	
130	6.500000e+00	6.641968e-06	
131	6.550000e+00	6.739372e-06	
132	6.600000e+00	6.840653e-06	
133	0.000000e+00	-1.41277e-31	
134	5.000000e-02	6.529080e-06	
135	1.000000e-01	1.271133e-05	
136	1.500000e-01	1.854824e-05	
137	2.000000e-01	2.404132e-05	
138	2.500000e-01	2.919207e-05	
139	3.000000e-01	3.400198e-05	
140	3.500000e-01	3.847256e-05	
141	4.000000e-01	4.260534e-05	
142	4.500000e-01	4.640189e-05	
143	5.000000e-01	4.986381e-05	
144	5.500000e-01	5.299280e-05	
145	6.000000e-01	5.579073e-05	
146	6.500000e-01	5.825975e-05	
147	7.000000e-01	6.040257e-05	
148	7.500000e-01	6.222296e-05	
149	8.000000e-01	6.372684e-05	
150	8.500000e-01	6.492444e-05	
151	9.000000e-01	6.583428e-05	
152	9.500000e-01	6.648852e-05	
153	1.000000e+00	6.693548e-05	
154	1.050000e+00	6.723248e-05	
155	1.100000e+00	6.743151e-05	
156	1.150000e+00	6.757009e-05	
157	1.200000e+00	6.767164e-05	
158	1.250000e+00	6.774996e-05	
159	1.300000e+00	6.781308e-05	
160	1.350000e+00	6.786585e-05	
161	1.400000e+00	6.791128e-05	
162	1.450000e+00	6.795131e-05	
163	1.500000e+00	6.798725e-05	
164	1.550000e+00	6.802001e-05	
165	1.600000e+00	6.805023e-05	
166	1.650000e+00	6.807840e-05	
167	1.700000e+00	6.810486e-05	
168	1.750000e+00	6.812991e-05	
169	1.800000e+00	6.815374e-05	
170	1.850000e+00	6.817654e-05	

Index   v-sweep         -i(vds)         
--------------------------------------------------------------------------------
171	1.900000e+00	6.819845e-05	
172	1.950000e+00	6.821956e-05	
173	2.000000e+00	6.823999e-05	
174	2.050000e+00	6.825980e-05	
175	2.100000e+00	6.827906e-05	
176	2.150000e+00	6.829783e-05	
177	2.200000e+00	6.831615e-05	
178	2.250000e+00	6.833407e-05	
179	2.300000e+00	6.835162e-05	
180	2.350000e+00	6.836884e-05	
181	2.400000e+00	6.838575e-05	
182	2.450000e+00	6.840237e-05	
183	2.500000e+00	6.841873e-05	
184	2.550000e+00	6.843484e-05	
185	2.600000e+00	6.845073e-05	
186	2.650000e+00	6.846641e-05	
187	2.700000e+00	6.848189e-05	
188	2.750000e+00	6.849719e-05	
189	2.800000e+00	6.851231e-05	
190	2.850000e+00	6.852728e-05	
191	2.900000e+00	6.854209e-05	
192	2.950000e+00	6.855676e-05	
193	3.000000e+00	6.857130e-05	
194	3.050000e+00	6.858572e-05	
195	3.100000e+00	6.860002e-05	
196	3.150000e+00	6.861423e-05	
197	3.200000e+00	6.862834e-05	
198	3.250000e+00	6.864238e-05	
199	3.300000e+00	6.865636e-05	
200	3.350000e+00	6.867029e-05	
201	3.400000e+00	6.868420e-05	
202	3.450000e+00	6.869810e-05	
203	3.500000e+00	6.871203e-05	
204	3.550000e+00	6.872602e-05	
205	3.600000e+00	6.874010e-05	
206	3.650000e+00	6.875432e-05	
207	3.700000e+00	6.876873e-05	
208	3.750000e+00	6.878339e-05	
209	3.800000e+00	6.879837e-05	
210	3.850000e+00	6.881373e-05	
211	3.900000e+00	6.882958e-05	
212	3.950000e+00	6.884601e-05	
213	4.000000e+00	6.886314e-05	
214	4.050000e+00	6.888108e-05	
215	4.100000e+00	6.889999e-05	
216	4.150000e+00	6.892002e-05	
217	4.200000e+00	6.894134e-05	
218	4.250000e+00	6.896414e-05	
219	4.300000e+00	6.898864e-05	
220	4.350000e+00	6.901506e-05	
221	4.400000e+00	6.904365e-05	
222	4.450000e+00	6.907469e-05	
223	4.500000e+00	6.910845e-05	
224	4.550000e+00	6.914526e-05	
225	4.600000e+00	6.918546e-05	
226	4.650000e+00	6.922940e-05	
227	4.700000e+00	6.927747e-05	
228	4.750000e+00	6.933007e-05	

Index   v-sweep         -i(vds)         
--------------------------------------------------------------------------------
229	4.800000e+00	6.938765e-05	
230	4.850000e+00	6.945065e-05	
231	4.900000e+00	6.951958e-05	
232	4.950000e+00	6.959492e-05	
233	5.000000e+00	6.967723e-05	
234	5.050000e+00	6.976706e-05	
235	5.100000e+00	6.986499e-05	
236	5.150000e+00	6.997166e-05	
237	5.200000e+00	7.008768e-05	
238	5.250000e+00	7.021373e-05	
239	5.300000e+00	7.035051e-05	
240	5.350000e+00	7.049871e-05	
241	5.400000e+00	7.065909e-05	
242	5.450000e+00	7.083240e-05	
243	5.500000e+00	7.101944e-05	
244	5.550000e+00	7.122102e-05	
245	5.600000e+00	7.143797e-05	
246	5.650000e+00	7.167115e-05	
247	5.700000e+00	7.192143e-05	
248	5.750000e+00	7.218973e-05	
249	5.800000e+00	7.247696e-05	
250	5.850000e+00	7.278406e-05	
251	5.900000e+00	7.311200e-05	
252	5.950000e+00	7.346174e-05	
253	6.000000e+00	7.383429e-05	
254	6.050000e+00	7.423067e-05	
255	6.100000e+00	7.465190e-05	
256	6.150000e+00	7.509904e-05	
257	6.200000e+00	7.557313e-05	
258	6.250000e+00	7.607526e-05	
259	6.300000e+00	7.660652e-05	
260	6.350000e+00	7.716801e-05	
261	6.400000e+00	7.776084e-05	
262	6.450000e+00	7.838613e-05	
263	6.500000e+00	7.904502e-05	
264	6.550000e+00	7.973866e-05	
265	6.600000e+00	8.046819e-05	
266	0.000000e+00	-3.81374e-30	
267	5.000000e-02	1.072765e-05	
268	1.000000e-01	2.112633e-05	
269	1.500000e-01	3.119748e-05	
270	2.000000e-01	4.094254e-05	
271	2.500000e-01	5.036296e-05	
272	3.000000e-01	5.946015e-05	
273	3.500000e-01	6.823554e-05	
274	4.000000e-01	7.669054e-05	
275	4.500000e-01	8.482655e-05	
276	5.000000e-01	9.264497e-05	
277	5.500000e-01	1.001472e-04	
278	6.000000e-01	1.073346e-04	
279	6.500000e-01	1.142086e-04	
280	7.000000e-01	1.207704e-04	
281	7.500000e-01	1.270216e-04	
282	8.000000e-01	1.329635e-04	
283	8.500000e-01	1.385973e-04	
284	9.000000e-01	1.439244e-04	
285	9.500000e-01	1.489463e-04	
286	1.000000e+00	1.536642e-04	

Index   v-sweep         -i(vds)         
--------------------------------------------------------------------------------
287	1.050000e+00	1.580794e-04	
288	1.100000e+00	1.621933e-04	
289	1.150000e+00	1.660073e-04	
290	1.200000e+00	1.695228e-04	
291	1.250000e+00	1.727412e-04	
292	1.300000e+00	1.756641e-04	
293	1.350000e+00	1.782933e-04	
294	1.400000e+00	1.806309e-04	
295	1.450000e+00	1.826801e-04	
296	1.500000e+00	1.844453e-04	
297	1.550000e+00	1.859338e-04	
298	1.600000e+00	1.871577e-04	
299	1.650000e+00	1.881363e-04	
300	1.700000e+00	1.888981e-04	
301	1.750000e+00	1.894797e-04	
302	1.800000e+00	1.899205e-04	
303	1.850000e+00	1.902570e-04	
304	1.900000e+00	1.905184e-04	
305	1.950000e+00	1.907263e-04	
306	2.000000e+00	1.908959e-04	
307	2.050000e+00	1.910377e-04	
308	2.100000e+00	1.911587e-04	
309	2.150000e+00	1.912640e-04	
310	2.200000e+00	1.913572e-04	
311	2.250000e+00	1.914407e-04	
312	2.300000e+00	1.915165e-04	
313	2.350000e+00	1.915860e-04	
314	2.400000e+00	1.916503e-04	
315	2.450000e+00	1.917101e-04	
316	2.500000e+00	1.917663e-04	
317	2.550000e+00	1.918192e-04	
318	2.600000e+00	1.918694e-04	
319	2.650000e+00	1.919172e-04	
320	2.700000e+00	1.919628e-04	
321	2.750000e+00	1.920066e-04	
322	2.800000e+00	1.920487e-04	
323	2.850000e+00	1.920893e-04	
324	2.900000e+00	1.921285e-04	
325	2.950000e+00	1.921665e-04	
326	3.000000e+00	1.922035e-04	
327	3.050000e+00	1.922394e-04	
328	3.100000e+00	1.922743e-04	
329	3.150000e+00	1.923085e-04	
330	3.200000e+00	1.923418e-04	
331	3.250000e+00	1.923744e-04	
332	3.300000e+00	1.924064e-04	
333	3.350000e+00	1.924377e-04	
334	3.400000e+00	1.924684e-04	
335	3.450000e+00	1.924986e-04	
336	3.500000e+00	1.925283e-04	
337	3.550000e+00	1.925575e-04	
338	3.600000e+00	1.925863e-04	
339	3.650000e+00	1.926147e-04	
340	3.700000e+00	1.926427e-04	
341	3.750000e+00	1.926703e-04	
342	3.800000e+00	1.926976e-04	
343	3.850000e+00	1.927246e-04	
344	3.900000e+00	1.927513e-04	

Index   v-sweep         -i(vds)         
--------------------------------------------------------------------------------
345	3.950000e+00	1.927778e-04	
346	4.000000e+00	1.928041e-04	
347	4.050000e+00	1.928302e-04	
348	4.100000e+00	1.928563e-04	
349	4.150000e+00	1.928823e-04	
350	4.200000e+00	1.929084e-04	
351	4.250000e+00	1.929346e-04	
352	4.300000e+00	1.929610e-04	
353	4.350000e+00	1.929878e-04	
354	4.400000e+00	1.930150e-04	
355	4.450000e+00	1.930429e-04	
356	4.500000e+00	1.930716e-04	
357	4.550000e+00	1.931013e-04	
358	4.600000e+00	1.931323e-04	
359	4.650000e+00	1.931647e-04	
360	4.700000e+00	1.931990e-04	
361	4.750000e+00	1.932355e-04	
362	4.800000e+00	1.932745e-04	
363	4.850000e+00	1.933165e-04	
364	4.900000e+00	1.933619e-04	
365	4.950000e+00	1.934113e-04	
366	5.000000e+00	1.934652e-04	
367	5.050000e+00	1.935242e-04	
368	5.100000e+00	1.935891e-04	
369	5.150000e+00	1.936604e-04	
370	5.200000e+00	1.937392e-04	
371	5.250000e+00	1.938261e-04	
372	5.300000e+00	1.939221e-04	
373	5.350000e+00	1.940282e-04	
374	5.400000e+00	1.941454e-04	
375	5.450000e+00	1.942749e-04	
376	5.500000e+00	1.944179e-04	
377	5.550000e+00	1.945755e-04	
378	5.600000e+00	1.947491e-04	
379	5.650000e+00	1.949402e-04	
380	5.700000e+00	1.951501e-04	
381	5.750000e+00	1.953805e-04	
382	5.800000e+00	1.956329e-04	
383	5.850000e+00	1.959090e-04	
384	5.900000e+00	1.962106e-04	
385	5.950000e+00	1.965395e-04	
386	6.000000e+00	1.968976e-04	
387	6.050000e+00	1.972869e-04	
388	6.100000e+00	1.977093e-04	
389	6.150000e+00	1.981671e-04	
390	6.200000e+00	1.986623e-04	
391	6.250000e+00	1.991972e-04	
392	6.300000e+00	1.997742e-04	
393	6.350000e+00	2.003954e-04	
394	6.400000e+00	2.010635e-04	
395	6.450000e+00	2.017808e-04	
396	6.500000e+00	2.025499e-04	
397	6.550000e+00	2.033734e-04	
398	6.600000e+00	2.042540e-04	
399	0.000000e+00	8.413361e-31	
400	5.000000e-02	1.404009e-05	
401	1.000000e-01	2.777688e-05	
402	1.500000e-01	4.121163e-05	

Index   v-sweep         -i(vds)         
--------------------------------------------------------------------------------
403	2.000000e-01	5.434565e-05	
404	2.500000e-01	6.718018e-05	
405	3.000000e-01	7.971651e-05	
406	3.500000e-01	9.195589e-05	
407	4.000000e-01	1.038996e-04	
408	4.500000e-01	1.155488e-04	
409	5.000000e-01	1.269048e-04	
410	5.500000e-01	1.379688e-04	
411	6.000000e-01	1.487421e-04	
412	6.500000e-01	1.592259e-04	
413	7.000000e-01	1.694213e-04	
414	7.500000e-01	1.793296e-04	
415	8.000000e-01	1.889520e-04	
416	8.500000e-01	1.982897e-04	
417	9.000000e-01	2.073439e-04	
418	9.500000e-01	2.161157e-04	
419	1.000000e+00	2.246063e-04	
420	1.050000e+00	2.328169e-04	
421	1.100000e+00	2.407487e-04	
422	1.150000e+00	2.484028e-04	
423	1.200000e+00	2.557803e-04	
424	1.250000e+00	2.628824e-04	
425	1.300000e+00	2.697102e-04	
426	1.350000e+00	2.762648e-04	
427	1.400000e+00	2.825474e-04	
428	1.450000e+00	2.885590e-04	
429	1.500000e+00	2.943007e-04	
430	1.550000e+00	2.997736e-04	
431	1.600000e+00	3.049788e-04	
432	1.650000e+00	3.099172e-04	
433	1.700000e+00	3.145899e-04	
434	1.750000e+00	3.189980e-04	
435	1.800000e+00	3.231422e-04	
436	1.850000e+00	3.270237e-04	
437	1.900000e+00	3.306433e-04	
438	1.950000e+00	3.340019e-04	
439	2.000000e+00	3.371003e-04	
440	2.050000e+00	3.399396e-04	
441	2.100000e+00	3.425207e-04	
442	2.150000e+00	3.448449e-04	
443	2.200000e+00	3.469144e-04	
444	2.250000e+00	3.487325e-04	
445	2.300000e+00	3.503047e-04	
446	2.350000e+00	3.516408e-04	
447	2.400000e+00	3.527557e-04	
448	2.450000e+00	3.536709e-04	
449	2.500000e+00	3.544131e-04	
450	2.550000e+00	3.550122e-04	
451	2.600000e+00	3.554969e-04	
452	2.650000e+00	3.558925e-04	
453	2.700000e+00	3.562196e-04	
454	2.750000e+00	3.564943e-04	
455	2.800000e+00	3.567284e-04	
456	2.850000e+00	3.569310e-04	
457	2.900000e+00	3.571087e-04	
458	2.950000e+00	3.572666e-04	
459	3.000000e+00	3.574083e-04	
460	3.050000e+00	3.575369e-04	

Index   v-sweep         -i(vds)         
--------------------------------------------------------------------------------
461	3.100000e+00	3.576546e-04	
462	3.150000e+00	3.577630e-04	
463	3.200000e+00	3.578637e-04	
464	3.250000e+00	3.579577e-04	
465	3.300000e+00	3.580460e-04	
466	3.350000e+00	3.581292e-04	
467	3.400000e+00	3.582080e-04	
468	3.450000e+00	3.582830e-04	
469	3.500000e+00	3.583545e-04	
470	3.550000e+00	3.584229e-04	
471	3.600000e+00	3.584886e-04	
472	3.650000e+00	3.585518e-04	
473	3.700000e+00	3.586127e-04	
474	3.750000e+00	3.586716e-04	
475	3.800000e+00	3.587286e-04	
476	3.850000e+00	3.587839e-04	
477	3.900000e+00	3.588376e-04	
478	3.950000e+00	3.588898e-04	
479	4.000000e+00	3.589408e-04	
480	4.050000e+00	3.589904e-04	
481	4.100000e+00	3.590389e-04	
482	4.150000e+00	3.590864e-04	
483	4.200000e+00	3.591328e-04	
484	4.250000e+00	3.591783e-04	
485	4.300000e+00	3.592229e-04	
486	4.350000e+00	3.592667e-04	
487	4.400000e+00	3.593098e-04	
488	4.450000e+00	3.593521e-04	
489	4.500000e+00	3.593938e-04	
490	4.550000e+00	3.594349e-04	
491	4.600000e+00	3.594754e-04	
492	4.650000e+00	3.595155e-04	
493	4.700000e+00	3.595551e-04	
494	4.750000e+00	3.595944e-04	
495	4.800000e+00	3.596335e-04	
496	4.850000e+00	3.596724e-04	
497	4.900000e+00	3.597113e-04	
498	4.950000e+00	3.597503e-04	
499	5.000000e+00	3.597896e-04	
500	5.050000e+00	3.598294e-04	
501	5.100000e+00	3.598699e-04	
502	5.150000e+00	3.599113e-04	
503	5.200000e+00	3.599541e-04	
504	5.250000e+00	3.599984e-04	
505	5.300000e+00	3.600448e-04	
506	5.350000e+00	3.600937e-04	
507	5.400000e+00	3.601455e-04	
508	5.450000e+00	3.602010e-04	
509	5.500000e+00	3.602607e-04	
510	5.550000e+00	3.603253e-04	
511	5.600000e+00	3.603957e-04	
512	5.650000e+00	3.604728e-04	
513	5.700000e+00	3.605576e-04	
514	5.750000e+00	3.606510e-04	
515	5.800000e+00	3.607545e-04	
516	5.850000e+00	3.608691e-04	
517	5.900000e+00	3.609963e-04	
518	5.950000e+00	3.611376e-04	

Index   v-sweep         -i(vds)         
--------------------------------------------------------------------------------
519	6.000000e+00	3.612947e-04	
520	6.050000e+00	3.614692e-04	
521	6.100000e+00	3.616631e-04	
522	6.150000e+00	3.618782e-04	
523	6.200000e+00	3.621168e-04	
524	6.250000e+00	3.623811e-04	
525	6.300000e+00	3.626734e-04	
526	6.350000e+00	3.629963e-04	
527	6.400000e+00	3.633523e-04	
528	6.450000e+00	3.637442e-04	
529	6.500000e+00	3.641750e-04	
530	6.550000e+00	3.646477e-04	
531	6.600000e+00	3.651654e-04	
532	0.000000e+00	-1.08882e-29	
533	5.000000e-02	1.650895e-05	
534	1.000000e-01	3.274374e-05	
535	1.500000e-01	4.870545e-05	
536	2.000000e-01	6.439516e-05	
537	2.500000e-01	7.981394e-05	
538	3.000000e-01	9.496286e-05	
539	3.500000e-01	1.098430e-04	
540	4.000000e-01	1.244554e-04	
541	4.500000e-01	1.388011e-04	
542	5.000000e-01	1.528811e-04	
543	5.500000e-01	1.666966e-04	
544	6.000000e-01	1.802485e-04	
545	6.500000e-01	1.935378e-04	
546	7.000000e-01	2.065657e-04	
547	7.500000e-01	2.193331e-04	
548	8.000000e-01	2.318410e-04	
549	8.500000e-01	2.440905e-04	
550	9.000000e-01	2.560826e-04	
551	9.500000e-01	2.678182e-04	
552	1.000000e+00	2.792984e-04	
553	1.050000e+00	2.905241e-04	
554	1.100000e+00	3.014964e-04	
555	1.150000e+00	3.122162e-04	
556	1.200000e+00	3.226845e-04	
557	1.250000e+00	3.329023e-04	
558	1.300000e+00	3.428705e-04	
559	1.350000e+00	3.525902e-04	
560	1.400000e+00	3.620622e-04	
561	1.450000e+00	3.712875e-04	
562	1.500000e+00	3.802671e-04	
563	1.550000e+00	3.890019e-04	
564	1.600000e+00	3.974928e-04	
565	1.650000e+00	4.057408e-04	
566	1.700000e+00	4.137468e-04	
567	1.750000e+00	4.215117e-04	
568	1.800000e+00	4.290364e-04	
569	1.850000e+00	4.363218e-04	
570	1.900000e+00	4.433688e-04	
571	1.950000e+00	4.501783e-04	
572	2.000000e+00	4.567512e-04	
573	2.050000e+00	4.630882e-04	
574	2.100000e+00	4.691903e-04	
575	2.150000e+00	4.750584e-04	
576	2.200000e+00	4.806931e-04	

Index   v-sweep         -i(vds)         
--------------------------------------------------------------------------------
577	2.250000e+00	4.860953e-04	
578	2.300000e+00	4.912658e-04	
579	2.350000e+00	4.962052e-04	
580	2.400000e+00	5.009144e-04	
581	2.450000e+00	5.053940e-04	
582	2.500000e+00	5.096446e-04	
583	2.550000e+00	5.136667e-04	
584	2.600000e+00	5.174608e-04	
585	2.650000e+00	5.210273e-04	
586	2.700000e+00	5.243665e-04	
587	2.750000e+00	5.274787e-04	
588	2.800000e+00	5.303639e-04	
589	2.850000e+00	5.330222e-04	
590	2.900000e+00	5.354537e-04	
591	2.950000e+00	5.376590e-04	
592	3.000000e+00	5.396391e-04	
593	3.050000e+00	5.413968e-04	
594	3.100000e+00	5.429373e-04	
595	3.150000e+00	5.442694e-04	
596	3.200000e+00	5.454068e-04	
597	3.250000e+00	5.463678e-04	
598	3.300000e+00	5.471741e-04	
599	3.350000e+00	5.478494e-04	
600	3.400000e+00	5.484163e-04	
601	3.450000e+00	5.488952e-04	
602	3.500000e+00	5.493034e-04	
603	3.550000e+00	5.496549e-04	
604	3.600000e+00	5.499610e-04	
605	3.650000e+00	5.502302e-04	
606	3.700000e+00	5.504696e-04	
607	3.750000e+00	5.506843e-04	
608	3.800000e+00	5.508786e-04	
609	3.850000e+00	5.510559e-04	
610	3.900000e+00	5.512187e-04	
611	3.950000e+00	5.513692e-04	
612	4.000000e+00	5.515092e-04	
613	4.050000e+00	5.516400e-04	
614	4.100000e+00	5.517628e-04	
615	4.150000e+00	5.518786e-04	
616	4.200000e+00	5.519882e-04	
617	4.250000e+00	5.520923e-04	
618	4.300000e+00	5.521916e-04	
619	4.350000e+00	5.522864e-04	
620	4.400000e+00	5.523772e-04	
621	4.450000e+00	5.524645e-04	
622	4.500000e+00	5.525485e-04	
623	4.550000e+00	5.526295e-04	
624	4.600000e+00	5.527077e-04	
625	4.650000e+00	5.527835e-04	
626	4.700000e+00	5.528570e-04	
627	4.750000e+00	5.529283e-04	
628	4.800000e+00	5.529976e-04	
629	4.850000e+00	5.530652e-04	
630	4.900000e+00	5.531310e-04	
631	4.950000e+00	5.531952e-04	
632	5.000000e+00	5.532579e-04	
633	5.050000e+00	5.533193e-04	
634	5.100000e+00	5.533794e-04	

Index   v-sweep         -i(vds)         
--------------------------------------------------------------------------------
635	5.150000e+00	5.534382e-04	
636	5.200000e+00	5.534960e-04	
637	5.250000e+00	5.535527e-04	
638	5.300000e+00	5.536084e-04	
639	5.350000e+00	5.536633e-04	
640	5.400000e+00	5.537174e-04	
641	5.450000e+00	5.537709e-04	
642	5.500000e+00	5.538238e-04	
643	5.550000e+00	5.538763e-04	
644	5.600000e+00	5.539285e-04	
645	5.650000e+00	5.539806e-04	
646	5.700000e+00	5.540328e-04	
647	5.750000e+00	5.540854e-04	
648	5.800000e+00	5.541387e-04	
649	5.850000e+00	5.541929e-04	
650	5.900000e+00	5.542485e-04	
651	5.950000e+00	5.543060e-04	
652	6.000000e+00	5.543657e-04	
653	6.050000e+00	5.544284e-04	
654	6.100000e+00	5.544947e-04	
655	6.150000e+00	5.545654e-04	
656	6.200000e+00	5.546414e-04	
657	6.250000e+00	5.547235e-04	
658	6.300000e+00	5.548129e-04	
659	6.350000e+00	5.549109e-04	
660	6.400000e+00	5.550187e-04	
661	6.450000e+00	5.551378e-04	
662	6.500000e+00	5.552699e-04	
663	6.550000e+00	5.554166e-04	
664	6.600000e+00	5.555801e-04	
665	0.000000e+00	-1.16334e-29	
666	5.000000e-02	1.824247e-05	
667	1.000000e-01	3.624068e-05	
668	1.500000e-01	5.399552e-05	
669	2.000000e-01	7.150788e-05	
670	2.500000e-01	8.877862e-05	
671	3.000000e-01	1.058086e-04	
672	3.500000e-01	1.225988e-04	
673	4.000000e-01	1.391499e-04	
674	4.500000e-01	1.554629e-04	
675	5.000000e-01	1.715386e-04	
676	5.500000e-01	1.873779e-04	
677	6.000000e-01	2.029816e-04	
678	6.500000e-01	2.183506e-04	
679	7.000000e-01	2.334857e-04	
680	7.500000e-01	2.483878e-04	
681	8.000000e-01	2.630576e-04	
682	8.500000e-01	2.774961e-04	
683	9.000000e-01	2.917040e-04	
684	9.500000e-01	3.056822e-04	
685	1.000000e+00	3.194315e-04	
686	1.050000e+00	3.329528e-04	
687	1.100000e+00	3.462467e-04	
688	1.150000e+00	3.593143e-04	
689	1.200000e+00	3.721561e-04	
690	1.250000e+00	3.847732e-04	
691	1.300000e+00	3.971661e-04	
692	1.350000e+00	4.093359e-04	

Index   v-sweep         -i(vds)         
--------------------------------------------------------------------------------
693	1.400000e+00	4.212832e-04	
694	1.450000e+00	4.330088e-04	
695	1.500000e+00	4.445136e-04	
696	1.550000e+00	4.557982e-04	
697	1.600000e+00	4.668636e-04	
698	1.650000e+00	4.777104e-04	
699	1.700000e+00	4.883395e-04	
700	1.750000e+00	4.987515e-04	
701	1.800000e+00	5.089473e-04	
702	1.850000e+00	5.189277e-04	
703	1.900000e+00	5.286933e-04	
704	1.950000e+00	5.382450e-04	
705	2.000000e+00	5.475834e-04	
706	2.050000e+00	5.567094e-04	
707	2.100000e+00	5.656236e-04	
708	2.150000e+00	5.743269e-04	
709	2.200000e+00	5.828198e-04	
710	2.250000e+00	5.911032e-04	
711	2.300000e+00	5.991778e-04	
712	2.350000e+00	6.070443e-04	
713	2.400000e+00	6.147034e-04	
714	2.450000e+00	6.221557e-04	
715	2.500000e+00	6.294021e-04	
716	2.550000e+00	6.364432e-04	
717	2.600000e+00	6.432796e-04	
718	2.650000e+00	6.499120e-04	
719	2.700000e+00	6.563412e-04	
720	2.750000e+00	6.625676e-04	
721	2.800000e+00	6.685921e-04	
722	2.850000e+00	6.744151e-04	
723	2.900000e+00	6.800373e-04	
724	2.950000e+00	6.854593e-04	
725	3.000000e+00	6.906817e-04	
726	3.050000e+00	6.957048e-04	
727	3.100000e+00	7.005294e-04	
728	3.150000e+00	7.051556e-04	
729	3.200000e+00	7.095841e-04	
730	3.250000e+00	7.138151e-04	
731	3.300000e+00	7.178488e-04	
732	3.350000e+00	7.216854e-04	
733	3.400000e+00	7.253250e-04	
734	3.450000e+00	7.287675e-04	
735	3.500000e+00	7.320126e-04	
736	3.550000e+00	7.350600e-04	
737	3.600000e+00	7.379090e-04	
738	3.650000e+00	7.405590e-04	
739	3.700000e+00	7.430091e-04	
740	3.750000e+00	7.452589e-04	
741	3.800000e+00	7.473080e-04	
742	3.850000e+00	7.491575e-04	
743	3.900000e+00	7.508101e-04	
744	3.950000e+00	7.522714e-04	
745	4.000000e+00	7.535503e-04	
746	4.050000e+00	7.546597e-04	
747	4.100000e+00	7.556160e-04	
748	4.150000e+00	7.564374e-04	
749	4.200000e+00	7.571429e-04	
750	4.250000e+00	7.577506e-04	

Index   v-sweep         -i(vds)         
--------------------------------------------------------------------------------
751	4.300000e+00	7.582769e-04	
752	4.350000e+00	7.587357e-04	
753	4.400000e+00	7.591389e-04	
754	4.450000e+00	7.594960e-04	
755	4.500000e+00	7.598148e-04	
756	4.550000e+00	7.601017e-04	
757	4.600000e+00	7.603618e-04	
758	4.650000e+00	7.605993e-04	
759	4.700000e+00	7.608173e-04	
760	4.750000e+00	7.610187e-04	
761	4.800000e+00	7.612058e-04	
762	4.850000e+00	7.613804e-04	
763	4.900000e+00	7.615440e-04	
764	4.950000e+00	7.616980e-04	
765	5.000000e+00	7.618435e-04	
766	5.050000e+00	7.619814e-04	
767	5.100000e+00	7.621125e-04	
768	5.150000e+00	7.622375e-04	
769	5.200000e+00	7.623569e-04	
770	5.250000e+00	7.624714e-04	
771	5.300000e+00	7.625813e-04	
772	5.350000e+00	7.626871e-04	
773	5.400000e+00	7.627891e-04	
774	5.450000e+00	7.628876e-04	
775	5.500000e+00	7.629829e-04	
776	5.550000e+00	7.630752e-04	
777	5.600000e+00	7.631647e-04	
778	5.650000e+00	7.632517e-04	
779	5.700000e+00	7.633364e-04	
780	5.750000e+00	7.634188e-04	
781	5.800000e+00	7.634992e-04	
782	5.850000e+00	7.635776e-04	
783	5.900000e+00	7.636543e-04	
784	5.950000e+00	7.637292e-04	
785	6.000000e+00	7.638026e-04	
786	6.050000e+00	7.638746e-04	
787	6.100000e+00	7.639452e-04	
788	6.150000e+00	7.640147e-04	
789	6.200000e+00	7.640830e-04	
790	6.250000e+00	7.641504e-04	
791	6.300000e+00	7.642170e-04	
792	6.350000e+00	7.642831e-04	
793	6.400000e+00	7.643487e-04	
794	6.450000e+00	7.644142e-04	
795	6.500000e+00	7.644798e-04	
796	6.550000e+00	7.645459e-04	
797	6.600000e+00	7.646129e-04	
Note: No ".plot", ".print", or ".fourier" lines; no simulations run
