
Note: Compatibility modes selected: hs

Warning: m=xx on .subckt line will override multiplier m hierarchy!


Circuit: ***************************

Doing analysis at TEMP = 125.000000 and TNOM = 125.000000


No. of Data Rows : 798
                          ***************************
                          DC transfer characteristic  Mon Jan  9 13:58:37  2023
--------------------------------------------------------------------------------
Index   v-sweep         -i(vds)         
--------------------------------------------------------------------------------
0	0.000000e+00	-1.31411e-25	
1	5.000000e-02	7.316185e-06	
2	1.000000e-01	1.321185e-05	
3	1.500000e-01	1.777372e-05	
4	2.000000e-01	2.106505e-05	
5	2.500000e-01	2.319347e-05	
6	3.000000e-01	2.439969e-05	
7	3.500000e-01	2.505918e-05	
8	4.000000e-01	2.547254e-05	
9	4.500000e-01	2.577682e-05	
10	5.000000e-01	2.602369e-05	
11	5.500000e-01	2.623480e-05	
12	6.000000e-01	2.642100e-05	
13	6.500000e-01	2.658856e-05	
14	7.000000e-01	2.674152e-05	
15	7.500000e-01	2.688265e-05	
16	8.000000e-01	2.701399e-05	
17	8.500000e-01	2.713706e-05	
18	9.000000e-01	2.725305e-05	
19	9.500000e-01	2.736291e-05	
20	1.000000e+00	2.746739e-05	
21	1.050000e+00	2.756713e-05	
22	1.100000e+00	2.766265e-05	
23	1.150000e+00	2.775439e-05	
24	1.200000e+00	2.784272e-05	
25	1.250000e+00	2.792796e-05	
26	1.300000e+00	2.801039e-05	
27	1.350000e+00	2.809026e-05	
28	1.400000e+00	2.816777e-05	
29	1.450000e+00	2.824312e-05	
30	1.500000e+00	2.831646e-05	
31	1.550000e+00	2.838795e-05	
32	1.600000e+00	2.845771e-05	
33	1.650000e+00	2.852586e-05	
34	1.700000e+00	2.859252e-05	
35	1.750000e+00	2.865777e-05	
36	1.800000e+00	2.872171e-05	
37	1.850000e+00	2.878440e-05	
38	1.900000e+00	2.884594e-05	
39	1.950000e+00	2.890637e-05	
40	2.000000e+00	2.896577e-05	
41	2.050000e+00	2.902419e-05	
42	2.100000e+00	2.908168e-05	
43	2.150000e+00	2.913829e-05	
44	2.200000e+00	2.919406e-05	
45	2.250000e+00	2.924903e-05	
46	2.300000e+00	2.930325e-05	
47	2.350000e+00	2.935674e-05	
48	2.400000e+00	2.940955e-05	
49	2.450000e+00	2.946171e-05	
50	2.500000e+00	2.951324e-05	
51	2.550000e+00	2.956418e-05	
52	2.600000e+00	2.961455e-05	
53	2.650000e+00	2.966439e-05	
54	2.700000e+00	2.971372e-05	

Index   v-sweep         -i(vds)         
--------------------------------------------------------------------------------
55	2.750000e+00	2.976258e-05	
56	2.800000e+00	2.981099e-05	
57	2.850000e+00	2.985897e-05	
58	2.900000e+00	2.990658e-05	
59	2.950000e+00	2.995382e-05	
60	3.000000e+00	3.000075e-05	
61	3.050000e+00	3.004741e-05	
62	3.100000e+00	3.009382e-05	
63	3.150000e+00	3.014004e-05	
64	3.200000e+00	3.018612e-05	
65	3.250000e+00	3.023211e-05	
66	3.300000e+00	3.027807e-05	
67	3.350000e+00	3.032407e-05	
68	3.400000e+00	3.037016e-05	
69	3.450000e+00	3.041644e-05	
70	3.500000e+00	3.046299e-05	
71	3.550000e+00	3.050989e-05	
72	3.600000e+00	3.055724e-05	
73	3.650000e+00	3.060516e-05	
74	3.700000e+00	3.065377e-05	
75	3.750000e+00	3.070317e-05	
76	3.800000e+00	3.075352e-05	
77	3.850000e+00	3.080496e-05	
78	3.900000e+00	3.085764e-05	
79	3.950000e+00	3.091173e-05	
80	4.000000e+00	3.096741e-05	
81	4.050000e+00	3.102486e-05	
82	4.100000e+00	3.108429e-05	
83	4.150000e+00	3.114591e-05	
84	4.200000e+00	3.120994e-05	
85	4.250000e+00	3.127662e-05	
86	4.300000e+00	3.134619e-05	
87	4.350000e+00	3.141892e-05	
88	4.400000e+00	3.149508e-05	
89	4.450000e+00	3.157496e-05	
90	4.500000e+00	3.165885e-05	
91	4.550000e+00	3.174706e-05	
92	4.600000e+00	3.183991e-05	
93	4.650000e+00	3.193774e-05	
94	4.700000e+00	3.204090e-05	
95	4.750000e+00	3.214975e-05	
96	4.800000e+00	3.226465e-05	
97	4.850000e+00	3.238599e-05	
98	4.900000e+00	3.251417e-05	
99	4.950000e+00	3.264958e-05	
100	5.000000e+00	3.279265e-05	
101	5.050000e+00	3.294381e-05	
102	5.100000e+00	3.310350e-05	
103	5.150000e+00	3.327216e-05	
104	5.200000e+00	3.345025e-05	
105	5.250000e+00	3.363826e-05	
106	5.300000e+00	3.383665e-05	
107	5.350000e+00	3.404591e-05	
108	5.400000e+00	3.426655e-05	
109	5.450000e+00	3.449907e-05	
110	5.500000e+00	3.474399e-05	
111	5.550000e+00	3.500183e-05	
112	5.600000e+00	3.527312e-05	

Index   v-sweep         -i(vds)         
--------------------------------------------------------------------------------
113	5.650000e+00	3.555841e-05	
114	5.700000e+00	3.585823e-05	
115	5.750000e+00	3.617315e-05	
116	5.800000e+00	3.650372e-05	
117	5.850000e+00	3.685052e-05	
118	5.900000e+00	3.721410e-05	
119	5.950000e+00	3.759505e-05	
120	6.000000e+00	3.799395e-05	
121	6.050000e+00	3.841139e-05	
122	6.100000e+00	3.884796e-05	
123	6.150000e+00	3.930426e-05	
124	6.200000e+00	3.978088e-05	
125	6.250000e+00	4.027842e-05	
126	6.300000e+00	4.079750e-05	
127	6.350000e+00	4.133872e-05	
128	6.400000e+00	4.190270e-05	
129	6.450000e+00	4.249003e-05	
130	6.500000e+00	4.310135e-05	
131	6.550000e+00	4.373727e-05	
132	6.600000e+00	4.439840e-05	
133	0.000000e+00	-6.09159e-24	
134	5.000000e-02	2.426407e-05	
135	1.000000e-01	4.696937e-05	
136	1.500000e-01	6.819294e-05	
137	2.000000e-01	8.797277e-05	
138	2.500000e-01	1.063364e-04	
139	3.000000e-01	1.233084e-04	
140	3.500000e-01	1.389123e-04	
141	4.000000e-01	1.531713e-04	
142	4.500000e-01	1.661085e-04	
143	5.000000e-01	1.777471e-04	
144	5.500000e-01	1.881111e-04	
145	6.000000e-01	1.972256e-04	
146	6.500000e-01	2.051194e-04	
147	7.000000e-01	2.118282e-04	
148	7.500000e-01	2.174026e-04	
149	8.000000e-01	2.219220e-04	
150	8.500000e-01	2.255111e-04	
151	9.000000e-01	2.283411e-04	
152	9.500000e-01	2.305981e-04	
153	1.000000e+00	2.324413e-04	
154	1.050000e+00	2.339874e-04	
155	1.100000e+00	2.353154e-04	
156	1.150000e+00	2.364788e-04	
157	1.200000e+00	2.375141e-04	
158	1.250000e+00	2.384472e-04	
159	1.300000e+00	2.392971e-04	
160	1.350000e+00	2.400779e-04	
161	1.400000e+00	2.408005e-04	
162	1.450000e+00	2.414734e-04	
163	1.500000e+00	2.421032e-04	
164	1.550000e+00	2.426956e-04	
165	1.600000e+00	2.432549e-04	
166	1.650000e+00	2.437850e-04	
167	1.700000e+00	2.442890e-04	
168	1.750000e+00	2.447694e-04	
169	1.800000e+00	2.452287e-04	
170	1.850000e+00	2.456688e-04	

Index   v-sweep         -i(vds)         
--------------------------------------------------------------------------------
171	1.900000e+00	2.460913e-04	
172	1.950000e+00	2.464977e-04	
173	2.000000e+00	2.468894e-04	
174	2.050000e+00	2.472675e-04	
175	2.100000e+00	2.476330e-04	
176	2.150000e+00	2.479869e-04	
177	2.200000e+00	2.483299e-04	
178	2.250000e+00	2.486628e-04	
179	2.300000e+00	2.489862e-04	
180	2.350000e+00	2.493008e-04	
181	2.400000e+00	2.496070e-04	
182	2.450000e+00	2.499055e-04	
183	2.500000e+00	2.501966e-04	
184	2.550000e+00	2.504807e-04	
185	2.600000e+00	2.507583e-04	
186	2.650000e+00	2.510296e-04	
187	2.700000e+00	2.512951e-04	
188	2.750000e+00	2.515550e-04	
189	2.800000e+00	2.518095e-04	
190	2.850000e+00	2.520590e-04	
191	2.900000e+00	2.523037e-04	
192	2.950000e+00	2.525438e-04	
193	3.000000e+00	2.527796e-04	
194	3.050000e+00	2.530112e-04	
195	3.100000e+00	2.532389e-04	
196	3.150000e+00	2.534629e-04	
197	3.200000e+00	2.536833e-04	
198	3.250000e+00	2.539004e-04	
199	3.300000e+00	2.541144e-04	
200	3.350000e+00	2.543254e-04	
201	3.400000e+00	2.545338e-04	
202	3.450000e+00	2.547396e-04	
203	3.500000e+00	2.549433e-04	
204	3.550000e+00	2.551450e-04	
205	3.600000e+00	2.553451e-04	
206	3.650000e+00	2.555438e-04	
207	3.700000e+00	2.557415e-04	
208	3.750000e+00	2.559386e-04	
209	3.800000e+00	2.561356e-04	
210	3.850000e+00	2.563328e-04	
211	3.900000e+00	2.565308e-04	
212	3.950000e+00	2.567302e-04	
213	4.000000e+00	2.569315e-04	
214	4.050000e+00	2.571355e-04	
215	4.100000e+00	2.573428e-04	
216	4.150000e+00	2.575543e-04	
217	4.200000e+00	2.577709e-04	
218	4.250000e+00	2.579934e-04	
219	4.300000e+00	2.582229e-04	
220	4.350000e+00	2.584606e-04	
221	4.400000e+00	2.587074e-04	
222	4.450000e+00	2.589649e-04	
223	4.500000e+00	2.592342e-04	
224	4.550000e+00	2.595168e-04	
225	4.600000e+00	2.598142e-04	
226	4.650000e+00	2.601281e-04	
227	4.700000e+00	2.604601e-04	
228	4.750000e+00	2.608121e-04	

Index   v-sweep         -i(vds)         
--------------------------------------------------------------------------------
229	4.800000e+00	2.611860e-04	
230	4.850000e+00	2.615837e-04	
231	4.900000e+00	2.620074e-04	
232	4.950000e+00	2.624592e-04	
233	5.000000e+00	2.629415e-04	
234	5.050000e+00	2.634567e-04	
235	5.100000e+00	2.640071e-04	
236	5.150000e+00	2.645954e-04	
237	5.200000e+00	2.652244e-04	
238	5.250000e+00	2.658966e-04	
239	5.300000e+00	2.666151e-04	
240	5.350000e+00	2.673828e-04	
241	5.400000e+00	2.682026e-04	
242	5.450000e+00	2.690778e-04	
243	5.500000e+00	2.700116e-04	
244	5.550000e+00	2.710073e-04	
245	5.600000e+00	2.720682e-04	
246	5.650000e+00	2.731978e-04	
247	5.700000e+00	2.743997e-04	
248	5.750000e+00	2.756775e-04	
249	5.800000e+00	2.770349e-04	
250	5.850000e+00	2.784756e-04	
251	5.900000e+00	2.800035e-04	
252	5.950000e+00	2.816224e-04	
253	6.000000e+00	2.833363e-04	
254	6.050000e+00	2.851492e-04	
255	6.100000e+00	2.870651e-04	
256	6.150000e+00	2.890883e-04	
257	6.200000e+00	2.912228e-04	
258	6.250000e+00	2.934728e-04	
259	6.300000e+00	2.958426e-04	
260	6.350000e+00	2.983364e-04	
261	6.400000e+00	3.009587e-04	
262	6.450000e+00	3.037137e-04	
263	6.500000e+00	3.066058e-04	
264	6.550000e+00	3.096395e-04	
265	6.600000e+00	3.128191e-04	
266	0.000000e+00	5.410800e-24	
267	5.000000e-02	3.699979e-05	
268	1.000000e-01	7.245901e-05	
269	1.500000e-01	1.064511e-04	
270	2.000000e-01	1.390121e-04	
271	2.500000e-01	1.701675e-04	
272	3.000000e-01	1.999400e-04	
273	3.500000e-01	2.283514e-04	
274	4.000000e-01	2.554225e-04	
275	4.500000e-01	2.811742e-04	
276	5.000000e-01	3.056266e-04	
277	5.500000e-01	3.287998e-04	
278	6.000000e-01	3.507134e-04	
279	6.500000e-01	3.713867e-04	
280	7.000000e-01	3.908387e-04	
281	7.500000e-01	4.090879e-04	
282	8.000000e-01	4.261529e-04	
283	8.500000e-01	4.420517e-04	
284	9.000000e-01	4.568020e-04	
285	9.500000e-01	4.704215e-04	
286	1.000000e+00	4.829274e-04	

Index   v-sweep         -i(vds)         
--------------------------------------------------------------------------------
287	1.050000e+00	4.943370e-04	
288	1.100000e+00	5.046675e-04	
289	1.150000e+00	5.139372e-04	
290	1.200000e+00	5.221663e-04	
291	1.250000e+00	5.293814e-04	
292	1.300000e+00	5.356228e-04	
293	1.350000e+00	5.409552e-04	
294	1.400000e+00	5.454751e-04	
295	1.450000e+00	5.493034e-04	
296	1.500000e+00	5.525668e-04	
297	1.550000e+00	5.553793e-04	
298	1.600000e+00	5.578342e-04	
299	1.650000e+00	5.600041e-04	
300	1.700000e+00	5.619441e-04	
301	1.750000e+00	5.636964e-04	
302	1.800000e+00	5.652932e-04	
303	1.850000e+00	5.667594e-04	
304	1.900000e+00	5.681147e-04	
305	1.950000e+00	5.693748e-04	
306	2.000000e+00	5.705524e-04	
307	2.050000e+00	5.716577e-04	
308	2.100000e+00	5.726993e-04	
309	2.150000e+00	5.736844e-04	
310	2.200000e+00	5.746189e-04	
311	2.250000e+00	5.755081e-04	
312	2.300000e+00	5.763562e-04	
313	2.350000e+00	5.771671e-04	
314	2.400000e+00	5.779440e-04	
315	2.450000e+00	5.786899e-04	
316	2.500000e+00	5.794073e-04	
317	2.550000e+00	5.800983e-04	
318	2.600000e+00	5.807650e-04	
319	2.650000e+00	5.814092e-04	
320	2.700000e+00	5.820323e-04	
321	2.750000e+00	5.826360e-04	
322	2.800000e+00	5.832213e-04	
323	2.850000e+00	5.837896e-04	
324	2.900000e+00	5.843418e-04	
325	2.950000e+00	5.848788e-04	
326	3.000000e+00	5.854017e-04	
327	3.050000e+00	5.859112e-04	
328	3.100000e+00	5.864080e-04	
329	3.150000e+00	5.868928e-04	
330	3.200000e+00	5.873662e-04	
331	3.250000e+00	5.878289e-04	
332	3.300000e+00	5.882813e-04	
333	3.350000e+00	5.887240e-04	
334	3.400000e+00	5.891575e-04	
335	3.450000e+00	5.895821e-04	
336	3.500000e+00	5.899984e-04	
337	3.550000e+00	5.904068e-04	
338	3.600000e+00	5.908076e-04	
339	3.650000e+00	5.912013e-04	
340	3.700000e+00	5.915883e-04	
341	3.750000e+00	5.919690e-04	
342	3.800000e+00	5.923438e-04	
343	3.850000e+00	5.927132e-04	
344	3.900000e+00	5.930776e-04	

Index   v-sweep         -i(vds)         
--------------------------------------------------------------------------------
345	3.950000e+00	5.934376e-04	
346	4.000000e+00	5.937937e-04	
347	4.050000e+00	5.941464e-04	
348	4.100000e+00	5.944965e-04	
349	4.150000e+00	5.948446e-04	
350	4.200000e+00	5.951916e-04	
351	4.250000e+00	5.955383e-04	
352	4.300000e+00	5.958857e-04	
353	4.350000e+00	5.962349e-04	
354	4.400000e+00	5.965869e-04	
355	4.450000e+00	5.969433e-04	
356	4.500000e+00	5.973053e-04	
357	4.550000e+00	5.976745e-04	
358	4.600000e+00	5.980526e-04	
359	4.650000e+00	5.984416e-04	
360	4.700000e+00	5.988433e-04	
361	4.750000e+00	5.992600e-04	
362	4.800000e+00	5.996941e-04	
363	4.850000e+00	6.001481e-04	
364	4.900000e+00	6.006247e-04	
365	4.950000e+00	6.011269e-04	
366	5.000000e+00	6.016578e-04	
367	5.050000e+00	6.022207e-04	
368	5.100000e+00	6.028191e-04	
369	5.150000e+00	6.034569e-04	
370	5.200000e+00	6.041380e-04	
371	5.250000e+00	6.048666e-04	
372	5.300000e+00	6.056470e-04	
373	5.350000e+00	6.064839e-04	
374	5.400000e+00	6.073822e-04	
375	5.450000e+00	6.083469e-04	
376	5.500000e+00	6.093833e-04	
377	5.550000e+00	6.104969e-04	
378	5.600000e+00	6.116934e-04	
379	5.650000e+00	6.129789e-04	
380	5.700000e+00	6.143593e-04	
381	5.750000e+00	6.158412e-04	
382	5.800000e+00	6.174311e-04	
383	5.850000e+00	6.191357e-04	
384	5.900000e+00	6.209621e-04	
385	5.950000e+00	6.229174e-04	
386	6.000000e+00	6.250089e-04	
387	6.050000e+00	6.272443e-04	
388	6.100000e+00	6.296312e-04	
389	6.150000e+00	6.321775e-04	
390	6.200000e+00	6.348912e-04	
391	6.250000e+00	6.377807e-04	
392	6.300000e+00	6.408542e-04	
393	6.350000e+00	6.441203e-04	
394	6.400000e+00	6.475876e-04	
395	6.450000e+00	6.512649e-04	
396	6.500000e+00	6.551611e-04	
397	6.550000e+00	6.592852e-04	
398	6.600000e+00	6.636463e-04	
399	0.000000e+00	-5.29862e-25	
400	5.000000e-02	4.629492e-05	
401	1.000000e-01	9.112738e-05	
402	1.500000e-01	1.345663e-04	

Index   v-sweep         -i(vds)         
--------------------------------------------------------------------------------
403	2.000000e-01	1.766444e-04	
404	2.500000e-01	2.173841e-04	
405	3.000000e-01	2.568051e-04	
406	3.500000e-01	2.949260e-04	
407	4.000000e-01	3.317652e-04	
408	4.500000e-01	3.673404e-04	
409	5.000000e-01	4.016694e-04	
410	5.500000e-01	4.347693e-04	
411	6.000000e-01	4.666572e-04	
412	6.500000e-01	4.973500e-04	
413	7.000000e-01	5.268641e-04	
414	7.500000e-01	5.552158e-04	
415	8.000000e-01	5.824210e-04	
416	8.500000e-01	6.084957e-04	
417	9.000000e-01	6.334551e-04	
418	9.500000e-01	6.573146e-04	
419	1.000000e+00	6.800892e-04	
420	1.050000e+00	7.017934e-04	
421	1.100000e+00	7.224419e-04	
422	1.150000e+00	7.420486e-04	
423	1.200000e+00	7.606274e-04	
424	1.250000e+00	7.781917e-04	
425	1.300000e+00	7.947546e-04	
426	1.350000e+00	8.103284e-04	
427	1.400000e+00	8.249250e-04	
428	1.450000e+00	8.385550e-04	
429	1.500000e+00	8.512279e-04	
430	1.550000e+00	8.629515e-04	
431	1.600000e+00	8.737310e-04	
432	1.650000e+00	8.835698e-04	
433	1.700000e+00	8.924704e-04	
434	1.750000e+00	9.004396e-04	
435	1.800000e+00	9.074977e-04	
436	1.850000e+00	9.136898e-04	
437	1.900000e+00	9.190906e-04	
438	1.950000e+00	9.237974e-04	
439	2.000000e+00	9.279150e-04	
440	2.050000e+00	9.315422e-04	
441	2.100000e+00	9.347645e-04	
442	2.150000e+00	9.376525e-04	
443	2.200000e+00	9.402628e-04	
444	2.250000e+00	9.426404e-04	
445	2.300000e+00	9.448215e-04	
446	2.350000e+00	9.468348e-04	
447	2.400000e+00	9.487037e-04	
448	2.450000e+00	9.504472e-04	
449	2.500000e+00	9.520809e-04	
450	2.550000e+00	9.536177e-04	
451	2.600000e+00	9.550686e-04	
452	2.650000e+00	9.564428e-04	
453	2.700000e+00	9.577480e-04	
454	2.750000e+00	9.589909e-04	
455	2.800000e+00	9.601775e-04	
456	2.850000e+00	9.613126e-04	
457	2.900000e+00	9.624006e-04	
458	2.950000e+00	9.634455e-04	
459	3.000000e+00	9.644507e-04	
460	3.050000e+00	9.654191e-04	

Index   v-sweep         -i(vds)         
--------------------------------------------------------------------------------
461	3.100000e+00	9.663536e-04	
462	3.150000e+00	9.672564e-04	
463	3.200000e+00	9.681297e-04	
464	3.250000e+00	9.689756e-04	
465	3.300000e+00	9.697957e-04	
466	3.350000e+00	9.705917e-04	
467	3.400000e+00	9.713650e-04	
468	3.450000e+00	9.721170e-04	
469	3.500000e+00	9.728489e-04	
470	3.550000e+00	9.735618e-04	
471	3.600000e+00	9.742567e-04	
472	3.650000e+00	9.749346e-04	
473	3.700000e+00	9.755964e-04	
474	3.750000e+00	9.762429e-04	
475	3.800000e+00	9.768748e-04	
476	3.850000e+00	9.774929e-04	
477	3.900000e+00	9.780979e-04	
478	3.950000e+00	9.786904e-04	
479	4.000000e+00	9.792710e-04	
480	4.050000e+00	9.798405e-04	
481	4.100000e+00	9.803993e-04	
482	4.150000e+00	9.809481e-04	
483	4.200000e+00	9.814876e-04	
484	4.250000e+00	9.820183e-04	
485	4.300000e+00	9.825410e-04	
486	4.350000e+00	9.830564e-04	
487	4.400000e+00	9.835652e-04	
488	4.450000e+00	9.840684e-04	
489	4.500000e+00	9.845667e-04	
490	4.550000e+00	9.850613e-04	
491	4.600000e+00	9.855533e-04	
492	4.650000e+00	9.860438e-04	
493	4.700000e+00	9.865344e-04	
494	4.750000e+00	9.870264e-04	
495	4.800000e+00	9.875216e-04	
496	4.850000e+00	9.880219e-04	
497	4.900000e+00	9.885293e-04	
498	4.950000e+00	9.890461e-04	
499	5.000000e+00	9.895747e-04	
500	5.050000e+00	9.901179e-04	
501	5.100000e+00	9.906787e-04	
502	5.150000e+00	9.912603e-04	
503	5.200000e+00	9.918662e-04	
504	5.250000e+00	9.925002e-04	
505	5.300000e+00	9.931664e-04	
506	5.350000e+00	9.938691e-04	
507	5.400000e+00	9.946132e-04	
508	5.450000e+00	9.954036e-04	
509	5.500000e+00	9.962457e-04	
510	5.550000e+00	9.971453e-04	
511	5.600000e+00	9.981083e-04	
512	5.650000e+00	9.991413e-04	
513	5.700000e+00	1.000251e-03	
514	5.750000e+00	1.001444e-03	
515	5.800000e+00	1.002729e-03	
516	5.850000e+00	1.004113e-03	
517	5.900000e+00	1.005604e-03	
518	5.950000e+00	1.007211e-03	

Index   v-sweep         -i(vds)         
--------------------------------------------------------------------------------
519	6.000000e+00	1.008943e-03	
520	6.050000e+00	1.010809e-03	
521	6.100000e+00	1.012819e-03	
522	6.150000e+00	1.014982e-03	
523	6.200000e+00	1.017310e-03	
524	6.250000e+00	1.019812e-03	
525	6.300000e+00	1.022500e-03	
526	6.350000e+00	1.025384e-03	
527	6.400000e+00	1.028477e-03	
528	6.450000e+00	1.031791e-03	
529	6.500000e+00	1.035337e-03	
530	6.550000e+00	1.039129e-03	
531	6.600000e+00	1.043178e-03	
532	0.000000e+00	2.839022e-24	
533	5.000000e-02	5.274988e-05	
534	1.000000e-01	1.041482e-04	
535	1.500000e-01	1.542595e-04	
536	2.000000e-01	2.031129e-04	
537	2.500000e-01	2.507276e-04	
538	3.000000e-01	2.971201e-04	
539	3.500000e-01	3.423058e-04	
540	4.000000e-01	3.862998e-04	
541	4.500000e-01	4.291171e-04	
542	5.000000e-01	4.707722e-04	
543	5.500000e-01	5.112797e-04	
544	6.000000e-01	5.506537e-04	
545	6.500000e-01	5.889082e-04	
546	7.000000e-01	6.260572e-04	
547	7.500000e-01	6.621143e-04	
548	8.000000e-01	6.970929e-04	
549	8.500000e-01	7.310064e-04	
550	9.000000e-01	7.638679e-04	
551	9.500000e-01	7.956901e-04	
552	1.000000e+00	8.264860e-04	
553	1.050000e+00	8.562679e-04	
554	1.100000e+00	8.850483e-04	
555	1.150000e+00	9.128394e-04	
556	1.200000e+00	9.396532e-04	
557	1.250000e+00	9.655014e-04	
558	1.300000e+00	9.903957e-04	
559	1.350000e+00	1.014348e-03	
560	1.400000e+00	1.037368e-03	
561	1.450000e+00	1.059469e-03	
562	1.500000e+00	1.080660e-03	
563	1.550000e+00	1.100952e-03	
564	1.600000e+00	1.120355e-03	
565	1.650000e+00	1.138880e-03	
566	1.700000e+00	1.156535e-03	
567	1.750000e+00	1.173329e-03	
568	1.800000e+00	1.189271e-03	
569	1.850000e+00	1.204367e-03	
570	1.900000e+00	1.218622e-03	
571	1.950000e+00	1.232041e-03	
572	2.000000e+00	1.244623e-03	
573	2.050000e+00	1.256365e-03	
574	2.100000e+00	1.267260e-03	
575	2.150000e+00	1.277297e-03	
576	2.200000e+00	1.286467e-03	

Index   v-sweep         -i(vds)         
--------------------------------------------------------------------------------
577	2.250000e+00	1.294766e-03	
578	2.300000e+00	1.302211e-03	
579	2.350000e+00	1.308842e-03	
580	2.400000e+00	1.314729e-03	
581	2.450000e+00	1.319954e-03	
582	2.500000e+00	1.324608e-03	
583	2.550000e+00	1.328774e-03	
584	2.600000e+00	1.332528e-03	
585	2.650000e+00	1.335933e-03	
586	2.700000e+00	1.339043e-03	
587	2.750000e+00	1.341899e-03	
588	2.800000e+00	1.344537e-03	
589	2.850000e+00	1.346988e-03	
590	2.900000e+00	1.349274e-03	
591	2.950000e+00	1.351416e-03	
592	3.000000e+00	1.353431e-03	
593	3.050000e+00	1.355332e-03	
594	3.100000e+00	1.357131e-03	
595	3.150000e+00	1.358840e-03	
596	3.200000e+00	1.360466e-03	
597	3.250000e+00	1.362018e-03	
598	3.300000e+00	1.363501e-03	
599	3.350000e+00	1.364923e-03	
600	3.400000e+00	1.366287e-03	
601	3.450000e+00	1.367598e-03	
602	3.500000e+00	1.368861e-03	
603	3.550000e+00	1.370078e-03	
604	3.600000e+00	1.371254e-03	
605	3.650000e+00	1.372391e-03	
606	3.700000e+00	1.373491e-03	
607	3.750000e+00	1.374557e-03	
608	3.800000e+00	1.375591e-03	
609	3.850000e+00	1.376595e-03	
610	3.900000e+00	1.377571e-03	
611	3.950000e+00	1.378521e-03	
612	4.000000e+00	1.379445e-03	
613	4.050000e+00	1.380345e-03	
614	4.100000e+00	1.381223e-03	
615	4.150000e+00	1.382079e-03	
616	4.200000e+00	1.382916e-03	
617	4.250000e+00	1.383733e-03	
618	4.300000e+00	1.384531e-03	
619	4.350000e+00	1.385313e-03	
620	4.400000e+00	1.386077e-03	
621	4.450000e+00	1.386827e-03	
622	4.500000e+00	1.387561e-03	
623	4.550000e+00	1.388281e-03	
624	4.600000e+00	1.388988e-03	
625	4.650000e+00	1.389683e-03	
626	4.700000e+00	1.390366e-03	
627	4.750000e+00	1.391039e-03	
628	4.800000e+00	1.391701e-03	
629	4.850000e+00	1.392356e-03	
630	4.900000e+00	1.393003e-03	
631	4.950000e+00	1.393643e-03	
632	5.000000e+00	1.394279e-03	
633	5.050000e+00	1.394911e-03	
634	5.100000e+00	1.395542e-03	

Index   v-sweep         -i(vds)         
--------------------------------------------------------------------------------
635	5.150000e+00	1.396173e-03	
636	5.200000e+00	1.396806e-03	
637	5.250000e+00	1.397444e-03	
638	5.300000e+00	1.398089e-03	
639	5.350000e+00	1.398744e-03	
640	5.400000e+00	1.399412e-03	
641	5.450000e+00	1.400096e-03	
642	5.500000e+00	1.400801e-03	
643	5.550000e+00	1.401530e-03	
644	5.600000e+00	1.402287e-03	
645	5.650000e+00	1.403078e-03	
646	5.700000e+00	1.403909e-03	
647	5.750000e+00	1.404783e-03	
648	5.800000e+00	1.405708e-03	
649	5.850000e+00	1.406690e-03	
650	5.900000e+00	1.407737e-03	
651	5.950000e+00	1.408854e-03	
652	6.000000e+00	1.410051e-03	
653	6.050000e+00	1.411336e-03	
654	6.100000e+00	1.412718e-03	
655	6.150000e+00	1.414206e-03	
656	6.200000e+00	1.415810e-03	
657	6.250000e+00	1.417540e-03	
658	6.300000e+00	1.419408e-03	
659	6.350000e+00	1.421424e-03	
660	6.400000e+00	1.423601e-03	
661	6.450000e+00	1.425951e-03	
662	6.500000e+00	1.428487e-03	
663	6.550000e+00	1.431222e-03	
664	6.600000e+00	1.434170e-03	
665	0.000000e+00	-5.08354e-19	
666	5.000000e-02	5.696725e-05	
667	1.000000e-01	1.127066e-04	
668	1.500000e-01	1.672790e-04	
669	2.000000e-01	2.207104e-04	
670	2.500000e-01	2.730169e-04	
671	3.000000e-01	3.242120e-04	
672	3.500000e-01	3.743082e-04	
673	4.000000e-01	4.233179e-04	
674	4.500000e-01	4.712530e-04	
675	5.000000e-01	5.181256e-04	
676	5.500000e-01	5.639472e-04	
677	6.000000e-01	6.087296e-04	
678	6.500000e-01	6.524842e-04	
679	7.000000e-01	6.952223e-04	
680	7.500000e-01	7.369552e-04	
681	8.000000e-01	7.776939e-04	
682	8.500000e-01	8.174492e-04	
683	9.000000e-01	8.562321e-04	
684	9.500000e-01	8.940531e-04	
685	1.000000e+00	9.309228e-04	
686	1.050000e+00	9.668515e-04	
687	1.100000e+00	1.001850e-03	
688	1.150000e+00	1.035927e-03	
689	1.200000e+00	1.069094e-03	
690	1.250000e+00	1.101360e-03	
691	1.300000e+00	1.132736e-03	
692	1.350000e+00	1.163230e-03	

Index   v-sweep         -i(vds)         
--------------------------------------------------------------------------------
693	1.400000e+00	1.192852e-03	
694	1.450000e+00	1.221612e-03	
695	1.500000e+00	1.249519e-03	
696	1.550000e+00	1.276582e-03	
697	1.600000e+00	1.302810e-03	
698	1.650000e+00	1.328212e-03	
699	1.700000e+00	1.352796e-03	
700	1.750000e+00	1.376572e-03	
701	1.800000e+00	1.399547e-03	
702	1.850000e+00	1.421731e-03	
703	1.900000e+00	1.443130e-03	
704	1.950000e+00	1.463753e-03	
705	2.000000e+00	1.483607e-03	
706	2.050000e+00	1.502701e-03	
707	2.100000e+00	1.521040e-03	
708	2.150000e+00	1.538631e-03	
709	2.200000e+00	1.555479e-03	
710	2.250000e+00	1.571591e-03	
711	2.300000e+00	1.586968e-03	
712	2.350000e+00	1.601614e-03	
713	2.400000e+00	1.615528e-03	
714	2.450000e+00	1.628707e-03	
715	2.500000e+00	1.641144e-03	
716	2.550000e+00	1.652827e-03	
717	2.600000e+00	1.663740e-03	
718	2.650000e+00	1.673865e-03	
719	2.700000e+00	1.683187e-03	
720	2.750000e+00	1.691701e-03	
721	2.800000e+00	1.699422e-03	
722	2.850000e+00	1.706387e-03	
723	2.900000e+00	1.712655e-03	
724	2.950000e+00	1.718297e-03	
725	3.000000e+00	1.723389e-03	
726	3.050000e+00	1.728004e-03	
727	3.100000e+00	1.732208e-03	
728	3.150000e+00	1.736056e-03	
729	3.200000e+00	1.739597e-03	
730	3.250000e+00	1.742872e-03	
731	3.300000e+00	1.745916e-03	
732	3.350000e+00	1.748757e-03	
733	3.400000e+00	1.751419e-03	
734	3.450000e+00	1.753923e-03	
735	3.500000e+00	1.756285e-03	
736	3.550000e+00	1.758521e-03	
737	3.600000e+00	1.760643e-03	
738	3.650000e+00	1.762661e-03	
739	3.700000e+00	1.764587e-03	
740	3.750000e+00	1.766427e-03	
741	3.800000e+00	1.768189e-03	
742	3.850000e+00	1.769880e-03	
743	3.900000e+00	1.771504e-03	
744	3.950000e+00	1.773068e-03	
745	4.000000e+00	1.774575e-03	
746	4.050000e+00	1.776030e-03	
747	4.100000e+00	1.777436e-03	
748	4.150000e+00	1.778796e-03	
749	4.200000e+00	1.780113e-03	
750	4.250000e+00	1.781391e-03	

Index   v-sweep         -i(vds)         
--------------------------------------------------------------------------------
751	4.300000e+00	1.782631e-03	
752	4.350000e+00	1.783835e-03	
753	4.400000e+00	1.785006e-03	
754	4.450000e+00	1.786146e-03	
755	4.500000e+00	1.787256e-03	
756	4.550000e+00	1.788338e-03	
757	4.600000e+00	1.789393e-03	
758	4.650000e+00	1.790422e-03	
759	4.700000e+00	1.791428e-03	
760	4.750000e+00	1.792410e-03	
761	4.800000e+00	1.793371e-03	
762	4.850000e+00	1.794311e-03	
763	4.900000e+00	1.795232e-03	
764	4.950000e+00	1.796134e-03	
765	5.000000e+00	1.797018e-03	
766	5.050000e+00	1.797886e-03	
767	5.100000e+00	1.798738e-03	
768	5.150000e+00	1.799576e-03	
769	5.200000e+00	1.800400e-03	
770	5.250000e+00	1.801212e-03	
771	5.300000e+00	1.802013e-03	
772	5.350000e+00	1.802805e-03	
773	5.400000e+00	1.803588e-03	
774	5.450000e+00	1.804365e-03	
775	5.500000e+00	1.805137e-03	
776	5.550000e+00	1.805907e-03	
777	5.600000e+00	1.806676e-03	
778	5.650000e+00	1.807448e-03	
779	5.700000e+00	1.808225e-03	
780	5.750000e+00	1.809010e-03	
781	5.800000e+00	1.809806e-03	
782	5.850000e+00	1.810619e-03	
783	5.900000e+00	1.811450e-03	
784	5.950000e+00	1.812307e-03	
785	6.000000e+00	1.813192e-03	
786	6.050000e+00	1.814113e-03	
787	6.100000e+00	1.815074e-03	
788	6.150000e+00	1.816083e-03	
789	6.200000e+00	1.817146e-03	
790	6.250000e+00	1.818271e-03	
791	6.300000e+00	1.819466e-03	
792	6.350000e+00	1.820740e-03	
793	6.400000e+00	1.822103e-03	
794	6.450000e+00	1.823563e-03	
795	6.500000e+00	1.825132e-03	
796	6.550000e+00	1.826821e-03	
797	6.600000e+00	1.828642e-03	
Note: No ".plot", ".print", or ".fourier" lines; no simulations run
