
Note: Compatibility modes selected: hs

Warning: m=xx on .subckt line will override multiplier m hierarchy!


Circuit: ***************************

Doing analysis at TEMP = 125.000000 and TNOM = 125.000000


No. of Data Rows : 798
                          ***************************
                          DC transfer characteristic  Mon Jan  9 13:58:37  2023
--------------------------------------------------------------------------------
Index   v-sweep         -i(vds)         
--------------------------------------------------------------------------------
0	0.000000e+00	-6.19867e-25	
1	5.000000e-02	2.877368e-06	
2	1.000000e-01	5.200251e-06	
3	1.500000e-01	6.996586e-06	
4	2.000000e-01	8.295693e-06	
5	2.500000e-01	9.153626e-06	
6	3.000000e-01	9.686592e-06	
7	3.500000e-01	1.004485e-05	
8	4.000000e-01	1.032563e-05	
9	4.500000e-01	1.056777e-05	
10	5.000000e-01	1.078603e-05	
11	5.500000e-01	1.098729e-05	
12	6.000000e-01	1.117550e-05	
13	6.500000e-01	1.135324e-05	
14	7.000000e-01	1.152234e-05	
15	7.500000e-01	1.168418e-05	
16	8.000000e-01	1.183982e-05	
17	8.500000e-01	1.199011e-05	
18	9.000000e-01	1.213573e-05	
19	9.500000e-01	1.227724e-05	
20	1.000000e+00	1.241511e-05	
21	1.050000e+00	1.254974e-05	
22	1.100000e+00	1.268146e-05	
23	1.150000e+00	1.281056e-05	
24	1.200000e+00	1.293728e-05	
25	1.250000e+00	1.306184e-05	
26	1.300000e+00	1.318442e-05	
27	1.350000e+00	1.330521e-05	
28	1.400000e+00	1.342433e-05	
29	1.450000e+00	1.354192e-05	
30	1.500000e+00	1.365810e-05	
31	1.550000e+00	1.377298e-05	
32	1.600000e+00	1.388663e-05	
33	1.650000e+00	1.399916e-05	
34	1.700000e+00	1.411063e-05	
35	1.750000e+00	1.422111e-05	
36	1.800000e+00	1.433067e-05	
37	1.850000e+00	1.443937e-05	
38	1.900000e+00	1.454726e-05	
39	1.950000e+00	1.465438e-05	
40	2.000000e+00	1.476078e-05	
41	2.050000e+00	1.486651e-05	
42	2.100000e+00	1.497159e-05	
43	2.150000e+00	1.507607e-05	
44	2.200000e+00	1.517998e-05	
45	2.250000e+00	1.528334e-05	
46	2.300000e+00	1.538620e-05	
47	2.350000e+00	1.548856e-05	
48	2.400000e+00	1.559046e-05	
49	2.450000e+00	1.569192e-05	
50	2.500000e+00	1.579297e-05	
51	2.550000e+00	1.589362e-05	
52	2.600000e+00	1.599390e-05	
53	2.650000e+00	1.609383e-05	
54	2.700000e+00	1.619342e-05	

Index   v-sweep         -i(vds)         
--------------------------------------------------------------------------------
55	2.750000e+00	1.629270e-05	
56	2.800000e+00	1.639169e-05	
57	2.850000e+00	1.649041e-05	
58	2.900000e+00	1.658887e-05	
59	2.950000e+00	1.668711e-05	
60	3.000000e+00	1.678514e-05	
61	3.050000e+00	1.688300e-05	
62	3.100000e+00	1.698070e-05	
63	3.150000e+00	1.707828e-05	
64	3.200000e+00	1.717577e-05	
65	3.250000e+00	1.727320e-05	
66	3.300000e+00	1.737062e-05	
67	3.350000e+00	1.746806e-05	
68	3.400000e+00	1.756556e-05	
69	3.450000e+00	1.766319e-05	
70	3.500000e+00	1.776099e-05	
71	3.550000e+00	1.785903e-05	
72	3.600000e+00	1.795736e-05	
73	3.650000e+00	1.805605e-05	
74	3.700000e+00	1.815520e-05	
75	3.750000e+00	1.825487e-05	
76	3.800000e+00	1.835516e-05	
77	3.850000e+00	1.845616e-05	
78	3.900000e+00	1.855798e-05	
79	3.950000e+00	1.866074e-05	
80	4.000000e+00	1.876454e-05	
81	4.050000e+00	1.886953e-05	
82	4.100000e+00	1.897583e-05	
83	4.150000e+00	1.908359e-05	
84	4.200000e+00	1.919297e-05	
85	4.250000e+00	1.930413e-05	
86	4.300000e+00	1.941724e-05	
87	4.350000e+00	1.953249e-05	
88	4.400000e+00	1.965007e-05	
89	4.450000e+00	1.977019e-05	
90	4.500000e+00	1.989305e-05	
91	4.550000e+00	2.001888e-05	
92	4.600000e+00	2.014792e-05	
93	4.650000e+00	2.028040e-05	
94	4.700000e+00	2.041659e-05	
95	4.750000e+00	2.055674e-05	
96	4.800000e+00	2.070113e-05	
97	4.850000e+00	2.085006e-05	
98	4.900000e+00	2.100381e-05	
99	4.950000e+00	2.116269e-05	
100	5.000000e+00	2.132702e-05	
101	5.050000e+00	2.149713e-05	
102	5.100000e+00	2.167336e-05	
103	5.150000e+00	2.185606e-05	
104	5.200000e+00	2.204558e-05	
105	5.250000e+00	2.224229e-05	
106	5.300000e+00	2.244658e-05	
107	5.350000e+00	2.265884e-05	
108	5.400000e+00	2.287946e-05	
109	5.450000e+00	2.310885e-05	
110	5.500000e+00	2.334743e-05	
111	5.550000e+00	2.359563e-05	
112	5.600000e+00	2.385389e-05	

Index   v-sweep         -i(vds)         
--------------------------------------------------------------------------------
113	5.650000e+00	2.412264e-05	
114	5.700000e+00	2.440236e-05	
115	5.750000e+00	2.469349e-05	
116	5.800000e+00	2.499652e-05	
117	5.850000e+00	2.531192e-05	
118	5.900000e+00	2.564018e-05	
119	5.950000e+00	2.598180e-05	
120	6.000000e+00	2.633727e-05	
121	6.050000e+00	2.670712e-05	
122	6.100000e+00	2.709186e-05	
123	6.150000e+00	2.749202e-05	
124	6.200000e+00	2.790813e-05	
125	6.250000e+00	2.834072e-05	
126	6.300000e+00	2.879034e-05	
127	6.350000e+00	2.925755e-05	
128	6.400000e+00	2.974290e-05	
129	6.450000e+00	3.024695e-05	
130	6.500000e+00	3.077028e-05	
131	6.550000e+00	3.131345e-05	
132	6.600000e+00	3.187704e-05	
133	0.000000e+00	-1.22305e-24	
134	5.000000e-02	8.701637e-06	
135	1.000000e-01	1.681058e-05	
136	1.500000e-01	2.434932e-05	
137	2.000000e-01	3.133277e-05	
138	2.500000e-01	3.777369e-05	
139	3.000000e-01	4.368413e-05	
140	3.500000e-01	4.907588e-05	
141	4.000000e-01	5.396067e-05	
142	4.500000e-01	5.835037e-05	
143	5.000000e-01	6.225727e-05	
144	5.500000e-01	6.569473e-05	
145	6.000000e-01	6.867833e-05	
146	6.500000e-01	7.122835e-05	
147	7.000000e-01	7.337416e-05	
148	7.500000e-01	7.515986e-05	
149	8.000000e-01	7.664543e-05	
150	8.500000e-01	7.789674e-05	
151	9.000000e-01	7.897150e-05	
152	9.500000e-01	7.991305e-05	
153	1.000000e+00	8.075210e-05	
154	1.050000e+00	8.151038e-05	
155	1.100000e+00	8.220356e-05	
156	1.150000e+00	8.284322e-05	
157	1.200000e+00	8.343818e-05	
158	1.250000e+00	8.399525e-05	
159	1.300000e+00	8.451981e-05	
160	1.350000e+00	8.501619e-05	
161	1.400000e+00	8.548791e-05	
162	1.450000e+00	8.593786e-05	
163	1.500000e+00	8.636849e-05	
164	1.550000e+00	8.678184e-05	
165	1.600000e+00	8.717964e-05	
166	1.650000e+00	8.756338e-05	
167	1.700000e+00	8.793435e-05	
168	1.750000e+00	8.829368e-05	
169	1.800000e+00	8.864235e-05	
170	1.850000e+00	8.898121e-05	

Index   v-sweep         -i(vds)         
--------------------------------------------------------------------------------
171	1.900000e+00	8.931103e-05	
172	1.950000e+00	8.963249e-05	
173	2.000000e+00	8.994619e-05	
174	2.050000e+00	9.025268e-05	
175	2.100000e+00	9.055244e-05	
176	2.150000e+00	9.084592e-05	
177	2.200000e+00	9.113351e-05	
178	2.250000e+00	9.141558e-05	
179	2.300000e+00	9.169245e-05	
180	2.350000e+00	9.196444e-05	
181	2.400000e+00	9.223181e-05	
182	2.450000e+00	9.249483e-05	
183	2.500000e+00	9.275371e-05	
184	2.550000e+00	9.300869e-05	
185	2.600000e+00	9.325997e-05	
186	2.650000e+00	9.350771e-05	
187	2.700000e+00	9.375211e-05	
188	2.750000e+00	9.399332e-05	
189	2.800000e+00	9.423150e-05	
190	2.850000e+00	9.446677e-05	
191	2.900000e+00	9.469929e-05	
192	2.950000e+00	9.492917e-05	
193	3.000000e+00	9.515654e-05	
194	3.050000e+00	9.538152e-05	
195	3.100000e+00	9.560422e-05	
196	3.150000e+00	9.582475e-05	
197	3.200000e+00	9.604322e-05	
198	3.250000e+00	9.625975e-05	
199	3.300000e+00	9.647445e-05	
200	3.350000e+00	9.668744e-05	
201	3.400000e+00	9.689883e-05	
202	3.450000e+00	9.710875e-05	
203	3.500000e+00	9.731734e-05	
204	3.550000e+00	9.752474e-05	
205	3.600000e+00	9.773110e-05	
206	3.650000e+00	9.793659e-05	
207	3.700000e+00	9.814139e-05	
208	3.750000e+00	9.834569e-05	
209	3.800000e+00	9.854970e-05	
210	3.850000e+00	9.875366e-05	
211	3.900000e+00	9.895780e-05	
212	3.950000e+00	9.916242e-05	
213	4.000000e+00	9.936779e-05	
214	4.050000e+00	9.957424e-05	
215	4.100000e+00	9.978213e-05	
216	4.150000e+00	9.999182e-05	
217	4.200000e+00	1.002037e-04	
218	4.250000e+00	1.004183e-04	
219	4.300000e+00	1.006359e-04	
220	4.350000e+00	1.008572e-04	
221	4.400000e+00	1.010826e-04	
222	4.450000e+00	1.013128e-04	
223	4.500000e+00	1.015483e-04	
224	4.550000e+00	1.017898e-04	
225	4.600000e+00	1.020379e-04	
226	4.650000e+00	1.022935e-04	
227	4.700000e+00	1.025572e-04	
228	4.750000e+00	1.028299e-04	

Index   v-sweep         -i(vds)         
--------------------------------------------------------------------------------
229	4.800000e+00	1.031124e-04	
230	4.850000e+00	1.034055e-04	
231	4.900000e+00	1.037103e-04	
232	4.950000e+00	1.040277e-04	
233	5.000000e+00	1.043588e-04	
234	5.050000e+00	1.047044e-04	
235	5.100000e+00	1.050658e-04	
236	5.150000e+00	1.054441e-04	
237	5.200000e+00	1.058405e-04	
238	5.250000e+00	1.062561e-04	
239	5.300000e+00	1.066923e-04	
240	5.350000e+00	1.071503e-04	
241	5.400000e+00	1.076314e-04	
242	5.450000e+00	1.081371e-04	
243	5.500000e+00	1.086687e-04	
244	5.550000e+00	1.092276e-04	
245	5.600000e+00	1.098155e-04	
246	5.650000e+00	1.104336e-04	
247	5.700000e+00	1.110837e-04	
248	5.750000e+00	1.117673e-04	
249	5.800000e+00	1.124860e-04	
250	5.850000e+00	1.132414e-04	
251	5.900000e+00	1.140352e-04	
252	5.950000e+00	1.148692e-04	
253	6.000000e+00	1.157449e-04	
254	6.050000e+00	1.166642e-04	
255	6.100000e+00	1.176289e-04	
256	6.150000e+00	1.186407e-04	
257	6.200000e+00	1.197015e-04	
258	6.250000e+00	1.208130e-04	
259	6.300000e+00	1.219772e-04	
260	6.350000e+00	1.231959e-04	
261	6.400000e+00	1.244710e-04	
262	6.450000e+00	1.258044e-04	
263	6.500000e+00	1.271981e-04	
264	6.550000e+00	1.286539e-04	
265	6.600000e+00	1.301737e-04	
266	0.000000e+00	-1.03400e-21	
267	5.000000e-02	1.281629e-05	
268	1.000000e-01	2.505079e-05	
269	1.500000e-01	3.672416e-05	
270	2.000000e-01	4.784993e-05	
271	2.500000e-01	5.843955e-05	
272	3.000000e-01	6.850374e-05	
273	3.500000e-01	7.805285e-05	
274	4.000000e-01	8.709701e-05	
275	4.500000e-01	9.564612e-05	
276	5.000000e-01	1.037099e-04	
277	5.500000e-01	1.112979e-04	
278	6.000000e-01	1.184195e-04	
279	6.500000e-01	1.250839e-04	
280	7.000000e-01	1.313002e-04	
281	7.500000e-01	1.370774e-04	
282	8.000000e-01	1.424245e-04	
283	8.500000e-01	1.473505e-04	
284	9.000000e-01	1.518642e-04	
285	9.500000e-01	1.559750e-04	
286	1.000000e+00	1.596925e-04	

Index   v-sweep         -i(vds)         
--------------------------------------------------------------------------------
287	1.050000e+00	1.630274e-04	
288	1.100000e+00	1.659930e-04	
289	1.150000e+00	1.686073e-04	
290	1.200000e+00	1.708971e-04	
291	1.250000e+00	1.728985e-04	
292	1.300000e+00	1.746542e-04	
293	1.350000e+00	1.762061e-04	
294	1.400000e+00	1.775913e-04	
295	1.450000e+00	1.788402e-04	
296	1.500000e+00	1.799766e-04	
297	1.550000e+00	1.810194e-04	
298	1.600000e+00	1.819833e-04	
299	1.650000e+00	1.828803e-04	
300	1.700000e+00	1.837195e-04	
301	1.750000e+00	1.845087e-04	
302	1.800000e+00	1.852541e-04	
303	1.850000e+00	1.859608e-04	
304	1.900000e+00	1.866331e-04	
305	1.950000e+00	1.872748e-04	
306	2.000000e+00	1.878889e-04	
307	2.050000e+00	1.884780e-04	
308	2.100000e+00	1.890446e-04	
309	2.150000e+00	1.895905e-04	
310	2.200000e+00	1.901175e-04	
311	2.250000e+00	1.906271e-04	
312	2.300000e+00	1.911208e-04	
313	2.350000e+00	1.915997e-04	
314	2.400000e+00	1.920648e-04	
315	2.450000e+00	1.925173e-04	
316	2.500000e+00	1.929578e-04	
317	2.550000e+00	1.933872e-04	
318	2.600000e+00	1.938063e-04	
319	2.650000e+00	1.942155e-04	
320	2.700000e+00	1.946156e-04	
321	2.750000e+00	1.950071e-04	
322	2.800000e+00	1.953905e-04	
323	2.850000e+00	1.957661e-04	
324	2.900000e+00	1.961345e-04	
325	2.950000e+00	1.964959e-04	
326	3.000000e+00	1.968508e-04	
327	3.050000e+00	1.971995e-04	
328	3.100000e+00	1.975423e-04	
329	3.150000e+00	1.978795e-04	
330	3.200000e+00	1.982113e-04	
331	3.250000e+00	1.985379e-04	
332	3.300000e+00	1.988597e-04	
333	3.350000e+00	1.991769e-04	
334	3.400000e+00	1.994896e-04	
335	3.450000e+00	1.997981e-04	
336	3.500000e+00	2.001026e-04	
337	3.550000e+00	2.004033e-04	
338	3.600000e+00	2.007003e-04	
339	3.650000e+00	2.009940e-04	
340	3.700000e+00	2.012844e-04	
341	3.750000e+00	2.015719e-04	
342	3.800000e+00	2.018566e-04	
343	3.850000e+00	2.021388e-04	
344	3.900000e+00	2.024187e-04	

Index   v-sweep         -i(vds)         
--------------------------------------------------------------------------------
345	3.950000e+00	2.026966e-04	
346	4.000000e+00	2.029729e-04	
347	4.050000e+00	2.032477e-04	
348	4.100000e+00	2.035216e-04	
349	4.150000e+00	2.037947e-04	
350	4.200000e+00	2.040677e-04	
351	4.250000e+00	2.043408e-04	
352	4.300000e+00	2.046147e-04	
353	4.350000e+00	2.048898e-04	
354	4.400000e+00	2.051668e-04	
355	4.450000e+00	2.054462e-04	
356	4.500000e+00	2.057288e-04	
357	4.550000e+00	2.060152e-04	
358	4.600000e+00	2.063064e-04	
359	4.650000e+00	2.066032e-04	
360	4.700000e+00	2.069064e-04	
361	4.750000e+00	2.072172e-04	
362	4.800000e+00	2.075365e-04	
363	4.850000e+00	2.078656e-04	
364	4.900000e+00	2.082055e-04	
365	4.950000e+00	2.085577e-04	
366	5.000000e+00	2.089234e-04	
367	5.050000e+00	2.093041e-04	
368	5.100000e+00	2.097013e-04	
369	5.150000e+00	2.101166e-04	
370	5.200000e+00	2.105516e-04	
371	5.250000e+00	2.110082e-04	
372	5.300000e+00	2.114880e-04	
373	5.350000e+00	2.119932e-04	
374	5.400000e+00	2.125255e-04	
375	5.450000e+00	2.130871e-04	
376	5.500000e+00	2.136801e-04	
377	5.550000e+00	2.143067e-04	
378	5.600000e+00	2.149693e-04	
379	5.650000e+00	2.156701e-04	
380	5.700000e+00	2.164117e-04	
381	5.750000e+00	2.171964e-04	
382	5.800000e+00	2.180270e-04	
383	5.850000e+00	2.189060e-04	
384	5.900000e+00	2.198361e-04	
385	5.950000e+00	2.208202e-04	
386	6.000000e+00	2.218610e-04	
387	6.050000e+00	2.229615e-04	
388	6.100000e+00	2.241246e-04	
389	6.150000e+00	2.253533e-04	
390	6.200000e+00	2.266506e-04	
391	6.250000e+00	2.280197e-04	
392	6.300000e+00	2.294636e-04	
393	6.350000e+00	2.309857e-04	
394	6.400000e+00	2.325891e-04	
395	6.450000e+00	2.342770e-04	
396	6.500000e+00	2.360529e-04	
397	6.550000e+00	2.379199e-04	
398	6.600000e+00	2.398816e-04	
399	0.000000e+00	5.069200e-21	
400	5.000000e-02	1.571840e-05	
401	1.000000e-01	3.088766e-05	
402	1.500000e-01	4.552624e-05	

Index   v-sweep         -i(vds)         
--------------------------------------------------------------------------------
403	2.000000e-01	5.964584e-05	
404	2.500000e-01	7.325619e-05	
405	3.000000e-01	8.636633e-05	
406	3.500000e-01	9.898498e-05	
407	4.000000e-01	1.111207e-04	
408	4.500000e-01	1.227819e-04	
409	5.000000e-01	1.339767e-04	
410	5.500000e-01	1.447133e-04	
411	6.000000e-01	1.549996e-04	
412	6.500000e-01	1.648433e-04	
413	7.000000e-01	1.742520e-04	
414	7.500000e-01	1.832333e-04	
415	8.000000e-01	1.917945e-04	
416	8.500000e-01	1.999429e-04	
417	9.000000e-01	2.076855e-04	
418	9.500000e-01	2.150295e-04	
419	1.000000e+00	2.219816e-04	
420	1.050000e+00	2.285487e-04	
421	1.100000e+00	2.347373e-04	
422	1.150000e+00	2.405540e-04	
423	1.200000e+00	2.460049e-04	
424	1.250000e+00	2.510958e-04	
425	1.300000e+00	2.558321e-04	
426	1.350000e+00	2.602184e-04	
427	1.400000e+00	2.642582e-04	
428	1.450000e+00	2.679543e-04	
429	1.500000e+00	2.713101e-04	
430	1.550000e+00	2.743326e-04	
431	1.600000e+00	2.770370e-04	
432	1.650000e+00	2.794489e-04	
433	1.700000e+00	2.816020e-04	
434	1.750000e+00	2.835324e-04	
435	1.800000e+00	2.852741e-04	
436	1.850000e+00	2.868569e-04	
437	1.900000e+00	2.883056e-04	
438	1.950000e+00	2.896404e-04	
439	2.000000e+00	2.908779e-04	
440	2.050000e+00	2.920315e-04	
441	2.100000e+00	2.931123e-04	
442	2.150000e+00	2.941292e-04	
443	2.200000e+00	2.950899e-04	
444	2.250000e+00	2.960006e-04	
445	2.300000e+00	2.968668e-04	
446	2.350000e+00	2.976930e-04	
447	2.400000e+00	2.984830e-04	
448	2.450000e+00	2.992403e-04	
449	2.500000e+00	2.999677e-04	
450	2.550000e+00	3.006678e-04	
451	2.600000e+00	3.013429e-04	
452	2.650000e+00	3.019950e-04	
453	2.700000e+00	3.026257e-04	
454	2.750000e+00	3.032368e-04	
455	2.800000e+00	3.038295e-04	
456	2.850000e+00	3.044051e-04	
457	2.900000e+00	3.049648e-04	
458	2.950000e+00	3.055096e-04	
459	3.000000e+00	3.060404e-04	
460	3.050000e+00	3.065581e-04	

Index   v-sweep         -i(vds)         
--------------------------------------------------------------------------------
461	3.100000e+00	3.070634e-04	
462	3.150000e+00	3.075571e-04	
463	3.200000e+00	3.080398e-04	
464	3.250000e+00	3.085120e-04	
465	3.300000e+00	3.089744e-04	
466	3.350000e+00	3.094275e-04	
467	3.400000e+00	3.098717e-04	
468	3.450000e+00	3.103074e-04	
469	3.500000e+00	3.107351e-04	
470	3.550000e+00	3.111552e-04	
471	3.600000e+00	3.115680e-04	
472	3.650000e+00	3.119738e-04	
473	3.700000e+00	3.123730e-04	
474	3.750000e+00	3.127659e-04	
475	3.800000e+00	3.131527e-04	
476	3.850000e+00	3.135339e-04	
477	3.900000e+00	3.139096e-04	
478	3.950000e+00	3.142801e-04	
479	4.000000e+00	3.146458e-04	
480	4.050000e+00	3.150069e-04	
481	4.100000e+00	3.153637e-04	
482	4.150000e+00	3.157166e-04	
483	4.200000e+00	3.160659e-04	
484	4.250000e+00	3.164120e-04	
485	4.300000e+00	3.167552e-04	
486	4.350000e+00	3.170960e-04	
487	4.400000e+00	3.174348e-04	
488	4.450000e+00	3.177721e-04	
489	4.500000e+00	3.181085e-04	
490	4.550000e+00	3.184446e-04	
491	4.600000e+00	3.187810e-04	
492	4.650000e+00	3.191184e-04	
493	4.700000e+00	3.194577e-04	
494	4.750000e+00	3.197996e-04	
495	4.800000e+00	3.201451e-04	
496	4.850000e+00	3.204953e-04	
497	4.900000e+00	3.208511e-04	
498	4.950000e+00	3.212139e-04	
499	5.000000e+00	3.215848e-04	
500	5.050000e+00	3.219652e-04	
501	5.100000e+00	3.223567e-04	
502	5.150000e+00	3.227607e-04	
503	5.200000e+00	3.231790e-04	
504	5.250000e+00	3.236133e-04	
505	5.300000e+00	3.240656e-04	
506	5.350000e+00	3.245379e-04	
507	5.400000e+00	3.250323e-04	
508	5.450000e+00	3.255511e-04	
509	5.500000e+00	3.260966e-04	
510	5.550000e+00	3.266712e-04	
511	5.600000e+00	3.272777e-04	
512	5.650000e+00	3.279187e-04	
513	5.700000e+00	3.285970e-04	
514	5.750000e+00	3.293157e-04	
515	5.800000e+00	3.300777e-04	
516	5.850000e+00	3.308864e-04	
517	5.900000e+00	3.317449e-04	
518	5.950000e+00	3.326566e-04	

Index   v-sweep         -i(vds)         
--------------------------------------------------------------------------------
519	6.000000e+00	3.336252e-04	
520	6.050000e+00	3.346542e-04	
521	6.100000e+00	3.357474e-04	
522	6.150000e+00	3.369085e-04	
523	6.200000e+00	3.381416e-04	
524	6.250000e+00	3.394506e-04	
525	6.300000e+00	3.408397e-04	
526	6.350000e+00	3.423130e-04	
527	6.400000e+00	3.438749e-04	
528	6.450000e+00	3.455297e-04	
529	6.500000e+00	3.472819e-04	
530	6.550000e+00	3.491359e-04	
531	6.600000e+00	3.510963e-04	
532	0.000000e+00	1.048179e-20	
533	5.000000e-02	1.768516e-05	
534	1.000000e-01	3.486519e-05	
535	1.500000e-01	5.155655e-05	
536	2.000000e-01	6.776915e-05	
537	2.500000e-01	8.351099e-05	
538	3.000000e-01	9.878945e-05	
539	3.500000e-01	1.136117e-04	
540	4.000000e-01	1.279846e-04	
541	4.500000e-01	1.419152e-04	
542	5.000000e-01	1.554101e-04	
543	5.500000e-01	1.684759e-04	
544	6.000000e-01	1.811193e-04	
545	6.500000e-01	1.933466e-04	
546	7.000000e-01	2.051642e-04	
547	7.500000e-01	2.165782e-04	
548	8.000000e-01	2.275947e-04	
549	8.500000e-01	2.382198e-04	
550	9.000000e-01	2.484592e-04	
551	9.500000e-01	2.583190e-04	
552	1.000000e+00	2.678047e-04	
553	1.050000e+00	2.769220e-04	
554	1.100000e+00	2.856765e-04	
555	1.150000e+00	2.940737e-04	
556	1.200000e+00	3.021189e-04	
557	1.250000e+00	3.098174e-04	
558	1.300000e+00	3.171744e-04	
559	1.350000e+00	3.241951e-04	
560	1.400000e+00	3.308844e-04	
561	1.450000e+00	3.372471e-04	
562	1.500000e+00	3.432876e-04	
563	1.550000e+00	3.490103e-04	
564	1.600000e+00	3.544187e-04	
565	1.650000e+00	3.595157e-04	
566	1.700000e+00	3.643029e-04	
567	1.750000e+00	3.687807e-04	
568	1.800000e+00	3.729472e-04	
569	1.850000e+00	3.767997e-04	
570	1.900000e+00	3.803365e-04	
571	1.950000e+00	3.835608e-04	
572	2.000000e+00	3.864843e-04	
573	2.050000e+00	3.891287e-04	
574	2.100000e+00	3.915220e-04	
575	2.150000e+00	3.936950e-04	
576	2.200000e+00	3.956774e-04	

Index   v-sweep         -i(vds)         
--------------------------------------------------------------------------------
577	2.250000e+00	3.974957e-04	
578	2.300000e+00	3.991728e-04	
579	2.350000e+00	4.007278e-04	
580	2.400000e+00	4.021770e-04	
581	2.450000e+00	4.035336e-04	
582	2.500000e+00	4.048091e-04	
583	2.550000e+00	4.060126e-04	
584	2.600000e+00	4.071523e-04	
585	2.650000e+00	4.082348e-04	
586	2.700000e+00	4.092660e-04	
587	2.750000e+00	4.102508e-04	
588	2.800000e+00	4.111934e-04	
589	2.850000e+00	4.120977e-04	
590	2.900000e+00	4.129668e-04	
591	2.950000e+00	4.138038e-04	
592	3.000000e+00	4.146110e-04	
593	3.050000e+00	4.153909e-04	
594	3.100000e+00	4.161453e-04	
595	3.150000e+00	4.168762e-04	
596	3.200000e+00	4.175850e-04	
597	3.250000e+00	4.182733e-04	
598	3.300000e+00	4.189424e-04	
599	3.350000e+00	4.195936e-04	
600	3.400000e+00	4.202277e-04	
601	3.450000e+00	4.208460e-04	
602	3.500000e+00	4.214493e-04	
603	3.550000e+00	4.220383e-04	
604	3.600000e+00	4.226140e-04	
605	3.650000e+00	4.231770e-04	
606	3.700000e+00	4.237279e-04	
607	3.750000e+00	4.242674e-04	
608	3.800000e+00	4.247960e-04	
609	3.850000e+00	4.253143e-04	
610	3.900000e+00	4.258227e-04	
611	3.950000e+00	4.263217e-04	
612	4.000000e+00	4.268118e-04	
613	4.050000e+00	4.272933e-04	
614	4.100000e+00	4.277666e-04	
615	4.150000e+00	4.282322e-04	
616	4.200000e+00	4.286905e-04	
617	4.250000e+00	4.291416e-04	
618	4.300000e+00	4.295862e-04	
619	4.350000e+00	4.300244e-04	
620	4.400000e+00	4.304567e-04	
621	4.450000e+00	4.308835e-04	
622	4.500000e+00	4.313051e-04	
623	4.550000e+00	4.317221e-04	
624	4.600000e+00	4.321348e-04	
625	4.650000e+00	4.325438e-04	
626	4.700000e+00	4.329496e-04	
627	4.750000e+00	4.333528e-04	
628	4.800000e+00	4.337540e-04	
629	4.850000e+00	4.341539e-04	
630	4.900000e+00	4.345533e-04	
631	4.950000e+00	4.349530e-04	
632	5.000000e+00	4.353540e-04	
633	5.050000e+00	4.357572e-04	
634	5.100000e+00	4.361638e-04	

Index   v-sweep         -i(vds)         
--------------------------------------------------------------------------------
635	5.150000e+00	4.365750e-04	
636	5.200000e+00	4.369920e-04	
637	5.250000e+00	4.374163e-04	
638	5.300000e+00	4.378495e-04	
639	5.350000e+00	4.382931e-04	
640	5.400000e+00	4.387491e-04	
641	5.450000e+00	4.392192e-04	
642	5.500000e+00	4.397056e-04	
643	5.550000e+00	4.402105e-04	
644	5.600000e+00	4.407362e-04	
645	5.650000e+00	4.412852e-04	
646	5.700000e+00	4.418602e-04	
647	5.750000e+00	4.424639e-04	
648	5.800000e+00	4.430994e-04	
649	5.850000e+00	4.437697e-04	
650	5.900000e+00	4.444781e-04	
651	5.950000e+00	4.452281e-04	
652	6.000000e+00	4.460232e-04	
653	6.050000e+00	4.468671e-04	
654	6.100000e+00	4.477638e-04	
655	6.150000e+00	4.487173e-04	
656	6.200000e+00	4.497319e-04	
657	6.250000e+00	4.508118e-04	
658	6.300000e+00	4.519616e-04	
659	6.350000e+00	4.531859e-04	
660	6.400000e+00	4.544895e-04	
661	6.450000e+00	4.558774e-04	
662	6.500000e+00	4.573545e-04	
663	6.550000e+00	4.589261e-04	
664	6.600000e+00	4.605974e-04	
665	0.000000e+00	-1.14888e-19	
666	5.000000e-02	1.894498e-05	
667	1.000000e-01	3.743261e-05	
668	1.500000e-01	5.547766e-05	
669	2.000000e-01	7.308851e-05	
670	2.500000e-01	9.027168e-05	
671	3.000000e-01	1.070331e-04	
672	3.500000e-01	1.233785e-04	
673	4.000000e-01	1.393135e-04	
674	4.500000e-01	1.548435e-04	
675	5.000000e-01	1.699741e-04	
676	5.500000e-01	1.847106e-04	
677	6.000000e-01	1.990583e-04	
678	6.500000e-01	2.130224e-04	
679	7.000000e-01	2.266080e-04	
680	7.500000e-01	2.398201e-04	
681	8.000000e-01	2.526639e-04	
682	8.500000e-01	2.651441e-04	
683	9.000000e-01	2.772656e-04	
684	9.500000e-01	2.890331e-04	
685	1.000000e+00	3.004514e-04	
686	1.050000e+00	3.115250e-04	
687	1.100000e+00	3.222586e-04	
688	1.150000e+00	3.326566e-04	
689	1.200000e+00	3.427235e-04	
690	1.250000e+00	3.524636e-04	
691	1.300000e+00	3.618813e-04	
692	1.350000e+00	3.709809e-04	

Index   v-sweep         -i(vds)         
--------------------------------------------------------------------------------
693	1.400000e+00	3.797665e-04	
694	1.450000e+00	3.882424e-04	
695	1.500000e+00	3.964126e-04	
696	1.550000e+00	4.042812e-04	
697	1.600000e+00	4.118522e-04	
698	1.650000e+00	4.191294e-04	
699	1.700000e+00	4.261167e-04	
700	1.750000e+00	4.328176e-04	
701	1.800000e+00	4.392358e-04	
702	1.850000e+00	4.453743e-04	
703	1.900000e+00	4.512360e-04	
704	1.950000e+00	4.568234e-04	
705	2.000000e+00	4.621378e-04	
706	2.050000e+00	4.671799e-04	
707	2.100000e+00	4.719485e-04	
708	2.150000e+00	4.764408e-04	
709	2.200000e+00	4.806520e-04	
710	2.250000e+00	4.845770e-04	
711	2.300000e+00	4.882123e-04	
712	2.350000e+00	4.915597e-04	
713	2.400000e+00	4.946291e-04	
714	2.450000e+00	4.974382e-04	
715	2.500000e+00	5.000103e-04	
716	2.550000e+00	5.023709e-04	
717	2.600000e+00	5.045451e-04	
718	2.650000e+00	5.065559e-04	
719	2.700000e+00	5.084239e-04	
720	2.750000e+00	5.101665e-04	
721	2.800000e+00	5.117989e-04	
722	2.850000e+00	5.133339e-04	
723	2.900000e+00	5.147825e-04	
724	2.950000e+00	5.161538e-04	
725	3.000000e+00	5.174559e-04	
726	3.050000e+00	5.186957e-04	
727	3.100000e+00	5.198791e-04	
728	3.150000e+00	5.210113e-04	
729	3.200000e+00	5.220966e-04	
730	3.250000e+00	5.231392e-04	
731	3.300000e+00	5.241424e-04	
732	3.350000e+00	5.251094e-04	
733	3.400000e+00	5.260428e-04	
734	3.450000e+00	5.269452e-04	
735	3.500000e+00	5.278186e-04	
736	3.550000e+00	5.286652e-04	
737	3.600000e+00	5.294867e-04	
738	3.650000e+00	5.302846e-04	
739	3.700000e+00	5.310605e-04	
740	3.750000e+00	5.318156e-04	
741	3.800000e+00	5.325512e-04	
742	3.850000e+00	5.332684e-04	
743	3.900000e+00	5.339682e-04	
744	3.950000e+00	5.346516e-04	
745	4.000000e+00	5.353194e-04	
746	4.050000e+00	5.359724e-04	
747	4.100000e+00	5.366114e-04	
748	4.150000e+00	5.372371e-04	
749	4.200000e+00	5.378500e-04	
750	4.250000e+00	5.384509e-04	

Index   v-sweep         -i(vds)         
--------------------------------------------------------------------------------
751	4.300000e+00	5.390402e-04	
752	4.350000e+00	5.396185e-04	
753	4.400000e+00	5.401863e-04	
754	4.450000e+00	5.407440e-04	
755	4.500000e+00	5.412923e-04	
756	4.550000e+00	5.418314e-04	
757	4.600000e+00	5.423618e-04	
758	4.650000e+00	5.428840e-04	
759	4.700000e+00	5.433984e-04	
760	4.750000e+00	5.439055e-04	
761	4.800000e+00	5.444056e-04	
762	4.850000e+00	5.448994e-04	
763	4.900000e+00	5.453873e-04	
764	4.950000e+00	5.458698e-04	
765	5.000000e+00	5.463475e-04	
766	5.050000e+00	5.468211e-04	
767	5.100000e+00	5.472912e-04	
768	5.150000e+00	5.477586e-04	
769	5.200000e+00	5.482242e-04	
770	5.250000e+00	5.486887e-04	
771	5.300000e+00	5.491532e-04	
772	5.350000e+00	5.496189e-04	
773	5.400000e+00	5.500868e-04	
774	5.450000e+00	5.505583e-04	
775	5.500000e+00	5.510349e-04	
776	5.550000e+00	5.515180e-04	
777	5.600000e+00	5.520094e-04	
778	5.650000e+00	5.525109e-04	
779	5.700000e+00	5.530245e-04	
780	5.750000e+00	5.535523e-04	
781	5.800000e+00	5.540967e-04	
782	5.850000e+00	5.546601e-04	
783	5.900000e+00	5.552452e-04	
784	5.950000e+00	5.558549e-04	
785	6.000000e+00	5.564920e-04	
786	6.050000e+00	5.571599e-04	
787	6.100000e+00	5.578620e-04	
788	6.150000e+00	5.586017e-04	
789	6.200000e+00	5.593830e-04	
790	6.250000e+00	5.602097e-04	
791	6.300000e+00	5.610861e-04	
792	6.350000e+00	5.620164e-04	
793	6.400000e+00	5.630054e-04	
794	6.450000e+00	5.640576e-04	
795	6.500000e+00	5.651781e-04	
796	6.550000e+00	5.663720e-04	
797	6.600000e+00	5.676446e-04	
Note: No ".plot", ".print", or ".fourier" lines; no simulations run
