
Note: Compatibility modes selected: hs

Warning: m=xx on .subckt line will override multiplier m hierarchy!


Circuit: ***************************

Doing analysis at TEMP = 25.000000 and TNOM = 25.000000


No. of Data Rows : 798
                          ***************************
                          DC transfer characteristic  Mon Jan  9 13:58:36  2023
--------------------------------------------------------------------------------
Index   v-sweep         -i(vds)         
--------------------------------------------------------------------------------
0	0.000000e+00	-2.03715e-24	
1	5.000000e-02	1.070730e-07	
2	1.000000e-01	1.948923e-07	
3	1.500000e-01	2.636499e-07	
4	2.000000e-01	3.137376e-07	
5	2.500000e-01	3.461715e-07	
6	3.000000e-01	3.636804e-07	
7	3.500000e-01	3.714854e-07	
8	4.000000e-01	3.748360e-07	
9	4.500000e-01	3.765030e-07	
10	5.000000e-01	3.775086e-07	
11	5.500000e-01	3.782166e-07	
12	6.000000e-01	3.787708e-07	
13	6.500000e-01	3.792362e-07	
14	7.000000e-01	3.796457e-07	
15	7.500000e-01	3.800173e-07	
16	8.000000e-01	3.803619e-07	
17	8.500000e-01	3.806865e-07	
18	9.000000e-01	3.809957e-07	
19	9.500000e-01	3.812926e-07	
20	1.000000e+00	3.815797e-07	
21	1.050000e+00	3.818586e-07	
22	1.100000e+00	3.821306e-07	
23	1.150000e+00	3.823968e-07	
24	1.200000e+00	3.826580e-07	
25	1.250000e+00	3.829148e-07	
26	1.300000e+00	3.831677e-07	
27	1.350000e+00	3.834172e-07	
28	1.400000e+00	3.836637e-07	
29	1.450000e+00	3.839075e-07	
30	1.500000e+00	3.841488e-07	
31	1.550000e+00	3.843878e-07	
32	1.600000e+00	3.846249e-07	
33	1.650000e+00	3.848600e-07	
34	1.700000e+00	3.850935e-07	
35	1.750000e+00	3.853254e-07	
36	1.800000e+00	3.855558e-07	
37	1.850000e+00	3.857848e-07	
38	1.900000e+00	3.860126e-07	
39	1.950000e+00	3.862393e-07	
40	2.000000e+00	3.864648e-07	
41	2.050000e+00	3.866893e-07	
42	2.100000e+00	3.869129e-07	
43	2.150000e+00	3.871355e-07	
44	2.200000e+00	3.873573e-07	
45	2.250000e+00	3.875783e-07	
46	2.300000e+00	3.877985e-07	
47	2.350000e+00	3.880181e-07	
48	2.400000e+00	3.882370e-07	
49	2.450000e+00	3.884553e-07	
50	2.500000e+00	3.886732e-07	
51	2.550000e+00	3.888905e-07	
52	2.600000e+00	3.891075e-07	
53	2.650000e+00	3.893242e-07	
54	2.700000e+00	3.895406e-07	

Index   v-sweep         -i(vds)         
--------------------------------------------------------------------------------
55	2.750000e+00	3.897570e-07	
56	2.800000e+00	3.899735e-07	
57	2.850000e+00	3.901901e-07	
58	2.900000e+00	3.904072e-07	
59	2.950000e+00	3.906250e-07	
60	3.000000e+00	3.908436e-07	
61	3.050000e+00	3.910634e-07	
62	3.100000e+00	3.912848e-07	
63	3.150000e+00	3.915082e-07	
64	3.200000e+00	3.917340e-07	
65	3.250000e+00	3.919628e-07	
66	3.300000e+00	3.921951e-07	
67	3.350000e+00	3.924317e-07	
68	3.400000e+00	3.926733e-07	
69	3.450000e+00	3.929207e-07	
70	3.500000e+00	3.931749e-07	
71	3.550000e+00	3.934369e-07	
72	3.600000e+00	3.937079e-07	
73	3.650000e+00	3.939891e-07	
74	3.700000e+00	3.942818e-07	
75	3.750000e+00	3.945876e-07	
76	3.800000e+00	3.949080e-07	
77	3.850000e+00	3.952448e-07	
78	3.900000e+00	3.955999e-07	
79	3.950000e+00	3.959751e-07	
80	4.000000e+00	3.963728e-07	
81	4.050000e+00	3.967951e-07	
82	4.100000e+00	3.972446e-07	
83	4.150000e+00	3.977236e-07	
84	4.200000e+00	3.982351e-07	
85	4.250000e+00	3.987818e-07	
86	4.300000e+00	3.993667e-07	
87	4.350000e+00	3.999931e-07	
88	4.400000e+00	4.006643e-07	
89	4.450000e+00	4.013837e-07	
90	4.500000e+00	4.021550e-07	
91	4.550000e+00	4.029820e-07	
92	4.600000e+00	4.038686e-07	
93	4.650000e+00	4.048189e-07	
94	4.700000e+00	4.058371e-07	
95	4.750000e+00	4.069277e-07	
96	4.800000e+00	4.080951e-07	
97	4.850000e+00	4.093441e-07	
98	4.900000e+00	4.106795e-07	
99	4.950000e+00	4.121061e-07	
100	5.000000e+00	4.136292e-07	
101	5.050000e+00	4.152539e-07	
102	5.100000e+00	4.169856e-07	
103	5.150000e+00	4.188298e-07	
104	5.200000e+00	4.207920e-07	
105	5.250000e+00	4.228781e-07	
106	5.300000e+00	4.250938e-07	
107	5.350000e+00	4.274451e-07	
108	5.400000e+00	4.299380e-07	
109	5.450000e+00	4.325787e-07	
110	5.500000e+00	4.353735e-07	
111	5.550000e+00	4.383286e-07	
112	5.600000e+00	4.414506e-07	

Index   v-sweep         -i(vds)         
--------------------------------------------------------------------------------
113	5.650000e+00	4.447460e-07	
114	5.700000e+00	4.482214e-07	
115	5.750000e+00	4.518834e-07	
116	5.800000e+00	4.557388e-07	
117	5.850000e+00	4.597944e-07	
118	5.900000e+00	4.640572e-07	
119	5.950000e+00	4.685340e-07	
120	6.000000e+00	4.732319e-07	
121	6.050000e+00	4.781579e-07	
122	6.100000e+00	4.833191e-07	
123	6.150000e+00	4.887226e-07	
124	6.200000e+00	4.943757e-07	
125	6.250000e+00	5.002855e-07	
126	6.300000e+00	5.064593e-07	
127	6.350000e+00	5.129043e-07	
128	6.400000e+00	5.196278e-07	
129	6.450000e+00	5.266372e-07	
130	6.500000e+00	5.339397e-07	
131	6.550000e+00	5.415427e-07	
132	6.600000e+00	5.494534e-07	
133	0.000000e+00	-1.36389e-21	
134	5.000000e-02	4.025162e-07	
135	1.000000e-01	7.848584e-07	
136	1.500000e-01	1.147117e-06	
137	2.000000e-01	1.489384e-06	
138	2.500000e-01	1.811747e-06	
139	3.000000e-01	2.114299e-06	
140	3.500000e-01	2.397128e-06	
141	4.000000e-01	2.660327e-06	
142	4.500000e-01	2.903986e-06	
143	5.000000e-01	3.128200e-06	
144	5.500000e-01	3.333064e-06	
145	6.000000e-01	3.518680e-06	
146	6.500000e-01	3.685158e-06	
147	7.000000e-01	3.832624e-06	
148	7.500000e-01	3.961232e-06	
149	8.000000e-01	4.071196e-06	
150	8.500000e-01	4.162835e-06	
151	9.000000e-01	4.236692e-06	
152	9.500000e-01	4.293727e-06	
153	1.000000e+00	4.335603e-06	
154	1.050000e+00	4.364868e-06	
155	1.100000e+00	4.384692e-06	
156	1.150000e+00	4.398128e-06	
157	1.200000e+00	4.407514e-06	
158	1.250000e+00	4.414380e-06	
159	1.300000e+00	4.419651e-06	
160	1.350000e+00	4.423878e-06	
161	1.400000e+00	4.427393e-06	
162	1.450000e+00	4.430404e-06	
163	1.500000e+00	4.433047e-06	
164	1.550000e+00	4.435410e-06	
165	1.600000e+00	4.437556e-06	
166	1.650000e+00	4.439531e-06	
167	1.700000e+00	4.441366e-06	
168	1.750000e+00	4.443086e-06	
169	1.800000e+00	4.444711e-06	
170	1.850000e+00	4.446254e-06	

Index   v-sweep         -i(vds)         
--------------------------------------------------------------------------------
171	1.900000e+00	4.447727e-06	
172	1.950000e+00	4.449141e-06	
173	2.000000e+00	4.450501e-06	
174	2.050000e+00	4.451816e-06	
175	2.100000e+00	4.453089e-06	
176	2.150000e+00	4.454325e-06	
177	2.200000e+00	4.455529e-06	
178	2.250000e+00	4.456703e-06	
179	2.300000e+00	4.457851e-06	
180	2.350000e+00	4.458973e-06	
181	2.400000e+00	4.460074e-06	
182	2.450000e+00	4.461154e-06	
183	2.500000e+00	4.462215e-06	
184	2.550000e+00	4.463258e-06	
185	2.600000e+00	4.464286e-06	
186	2.650000e+00	4.465298e-06	
187	2.700000e+00	4.466296e-06	
188	2.750000e+00	4.467282e-06	
189	2.800000e+00	4.468255e-06	
190	2.850000e+00	4.469217e-06	
191	2.900000e+00	4.470168e-06	
192	2.950000e+00	4.471109e-06	
193	3.000000e+00	4.472041e-06	
194	3.050000e+00	4.472964e-06	
195	3.100000e+00	4.473879e-06	
196	3.150000e+00	4.474786e-06	
197	3.200000e+00	4.475687e-06	
198	3.250000e+00	4.476582e-06	
199	3.300000e+00	4.477472e-06	
200	3.350000e+00	4.478357e-06	
201	3.400000e+00	4.479239e-06	
202	3.450000e+00	4.480119e-06	
203	3.500000e+00	4.480999e-06	
204	3.550000e+00	4.481880e-06	
205	3.600000e+00	4.482765e-06	
206	3.650000e+00	4.483655e-06	
207	3.700000e+00	4.484553e-06	
208	3.750000e+00	4.485464e-06	
209	3.800000e+00	4.486389e-06	
210	3.850000e+00	4.487334e-06	
211	3.900000e+00	4.488304e-06	
212	3.950000e+00	4.489304e-06	
213	4.000000e+00	4.490341e-06	
214	4.050000e+00	4.491421e-06	
215	4.100000e+00	4.492553e-06	
216	4.150000e+00	4.493746e-06	
217	4.200000e+00	4.495010e-06	
218	4.250000e+00	4.496356e-06	
219	4.300000e+00	4.497796e-06	
220	4.350000e+00	4.499344e-06	
221	4.400000e+00	4.501014e-06	
222	4.450000e+00	4.502822e-06	
223	4.500000e+00	4.504786e-06	
224	4.550000e+00	4.506925e-06	
225	4.600000e+00	4.509257e-06	
226	4.650000e+00	4.511806e-06	
227	4.700000e+00	4.514595e-06	
228	4.750000e+00	4.517647e-06	

Index   v-sweep         -i(vds)         
--------------------------------------------------------------------------------
229	4.800000e+00	4.520990e-06	
230	4.850000e+00	4.524651e-06	
231	4.900000e+00	4.528661e-06	
232	4.950000e+00	4.533049e-06	
233	5.000000e+00	4.537850e-06	
234	5.050000e+00	4.543098e-06	
235	5.100000e+00	4.548829e-06	
236	5.150000e+00	4.555081e-06	
237	5.200000e+00	4.561893e-06	
238	5.250000e+00	4.569308e-06	
239	5.300000e+00	4.577368e-06	
240	5.350000e+00	4.586118e-06	
241	5.400000e+00	4.595604e-06	
242	5.450000e+00	4.605874e-06	
243	5.500000e+00	4.616978e-06	
244	5.550000e+00	4.628966e-06	
245	5.600000e+00	4.641892e-06	
246	5.650000e+00	4.655809e-06	
247	5.700000e+00	4.670773e-06	
248	5.750000e+00	4.686841e-06	
249	5.800000e+00	4.704072e-06	
250	5.850000e+00	4.722525e-06	
251	5.900000e+00	4.742262e-06	
252	5.950000e+00	4.763345e-06	
253	6.000000e+00	4.785837e-06	
254	6.050000e+00	4.809803e-06	
255	6.100000e+00	4.835310e-06	
256	6.150000e+00	4.862424e-06	
257	6.200000e+00	4.891213e-06	
258	6.250000e+00	4.921747e-06	
259	6.300000e+00	4.954094e-06	
260	6.350000e+00	4.988327e-06	
261	6.400000e+00	5.024517e-06	
262	6.450000e+00	5.062736e-06	
263	6.500000e+00	5.103058e-06	
264	6.550000e+00	5.145556e-06	
265	6.600000e+00	5.190304e-06	
266	0.000000e+00	-1.15632e-31	
267	5.000000e-02	6.519237e-07	
268	1.000000e-01	1.284597e-06	
269	1.500000e-01	1.898107e-06	
270	2.000000e-01	2.492542e-06	
271	2.500000e-01	3.067987e-06	
272	3.000000e-01	3.624528e-06	
273	3.500000e-01	4.162252e-06	
274	4.000000e-01	4.681244e-06	
275	4.500000e-01	5.181587e-06	
276	5.000000e-01	5.663366e-06	
277	5.500000e-01	6.126664e-06	
278	6.000000e-01	6.571566e-06	
279	6.500000e-01	6.998153e-06	
280	7.000000e-01	7.406508e-06	
281	7.500000e-01	7.796713e-06	
282	8.000000e-01	8.168849e-06	
283	8.500000e-01	8.522998e-06	
284	9.000000e-01	8.859238e-06	
285	9.500000e-01	9.177652e-06	
286	1.000000e+00	9.478318e-06	

Index   v-sweep         -i(vds)         
--------------------------------------------------------------------------------
287	1.050000e+00	9.761317e-06	
288	1.100000e+00	1.002673e-05	
289	1.150000e+00	1.027463e-05	
290	1.200000e+00	1.050510e-05	
291	1.250000e+00	1.071823e-05	
292	1.300000e+00	1.091409e-05	
293	1.350000e+00	1.109278e-05	
294	1.400000e+00	1.125440e-05	
295	1.450000e+00	1.139905e-05	
296	1.500000e+00	1.152691e-05	
297	1.550000e+00	1.163817e-05	
298	1.600000e+00	1.173319e-05	
299	1.650000e+00	1.181253e-05	
300	1.700000e+00	1.187708e-05	
301	1.750000e+00	1.192824e-05	
302	1.800000e+00	1.196789e-05	
303	1.850000e+00	1.199824e-05	
304	1.900000e+00	1.202148e-05	
305	1.950000e+00	1.203950e-05	
306	2.000000e+00	1.205375e-05	
307	2.050000e+00	1.206530e-05	
308	2.100000e+00	1.207487e-05	
309	2.150000e+00	1.208299e-05	
310	2.200000e+00	1.209000e-05	
311	2.250000e+00	1.209617e-05	
312	2.300000e+00	1.210166e-05	
313	2.350000e+00	1.210663e-05	
314	2.400000e+00	1.211116e-05	
315	2.450000e+00	1.211534e-05	
316	2.500000e+00	1.211922e-05	
317	2.550000e+00	1.212285e-05	
318	2.600000e+00	1.212626e-05	
319	2.650000e+00	1.212948e-05	
320	2.700000e+00	1.213254e-05	
321	2.750000e+00	1.213547e-05	
322	2.800000e+00	1.213826e-05	
323	2.850000e+00	1.214095e-05	
324	2.900000e+00	1.214353e-05	
325	2.950000e+00	1.214603e-05	
326	3.000000e+00	1.214845e-05	
327	3.050000e+00	1.215079e-05	
328	3.100000e+00	1.215307e-05	
329	3.150000e+00	1.215528e-05	
330	3.200000e+00	1.215744e-05	
331	3.250000e+00	1.215955e-05	
332	3.300000e+00	1.216161e-05	
333	3.350000e+00	1.216362e-05	
334	3.400000e+00	1.216560e-05	
335	3.450000e+00	1.216754e-05	
336	3.500000e+00	1.216944e-05	
337	3.550000e+00	1.217131e-05	
338	3.600000e+00	1.217315e-05	
339	3.650000e+00	1.217496e-05	
340	3.700000e+00	1.217674e-05	
341	3.750000e+00	1.217850e-05	
342	3.800000e+00	1.218023e-05	
343	3.850000e+00	1.218194e-05	
344	3.900000e+00	1.218364e-05	

Index   v-sweep         -i(vds)         
--------------------------------------------------------------------------------
345	3.950000e+00	1.218531e-05	
346	4.000000e+00	1.218697e-05	
347	4.050000e+00	1.218862e-05	
348	4.100000e+00	1.219025e-05	
349	4.150000e+00	1.219188e-05	
350	4.200000e+00	1.219350e-05	
351	4.250000e+00	1.219513e-05	
352	4.300000e+00	1.219676e-05	
353	4.350000e+00	1.219840e-05	
354	4.400000e+00	1.220006e-05	
355	4.450000e+00	1.220175e-05	
356	4.500000e+00	1.220347e-05	
357	4.550000e+00	1.220523e-05	
358	4.600000e+00	1.220706e-05	
359	4.650000e+00	1.220896e-05	
360	4.700000e+00	1.221094e-05	
361	4.750000e+00	1.221304e-05	
362	4.800000e+00	1.221526e-05	
363	4.850000e+00	1.221763e-05	
364	4.900000e+00	1.222017e-05	
365	4.950000e+00	1.222292e-05	
366	5.000000e+00	1.222591e-05	
367	5.050000e+00	1.222916e-05	
368	5.100000e+00	1.223272e-05	
369	5.150000e+00	1.223663e-05	
370	5.200000e+00	1.224093e-05	
371	5.250000e+00	1.224568e-05	
372	5.300000e+00	1.225091e-05	
373	5.350000e+00	1.225670e-05	
374	5.400000e+00	1.226309e-05	
375	5.450000e+00	1.227016e-05	
376	5.500000e+00	1.227798e-05	
377	5.550000e+00	1.228661e-05	
378	5.600000e+00	1.229613e-05	
379	5.650000e+00	1.230662e-05	
380	5.700000e+00	1.231818e-05	
381	5.750000e+00	1.233089e-05	
382	5.800000e+00	1.234485e-05	
383	5.850000e+00	1.236016e-05	
384	5.900000e+00	1.237691e-05	
385	5.950000e+00	1.239523e-05	
386	6.000000e+00	1.241523e-05	
387	6.050000e+00	1.243701e-05	
388	6.100000e+00	1.246071e-05	
389	6.150000e+00	1.248645e-05	
390	6.200000e+00	1.251436e-05	
391	6.250000e+00	1.254459e-05	
392	6.300000e+00	1.257725e-05	
393	6.350000e+00	1.261251e-05	
394	6.400000e+00	1.265051e-05	
395	6.450000e+00	1.269140e-05	
396	6.500000e+00	1.273533e-05	
397	6.550000e+00	1.278247e-05	
398	6.600000e+00	1.283297e-05	
399	0.000000e+00	-4.99128e-31	
400	5.000000e-02	8.515611e-07	
401	1.000000e-01	1.685249e-06	
402	1.500000e-01	2.501140e-06	

Index   v-sweep         -i(vds)         
--------------------------------------------------------------------------------
403	2.000000e-01	3.299313e-06	
404	2.500000e-01	4.079845e-06	
405	3.000000e-01	4.842812e-06	
406	3.500000e-01	5.588291e-06	
407	4.000000e-01	6.316356e-06	
408	4.500000e-01	7.027085e-06	
409	5.000000e-01	7.720551e-06	
410	5.500000e-01	8.396829e-06	
411	6.000000e-01	9.055993e-06	
412	6.500000e-01	9.698117e-06	
413	7.000000e-01	1.032327e-05	
414	7.500000e-01	1.093154e-05	
415	8.000000e-01	1.152298e-05	
416	8.500000e-01	1.209767e-05	
417	9.000000e-01	1.265569e-05	
418	9.500000e-01	1.319710e-05	
419	1.000000e+00	1.372197e-05	
420	1.050000e+00	1.423038e-05	
421	1.100000e+00	1.472239e-05	
422	1.150000e+00	1.519808e-05	
423	1.200000e+00	1.565751e-05	
424	1.250000e+00	1.610076e-05	
425	1.300000e+00	1.652788e-05	
426	1.350000e+00	1.693895e-05	
427	1.400000e+00	1.733403e-05	
428	1.450000e+00	1.771320e-05	
429	1.500000e+00	1.807651e-05	
430	1.550000e+00	1.842403e-05	
431	1.600000e+00	1.875583e-05	
432	1.650000e+00	1.907196e-05	
433	1.700000e+00	1.937250e-05	
434	1.750000e+00	1.965750e-05	
435	1.800000e+00	1.992702e-05	
436	1.850000e+00	2.018111e-05	
437	1.900000e+00	2.041985e-05	
438	1.950000e+00	2.064327e-05	
439	2.000000e+00	2.085144e-05	
440	2.050000e+00	2.104440e-05	
441	2.100000e+00	2.122220e-05	
442	2.150000e+00	2.138490e-05	
443	2.200000e+00	2.153257e-05	
444	2.250000e+00	2.166528e-05	
445	2.300000e+00	2.178318e-05	
446	2.350000e+00	2.188649e-05	
447	2.400000e+00	2.197560e-05	
448	2.450000e+00	2.205115e-05	
449	2.500000e+00	2.211412e-05	
450	2.550000e+00	2.216583e-05	
451	2.600000e+00	2.220790e-05	
452	2.650000e+00	2.224204e-05	
453	2.700000e+00	2.226985e-05	
454	2.750000e+00	2.229273e-05	
455	2.800000e+00	2.231181e-05	
456	2.850000e+00	2.232795e-05	
457	2.900000e+00	2.234180e-05	
458	2.950000e+00	2.235386e-05	
459	3.000000e+00	2.236449e-05	
460	3.050000e+00	2.237398e-05	

Index   v-sweep         -i(vds)         
--------------------------------------------------------------------------------
461	3.100000e+00	2.238253e-05	
462	3.150000e+00	2.239032e-05	
463	3.200000e+00	2.239746e-05	
464	3.250000e+00	2.240406e-05	
465	3.300000e+00	2.241020e-05	
466	3.350000e+00	2.241595e-05	
467	3.400000e+00	2.242135e-05	
468	3.450000e+00	2.242645e-05	
469	3.500000e+00	2.243129e-05	
470	3.550000e+00	2.243589e-05	
471	3.600000e+00	2.244029e-05	
472	3.650000e+00	2.244450e-05	
473	3.700000e+00	2.244854e-05	
474	3.750000e+00	2.245244e-05	
475	3.800000e+00	2.245619e-05	
476	3.850000e+00	2.245982e-05	
477	3.900000e+00	2.246334e-05	
478	3.950000e+00	2.246675e-05	
479	4.000000e+00	2.247007e-05	
480	4.050000e+00	2.247330e-05	
481	4.100000e+00	2.247645e-05	
482	4.150000e+00	2.247952e-05	
483	4.200000e+00	2.248252e-05	
484	4.250000e+00	2.248545e-05	
485	4.300000e+00	2.248832e-05	
486	4.350000e+00	2.249114e-05	
487	4.400000e+00	2.249390e-05	
488	4.450000e+00	2.249661e-05	
489	4.500000e+00	2.249927e-05	
490	4.550000e+00	2.250189e-05	
491	4.600000e+00	2.250447e-05	
492	4.650000e+00	2.250702e-05	
493	4.700000e+00	2.250953e-05	
494	4.750000e+00	2.251201e-05	
495	4.800000e+00	2.251447e-05	
496	4.850000e+00	2.251691e-05	
497	4.900000e+00	2.251933e-05	
498	4.950000e+00	2.252175e-05	
499	5.000000e+00	2.252417e-05	
500	5.050000e+00	2.252660e-05	
501	5.100000e+00	2.252906e-05	
502	5.150000e+00	2.253154e-05	
503	5.200000e+00	2.253408e-05	
504	5.250000e+00	2.253668e-05	
505	5.300000e+00	2.253937e-05	
506	5.350000e+00	2.254217e-05	
507	5.400000e+00	2.254511e-05	
508	5.450000e+00	2.254821e-05	
509	5.500000e+00	2.255151e-05	
510	5.550000e+00	2.255504e-05	
511	5.600000e+00	2.255886e-05	
512	5.650000e+00	2.256300e-05	
513	5.700000e+00	2.256752e-05	
514	5.750000e+00	2.257248e-05	
515	5.800000e+00	2.257794e-05	
516	5.850000e+00	2.258397e-05	
517	5.900000e+00	2.259065e-05	
518	5.950000e+00	2.259806e-05	

Index   v-sweep         -i(vds)         
--------------------------------------------------------------------------------
519	6.000000e+00	2.260628e-05	
520	6.050000e+00	2.261542e-05	
521	6.100000e+00	2.262559e-05	
522	6.150000e+00	2.263688e-05	
523	6.200000e+00	2.264942e-05	
524	6.250000e+00	2.266334e-05	
525	6.300000e+00	2.267877e-05	
526	6.350000e+00	2.269586e-05	
527	6.400000e+00	2.271475e-05	
528	6.450000e+00	2.273560e-05	
529	6.500000e+00	2.275859e-05	
530	6.550000e+00	2.278389e-05	
531	6.600000e+00	2.281168e-05	
532	0.000000e+00	2.933112e-21	
533	5.000000e-02	1.003386e-06	
534	1.000000e-01	1.990494e-06	
535	1.500000e-01	2.961392e-06	
536	2.000000e-01	3.916144e-06	
537	2.500000e-01	4.854817e-06	
538	3.000000e-01	5.777475e-06	
539	3.500000e-01	6.684183e-06	
540	4.000000e-01	7.575006e-06	
541	4.500000e-01	8.450007e-06	
542	5.000000e-01	9.309251e-06	
543	5.500000e-01	1.015280e-05	
544	6.000000e-01	1.098072e-05	
545	6.500000e-01	1.179307e-05	
546	7.000000e-01	1.258991e-05	
547	7.500000e-01	1.337132e-05	
548	8.000000e-01	1.413734e-05	
549	8.500000e-01	1.488804e-05	
550	9.000000e-01	1.562348e-05	
551	9.500000e-01	1.634372e-05	
552	1.000000e+00	1.704883e-05	
553	1.050000e+00	1.773886e-05	
554	1.100000e+00	1.841387e-05	
555	1.150000e+00	1.907392e-05	
556	1.200000e+00	1.971908e-05	
557	1.250000e+00	2.034940e-05	
558	1.300000e+00	2.096494e-05	
559	1.350000e+00	2.156575e-05	
560	1.400000e+00	2.215191e-05	
561	1.450000e+00	2.272345e-05	
562	1.500000e+00	2.328045e-05	
563	1.550000e+00	2.382296e-05	
564	1.600000e+00	2.435103e-05	
565	1.650000e+00	2.486473e-05	
566	1.700000e+00	2.536410e-05	
567	1.750000e+00	2.584920e-05	
568	1.800000e+00	2.632009e-05	
569	1.850000e+00	2.677683e-05	
570	1.900000e+00	2.721946e-05	
571	1.950000e+00	2.764804e-05	
572	2.000000e+00	2.806263e-05	
573	2.050000e+00	2.846327e-05	
574	2.100000e+00	2.885002e-05	
575	2.150000e+00	2.922293e-05	
576	2.200000e+00	2.958205e-05	

Index   v-sweep         -i(vds)         
--------------------------------------------------------------------------------
577	2.250000e+00	2.992742e-05	
578	2.300000e+00	3.025911e-05	
579	2.350000e+00	3.057715e-05	
580	2.400000e+00	3.088159e-05	
581	2.450000e+00	3.117247e-05	
582	2.500000e+00	3.144983e-05	
583	2.550000e+00	3.171372e-05	
584	2.600000e+00	3.196417e-05	
585	2.650000e+00	3.220120e-05	
586	2.700000e+00	3.242485e-05	
587	2.750000e+00	3.263514e-05	
588	2.800000e+00	3.283208e-05	
589	2.850000e+00	3.301569e-05	
590	2.900000e+00	3.318596e-05	
591	2.950000e+00	3.334289e-05	
592	3.000000e+00	3.348650e-05	
593	3.050000e+00	3.361681e-05	
594	3.100000e+00	3.373389e-05	
595	3.150000e+00	3.383791e-05	
596	3.200000e+00	3.392918e-05	
597	3.250000e+00	3.400823e-05	
598	3.300000e+00	3.407588e-05	
599	3.350000e+00	3.413320e-05	
600	3.400000e+00	3.418147e-05	
601	3.450000e+00	3.422205e-05	
602	3.500000e+00	3.425625e-05	
603	3.550000e+00	3.428526e-05	
604	3.600000e+00	3.431008e-05	
605	3.650000e+00	3.433151e-05	
606	3.700000e+00	3.435023e-05	
607	3.750000e+00	3.436674e-05	
608	3.800000e+00	3.438144e-05	
609	3.850000e+00	3.439465e-05	
610	3.900000e+00	3.440662e-05	
611	3.950000e+00	3.441756e-05	
612	4.000000e+00	3.442762e-05	
613	4.050000e+00	3.443692e-05	
614	4.100000e+00	3.444558e-05	
615	4.150000e+00	3.445368e-05	
616	4.200000e+00	3.446129e-05	
617	4.250000e+00	3.446846e-05	
618	4.300000e+00	3.447526e-05	
619	4.350000e+00	3.448172e-05	
620	4.400000e+00	3.448787e-05	
621	4.450000e+00	3.449376e-05	
622	4.500000e+00	3.449940e-05	
623	4.550000e+00	3.450481e-05	
624	4.600000e+00	3.451003e-05	
625	4.650000e+00	3.451506e-05	
626	4.700000e+00	3.451992e-05	
627	4.750000e+00	3.452462e-05	
628	4.800000e+00	3.452919e-05	
629	4.850000e+00	3.453362e-05	
630	4.900000e+00	3.453792e-05	
631	4.950000e+00	3.454212e-05	
632	5.000000e+00	3.454621e-05	
633	5.050000e+00	3.455020e-05	
634	5.100000e+00	3.455410e-05	

Index   v-sweep         -i(vds)         
--------------------------------------------------------------------------------
635	5.150000e+00	3.455791e-05	
636	5.200000e+00	3.456164e-05	
637	5.250000e+00	3.456530e-05	
638	5.300000e+00	3.456889e-05	
639	5.350000e+00	3.457241e-05	
640	5.400000e+00	3.457587e-05	
641	5.450000e+00	3.457929e-05	
642	5.500000e+00	3.458265e-05	
643	5.550000e+00	3.458597e-05	
644	5.600000e+00	3.458926e-05	
645	5.650000e+00	3.459252e-05	
646	5.700000e+00	3.459577e-05	
647	5.750000e+00	3.459901e-05	
648	5.800000e+00	3.460226e-05	
649	5.850000e+00	3.460554e-05	
650	5.900000e+00	3.460886e-05	
651	5.950000e+00	3.461224e-05	
652	6.000000e+00	3.461572e-05	
653	6.050000e+00	3.461930e-05	
654	6.100000e+00	3.462304e-05	
655	6.150000e+00	3.462697e-05	
656	6.200000e+00	3.463112e-05	
657	6.250000e+00	3.463556e-05	
658	6.300000e+00	3.464032e-05	
659	6.350000e+00	3.464549e-05	
660	6.400000e+00	3.465111e-05	
661	6.450000e+00	3.465728e-05	
662	6.500000e+00	3.466407e-05	
663	6.550000e+00	3.467158e-05	
664	6.600000e+00	3.467991e-05	
665	0.000000e+00	-6.70385e-31	
666	5.000000e-02	1.113040e-06	
667	1.000000e-01	2.211468e-06	
668	1.500000e-01	3.295337e-06	
669	2.000000e-01	4.364703e-06	
670	2.500000e-01	5.419618e-06	
671	3.000000e-01	6.460136e-06	
672	3.500000e-01	7.486312e-06	
673	4.000000e-01	8.498197e-06	
674	4.500000e-01	9.495846e-06	
675	5.000000e-01	1.047931e-05	
676	5.500000e-01	1.144864e-05	
677	6.000000e-01	1.240390e-05	
678	6.500000e-01	1.334512e-05	
679	7.000000e-01	1.427237e-05	
680	7.500000e-01	1.518570e-05	
681	8.000000e-01	1.608515e-05	
682	8.500000e-01	1.697078e-05	
683	9.000000e-01	1.784264e-05	
684	9.500000e-01	1.870078e-05	
685	1.000000e+00	1.954525e-05	
686	1.050000e+00	2.037610e-05	
687	1.100000e+00	2.119338e-05	
688	1.150000e+00	2.199713e-05	
689	1.200000e+00	2.278742e-05	
690	1.250000e+00	2.356428e-05	
691	1.300000e+00	2.432778e-05	
692	1.350000e+00	2.507794e-05	

Index   v-sweep         -i(vds)         
--------------------------------------------------------------------------------
693	1.400000e+00	2.581483e-05	
694	1.450000e+00	2.653850e-05	
695	1.500000e+00	2.724898e-05	
696	1.550000e+00	2.794634e-05	
697	1.600000e+00	2.863060e-05	
698	1.650000e+00	2.930184e-05	
699	1.700000e+00	2.996008e-05	
700	1.750000e+00	3.060538e-05	
701	1.800000e+00	3.123778e-05	
702	1.850000e+00	3.185733e-05	
703	1.900000e+00	3.246408e-05	
704	1.950000e+00	3.305807e-05	
705	2.000000e+00	3.363935e-05	
706	2.050000e+00	3.420796e-05	
707	2.100000e+00	3.476396e-05	
708	2.150000e+00	3.530737e-05	
709	2.200000e+00	3.583825e-05	
710	2.250000e+00	3.635665e-05	
711	2.300000e+00	3.686260e-05	
712	2.350000e+00	3.735615e-05	
713	2.400000e+00	3.783734e-05	
714	2.450000e+00	3.830622e-05	
715	2.500000e+00	3.876283e-05	
716	2.550000e+00	3.920721e-05	
717	2.600000e+00	3.963940e-05	
718	2.650000e+00	4.005945e-05	
719	2.700000e+00	4.046739e-05	
720	2.750000e+00	4.086326e-05	
721	2.800000e+00	4.124712e-05	
722	2.850000e+00	4.161898e-05	
723	2.900000e+00	4.197890e-05	
724	2.950000e+00	4.232690e-05	
725	3.000000e+00	4.266303e-05	
726	3.050000e+00	4.298732e-05	
727	3.100000e+00	4.329980e-05	
728	3.150000e+00	4.360051e-05	
729	3.200000e+00	4.388946e-05	
730	3.250000e+00	4.416670e-05	
731	3.300000e+00	4.443224e-05	
732	3.350000e+00	4.468609e-05	
733	3.400000e+00	4.492829e-05	
734	3.450000e+00	4.515882e-05	
735	3.500000e+00	4.537771e-05	
736	3.550000e+00	4.558493e-05	
737	3.600000e+00	4.578048e-05	
738	3.650000e+00	4.596433e-05	
739	3.700000e+00	4.613644e-05	
740	3.750000e+00	4.629676e-05	
741	3.800000e+00	4.644526e-05	
742	3.850000e+00	4.658188e-05	
743	3.900000e+00	4.670660e-05	
744	3.950000e+00	4.681947e-05	
745	4.000000e+00	4.692064e-05	
746	4.050000e+00	4.701038e-05	
747	4.100000e+00	4.708922e-05	
748	4.150000e+00	4.715786e-05	
749	4.200000e+00	4.721723e-05	
750	4.250000e+00	4.726839e-05	

Index   v-sweep         -i(vds)         
--------------------------------------------------------------------------------
751	4.300000e+00	4.731246e-05	
752	4.350000e+00	4.735051e-05	
753	4.400000e+00	4.738351e-05	
754	4.450000e+00	4.741231e-05	
755	4.500000e+00	4.743764e-05	
756	4.550000e+00	4.746009e-05	
757	4.600000e+00	4.748014e-05	
758	4.650000e+00	4.749819e-05	
759	4.700000e+00	4.751455e-05	
760	4.750000e+00	4.752948e-05	
761	4.800000e+00	4.754319e-05	
762	4.850000e+00	4.755585e-05	
763	4.900000e+00	4.756761e-05	
764	4.950000e+00	4.757858e-05	
765	5.000000e+00	4.758886e-05	
766	5.050000e+00	4.759853e-05	
767	5.100000e+00	4.760766e-05	
768	5.150000e+00	4.761631e-05	
769	5.200000e+00	4.762454e-05	
770	5.250000e+00	4.763238e-05	
771	5.300000e+00	4.763987e-05	
772	5.350000e+00	4.764705e-05	
773	5.400000e+00	4.765394e-05	
774	5.450000e+00	4.766057e-05	
775	5.500000e+00	4.766696e-05	
776	5.550000e+00	4.767313e-05	
777	5.600000e+00	4.767910e-05	
778	5.650000e+00	4.768488e-05	
779	5.700000e+00	4.769048e-05	
780	5.750000e+00	4.769593e-05	
781	5.800000e+00	4.770123e-05	
782	5.850000e+00	4.770639e-05	
783	5.900000e+00	4.771141e-05	
784	5.950000e+00	4.771632e-05	
785	6.000000e+00	4.772111e-05	
786	6.050000e+00	4.772580e-05	
787	6.100000e+00	4.773039e-05	
788	6.150000e+00	4.773489e-05	
789	6.200000e+00	4.773930e-05	
790	6.250000e+00	4.774364e-05	
791	6.300000e+00	4.774791e-05	
792	6.350000e+00	4.775212e-05	
793	6.400000e+00	4.775628e-05	
794	6.450000e+00	4.776040e-05	
795	6.500000e+00	4.776450e-05	
796	6.550000e+00	4.776858e-05	
797	6.600000e+00	4.777267e-05	
Note: No ".plot", ".print", or ".fourier" lines; no simulations run
