
Note: Compatibility modes selected: hs

Warning: m=xx on .subckt line will override multiplier m hierarchy!


Circuit: ***************************

Doing analysis at TEMP = -40.000000 and TNOM = -40.000000


No. of Data Rows : 798
                          ***************************
                          DC transfer characteristic  Mon Jan  9 13:58:36  2023
--------------------------------------------------------------------------------
Index   v-sweep         -i(vds)         
--------------------------------------------------------------------------------
0	0.000000e+00	2.688614e-36	
1	5.000000e-02	1.328609e-05	
2	1.000000e-01	2.116712e-05	
3	1.500000e-01	2.471699e-05	
4	2.000000e-01	2.608644e-05	
5	2.500000e-01	2.678075e-05	
6	3.000000e-01	2.724969e-05	
7	3.500000e-01	2.761399e-05	
8	4.000000e-01	2.791739e-05	
9	4.500000e-01	2.818040e-05	
10	5.000000e-01	2.841445e-05	
11	5.500000e-01	2.862661e-05	
12	6.000000e-01	2.882160e-05	
13	6.500000e-01	2.900273e-05	
14	7.000000e-01	2.917245e-05	
15	7.500000e-01	2.933259e-05	
16	8.000000e-01	2.948457e-05	
17	8.500000e-01	2.962952e-05	
18	9.000000e-01	2.976836e-05	
19	9.500000e-01	2.990182e-05	
20	1.000000e+00	3.003052e-05	
21	1.050000e+00	3.015497e-05	
22	1.100000e+00	3.027562e-05	
23	1.150000e+00	3.039284e-05	
24	1.200000e+00	3.050694e-05	
25	1.250000e+00	3.061821e-05	
26	1.300000e+00	3.072688e-05	
27	1.350000e+00	3.083318e-05	
28	1.400000e+00	3.093729e-05	
29	1.450000e+00	3.103937e-05	
30	1.500000e+00	3.113957e-05	
31	1.550000e+00	3.123804e-05	
32	1.600000e+00	3.133488e-05	
33	1.650000e+00	3.143020e-05	
34	1.700000e+00	3.152411e-05	
35	1.750000e+00	3.161669e-05	
36	1.800000e+00	3.170802e-05	
37	1.850000e+00	3.179818e-05	
38	1.900000e+00	3.188723e-05	
39	1.950000e+00	3.197523e-05	
40	2.000000e+00	3.206225e-05	
41	2.050000e+00	3.214833e-05	
42	2.100000e+00	3.223353e-05	
43	2.150000e+00	3.231788e-05	
44	2.200000e+00	3.240144e-05	
45	2.250000e+00	3.248424e-05	
46	2.300000e+00	3.256631e-05	
47	2.350000e+00	3.264771e-05	
48	2.400000e+00	3.272845e-05	
49	2.450000e+00	3.280858e-05	
50	2.500000e+00	3.288813e-05	
51	2.550000e+00	3.296712e-05	
52	2.600000e+00	3.304560e-05	
53	2.650000e+00	3.312359e-05	
54	2.700000e+00	3.320114e-05	

Index   v-sweep         -i(vds)         
--------------------------------------------------------------------------------
55	2.750000e+00	3.327827e-05	
56	2.800000e+00	3.335502e-05	
57	2.850000e+00	3.343144e-05	
58	2.900000e+00	3.350757e-05	
59	2.950000e+00	3.358345e-05	
60	3.000000e+00	3.365915e-05	
61	3.050000e+00	3.373470e-05	
62	3.100000e+00	3.381017e-05	
63	3.150000e+00	3.388564e-05	
64	3.200000e+00	3.396117e-05	
65	3.250000e+00	3.403684e-05	
66	3.300000e+00	3.411275e-05	
67	3.350000e+00	3.418898e-05	
68	3.400000e+00	3.426564e-05	
69	3.450000e+00	3.434284e-05	
70	3.500000e+00	3.442072e-05	
71	3.550000e+00	3.449939e-05	
72	3.600000e+00	3.457902e-05	
73	3.650000e+00	3.465974e-05	
74	3.700000e+00	3.474173e-05	
75	3.750000e+00	3.482518e-05	
76	3.800000e+00	3.491026e-05	
77	3.850000e+00	3.499719e-05	
78	3.900000e+00	3.508619e-05	
79	3.950000e+00	3.517748e-05	
80	4.000000e+00	3.527132e-05	
81	4.050000e+00	3.536795e-05	
82	4.100000e+00	3.546767e-05	
83	4.150000e+00	3.557075e-05	
84	4.200000e+00	3.567750e-05	
85	4.250000e+00	3.578825e-05	
86	4.300000e+00	3.590331e-05	
87	4.350000e+00	3.602305e-05	
88	4.400000e+00	3.614782e-05	
89	4.450000e+00	3.627801e-05	
90	4.500000e+00	3.641400e-05	
91	4.550000e+00	3.655622e-05	
92	4.600000e+00	3.670507e-05	
93	4.650000e+00	3.686100e-05	
94	4.700000e+00	3.702447e-05	
95	4.750000e+00	3.719594e-05	
96	4.800000e+00	3.737589e-05	
97	4.850000e+00	3.756483e-05	
98	4.900000e+00	3.776325e-05	
99	4.950000e+00	3.797169e-05	
100	5.000000e+00	3.819068e-05	
101	5.050000e+00	3.842078e-05	
102	5.100000e+00	3.866254e-05	
103	5.150000e+00	3.891655e-05	
104	5.200000e+00	3.918339e-05	
105	5.250000e+00	3.946366e-05	
106	5.300000e+00	3.975798e-05	
107	5.350000e+00	4.006696e-05	
108	5.400000e+00	4.039126e-05	
109	5.450000e+00	4.073150e-05	
110	5.500000e+00	4.108834e-05	
111	5.550000e+00	4.146246e-05	
112	5.600000e+00	4.185452e-05	

Index   v-sweep         -i(vds)         
--------------------------------------------------------------------------------
113	5.650000e+00	4.226520e-05	
114	5.700000e+00	4.269521e-05	
115	5.750000e+00	4.314524e-05	
116	5.800000e+00	4.361600e-05	
117	5.850000e+00	4.410821e-05	
118	5.900000e+00	4.462259e-05	
119	5.950000e+00	4.515987e-05	
120	6.000000e+00	4.572079e-05	
121	6.050000e+00	4.630609e-05	
122	6.100000e+00	4.691651e-05	
123	6.150000e+00	4.755282e-05	
124	6.200000e+00	4.821578e-05	
125	6.250000e+00	4.890614e-05	
126	6.300000e+00	4.962467e-05	
127	6.350000e+00	5.037214e-05	
128	6.400000e+00	5.114934e-05	
129	6.450000e+00	5.195703e-05	
130	6.500000e+00	5.279600e-05	
131	6.550000e+00	5.366703e-05	
132	6.600000e+00	5.457090e-05	
133	0.000000e+00	-8.76044e-20	
134	5.000000e-02	8.319901e-05	
135	1.000000e-01	1.599905e-04	
136	1.500000e-01	2.305261e-04	
137	2.000000e-01	2.949537e-04	
138	2.500000e-01	3.534176e-04	
139	3.000000e-01	4.060580e-04	
140	3.500000e-01	4.530113e-04	
141	4.000000e-01	4.944101e-04	
142	4.500000e-01	5.303827e-04	
143	5.000000e-01	5.610552e-04	
144	5.500000e-01	5.865598e-04	
145	6.000000e-01	6.070735e-04	
146	6.500000e-01	6.229287e-04	
147	7.000000e-01	6.347722e-04	
148	7.500000e-01	6.435375e-04	
149	8.000000e-01	6.501543e-04	
150	8.500000e-01	6.553243e-04	
151	9.000000e-01	6.595092e-04	
152	9.500000e-01	6.630017e-04	
153	1.000000e+00	6.659894e-04	
154	1.050000e+00	6.685969e-04	
155	1.100000e+00	6.709091e-04	
156	1.150000e+00	6.729865e-04	
157	1.200000e+00	6.748731e-04	
158	1.250000e+00	6.766019e-04	
159	1.300000e+00	6.781981e-04	
160	1.350000e+00	6.796814e-04	
161	1.400000e+00	6.810677e-04	
162	1.450000e+00	6.823695e-04	
163	1.500000e+00	6.835973e-04	
164	1.550000e+00	6.847596e-04	
165	1.600000e+00	6.858636e-04	
166	1.650000e+00	6.869155e-04	
167	1.700000e+00	6.879203e-04	
168	1.750000e+00	6.888826e-04	
169	1.800000e+00	6.898062e-04	
170	1.850000e+00	6.906944e-04	

Index   v-sweep         -i(vds)         
--------------------------------------------------------------------------------
171	1.900000e+00	6.915502e-04	
172	1.950000e+00	6.923763e-04	
173	2.000000e+00	6.931747e-04	
174	2.050000e+00	6.939478e-04	
175	2.100000e+00	6.946971e-04	
176	2.150000e+00	6.954244e-04	
177	2.200000e+00	6.961312e-04	
178	2.250000e+00	6.968187e-04	
179	2.300000e+00	6.974883e-04	
180	2.350000e+00	6.981409e-04	
181	2.400000e+00	6.987776e-04	
182	2.450000e+00	6.993993e-04	
183	2.500000e+00	7.000068e-04	
184	2.550000e+00	7.006009e-04	
185	2.600000e+00	7.011824e-04	
186	2.650000e+00	7.017519e-04	
187	2.700000e+00	7.023100e-04	
188	2.750000e+00	7.028573e-04	
189	2.800000e+00	7.033943e-04	
190	2.850000e+00	7.039217e-04	
191	2.900000e+00	7.044399e-04	
192	2.950000e+00	7.049494e-04	
193	3.000000e+00	7.054508e-04	
194	3.050000e+00	7.059445e-04	
195	3.100000e+00	7.064310e-04	
196	3.150000e+00	7.069109e-04	
197	3.200000e+00	7.073848e-04	
198	3.250000e+00	7.078532e-04	
199	3.300000e+00	7.083168e-04	
200	3.350000e+00	7.087763e-04	
201	3.400000e+00	7.092324e-04	
202	3.450000e+00	7.096860e-04	
203	3.500000e+00	7.101380e-04	
204	3.550000e+00	7.105895e-04	
205	3.600000e+00	7.110415e-04	
206	3.650000e+00	7.114953e-04	
207	3.700000e+00	7.119522e-04	
208	3.750000e+00	7.124138e-04	
209	3.800000e+00	7.128817e-04	
210	3.850000e+00	7.133577e-04	
211	3.900000e+00	7.138438e-04	
212	3.950000e+00	7.143422e-04	
213	4.000000e+00	7.148553e-04	
214	4.050000e+00	7.153855e-04	
215	4.100000e+00	7.159357e-04	
216	4.150000e+00	7.165087e-04	
217	4.200000e+00	7.171079e-04	
218	4.250000e+00	7.177367e-04	
219	4.300000e+00	7.183987e-04	
220	4.350000e+00	7.190978e-04	
221	4.400000e+00	7.198382e-04	
222	4.450000e+00	7.206244e-04	
223	4.500000e+00	7.214609e-04	
224	4.550000e+00	7.223528e-04	
225	4.600000e+00	7.233052e-04	
226	4.650000e+00	7.243236e-04	
227	4.700000e+00	7.254138e-04	
228	4.750000e+00	7.265818e-04	

Index   v-sweep         -i(vds)         
--------------------------------------------------------------------------------
229	4.800000e+00	7.278337e-04	
230	4.850000e+00	7.291763e-04	
231	4.900000e+00	7.306162e-04	
232	4.950000e+00	7.321606e-04	
233	5.000000e+00	7.338167e-04	
234	5.050000e+00	7.355923e-04	
235	5.100000e+00	7.374950e-04	
236	5.150000e+00	7.395332e-04	
237	5.200000e+00	7.417150e-04	
238	5.250000e+00	7.440491e-04	
239	5.300000e+00	7.465443e-04	
240	5.350000e+00	7.492097e-04	
241	5.400000e+00	7.520546e-04	
242	5.450000e+00	7.550884e-04	
243	5.500000e+00	7.583209e-04	
244	5.550000e+00	7.617620e-04	
245	5.600000e+00	7.654217e-04	
246	5.650000e+00	7.693106e-04	
247	5.700000e+00	7.734389e-04	
248	5.750000e+00	7.778173e-04	
249	5.800000e+00	7.824568e-04	
250	5.850000e+00	7.873681e-04	
251	5.900000e+00	7.925626e-04	
252	5.950000e+00	7.980514e-04	
253	6.000000e+00	8.038459e-04	
254	6.050000e+00	8.099577e-04	
255	6.100000e+00	8.163983e-04	
256	6.150000e+00	8.231796e-04	
257	6.200000e+00	8.303132e-04	
258	6.250000e+00	8.378112e-04	
259	6.300000e+00	8.456856e-04	
260	6.350000e+00	8.539483e-04	
261	6.400000e+00	8.626116e-04	
262	6.450000e+00	8.716875e-04	
263	6.500000e+00	8.811884e-04	
264	6.550000e+00	8.911264e-04	
265	6.600000e+00	9.015138e-04	
266	0.000000e+00	-3.74737e-19	
267	5.000000e-02	1.341140e-04	
268	1.000000e-01	2.617212e-04	
269	1.500000e-01	3.829686e-04	
270	2.000000e-01	4.979995e-04	
271	2.500000e-01	6.069537e-04	
272	3.000000e-01	7.099674e-04	
273	3.500000e-01	8.071729e-04	
274	4.000000e-01	8.986987e-04	
275	4.500000e-01	9.846694e-04	
276	5.000000e-01	1.065205e-03	
277	5.500000e-01	1.140423e-03	
278	6.000000e-01	1.210433e-03	
279	6.500000e-01	1.275340e-03	
280	7.000000e-01	1.335240e-03	
281	7.500000e-01	1.390220e-03	
282	8.000000e-01	1.440345e-03	
283	8.500000e-01	1.485658e-03	
284	9.000000e-01	1.526158e-03	
285	9.500000e-01	1.561796e-03	
286	1.000000e+00	1.592484e-03	

Index   v-sweep         -i(vds)         
--------------------------------------------------------------------------------
287	1.050000e+00	1.618187e-03	
288	1.100000e+00	1.639093e-03	
289	1.150000e+00	1.655744e-03	
290	1.200000e+00	1.668940e-03	
291	1.250000e+00	1.679506e-03	
292	1.300000e+00	1.688124e-03	
293	1.350000e+00	1.695303e-03	
294	1.400000e+00	1.701403e-03	
295	1.450000e+00	1.706679e-03	
296	1.500000e+00	1.711313e-03	
297	1.550000e+00	1.715437e-03	
298	1.600000e+00	1.719146e-03	
299	1.650000e+00	1.722515e-03	
300	1.700000e+00	1.725599e-03	
301	1.750000e+00	1.728443e-03	
302	1.800000e+00	1.731080e-03	
303	1.850000e+00	1.733539e-03	
304	1.900000e+00	1.735843e-03	
305	1.950000e+00	1.738010e-03	
306	2.000000e+00	1.740056e-03	
307	2.050000e+00	1.741995e-03	
308	2.100000e+00	1.743836e-03	
309	2.150000e+00	1.745590e-03	
310	2.200000e+00	1.747266e-03	
311	2.250000e+00	1.748869e-03	
312	2.300000e+00	1.750407e-03	
313	2.350000e+00	1.751885e-03	
314	2.400000e+00	1.753308e-03	
315	2.450000e+00	1.754679e-03	
316	2.500000e+00	1.756003e-03	
317	2.550000e+00	1.757283e-03	
318	2.600000e+00	1.758522e-03	
319	2.650000e+00	1.759724e-03	
320	2.700000e+00	1.760889e-03	
321	2.750000e+00	1.762021e-03	
322	2.800000e+00	1.763122e-03	
323	2.850000e+00	1.764193e-03	
324	2.900000e+00	1.765236e-03	
325	2.950000e+00	1.766254e-03	
326	3.000000e+00	1.767246e-03	
327	3.050000e+00	1.768215e-03	
328	3.100000e+00	1.769162e-03	
329	3.150000e+00	1.770088e-03	
330	3.200000e+00	1.770994e-03	
331	3.250000e+00	1.771881e-03	
332	3.300000e+00	1.772751e-03	
333	3.350000e+00	1.773604e-03	
334	3.400000e+00	1.774441e-03	
335	3.450000e+00	1.775264e-03	
336	3.500000e+00	1.776074e-03	
337	3.550000e+00	1.776871e-03	
338	3.600000e+00	1.777657e-03	
339	3.650000e+00	1.778433e-03	
340	3.700000e+00	1.779201e-03	
341	3.750000e+00	1.779962e-03	
342	3.800000e+00	1.780717e-03	
343	3.850000e+00	1.781470e-03	
344	3.900000e+00	1.782222e-03	

Index   v-sweep         -i(vds)         
--------------------------------------------------------------------------------
345	3.950000e+00	1.782975e-03	
346	4.000000e+00	1.783732e-03	
347	4.050000e+00	1.784496e-03	
348	4.100000e+00	1.785270e-03	
349	4.150000e+00	1.786058e-03	
350	4.200000e+00	1.786864e-03	
351	4.250000e+00	1.787691e-03	
352	4.300000e+00	1.788545e-03	
353	4.350000e+00	1.789432e-03	
354	4.400000e+00	1.790355e-03	
355	4.450000e+00	1.791323e-03	
356	4.500000e+00	1.792341e-03	
357	4.550000e+00	1.793417e-03	
358	4.600000e+00	1.794558e-03	
359	4.650000e+00	1.795773e-03	
360	4.700000e+00	1.797071e-03	
361	4.750000e+00	1.798461e-03	
362	4.800000e+00	1.799954e-03	
363	4.850000e+00	1.801559e-03	
364	4.900000e+00	1.803289e-03	
365	4.950000e+00	1.805156e-03	
366	5.000000e+00	1.807172e-03	
367	5.050000e+00	1.809351e-03	
368	5.100000e+00	1.811706e-03	
369	5.150000e+00	1.814252e-03	
370	5.200000e+00	1.817005e-03	
371	5.250000e+00	1.819980e-03	
372	5.300000e+00	1.823195e-03	
373	5.350000e+00	1.826666e-03	
374	5.400000e+00	1.830411e-03	
375	5.450000e+00	1.834448e-03	
376	5.500000e+00	1.838798e-03	
377	5.550000e+00	1.843479e-03	
378	5.600000e+00	1.848512e-03	
379	5.650000e+00	1.853917e-03	
380	5.700000e+00	1.859717e-03	
381	5.750000e+00	1.865933e-03	
382	5.800000e+00	1.872588e-03	
383	5.850000e+00	1.879704e-03	
384	5.900000e+00	1.887306e-03	
385	5.950000e+00	1.895416e-03	
386	6.000000e+00	1.904060e-03	
387	6.050000e+00	1.913263e-03	
388	6.100000e+00	1.923049e-03	
389	6.150000e+00	1.933445e-03	
390	6.200000e+00	1.944475e-03	
391	6.250000e+00	1.956168e-03	
392	6.300000e+00	1.968548e-03	
393	6.350000e+00	1.981644e-03	
394	6.400000e+00	1.995482e-03	
395	6.450000e+00	2.010090e-03	
396	6.500000e+00	2.025495e-03	
397	6.550000e+00	2.041725e-03	
398	6.600000e+00	2.058808e-03	
399	0.000000e+00	-1.97495e-19	
400	5.000000e-02	1.714147e-04	
401	1.000000e-01	3.365136e-04	
402	1.500000e-01	4.954256e-04	

Index   v-sweep         -i(vds)         
--------------------------------------------------------------------------------
403	2.000000e-01	6.482773e-04	
404	2.500000e-01	7.951922e-04	
405	3.000000e-01	9.362912e-04	
406	3.500000e-01	1.071692e-03	
407	4.000000e-01	1.201511e-03	
408	4.500000e-01	1.325859e-03	
409	5.000000e-01	1.444846e-03	
410	5.500000e-01	1.558579e-03	
411	6.000000e-01	1.667161e-03	
412	6.500000e-01	1.770692e-03	
413	7.000000e-01	1.869270e-03	
414	7.500000e-01	1.962990e-03	
415	8.000000e-01	2.051942e-03	
416	8.500000e-01	2.136213e-03	
417	9.000000e-01	2.215885e-03	
418	9.500000e-01	2.291035e-03	
419	1.000000e+00	2.361730e-03	
420	1.050000e+00	2.428026e-03	
421	1.100000e+00	2.489963e-03	
422	1.150000e+00	2.547555e-03	
423	1.200000e+00	2.600779e-03	
424	1.250000e+00	2.649555e-03	
425	1.300000e+00	2.693739e-03	
426	1.350000e+00	2.733119e-03	
427	1.400000e+00	2.767476e-03	
428	1.450000e+00	2.796719e-03	
429	1.500000e+00	2.821052e-03	
430	1.550000e+00	2.841014e-03	
431	1.600000e+00	2.857348e-03	
432	1.650000e+00	2.870812e-03	
433	1.700000e+00	2.882056e-03	
434	1.750000e+00	2.891590e-03	
435	1.800000e+00	2.899798e-03	
436	1.850000e+00	2.906965e-03	
437	1.900000e+00	2.913300e-03	
438	1.950000e+00	2.918963e-03	
439	2.000000e+00	2.924073e-03	
440	2.050000e+00	2.928724e-03	
441	2.100000e+00	2.932987e-03	
442	2.150000e+00	2.936921e-03	
443	2.200000e+00	2.940570e-03	
444	2.250000e+00	2.943972e-03	
445	2.300000e+00	2.947158e-03	
446	2.350000e+00	2.950154e-03	
447	2.400000e+00	2.952981e-03	
448	2.450000e+00	2.955657e-03	
449	2.500000e+00	2.958197e-03	
450	2.550000e+00	2.960615e-03	
451	2.600000e+00	2.962922e-03	
452	2.650000e+00	2.965128e-03	
453	2.700000e+00	2.967241e-03	
454	2.750000e+00	2.969270e-03	
455	2.800000e+00	2.971220e-03	
456	2.850000e+00	2.973099e-03	
457	2.900000e+00	2.974911e-03	
458	2.950000e+00	2.976661e-03	
459	3.000000e+00	2.978353e-03	
460	3.050000e+00	2.979991e-03	

Index   v-sweep         -i(vds)         
--------------------------------------------------------------------------------
461	3.100000e+00	2.981579e-03	
462	3.150000e+00	2.983120e-03	
463	3.200000e+00	2.984616e-03	
464	3.250000e+00	2.986071e-03	
465	3.300000e+00	2.987487e-03	
466	3.350000e+00	2.988865e-03	
467	3.400000e+00	2.990209e-03	
468	3.450000e+00	2.991520e-03	
469	3.500000e+00	2.992799e-03	
470	3.550000e+00	2.994049e-03	
471	3.600000e+00	2.995271e-03	
472	3.650000e+00	2.996467e-03	
473	3.700000e+00	2.997638e-03	
474	3.750000e+00	2.998786e-03	
475	3.800000e+00	2.999913e-03	
476	3.850000e+00	3.001020e-03	
477	3.900000e+00	3.002109e-03	
478	3.950000e+00	3.003181e-03	
479	4.000000e+00	3.004240e-03	
480	4.050000e+00	3.005286e-03	
481	4.100000e+00	3.006323e-03	
482	4.150000e+00	3.007352e-03	
483	4.200000e+00	3.008378e-03	
484	4.250000e+00	3.009403e-03	
485	4.300000e+00	3.010432e-03	
486	4.350000e+00	3.011467e-03	
487	4.400000e+00	3.012514e-03	
488	4.450000e+00	3.013578e-03	
489	4.500000e+00	3.014665e-03	
490	4.550000e+00	3.015780e-03	
491	4.600000e+00	3.016931e-03	
492	4.650000e+00	3.018126e-03	
493	4.700000e+00	3.019373e-03	
494	4.750000e+00	3.020680e-03	
495	4.800000e+00	3.022058e-03	
496	4.850000e+00	3.023518e-03	
497	4.900000e+00	3.025071e-03	
498	4.950000e+00	3.026730e-03	
499	5.000000e+00	3.028508e-03	
500	5.050000e+00	3.030420e-03	
501	5.100000e+00	3.032481e-03	
502	5.150000e+00	3.034708e-03	
503	5.200000e+00	3.037119e-03	
504	5.250000e+00	3.039731e-03	
505	5.300000e+00	3.042565e-03	
506	5.350000e+00	3.045641e-03	
507	5.400000e+00	3.048982e-03	
508	5.450000e+00	3.052609e-03	
509	5.500000e+00	3.056548e-03	
510	5.550000e+00	3.060823e-03	
511	5.600000e+00	3.065460e-03	
512	5.650000e+00	3.070486e-03	
513	5.700000e+00	3.075931e-03	
514	5.750000e+00	3.081822e-03	
515	5.800000e+00	3.088191e-03	
516	5.850000e+00	3.095068e-03	
517	5.900000e+00	3.102487e-03	
518	5.950000e+00	3.110481e-03	

Index   v-sweep         -i(vds)         
--------------------------------------------------------------------------------
519	6.000000e+00	3.119083e-03	
520	6.050000e+00	3.128329e-03	
521	6.100000e+00	3.138255e-03	
522	6.150000e+00	3.148898e-03	
523	6.200000e+00	3.160295e-03	
524	6.250000e+00	3.172486e-03	
525	6.300000e+00	3.185509e-03	
526	6.350000e+00	3.199403e-03	
527	6.400000e+00	3.214211e-03	
528	6.450000e+00	3.229972e-03	
529	6.500000e+00	3.246729e-03	
530	6.550000e+00	3.264525e-03	
531	6.600000e+00	3.283400e-03	
532	0.000000e+00	-1.06700e-34	
533	5.000000e-02	1.976096e-04	
534	1.000000e-01	3.892994e-04	
535	1.500000e-01	5.751767e-04	
536	2.000000e-01	7.553473e-04	
537	2.500000e-01	9.299149e-04	
538	3.000000e-01	1.098981e-03	
539	3.500000e-01	1.262646e-03	
540	4.000000e-01	1.421008e-03	
541	4.500000e-01	1.574161e-03	
542	5.000000e-01	1.722200e-03	
543	5.500000e-01	1.865216e-03	
544	6.000000e-01	2.003297e-03	
545	6.500000e-01	2.136533e-03	
546	7.000000e-01	2.265006e-03	
547	7.500000e-01	2.388801e-03	
548	8.000000e-01	2.507998e-03	
549	8.500000e-01	2.622677e-03	
550	9.000000e-01	2.732914e-03	
551	9.500000e-01	2.838783e-03	
552	1.000000e+00	2.940358e-03	
553	1.050000e+00	3.037709e-03	
554	1.100000e+00	3.130902e-03	
555	1.150000e+00	3.220003e-03	
556	1.200000e+00	3.305072e-03	
557	1.250000e+00	3.386162e-03	
558	1.300000e+00	3.463323e-03	
559	1.350000e+00	3.536591e-03	
560	1.400000e+00	3.605992e-03	
561	1.450000e+00	3.671528e-03	
562	1.500000e+00	3.733173e-03	
563	1.550000e+00	3.790862e-03	
564	1.600000e+00	3.844468e-03	
565	1.650000e+00	3.893798e-03	
566	1.700000e+00	3.938589e-03	
567	1.750000e+00	3.978555e-03	
568	1.800000e+00	4.013493e-03	
569	1.850000e+00	4.043420e-03	
570	1.900000e+00	4.068659e-03	
571	1.950000e+00	4.089786e-03	
572	2.000000e+00	4.107486e-03	
573	2.050000e+00	4.122422e-03	
574	2.100000e+00	4.135161e-03	
575	2.150000e+00	4.146158e-03	
576	2.200000e+00	4.155765e-03	

Index   v-sweep         -i(vds)         
--------------------------------------------------------------------------------
577	2.250000e+00	4.164252e-03	
578	2.300000e+00	4.171828e-03	
579	2.350000e+00	4.178653e-03	
580	2.400000e+00	4.184850e-03	
581	2.450000e+00	4.190518e-03	
582	2.500000e+00	4.195736e-03	
583	2.550000e+00	4.200566e-03	
584	2.600000e+00	4.205059e-03	
585	2.650000e+00	4.209259e-03	
586	2.700000e+00	4.213199e-03	
587	2.750000e+00	4.216910e-03	
588	2.800000e+00	4.220416e-03	
589	2.850000e+00	4.223738e-03	
590	2.900000e+00	4.226895e-03	
591	2.950000e+00	4.229901e-03	
592	3.000000e+00	4.232772e-03	
593	3.050000e+00	4.235517e-03	
594	3.100000e+00	4.238149e-03	
595	3.150000e+00	4.240676e-03	
596	3.200000e+00	4.243106e-03	
597	3.250000e+00	4.245447e-03	
598	3.300000e+00	4.247704e-03	
599	3.350000e+00	4.249884e-03	
600	3.400000e+00	4.251993e-03	
601	3.450000e+00	4.254034e-03	
602	3.500000e+00	4.256012e-03	
603	3.550000e+00	4.257931e-03	
604	3.600000e+00	4.259795e-03	
605	3.650000e+00	4.261607e-03	
606	3.700000e+00	4.263369e-03	
607	3.750000e+00	4.265085e-03	
608	3.800000e+00	4.266757e-03	
609	3.850000e+00	4.268388e-03	
610	3.900000e+00	4.269979e-03	
611	3.950000e+00	4.271534e-03	
612	4.000000e+00	4.273054e-03	
613	4.050000e+00	4.274541e-03	
614	4.100000e+00	4.275998e-03	
615	4.150000e+00	4.277427e-03	
616	4.200000e+00	4.278829e-03	
617	4.250000e+00	4.280208e-03	
618	4.300000e+00	4.281565e-03	
619	4.350000e+00	4.282903e-03	
620	4.400000e+00	4.284226e-03	
621	4.450000e+00	4.285536e-03	
622	4.500000e+00	4.286837e-03	
623	4.550000e+00	4.288134e-03	
624	4.600000e+00	4.289430e-03	
625	4.650000e+00	4.290731e-03	
626	4.700000e+00	4.292042e-03	
627	4.750000e+00	4.293370e-03	
628	4.800000e+00	4.294721e-03	
629	4.850000e+00	4.296104e-03	
630	4.900000e+00	4.297527e-03	
631	4.950000e+00	4.299000e-03	
632	5.000000e+00	4.300532e-03	
633	5.050000e+00	4.302136e-03	
634	5.100000e+00	4.303825e-03	

Index   v-sweep         -i(vds)         
--------------------------------------------------------------------------------
635	5.150000e+00	4.305611e-03	
636	5.200000e+00	4.307510e-03	
637	5.250000e+00	4.309538e-03	
638	5.300000e+00	4.311713e-03	
639	5.350000e+00	4.314053e-03	
640	5.400000e+00	4.316578e-03	
641	5.450000e+00	4.319310e-03	
642	5.500000e+00	4.322272e-03	
643	5.550000e+00	4.325489e-03	
644	5.600000e+00	4.328986e-03	
645	5.650000e+00	4.332790e-03	
646	5.700000e+00	4.336932e-03	
647	5.750000e+00	4.341440e-03	
648	5.800000e+00	4.346347e-03	
649	5.850000e+00	4.351687e-03	
650	5.900000e+00	4.357495e-03	
651	5.950000e+00	4.363807e-03	
652	6.000000e+00	4.370661e-03	
653	6.050000e+00	4.378097e-03	
654	6.100000e+00	4.386155e-03	
655	6.150000e+00	4.394879e-03	
656	6.200000e+00	4.404312e-03	
657	6.250000e+00	4.414499e-03	
658	6.300000e+00	4.425487e-03	
659	6.350000e+00	4.437323e-03	
660	6.400000e+00	4.450056e-03	
661	6.450000e+00	4.463738e-03	
662	6.500000e+00	4.478418e-03	
663	6.550000e+00	4.494151e-03	
664	6.600000e+00	4.510988e-03	
665	0.000000e+00	7.268812e-19	
666	5.000000e-02	2.149846e-04	
667	1.000000e-01	4.245508e-04	
668	1.500000e-01	6.287857e-04	
669	2.000000e-01	8.277753e-04	
670	2.500000e-01	1.021604e-03	
671	3.000000e-01	1.210355e-03	
672	3.500000e-01	1.394111e-03	
673	4.000000e-01	1.572951e-03	
674	4.500000e-01	1.746954e-03	
675	5.000000e-01	1.916199e-03	
676	5.500000e-01	2.080760e-03	
677	6.000000e-01	2.240713e-03	
678	6.500000e-01	2.396130e-03	
679	7.000000e-01	2.547083e-03	
680	7.500000e-01	2.693642e-03	
681	8.000000e-01	2.835875e-03	
682	8.500000e-01	2.973848e-03	
683	9.000000e-01	3.107628e-03	
684	9.500000e-01	3.237280e-03	
685	1.000000e+00	3.362864e-03	
686	1.050000e+00	3.484444e-03	
687	1.100000e+00	3.602078e-03	
688	1.150000e+00	3.715827e-03	
689	1.200000e+00	3.825747e-03	
690	1.250000e+00	3.931894e-03	
691	1.300000e+00	4.034323e-03	
692	1.350000e+00	4.133086e-03	

Index   v-sweep         -i(vds)         
--------------------------------------------------------------------------------
693	1.400000e+00	4.228233e-03	
694	1.450000e+00	4.319814e-03	
695	1.500000e+00	4.407872e-03	
696	1.550000e+00	4.492448e-03	
697	1.600000e+00	4.573578e-03	
698	1.650000e+00	4.651290e-03	
699	1.700000e+00	4.725602e-03	
700	1.750000e+00	4.796518e-03	
701	1.800000e+00	4.864020e-03	
702	1.850000e+00	4.928065e-03	
703	1.900000e+00	4.988570e-03	
704	1.950000e+00	5.045398e-03	
705	2.000000e+00	5.098351e-03	
706	2.050000e+00	5.147165e-03	
707	2.100000e+00	5.191542e-03	
708	2.150000e+00	5.231212e-03	
709	2.200000e+00	5.266052e-03	
710	2.250000e+00	5.296174e-03	
711	2.300000e+00	5.321943e-03	
712	2.350000e+00	5.343901e-03	
713	2.400000e+00	5.362652e-03	
714	2.450000e+00	5.378764e-03	
715	2.500000e+00	5.392733e-03	
716	2.550000e+00	5.404961e-03	
717	2.600000e+00	5.415770e-03	
718	2.650000e+00	5.425415e-03	
719	2.700000e+00	5.434094e-03	
720	2.750000e+00	5.441966e-03	
721	2.800000e+00	5.449155e-03	
722	2.850000e+00	5.455761e-03	
723	2.900000e+00	5.461867e-03	
724	2.950000e+00	5.467539e-03	
725	3.000000e+00	5.472831e-03	
726	3.050000e+00	5.477789e-03	
727	3.100000e+00	5.482451e-03	
728	3.150000e+00	5.486849e-03	
729	3.200000e+00	5.491011e-03	
730	3.250000e+00	5.494961e-03	
731	3.300000e+00	5.498718e-03	
732	3.350000e+00	5.502300e-03	
733	3.400000e+00	5.505722e-03	
734	3.450000e+00	5.508999e-03	
735	3.500000e+00	5.512142e-03	
736	3.550000e+00	5.515162e-03	
737	3.600000e+00	5.518067e-03	
738	3.650000e+00	5.520866e-03	
739	3.700000e+00	5.523568e-03	
740	3.750000e+00	5.526177e-03	
741	3.800000e+00	5.528702e-03	
742	3.850000e+00	5.531146e-03	
743	3.900000e+00	5.533516e-03	
744	3.950000e+00	5.535815e-03	
745	4.000000e+00	5.538048e-03	
746	4.050000e+00	5.540218e-03	
747	4.100000e+00	5.542330e-03	
748	4.150000e+00	5.544387e-03	
749	4.200000e+00	5.546391e-03	
750	4.250000e+00	5.548346e-03	

Index   v-sweep         -i(vds)         
--------------------------------------------------------------------------------
751	4.300000e+00	5.550254e-03	
752	4.350000e+00	5.552118e-03	
753	4.400000e+00	5.553941e-03	
754	4.450000e+00	5.555725e-03	
755	4.500000e+00	5.557473e-03	
756	4.550000e+00	5.559188e-03	
757	4.600000e+00	5.560872e-03	
758	4.650000e+00	5.562529e-03	
759	4.700000e+00	5.564161e-03	
760	4.750000e+00	5.565774e-03	
761	4.800000e+00	5.567370e-03	
762	4.850000e+00	5.568953e-03	
763	4.900000e+00	5.570530e-03	
764	4.950000e+00	5.572105e-03	
765	5.000000e+00	5.573684e-03	
766	5.050000e+00	5.575275e-03	
767	5.100000e+00	5.576886e-03	
768	5.150000e+00	5.578523e-03	
769	5.200000e+00	5.580199e-03	
770	5.250000e+00	5.581922e-03	
771	5.300000e+00	5.583706e-03	
772	5.350000e+00	5.585562e-03	
773	5.400000e+00	5.587506e-03	
774	5.450000e+00	5.589553e-03	
775	5.500000e+00	5.591720e-03	
776	5.550000e+00	5.594025e-03	
777	5.600000e+00	5.596490e-03	
778	5.650000e+00	5.599136e-03	
779	5.700000e+00	5.601986e-03	
780	5.750000e+00	5.605065e-03	
781	5.800000e+00	5.608402e-03	
782	5.850000e+00	5.612025e-03	
783	5.900000e+00	5.615964e-03	
784	5.950000e+00	5.620252e-03	
785	6.000000e+00	5.624925e-03	
786	6.050000e+00	5.630018e-03	
787	6.100000e+00	5.635570e-03	
788	6.150000e+00	5.641622e-03	
789	6.200000e+00	5.648216e-03	
790	6.250000e+00	5.655396e-03	
791	6.300000e+00	5.663209e-03	
792	6.350000e+00	5.671703e-03	
793	6.400000e+00	5.680928e-03	
794	6.450000e+00	5.690937e-03	
795	6.500000e+00	5.701782e-03	
796	6.550000e+00	5.713520e-03	
797	6.600000e+00	5.726208e-03	
Note: No ".plot", ".print", or ".fourier" lines; no simulations run
