
Note: Compatibility modes selected: hs

Warning: m=xx on .subckt line will override multiplier m hierarchy!


Circuit: ***************************

Doing analysis at TEMP = 25.000000 and TNOM = 25.000000


No. of Data Rows : 798
                          ***************************
                          DC transfer characteristic  Mon Jan  9 13:58:36  2023
--------------------------------------------------------------------------------
Index   v-sweep         -i(vds)         
--------------------------------------------------------------------------------
0	0.000000e+00	5.105775e-23	
1	5.000000e-02	3.074337e-07	
2	1.000000e-01	5.506864e-07	
3	1.500000e-01	7.307167e-07	
4	2.000000e-01	8.499798e-07	
5	2.500000e-01	9.157069e-07	
6	3.000000e-01	9.444363e-07	
7	3.500000e-01	9.558316e-07	
8	4.000000e-01	9.610318e-07	
9	4.500000e-01	9.639915e-07	
10	5.000000e-01	9.660088e-07	
11	5.500000e-01	9.675628e-07	
12	6.000000e-01	9.688585e-07	
13	6.500000e-01	9.699952e-07	
14	7.000000e-01	9.710267e-07	
15	7.500000e-01	9.719841e-07	
16	8.000000e-01	9.728871e-07	
17	8.500000e-01	9.737485e-07	
18	9.000000e-01	9.745773e-07	
19	9.500000e-01	9.753798e-07	
20	1.000000e+00	9.761606e-07	
21	1.050000e+00	9.769233e-07	
22	1.100000e+00	9.776707e-07	
23	1.150000e+00	9.784049e-07	
24	1.200000e+00	9.791275e-07	
25	1.250000e+00	9.798402e-07	
26	1.300000e+00	9.805439e-07	
27	1.350000e+00	9.812398e-07	
28	1.400000e+00	9.819285e-07	
29	1.450000e+00	9.826109e-07	
30	1.500000e+00	9.832874e-07	
31	1.550000e+00	9.839587e-07	
32	1.600000e+00	9.846251e-07	
33	1.650000e+00	9.852871e-07	
34	1.700000e+00	9.859450e-07	
35	1.750000e+00	9.865991e-07	
36	1.800000e+00	9.872498e-07	
37	1.850000e+00	9.878972e-07	
38	1.900000e+00	9.885415e-07	
39	1.950000e+00	9.891830e-07	
40	2.000000e+00	9.898219e-07	
41	2.050000e+00	9.904582e-07	
42	2.100000e+00	9.910923e-07	
43	2.150000e+00	9.917241e-07	
44	2.200000e+00	9.923539e-07	
45	2.250000e+00	9.929818e-07	
46	2.300000e+00	9.936079e-07	
47	2.350000e+00	9.942323e-07	
48	2.400000e+00	9.948552e-07	
49	2.450000e+00	9.954768e-07	
50	2.500000e+00	9.960971e-07	
51	2.550000e+00	9.967164e-07	
52	2.600000e+00	9.973349e-07	
53	2.650000e+00	9.979529e-07	
54	2.700000e+00	9.985706e-07	

Index   v-sweep         -i(vds)         
--------------------------------------------------------------------------------
55	2.750000e+00	9.991883e-07	
56	2.800000e+00	9.998066e-07	
57	2.850000e+00	1.000426e-06	
58	2.900000e+00	1.001046e-06	
59	2.950000e+00	1.001669e-06	
60	3.000000e+00	1.002295e-06	
61	3.050000e+00	1.002925e-06	
62	3.100000e+00	1.003559e-06	
63	3.150000e+00	1.004199e-06	
64	3.200000e+00	1.004847e-06	
65	3.250000e+00	1.005504e-06	
66	3.300000e+00	1.006170e-06	
67	3.350000e+00	1.006850e-06	
68	3.400000e+00	1.007544e-06	
69	3.450000e+00	1.008254e-06	
70	3.500000e+00	1.008984e-06	
71	3.550000e+00	1.009737e-06	
72	3.600000e+00	1.010515e-06	
73	3.650000e+00	1.011321e-06	
74	3.700000e+00	1.012161e-06	
75	3.750000e+00	1.013037e-06	
76	3.800000e+00	1.013954e-06	
77	3.850000e+00	1.014917e-06	
78	3.900000e+00	1.015930e-06	
79	3.950000e+00	1.017000e-06	
80	4.000000e+00	1.018132e-06	
81	4.050000e+00	1.019332e-06	
82	4.100000e+00	1.020607e-06	
83	4.150000e+00	1.021963e-06	
84	4.200000e+00	1.023409e-06	
85	4.250000e+00	1.024951e-06	
86	4.300000e+00	1.026597e-06	
87	4.350000e+00	1.028357e-06	
88	4.400000e+00	1.030238e-06	
89	4.450000e+00	1.032251e-06	
90	4.500000e+00	1.034405e-06	
91	4.550000e+00	1.036710e-06	
92	4.600000e+00	1.039177e-06	
93	4.650000e+00	1.041815e-06	
94	4.700000e+00	1.044638e-06	
95	4.750000e+00	1.047655e-06	
96	4.800000e+00	1.050879e-06	
97	4.850000e+00	1.054323e-06	
98	4.900000e+00	1.057999e-06	
99	4.950000e+00	1.061920e-06	
100	5.000000e+00	1.066100e-06	
101	5.050000e+00	1.070552e-06	
102	5.100000e+00	1.075290e-06	
103	5.150000e+00	1.080329e-06	
104	5.200000e+00	1.085684e-06	
105	5.250000e+00	1.091369e-06	
106	5.300000e+00	1.097399e-06	
107	5.350000e+00	1.103791e-06	
108	5.400000e+00	1.110560e-06	
109	5.450000e+00	1.117723e-06	
110	5.500000e+00	1.125294e-06	
111	5.550000e+00	1.133292e-06	
112	5.600000e+00	1.141733e-06	

Index   v-sweep         -i(vds)         
--------------------------------------------------------------------------------
113	5.650000e+00	1.150634e-06	
114	5.700000e+00	1.160012e-06	
115	5.750000e+00	1.169885e-06	
116	5.800000e+00	1.180270e-06	
117	5.850000e+00	1.191185e-06	
118	5.900000e+00	1.202648e-06	
119	5.950000e+00	1.214677e-06	
120	6.000000e+00	1.227290e-06	
121	6.050000e+00	1.240505e-06	
122	6.100000e+00	1.254342e-06	
123	6.150000e+00	1.268818e-06	
124	6.200000e+00	1.283952e-06	
125	6.250000e+00	1.299763e-06	
126	6.300000e+00	1.316270e-06	
127	6.350000e+00	1.333491e-06	
128	6.400000e+00	1.351446e-06	
129	6.450000e+00	1.370153e-06	
130	6.500000e+00	1.389632e-06	
131	6.550000e+00	1.409901e-06	
132	6.600000e+00	1.430980e-06	
133	0.000000e+00	-4.07121e-32	
134	5.000000e-02	1.297425e-06	
135	1.000000e-01	2.526700e-06	
136	1.500000e-01	3.688127e-06	
137	2.000000e-01	4.782006e-06	
138	2.500000e-01	5.808634e-06	
139	3.000000e-01	6.768314e-06	
140	3.500000e-01	7.661346e-06	
141	4.000000e-01	8.488035e-06	
142	4.500000e-01	9.248690e-06	
143	5.000000e-01	9.943631e-06	
144	5.500000e-01	1.057319e-05	
145	6.000000e-01	1.113774e-05	
146	6.500000e-01	1.163768e-05	
147	7.000000e-01	1.207352e-05	
148	7.500000e-01	1.244595e-05	
149	8.000000e-01	1.275602e-05	
150	8.500000e-01	1.300549e-05	
151	9.000000e-01	1.319753e-05	
152	9.500000e-01	1.333773e-05	
153	1.000000e+00	1.343480e-05	
154	1.050000e+00	1.349974e-05	
155	1.100000e+00	1.354316e-05	
156	1.150000e+00	1.357315e-05	
157	1.200000e+00	1.359490e-05	
158	1.250000e+00	1.361149e-05	
159	1.300000e+00	1.362475e-05	
160	1.350000e+00	1.363574e-05	
161	1.400000e+00	1.364515e-05	
162	1.450000e+00	1.365340e-05	
163	1.500000e+00	1.366078e-05	
164	1.550000e+00	1.366748e-05	
165	1.600000e+00	1.367365e-05	
166	1.650000e+00	1.367938e-05	
167	1.700000e+00	1.368476e-05	
168	1.750000e+00	1.368984e-05	
169	1.800000e+00	1.369467e-05	
170	1.850000e+00	1.369928e-05	

Index   v-sweep         -i(vds)         
--------------------------------------------------------------------------------
171	1.900000e+00	1.370370e-05	
172	1.950000e+00	1.370797e-05	
173	2.000000e+00	1.371209e-05	
174	2.050000e+00	1.371608e-05	
175	2.100000e+00	1.371996e-05	
176	2.150000e+00	1.372374e-05	
177	2.200000e+00	1.372743e-05	
178	2.250000e+00	1.373103e-05	
179	2.300000e+00	1.373456e-05	
180	2.350000e+00	1.373802e-05	
181	2.400000e+00	1.374142e-05	
182	2.450000e+00	1.374476e-05	
183	2.500000e+00	1.374804e-05	
184	2.550000e+00	1.375128e-05	
185	2.600000e+00	1.375446e-05	
186	2.650000e+00	1.375761e-05	
187	2.700000e+00	1.376071e-05	
188	2.750000e+00	1.376378e-05	
189	2.800000e+00	1.376681e-05	
190	2.850000e+00	1.376981e-05	
191	2.900000e+00	1.377278e-05	
192	2.950000e+00	1.377572e-05	
193	3.000000e+00	1.377864e-05	
194	3.050000e+00	1.378152e-05	
195	3.100000e+00	1.378439e-05	
196	3.150000e+00	1.378723e-05	
197	3.200000e+00	1.379006e-05	
198	3.250000e+00	1.379287e-05	
199	3.300000e+00	1.379566e-05	
200	3.350000e+00	1.379845e-05	
201	3.400000e+00	1.380123e-05	
202	3.450000e+00	1.380401e-05	
203	3.500000e+00	1.380679e-05	
204	3.550000e+00	1.380959e-05	
205	3.600000e+00	1.381240e-05	
206	3.650000e+00	1.381523e-05	
207	3.700000e+00	1.381810e-05	
208	3.750000e+00	1.382102e-05	
209	3.800000e+00	1.382400e-05	
210	3.850000e+00	1.382705e-05	
211	3.900000e+00	1.383020e-05	
212	3.950000e+00	1.383345e-05	
213	4.000000e+00	1.383684e-05	
214	4.050000e+00	1.384039e-05	
215	4.100000e+00	1.384413e-05	
216	4.150000e+00	1.384808e-05	
217	4.200000e+00	1.385229e-05	
218	4.250000e+00	1.385678e-05	
219	4.300000e+00	1.386161e-05	
220	4.350000e+00	1.386680e-05	
221	4.400000e+00	1.387243e-05	
222	4.450000e+00	1.387853e-05	
223	4.500000e+00	1.388516e-05	
224	4.550000e+00	1.389239e-05	
225	4.600000e+00	1.390029e-05	
226	4.650000e+00	1.390892e-05	
227	4.700000e+00	1.391836e-05	
228	4.750000e+00	1.392869e-05	

Index   v-sweep         -i(vds)         
--------------------------------------------------------------------------------
229	4.800000e+00	1.394000e-05	
230	4.850000e+00	1.395238e-05	
231	4.900000e+00	1.396592e-05	
232	4.950000e+00	1.398073e-05	
233	5.000000e+00	1.399692e-05	
234	5.050000e+00	1.401458e-05	
235	5.100000e+00	1.403385e-05	
236	5.150000e+00	1.405485e-05	
237	5.200000e+00	1.407769e-05	
238	5.250000e+00	1.410251e-05	
239	5.300000e+00	1.412946e-05	
240	5.350000e+00	1.415867e-05	
241	5.400000e+00	1.419029e-05	
242	5.450000e+00	1.422447e-05	
243	5.500000e+00	1.426137e-05	
244	5.550000e+00	1.430115e-05	
245	5.600000e+00	1.434399e-05	
246	5.650000e+00	1.439004e-05	
247	5.700000e+00	1.443949e-05	
248	5.750000e+00	1.449251e-05	
249	5.800000e+00	1.454930e-05	
250	5.850000e+00	1.461003e-05	
251	5.900000e+00	1.467490e-05	
252	5.950000e+00	1.474411e-05	
253	6.000000e+00	1.481785e-05	
254	6.050000e+00	1.489634e-05	
255	6.100000e+00	1.497976e-05	
256	6.150000e+00	1.506834e-05	
257	6.200000e+00	1.516229e-05	
258	6.250000e+00	1.526183e-05	
259	6.300000e+00	1.536716e-05	
260	6.350000e+00	1.547851e-05	
261	6.400000e+00	1.559611e-05	
262	6.450000e+00	1.572018e-05	
263	6.500000e+00	1.585095e-05	
264	6.550000e+00	1.598864e-05	
265	6.600000e+00	1.613350e-05	
266	0.000000e+00	-3.13070e-32	
267	5.000000e-02	2.126985e-06	
268	1.000000e-01	4.189211e-06	
269	1.500000e-01	6.186967e-06	
270	2.000000e-01	8.120542e-06	
271	2.500000e-01	9.990223e-06	
272	3.000000e-01	1.179629e-05	
273	3.500000e-01	1.353904e-05	
274	4.000000e-01	1.521874e-05	
275	4.500000e-01	1.683567e-05	
276	5.000000e-01	1.839013e-05	
277	5.500000e-01	1.988237e-05	
278	6.000000e-01	2.131268e-05	
279	6.500000e-01	2.268134e-05	
280	7.000000e-01	2.398861e-05	
281	7.500000e-01	2.523477e-05	
282	8.000000e-01	2.642009e-05	
283	8.500000e-01	2.754484e-05	
284	9.000000e-01	2.860928e-05	
285	9.500000e-01	2.961369e-05	
286	1.000000e+00	3.055832e-05	

Index   v-sweep         -i(vds)         
--------------------------------------------------------------------------------
287	1.050000e+00	3.144345e-05	
288	1.100000e+00	3.226935e-05	
289	1.150000e+00	3.303628e-05	
290	1.200000e+00	3.374451e-05	
291	1.250000e+00	3.439434e-05	
292	1.300000e+00	3.498607e-05	
293	1.350000e+00	3.552003e-05	
294	1.400000e+00	3.599664e-05	
295	1.450000e+00	3.641644e-05	
296	1.500000e+00	3.678021e-05	
297	1.550000e+00	3.708918e-05	
298	1.600000e+00	3.734541e-05	
299	1.650000e+00	3.755222e-05	
300	1.700000e+00	3.771465e-05	
301	1.750000e+00	3.783943e-05	
302	1.800000e+00	3.793423e-05	
303	1.850000e+00	3.800647e-05	
304	1.900000e+00	3.806232e-05	
305	1.950000e+00	3.810648e-05	
306	2.000000e+00	3.814227e-05	
307	2.050000e+00	3.817199e-05	
308	2.100000e+00	3.819722e-05	
309	2.150000e+00	3.821907e-05	
310	2.200000e+00	3.823830e-05	
311	2.250000e+00	3.825549e-05	
312	2.300000e+00	3.827104e-05	
313	2.350000e+00	3.828525e-05	
314	2.400000e+00	3.829837e-05	
315	2.450000e+00	3.831056e-05	
316	2.500000e+00	3.832197e-05	
317	2.550000e+00	3.833271e-05	
318	2.600000e+00	3.834288e-05	
319	2.650000e+00	3.835255e-05	
320	2.700000e+00	3.836178e-05	
321	2.750000e+00	3.837062e-05	
322	2.800000e+00	3.837912e-05	
323	2.850000e+00	3.838730e-05	
324	2.900000e+00	3.839521e-05	
325	2.950000e+00	3.840287e-05	
326	3.000000e+00	3.841030e-05	
327	3.050000e+00	3.841752e-05	
328	3.100000e+00	3.842455e-05	
329	3.150000e+00	3.843141e-05	
330	3.200000e+00	3.843811e-05	
331	3.250000e+00	3.844466e-05	
332	3.300000e+00	3.845107e-05	
333	3.350000e+00	3.845735e-05	
334	3.400000e+00	3.846352e-05	
335	3.450000e+00	3.846957e-05	
336	3.500000e+00	3.847552e-05	
337	3.550000e+00	3.848138e-05	
338	3.600000e+00	3.848714e-05	
339	3.650000e+00	3.849283e-05	
340	3.700000e+00	3.849843e-05	
341	3.750000e+00	3.850396e-05	
342	3.800000e+00	3.850942e-05	
343	3.850000e+00	3.851482e-05	
344	3.900000e+00	3.852016e-05	

Index   v-sweep         -i(vds)         
--------------------------------------------------------------------------------
345	3.950000e+00	3.852546e-05	
346	4.000000e+00	3.853072e-05	
347	4.050000e+00	3.853594e-05	
348	4.100000e+00	3.854114e-05	
349	4.150000e+00	3.854633e-05	
350	4.200000e+00	3.855153e-05	
351	4.250000e+00	3.855675e-05	
352	4.300000e+00	3.856200e-05	
353	4.350000e+00	3.856731e-05	
354	4.400000e+00	3.857272e-05	
355	4.450000e+00	3.857823e-05	
356	4.500000e+00	3.858390e-05	
357	4.550000e+00	3.858976e-05	
358	4.600000e+00	3.859586e-05	
359	4.650000e+00	3.860224e-05	
360	4.700000e+00	3.860898e-05	
361	4.750000e+00	3.861612e-05	
362	4.800000e+00	3.862375e-05	
363	4.850000e+00	3.863194e-05	
364	4.900000e+00	3.864079e-05	
365	4.950000e+00	3.865040e-05	
366	5.000000e+00	3.866088e-05	
367	5.050000e+00	3.867235e-05	
368	5.100000e+00	3.868494e-05	
369	5.150000e+00	3.869879e-05	
370	5.200000e+00	3.871406e-05	
371	5.250000e+00	3.873092e-05	
372	5.300000e+00	3.874954e-05	
373	5.350000e+00	3.877011e-05	
374	5.400000e+00	3.879285e-05	
375	5.450000e+00	3.881797e-05	
376	5.500000e+00	3.884570e-05	
377	5.550000e+00	3.887630e-05	
378	5.600000e+00	3.891002e-05	
379	5.650000e+00	3.894713e-05	
380	5.700000e+00	3.898793e-05	
381	5.750000e+00	3.903272e-05	
382	5.800000e+00	3.908181e-05	
383	5.850000e+00	3.913555e-05	
384	5.900000e+00	3.919427e-05	
385	5.950000e+00	3.925834e-05	
386	6.000000e+00	3.932813e-05	
387	6.050000e+00	3.940403e-05	
388	6.100000e+00	3.948644e-05	
389	6.150000e+00	3.957578e-05	
390	6.200000e+00	3.967249e-05	
391	6.250000e+00	3.977699e-05	
392	6.300000e+00	3.988975e-05	
393	6.350000e+00	4.001123e-05	
394	6.400000e+00	4.014193e-05	
395	6.450000e+00	4.028231e-05	
396	6.500000e+00	4.043290e-05	
397	6.550000e+00	4.059421e-05	
398	6.600000e+00	4.076676e-05	
399	0.000000e+00	-3.26519e-31	
400	5.000000e-02	2.783977e-06	
401	1.000000e-01	5.508130e-06	
402	1.500000e-01	8.172717e-06	

Index   v-sweep         -i(vds)         
--------------------------------------------------------------------------------
403	2.000000e-01	1.077799e-05	
404	2.500000e-01	1.332421e-05	
405	3.000000e-01	1.581163e-05	
406	3.500000e-01	1.824049e-05	
407	4.000000e-01	2.061105e-05	
408	4.500000e-01	2.292356e-05	
409	5.000000e-01	2.517826e-05	
410	5.500000e-01	2.737540e-05	
411	6.000000e-01	2.951522e-05	
412	6.500000e-01	3.159798e-05	
413	7.000000e-01	3.362391e-05	
414	7.500000e-01	3.559325e-05	
415	8.000000e-01	3.750624e-05	
416	8.500000e-01	3.936312e-05	
417	9.000000e-01	4.116413e-05	
418	9.500000e-01	4.290951e-05	
419	1.000000e+00	4.459948e-05	
420	1.050000e+00	4.623428e-05	
421	1.100000e+00	4.781414e-05	
422	1.150000e+00	4.933929e-05	
423	1.200000e+00	5.080996e-05	
424	1.250000e+00	5.222638e-05	
425	1.300000e+00	5.358877e-05	
426	1.350000e+00	5.489735e-05	
427	1.400000e+00	5.615235e-05	
428	1.450000e+00	5.735398e-05	
429	1.500000e+00	5.850246e-05	
430	1.550000e+00	5.959801e-05	
431	1.600000e+00	6.064083e-05	
432	1.650000e+00	6.163113e-05	
433	1.700000e+00	6.256912e-05	
434	1.750000e+00	6.345500e-05	
435	1.800000e+00	6.428895e-05	
436	1.850000e+00	6.507118e-05	
437	1.900000e+00	6.580185e-05	
438	1.950000e+00	6.648116e-05	
439	2.000000e+00	6.710927e-05	
440	2.050000e+00	6.768636e-05	
441	2.100000e+00	6.821263e-05	
442	2.150000e+00	6.868833e-05	
443	2.200000e+00	6.911378e-05	
444	2.250000e+00	6.948954e-05	
445	2.300000e+00	6.981654e-05	
446	2.350000e+00	7.009635e-05	
447	2.400000e+00	7.033151e-05	
448	2.450000e+00	7.052578e-05	
449	2.500000e+00	7.068408e-05	
450	2.550000e+00	7.081211e-05	
451	2.600000e+00	7.091563e-05	
452	2.650000e+00	7.099990e-05	
453	2.700000e+00	7.106930e-05	
454	2.750000e+00	7.112729e-05	
455	2.800000e+00	7.117649e-05	
456	2.850000e+00	7.121887e-05	
457	2.900000e+00	7.125588e-05	
458	2.950000e+00	7.128863e-05	
459	3.000000e+00	7.131793e-05	
460	3.050000e+00	7.134443e-05	

Index   v-sweep         -i(vds)         
--------------------------------------------------------------------------------
461	3.100000e+00	7.136861e-05	
462	3.150000e+00	7.139084e-05	
463	3.200000e+00	7.141143e-05	
464	3.250000e+00	7.143062e-05	
465	3.300000e+00	7.144860e-05	
466	3.350000e+00	7.146553e-05	
467	3.400000e+00	7.148154e-05	
468	3.450000e+00	7.149675e-05	
469	3.500000e+00	7.151125e-05	
470	3.550000e+00	7.152510e-05	
471	3.600000e+00	7.153838e-05	
472	3.650000e+00	7.155115e-05	
473	3.700000e+00	7.156346e-05	
474	3.750000e+00	7.157534e-05	
475	3.800000e+00	7.158683e-05	
476	3.850000e+00	7.159798e-05	
477	3.900000e+00	7.160880e-05	
478	3.950000e+00	7.161932e-05	
479	4.000000e+00	7.162956e-05	
480	4.050000e+00	7.163955e-05	
481	4.100000e+00	7.164931e-05	
482	4.150000e+00	7.165884e-05	
483	4.200000e+00	7.166817e-05	
484	4.250000e+00	7.167731e-05	
485	4.300000e+00	7.168627e-05	
486	4.350000e+00	7.169506e-05	
487	4.400000e+00	7.170369e-05	
488	4.450000e+00	7.171218e-05	
489	4.500000e+00	7.172054e-05	
490	4.550000e+00	7.172877e-05	
491	4.600000e+00	7.173689e-05	
492	4.650000e+00	7.174491e-05	
493	4.700000e+00	7.175284e-05	
494	4.750000e+00	7.176069e-05	
495	4.800000e+00	7.176850e-05	
496	4.850000e+00	7.177626e-05	
497	4.900000e+00	7.178402e-05	
498	4.950000e+00	7.179179e-05	
499	5.000000e+00	7.179960e-05	
500	5.050000e+00	7.180749e-05	
501	5.100000e+00	7.181551e-05	
502	5.150000e+00	7.182370e-05	
503	5.200000e+00	7.183213e-05	
504	5.250000e+00	7.184085e-05	
505	5.300000e+00	7.184995e-05	
506	5.350000e+00	7.185951e-05	
507	5.400000e+00	7.186963e-05	
508	5.450000e+00	7.188042e-05	
509	5.500000e+00	7.189201e-05	
510	5.550000e+00	7.190454e-05	
511	5.600000e+00	7.191816e-05	
512	5.650000e+00	7.193305e-05	
513	5.700000e+00	7.194940e-05	
514	5.750000e+00	7.196741e-05	
515	5.800000e+00	7.198731e-05	
516	5.850000e+00	7.200936e-05	
517	5.900000e+00	7.203383e-05	
518	5.950000e+00	7.206100e-05	

Index   v-sweep         -i(vds)         
--------------------------------------------------------------------------------
519	6.000000e+00	7.209119e-05	
520	6.050000e+00	7.212475e-05	
521	6.100000e+00	7.216203e-05	
522	6.150000e+00	7.220342e-05	
523	6.200000e+00	7.224934e-05	
524	6.250000e+00	7.230022e-05	
525	6.300000e+00	7.235653e-05	
526	6.350000e+00	7.241875e-05	
527	6.400000e+00	7.248741e-05	
528	6.450000e+00	7.256304e-05	
529	6.500000e+00	7.264622e-05	
530	6.550000e+00	7.273753e-05	
531	6.600000e+00	7.283761e-05	
532	0.000000e+00	3.349799e-20	
533	5.000000e-02	3.276258e-06	
534	1.000000e-01	6.498335e-06	
535	1.500000e-01	9.666446e-06	
536	2.000000e-01	1.278081e-05	
537	2.500000e-01	1.584164e-05	
538	3.000000e-01	1.884914e-05	
539	3.500000e-01	2.180354e-05	
540	4.000000e-01	2.470504e-05	
541	4.500000e-01	2.755385e-05	
542	5.000000e-01	3.035019e-05	
543	5.500000e-01	3.309426e-05	
544	6.000000e-01	3.578627e-05	
545	6.500000e-01	3.842643e-05	
546	7.000000e-01	4.101493e-05	
547	7.500000e-01	4.355199e-05	
548	8.000000e-01	4.603781e-05	
549	8.500000e-01	4.847259e-05	
550	9.000000e-01	5.085654e-05	
551	9.500000e-01	5.318985e-05	
552	1.000000e+00	5.547272e-05	
553	1.050000e+00	5.770535e-05	
554	1.100000e+00	5.988794e-05	
555	1.150000e+00	6.202069e-05	
556	1.200000e+00	6.410378e-05	
557	1.250000e+00	6.613742e-05	
558	1.300000e+00	6.812180e-05	
559	1.350000e+00	7.005711e-05	
560	1.400000e+00	7.194354e-05	
561	1.450000e+00	7.378128e-05	
562	1.500000e+00	7.557053e-05	
563	1.550000e+00	7.731146e-05	
564	1.600000e+00	7.900426e-05	
565	1.650000e+00	8.064913e-05	
566	1.700000e+00	8.224623e-05	
567	1.750000e+00	8.379577e-05	
568	1.800000e+00	8.529791e-05	
569	1.850000e+00	8.675284e-05	
570	1.900000e+00	8.816074e-05	
571	1.950000e+00	8.952178e-05	
572	2.000000e+00	9.083613e-05	
573	2.050000e+00	9.210397e-05	
574	2.100000e+00	9.332547e-05	
575	2.150000e+00	9.450079e-05	
576	2.200000e+00	9.563010e-05	

Index   v-sweep         -i(vds)         
--------------------------------------------------------------------------------
577	2.250000e+00	9.671355e-05	
578	2.300000e+00	9.775131e-05	
579	2.350000e+00	9.874352e-05	
580	2.400000e+00	9.969032e-05	
581	2.450000e+00	1.005918e-04	
582	2.500000e+00	1.014482e-04	
583	2.550000e+00	1.022596e-04	
584	2.600000e+00	1.030260e-04	
585	2.650000e+00	1.037476e-04	
586	2.700000e+00	1.044244e-04	
587	2.750000e+00	1.050565e-04	
588	2.800000e+00	1.056439e-04	
589	2.850000e+00	1.061866e-04	
590	2.900000e+00	1.066846e-04	
591	2.950000e+00	1.071381e-04	
592	3.000000e+00	1.075471e-04	
593	3.050000e+00	1.079120e-04	
594	3.100000e+00	1.082337e-04	
595	3.150000e+00	1.085136e-04	
596	3.200000e+00	1.087539e-04	
597	3.250000e+00	1.089578e-04	
598	3.300000e+00	1.091295e-04	
599	3.350000e+00	1.092735e-04	
600	3.400000e+00	1.093942e-04	
601	3.450000e+00	1.094960e-04	
602	3.500000e+00	1.095825e-04	
603	3.550000e+00	1.096567e-04	
604	3.600000e+00	1.097211e-04	
605	3.650000e+00	1.097775e-04	
606	3.700000e+00	1.098274e-04	
607	3.750000e+00	1.098721e-04	
608	3.800000e+00	1.099124e-04	
609	3.850000e+00	1.099490e-04	
610	3.900000e+00	1.099826e-04	
611	3.950000e+00	1.100135e-04	
612	4.000000e+00	1.100422e-04	
613	4.050000e+00	1.100690e-04	
614	4.100000e+00	1.100941e-04	
615	4.150000e+00	1.101178e-04	
616	4.200000e+00	1.101401e-04	
617	4.250000e+00	1.101613e-04	
618	4.300000e+00	1.101815e-04	
619	4.350000e+00	1.102008e-04	
620	4.400000e+00	1.102192e-04	
621	4.450000e+00	1.102369e-04	
622	4.500000e+00	1.102539e-04	
623	4.550000e+00	1.102703e-04	
624	4.600000e+00	1.102861e-04	
625	4.650000e+00	1.103014e-04	
626	4.700000e+00	1.103163e-04	
627	4.750000e+00	1.103307e-04	
628	4.800000e+00	1.103446e-04	
629	4.850000e+00	1.103583e-04	
630	4.900000e+00	1.103715e-04	
631	4.950000e+00	1.103845e-04	
632	5.000000e+00	1.103971e-04	
633	5.050000e+00	1.104094e-04	
634	5.100000e+00	1.104215e-04	

Index   v-sweep         -i(vds)         
--------------------------------------------------------------------------------
635	5.150000e+00	1.104334e-04	
636	5.200000e+00	1.104450e-04	
637	5.250000e+00	1.104564e-04	
638	5.300000e+00	1.104676e-04	
639	5.350000e+00	1.104786e-04	
640	5.400000e+00	1.104894e-04	
641	5.450000e+00	1.105002e-04	
642	5.500000e+00	1.105107e-04	
643	5.550000e+00	1.105212e-04	
644	5.600000e+00	1.105317e-04	
645	5.650000e+00	1.105421e-04	
646	5.700000e+00	1.105525e-04	
647	5.750000e+00	1.105629e-04	
648	5.800000e+00	1.105735e-04	
649	5.850000e+00	1.105842e-04	
650	5.900000e+00	1.105952e-04	
651	5.950000e+00	1.106065e-04	
652	6.000000e+00	1.106182e-04	
653	6.050000e+00	1.106305e-04	
654	6.100000e+00	1.106434e-04	
655	6.150000e+00	1.106571e-04	
656	6.200000e+00	1.106718e-04	
657	6.250000e+00	1.106877e-04	
658	6.300000e+00	1.107049e-04	
659	6.350000e+00	1.107238e-04	
660	6.400000e+00	1.107444e-04	
661	6.450000e+00	1.107673e-04	
662	6.500000e+00	1.107925e-04	
663	6.550000e+00	1.108206e-04	
664	6.600000e+00	1.108518e-04	
665	0.000000e+00	-2.34370e-30	
666	5.000000e-02	3.624516e-06	
667	1.000000e-01	7.200664e-06	
668	1.500000e-01	1.072862e-05	
669	2.000000e-01	1.420857e-05	
670	2.500000e-01	1.764067e-05	
671	3.000000e-01	2.102512e-05	
672	3.500000e-01	2.436208e-05	
673	4.000000e-01	2.765172e-05	
674	4.500000e-01	3.089422e-05	
675	5.000000e-01	3.408975e-05	
676	5.500000e-01	3.723848e-05	
677	6.000000e-01	4.034059e-05	
678	6.500000e-01	4.339624e-05	
679	7.000000e-01	4.640559e-05	
680	7.500000e-01	4.936883e-05	
681	8.000000e-01	5.228612e-05	
682	8.500000e-01	5.515761e-05	
683	9.000000e-01	5.798349e-05	
684	9.500000e-01	6.076391e-05	
685	1.000000e+00	6.349904e-05	
686	1.050000e+00	6.618905e-05	
687	1.100000e+00	6.883409e-05	
688	1.150000e+00	7.143433e-05	
689	1.200000e+00	7.398993e-05	
690	1.250000e+00	7.650105e-05	
691	1.300000e+00	7.896785e-05	
692	1.350000e+00	8.139049e-05	

Index   v-sweep         -i(vds)         
--------------------------------------------------------------------------------
693	1.400000e+00	8.376913e-05	
694	1.450000e+00	8.610393e-05	
695	1.500000e+00	8.839505e-05	
696	1.550000e+00	9.064263e-05	
697	1.600000e+00	9.284685e-05	
698	1.650000e+00	9.500784e-05	
699	1.700000e+00	9.712577e-05	
700	1.750000e+00	9.920079e-05	
701	1.800000e+00	1.012331e-04	
702	1.850000e+00	1.032227e-04	
703	1.900000e+00	1.051699e-04	
704	1.950000e+00	1.070748e-04	
705	2.000000e+00	1.089376e-04	
706	2.050000e+00	1.107583e-04	
707	2.100000e+00	1.125372e-04	
708	2.150000e+00	1.142743e-04	
709	2.200000e+00	1.159699e-04	
710	2.250000e+00	1.176241e-04	
711	2.300000e+00	1.192370e-04	
712	2.350000e+00	1.208088e-04	
713	2.400000e+00	1.223396e-04	
714	2.450000e+00	1.238295e-04	
715	2.500000e+00	1.252787e-04	
716	2.550000e+00	1.266873e-04	
717	2.600000e+00	1.280555e-04	
718	2.650000e+00	1.293834e-04	
719	2.700000e+00	1.306712e-04	
720	2.750000e+00	1.319188e-04	
721	2.800000e+00	1.331266e-04	
722	2.850000e+00	1.342946e-04	
723	2.900000e+00	1.354229e-04	
724	2.950000e+00	1.365116e-04	
725	3.000000e+00	1.375609e-04	
726	3.050000e+00	1.385709e-04	
727	3.100000e+00	1.395417e-04	
728	3.150000e+00	1.404733e-04	
729	3.200000e+00	1.413658e-04	
730	3.250000e+00	1.422194e-04	
731	3.300000e+00	1.430340e-04	
732	3.350000e+00	1.438098e-04	
733	3.400000e+00	1.445467e-04	
734	3.450000e+00	1.452447e-04	
735	3.500000e+00	1.459038e-04	
736	3.550000e+00	1.465240e-04	
737	3.600000e+00	1.471050e-04	
738	3.650000e+00	1.476469e-04	
739	3.700000e+00	1.481494e-04	
740	3.750000e+00	1.486125e-04	
741	3.800000e+00	1.490360e-04	
742	3.850000e+00	1.494199e-04	
743	3.900000e+00	1.497648e-04	
744	3.950000e+00	1.500712e-04	
745	4.000000e+00	1.503409e-04	
746	4.050000e+00	1.505758e-04	
747	4.100000e+00	1.507789e-04	
748	4.150000e+00	1.509537e-04	
749	4.200000e+00	1.511039e-04	
750	4.250000e+00	1.512332e-04	

Index   v-sweep         -i(vds)         
--------------------------------------------------------------------------------
751	4.300000e+00	1.513449e-04	
752	4.350000e+00	1.514420e-04	
753	4.400000e+00	1.515271e-04	
754	4.450000e+00	1.516022e-04	
755	4.500000e+00	1.516690e-04	
756	4.550000e+00	1.517290e-04	
757	4.600000e+00	1.517831e-04	
758	4.650000e+00	1.518324e-04	
759	4.700000e+00	1.518776e-04	
760	4.750000e+00	1.519192e-04	
761	4.800000e+00	1.519578e-04	
762	4.850000e+00	1.519937e-04	
763	4.900000e+00	1.520274e-04	
764	4.950000e+00	1.520589e-04	
765	5.000000e+00	1.520887e-04	
766	5.050000e+00	1.521169e-04	
767	5.100000e+00	1.521437e-04	
768	5.150000e+00	1.521691e-04	
769	5.200000e+00	1.521935e-04	
770	5.250000e+00	1.522168e-04	
771	5.300000e+00	1.522391e-04	
772	5.350000e+00	1.522606e-04	
773	5.400000e+00	1.522813e-04	
774	5.450000e+00	1.523013e-04	
775	5.500000e+00	1.523206e-04	
776	5.550000e+00	1.523392e-04	
777	5.600000e+00	1.523574e-04	
778	5.650000e+00	1.523750e-04	
779	5.700000e+00	1.523921e-04	
780	5.750000e+00	1.524087e-04	
781	5.800000e+00	1.524250e-04	
782	5.850000e+00	1.524408e-04	
783	5.900000e+00	1.524562e-04	
784	5.950000e+00	1.524714e-04	
785	6.000000e+00	1.524862e-04	
786	6.050000e+00	1.525007e-04	
787	6.100000e+00	1.525149e-04	
788	6.150000e+00	1.525288e-04	
789	6.200000e+00	1.525426e-04	
790	6.250000e+00	1.525561e-04	
791	6.300000e+00	1.525695e-04	
792	6.350000e+00	1.525827e-04	
793	6.400000e+00	1.525958e-04	
794	6.450000e+00	1.526089e-04	
795	6.500000e+00	1.526220e-04	
796	6.550000e+00	1.526352e-04	
797	6.600000e+00	1.526484e-04	
Note: No ".plot", ".print", or ".fourier" lines; no simulations run
