
Note: Compatibility modes selected: hs

Warning: m=xx on .subckt line will override multiplier m hierarchy!


Circuit: ***************************

Doing analysis at TEMP = 25.000000 and TNOM = 25.000000


No. of Data Rows : 798
                          ***************************
                          DC transfer characteristic  Mon Jan  9 13:58:36  2023
--------------------------------------------------------------------------------
Index   v-sweep         -i(vds)         
--------------------------------------------------------------------------------
0	0.000000e+00	-4.45676e-30	
1	5.000000e-02	2.295645e-05	
2	1.000000e-01	3.948035e-05	
3	1.500000e-01	5.004512e-05	
4	2.000000e-01	5.581023e-05	
5	2.500000e-01	5.886063e-05	
6	3.000000e-01	6.083422e-05	
7	3.500000e-01	6.235991e-05	
8	4.000000e-01	6.364523e-05	
9	4.500000e-01	6.477616e-05	
10	5.000000e-01	6.579741e-05	
11	5.500000e-01	6.673598e-05	
12	6.000000e-01	6.760968e-05	
13	6.500000e-01	6.843104e-05	
14	7.000000e-01	6.920922e-05	
15	7.500000e-01	6.995119e-05	
16	8.000000e-01	7.066233e-05	
17	8.500000e-01	7.134693e-05	
18	9.000000e-01	7.200845e-05	
19	9.500000e-01	7.264971e-05	
20	1.000000e+00	7.327306e-05	
21	1.050000e+00	7.388046e-05	
22	1.100000e+00	7.447358e-05	
23	1.150000e+00	7.505385e-05	
24	1.200000e+00	7.562249e-05	
25	1.250000e+00	7.618055e-05	
26	1.300000e+00	7.672898e-05	
27	1.350000e+00	7.726857e-05	
28	1.400000e+00	7.780005e-05	
29	1.450000e+00	7.832406e-05	
30	1.500000e+00	7.884115e-05	
31	1.550000e+00	7.935184e-05	
32	1.600000e+00	7.985658e-05	
33	1.650000e+00	8.035578e-05	
34	1.700000e+00	8.084981e-05	
35	1.750000e+00	8.133901e-05	
36	1.800000e+00	8.182369e-05	
37	1.850000e+00	8.230411e-05	
38	1.900000e+00	8.278054e-05	
39	1.950000e+00	8.325321e-05	
40	2.000000e+00	8.372234e-05	
41	2.050000e+00	8.418812e-05	
42	2.100000e+00	8.465074e-05	
43	2.150000e+00	8.511037e-05	
44	2.200000e+00	8.556717e-05	
45	2.250000e+00	8.602127e-05	
46	2.300000e+00	8.647284e-05	
47	2.350000e+00	8.692198e-05	
48	2.400000e+00	8.736883e-05	
49	2.450000e+00	8.781351e-05	
50	2.500000e+00	8.825612e-05	
51	2.550000e+00	8.869679e-05	
52	2.600000e+00	8.913561e-05	
53	2.650000e+00	8.957270e-05	
54	2.700000e+00	9.000817e-05	

Index   v-sweep         -i(vds)         
--------------------------------------------------------------------------------
55	2.750000e+00	9.044213e-05	
56	2.800000e+00	9.087468e-05	
57	2.850000e+00	9.130595e-05	
58	2.900000e+00	9.173607e-05	
59	2.950000e+00	9.216517e-05	
60	3.000000e+00	9.259338e-05	
61	3.050000e+00	9.302087e-05	
62	3.100000e+00	9.344780e-05	
63	3.150000e+00	9.387435e-05	
64	3.200000e+00	9.430072e-05	
65	3.250000e+00	9.472712e-05	
66	3.300000e+00	9.515380e-05	
67	3.350000e+00	9.558101e-05	
68	3.400000e+00	9.600904e-05	
69	3.450000e+00	9.643819e-05	
70	3.500000e+00	9.686879e-05	
71	3.550000e+00	9.730123e-05	
72	3.600000e+00	9.773588e-05	
73	3.650000e+00	9.817318e-05	
74	3.700000e+00	9.861360e-05	
75	3.750000e+00	9.905764e-05	
76	3.800000e+00	9.950583e-05	
77	3.850000e+00	9.995875e-05	
78	3.900000e+00	1.004170e-04	
79	3.950000e+00	1.008813e-04	
80	4.000000e+00	1.013523e-04	
81	4.050000e+00	1.018308e-04	
82	4.100000e+00	1.023175e-04	
83	4.150000e+00	1.028133e-04	
84	4.200000e+00	1.033191e-04	
85	4.250000e+00	1.038359e-04	
86	4.300000e+00	1.043645e-04	
87	4.350000e+00	1.049061e-04	
88	4.400000e+00	1.054618e-04	
89	4.450000e+00	1.060326e-04	
90	4.500000e+00	1.066198e-04	
91	4.550000e+00	1.072247e-04	
92	4.600000e+00	1.078484e-04	
93	4.650000e+00	1.084924e-04	
94	4.700000e+00	1.091581e-04	
95	4.750000e+00	1.098468e-04	
96	4.800000e+00	1.105602e-04	
97	4.850000e+00	1.112997e-04	
98	4.900000e+00	1.120670e-04	
99	4.950000e+00	1.128638e-04	
100	5.000000e+00	1.136917e-04	
101	5.050000e+00	1.145525e-04	
102	5.100000e+00	1.154480e-04	
103	5.150000e+00	1.163801e-04	
104	5.200000e+00	1.173506e-04	
105	5.250000e+00	1.183616e-04	
106	5.300000e+00	1.194150e-04	
107	5.350000e+00	1.205129e-04	
108	5.400000e+00	1.216574e-04	
109	5.450000e+00	1.228507e-04	
110	5.500000e+00	1.240948e-04	
111	5.550000e+00	1.253920e-04	
112	5.600000e+00	1.267447e-04	

Index   v-sweep         -i(vds)         
--------------------------------------------------------------------------------
113	5.650000e+00	1.281550e-04	
114	5.700000e+00	1.296255e-04	
115	5.750000e+00	1.311583e-04	
116	5.800000e+00	1.327561e-04	
117	5.850000e+00	1.344211e-04	
118	5.900000e+00	1.361560e-04	
119	5.950000e+00	1.379633e-04	
120	6.000000e+00	1.398455e-04	
121	6.050000e+00	1.418052e-04	
122	6.100000e+00	1.438451e-04	
123	6.150000e+00	1.459678e-04	
124	6.200000e+00	1.481760e-04	
125	6.250000e+00	1.504724e-04	
126	6.300000e+00	1.528598e-04	
127	6.350000e+00	1.553410e-04	
128	6.400000e+00	1.579186e-04	
129	6.450000e+00	1.605956e-04	
130	6.500000e+00	1.633747e-04	
131	6.550000e+00	1.662589e-04	
132	6.600000e+00	1.692511e-04	
133	0.000000e+00	-1.38619e-29	
134	5.000000e-02	9.466161e-05	
135	1.000000e-01	1.820683e-04	
136	1.500000e-01	2.624211e-04	
137	2.000000e-01	3.359156e-04	
138	2.500000e-01	4.027422e-04	
139	3.000000e-01	4.630866e-04	
140	3.500000e-01	5.171305e-04	
141	4.000000e-01	5.650526e-04	
142	4.500000e-01	6.070304e-04	
143	5.000000e-01	6.432456e-04	
144	5.500000e-01	6.738951e-04	
145	6.000000e-01	6.992258e-04	
146	6.500000e-01	7.196185e-04	
147	7.000000e-01	7.357059e-04	
148	7.500000e-01	7.483654e-04	
149	8.000000e-01	7.584983e-04	
150	8.500000e-01	7.668270e-04	
151	9.000000e-01	7.738584e-04	
152	9.500000e-01	7.799336e-04	
153	1.000000e+00	7.852835e-04	
154	1.050000e+00	7.900682e-04	
155	1.100000e+00	7.944018e-04	
156	1.150000e+00	7.983678e-04	
157	1.200000e+00	8.020290e-04	
158	1.250000e+00	8.054336e-04	
159	1.300000e+00	8.086195e-04	
160	1.350000e+00	8.116167e-04	
161	1.400000e+00	8.144496e-04	
162	1.450000e+00	8.171382e-04	
163	1.500000e+00	8.196990e-04	
164	1.550000e+00	8.221460e-04	
165	1.600000e+00	8.244909e-04	
166	1.650000e+00	8.267438e-04	
167	1.700000e+00	8.289133e-04	
168	1.750000e+00	8.310069e-04	
169	1.800000e+00	8.330311e-04	
170	1.850000e+00	8.349917e-04	

Index   v-sweep         -i(vds)         
--------------------------------------------------------------------------------
171	1.900000e+00	8.368936e-04	
172	1.950000e+00	8.387415e-04	
173	2.000000e+00	8.405392e-04	
174	2.050000e+00	8.422903e-04	
175	2.100000e+00	8.439980e-04	
176	2.150000e+00	8.456653e-04	
177	2.200000e+00	8.472947e-04	
178	2.250000e+00	8.488886e-04	
179	2.300000e+00	8.504491e-04	
180	2.350000e+00	8.519781e-04	
181	2.400000e+00	8.534776e-04	
182	2.450000e+00	8.549492e-04	
183	2.500000e+00	8.563943e-04	
184	2.550000e+00	8.578144e-04	
185	2.600000e+00	8.592107e-04	
186	2.650000e+00	8.605845e-04	
187	2.700000e+00	8.619369e-04	
188	2.750000e+00	8.632690e-04	
189	2.800000e+00	8.645818e-04	
190	2.850000e+00	8.658761e-04	
191	2.900000e+00	8.671530e-04	
192	2.950000e+00	8.684133e-04	
193	3.000000e+00	8.696578e-04	
194	3.050000e+00	8.708874e-04	
195	3.100000e+00	8.721030e-04	
196	3.150000e+00	8.733054e-04	
197	3.200000e+00	8.744955e-04	
198	3.250000e+00	8.756742e-04	
199	3.300000e+00	8.768424e-04	
200	3.350000e+00	8.780012e-04	
201	3.400000e+00	8.791517e-04	
202	3.450000e+00	8.802949e-04	
203	3.500000e+00	8.814323e-04	
204	3.550000e+00	8.825651e-04	
205	3.600000e+00	8.836950e-04	
206	3.650000e+00	8.848234e-04	
207	3.700000e+00	8.859523e-04	
208	3.750000e+00	8.870835e-04	
209	3.800000e+00	8.882193e-04	
210	3.850000e+00	8.893619e-04	
211	3.900000e+00	8.905140e-04	
212	3.950000e+00	8.916783e-04	
213	4.000000e+00	8.928578e-04	
214	4.050000e+00	8.940557e-04	
215	4.100000e+00	8.952757e-04	
216	4.150000e+00	8.965214e-04	
217	4.200000e+00	8.977971e-04	
218	4.250000e+00	8.991069e-04	
219	4.300000e+00	9.004557e-04	
220	4.350000e+00	9.018483e-04	
221	4.400000e+00	9.032902e-04	
222	4.450000e+00	9.047868e-04	
223	4.500000e+00	9.063442e-04	
224	4.550000e+00	9.079686e-04	
225	4.600000e+00	9.096667e-04	
226	4.650000e+00	9.114455e-04	
227	4.700000e+00	9.133122e-04	
228	4.750000e+00	9.152746e-04	

Index   v-sweep         -i(vds)         
--------------------------------------------------------------------------------
229	4.800000e+00	9.173407e-04	
230	4.850000e+00	9.195188e-04	
231	4.900000e+00	9.218176e-04	
232	4.950000e+00	9.242462e-04	
233	5.000000e+00	9.268141e-04	
234	5.050000e+00	9.295309e-04	
235	5.100000e+00	9.324068e-04	
236	5.150000e+00	9.354522e-04	
237	5.200000e+00	9.386778e-04	
238	5.250000e+00	9.420946e-04	
239	5.300000e+00	9.457142e-04	
240	5.350000e+00	9.495482e-04	
241	5.400000e+00	9.536085e-04	
242	5.450000e+00	9.579075e-04	
243	5.500000e+00	9.624578e-04	
244	5.550000e+00	9.672721e-04	
245	5.600000e+00	9.723637e-04	
246	5.650000e+00	9.777459e-04	
247	5.700000e+00	9.834324e-04	
248	5.750000e+00	9.894369e-04	
249	5.800000e+00	9.957736e-04	
250	5.850000e+00	1.002457e-03	
251	5.900000e+00	1.009501e-03	
252	5.950000e+00	1.016921e-03	
253	6.000000e+00	1.024732e-03	
254	6.050000e+00	1.032948e-03	
255	6.100000e+00	1.041585e-03	
256	6.150000e+00	1.050659e-03	
257	6.200000e+00	1.060184e-03	
258	6.250000e+00	1.070177e-03	
259	6.300000e+00	1.080653e-03	
260	6.350000e+00	1.091628e-03	
261	6.400000e+00	1.103118e-03	
262	6.450000e+00	1.115139e-03	
263	6.500000e+00	1.127708e-03	
264	6.550000e+00	1.140840e-03	
265	6.600000e+00	1.154551e-03	
266	0.000000e+00	-2.66433e-20	
267	5.000000e-02	1.453524e-04	
268	1.000000e-01	2.833980e-04	
269	1.500000e-01	4.143203e-04	
270	2.000000e-01	5.382984e-04	
271	2.500000e-01	6.555068e-04	
272	3.000000e-01	7.661151e-04	
273	3.500000e-01	8.702882e-04	
274	4.000000e-01	9.681862e-04	
275	4.500000e-01	1.059964e-03	
276	5.000000e-01	1.145774e-03	
277	5.500000e-01	1.225759e-03	
278	6.000000e-01	1.300061e-03	
279	6.500000e-01	1.368814e-03	
280	7.000000e-01	1.432142e-03	
281	7.500000e-01	1.490161e-03	
282	8.000000e-01	1.542968e-03	
283	8.500000e-01	1.590631e-03	
284	9.000000e-01	1.633183e-03	
285	9.500000e-01	1.670609e-03	
286	1.000000e+00	1.702893e-03	

Index   v-sweep         -i(vds)         
--------------------------------------------------------------------------------
287	1.050000e+00	1.730140e-03	
288	1.100000e+00	1.752737e-03	
289	1.150000e+00	1.771367e-03	
290	1.200000e+00	1.786825e-03	
291	1.250000e+00	1.799835e-03	
292	1.300000e+00	1.810971e-03	
293	1.350000e+00	1.820662e-03	
294	1.400000e+00	1.829219e-03	
295	1.450000e+00	1.836874e-03	
296	1.500000e+00	1.843795e-03	
297	1.550000e+00	1.850113e-03	
298	1.600000e+00	1.855926e-03	
299	1.650000e+00	1.861311e-03	
300	1.700000e+00	1.866330e-03	
301	1.750000e+00	1.871032e-03	
302	1.800000e+00	1.875457e-03	
303	1.850000e+00	1.879639e-03	
304	1.900000e+00	1.883604e-03	
305	1.950000e+00	1.887377e-03	
306	2.000000e+00	1.890978e-03	
307	2.050000e+00	1.894422e-03	
308	2.100000e+00	1.897724e-03	
309	2.150000e+00	1.900898e-03	
310	2.200000e+00	1.903954e-03	
311	2.250000e+00	1.906902e-03	
312	2.300000e+00	1.909750e-03	
313	2.350000e+00	1.912506e-03	
314	2.400000e+00	1.915178e-03	
315	2.450000e+00	1.917769e-03	
316	2.500000e+00	1.920288e-03	
317	2.550000e+00	1.922737e-03	
318	2.600000e+00	1.925122e-03	
319	2.650000e+00	1.927446e-03	
320	2.700000e+00	1.929714e-03	
321	2.750000e+00	1.931928e-03	
322	2.800000e+00	1.934092e-03	
323	2.850000e+00	1.936208e-03	
324	2.900000e+00	1.938280e-03	
325	2.950000e+00	1.940309e-03	
326	3.000000e+00	1.942297e-03	
327	3.050000e+00	1.944247e-03	
328	3.100000e+00	1.946161e-03	
329	3.150000e+00	1.948040e-03	
330	3.200000e+00	1.949886e-03	
331	3.250000e+00	1.951702e-03	
332	3.300000e+00	1.953487e-03	
333	3.350000e+00	1.955245e-03	
334	3.400000e+00	1.956977e-03	
335	3.450000e+00	1.958683e-03	
336	3.500000e+00	1.960367e-03	
337	3.550000e+00	1.962029e-03	
338	3.600000e+00	1.963671e-03	
339	3.650000e+00	1.965296e-03	
340	3.700000e+00	1.966904e-03	
341	3.750000e+00	1.968499e-03	
342	3.800000e+00	1.970082e-03	
343	3.850000e+00	1.971656e-03	
344	3.900000e+00	1.973223e-03	

Index   v-sweep         -i(vds)         
--------------------------------------------------------------------------------
345	3.950000e+00	1.974788e-03	
346	4.000000e+00	1.976353e-03	
347	4.050000e+00	1.977921e-03	
348	4.100000e+00	1.979498e-03	
349	4.150000e+00	1.981087e-03	
350	4.200000e+00	1.982692e-03	
351	4.250000e+00	1.984321e-03	
352	4.300000e+00	1.985977e-03	
353	4.350000e+00	1.987668e-03	
354	4.400000e+00	1.989401e-03	
355	4.450000e+00	1.991182e-03	
356	4.500000e+00	1.993020e-03	
357	4.550000e+00	1.994923e-03	
358	4.600000e+00	1.996900e-03	
359	4.650000e+00	1.998962e-03	
360	4.700000e+00	2.001119e-03	
361	4.750000e+00	2.003382e-03	
362	4.800000e+00	2.005763e-03	
363	4.850000e+00	2.008274e-03	
364	4.900000e+00	2.010930e-03	
365	4.950000e+00	2.013743e-03	
366	5.000000e+00	2.016729e-03	
367	5.050000e+00	2.019903e-03	
368	5.100000e+00	2.023282e-03	
369	5.150000e+00	2.026882e-03	
370	5.200000e+00	2.030721e-03	
371	5.250000e+00	2.034818e-03	
372	5.300000e+00	2.039192e-03	
373	5.350000e+00	2.043863e-03	
374	5.400000e+00	2.048851e-03	
375	5.450000e+00	2.054178e-03	
376	5.500000e+00	2.059865e-03	
377	5.550000e+00	2.065936e-03	
378	5.600000e+00	2.072413e-03	
379	5.650000e+00	2.079322e-03	
380	5.700000e+00	2.086685e-03	
381	5.750000e+00	2.094529e-03	
382	5.800000e+00	2.102879e-03	
383	5.850000e+00	2.111762e-03	
384	5.900000e+00	2.121204e-03	
385	5.950000e+00	2.131234e-03	
386	6.000000e+00	2.141878e-03	
387	6.050000e+00	2.153165e-03	
388	6.100000e+00	2.165124e-03	
389	6.150000e+00	2.177784e-03	
390	6.200000e+00	2.191176e-03	
391	6.250000e+00	2.205327e-03	
392	6.300000e+00	2.220270e-03	
393	6.350000e+00	2.236035e-03	
394	6.400000e+00	2.252652e-03	
395	6.450000e+00	2.270153e-03	
396	6.500000e+00	2.288569e-03	
397	6.550000e+00	2.307932e-03	
398	6.600000e+00	2.328273e-03	
399	0.000000e+00	-3.27236e-19	
400	5.000000e-02	1.814170e-04	
401	1.000000e-01	3.558233e-04	
402	1.500000e-01	5.233739e-04	

Index   v-sweep         -i(vds)         
--------------------------------------------------------------------------------
403	2.000000e-01	6.842211e-04	
404	2.500000e-01	8.385134e-04	
405	3.000000e-01	9.863961e-04	
406	3.500000e-01	1.128011e-03	
407	4.000000e-01	1.263497e-03	
408	4.500000e-01	1.392989e-03	
409	5.000000e-01	1.516617e-03	
410	5.500000e-01	1.634511e-03	
411	6.000000e-01	1.746794e-03	
412	6.500000e-01	1.853587e-03	
413	7.000000e-01	1.955008e-03	
414	7.500000e-01	2.051171e-03	
415	8.000000e-01	2.142186e-03	
416	8.500000e-01	2.228158e-03	
417	9.000000e-01	2.309188e-03	
418	9.500000e-01	2.385367e-03	
419	1.000000e+00	2.456780e-03	
420	1.050000e+00	2.523493e-03	
421	1.100000e+00	2.585552e-03	
422	1.150000e+00	2.642967e-03	
423	1.200000e+00	2.695696e-03	
424	1.250000e+00	2.743628e-03	
425	1.300000e+00	2.786592e-03	
426	1.350000e+00	2.824416e-03	
427	1.400000e+00	2.857081e-03	
428	1.450000e+00	2.884858e-03	
429	1.500000e+00	2.908319e-03	
430	1.550000e+00	2.928182e-03	
431	1.600000e+00	2.945150e-03	
432	1.650000e+00	2.959823e-03	
433	1.700000e+00	2.972673e-03	
434	1.750000e+00	2.984064e-03	
435	1.800000e+00	2.994274e-03	
436	1.850000e+00	3.003513e-03	
437	1.900000e+00	3.011946e-03	
438	1.950000e+00	3.019699e-03	
439	2.000000e+00	3.026875e-03	
440	2.050000e+00	3.033554e-03	
441	2.100000e+00	3.039802e-03	
442	2.150000e+00	3.045672e-03	
443	2.200000e+00	3.051209e-03	
444	2.250000e+00	3.056451e-03	
445	2.300000e+00	3.061429e-03	
446	2.350000e+00	3.066170e-03	
447	2.400000e+00	3.070696e-03	
448	2.450000e+00	3.075029e-03	
449	2.500000e+00	3.079184e-03	
450	2.550000e+00	3.083177e-03	
451	2.600000e+00	3.087022e-03	
452	2.650000e+00	3.090730e-03	
453	2.700000e+00	3.094312e-03	
454	2.750000e+00	3.097776e-03	
455	2.800000e+00	3.101131e-03	
456	2.850000e+00	3.104385e-03	
457	2.900000e+00	3.107544e-03	
458	2.950000e+00	3.110615e-03	
459	3.000000e+00	3.113602e-03	
460	3.050000e+00	3.116512e-03	

Index   v-sweep         -i(vds)         
--------------------------------------------------------------------------------
461	3.100000e+00	3.119348e-03	
462	3.150000e+00	3.122114e-03	
463	3.200000e+00	3.124815e-03	
464	3.250000e+00	3.127455e-03	
465	3.300000e+00	3.130035e-03	
466	3.350000e+00	3.132561e-03	
467	3.400000e+00	3.135033e-03	
468	3.450000e+00	3.137456e-03	
469	3.500000e+00	3.139831e-03	
470	3.550000e+00	3.142161e-03	
471	3.600000e+00	3.144449e-03	
472	3.650000e+00	3.146697e-03	
473	3.700000e+00	3.148906e-03	
474	3.750000e+00	3.151079e-03	
475	3.800000e+00	3.153219e-03	
476	3.850000e+00	3.155328e-03	
477	3.900000e+00	3.157408e-03	
478	3.950000e+00	3.159463e-03	
479	4.000000e+00	3.161494e-03	
480	4.050000e+00	3.163505e-03	
481	4.100000e+00	3.165499e-03	
482	4.150000e+00	3.167479e-03	
483	4.200000e+00	3.169451e-03	
484	4.250000e+00	3.171417e-03	
485	4.300000e+00	3.173384e-03	
486	4.350000e+00	3.175355e-03	
487	4.400000e+00	3.177338e-03	
488	4.450000e+00	3.179339e-03	
489	4.500000e+00	3.181364e-03	
490	4.550000e+00	3.183422e-03	
491	4.600000e+00	3.185520e-03	
492	4.650000e+00	3.187670e-03	
493	4.700000e+00	3.189879e-03	
494	4.750000e+00	3.192161e-03	
495	4.800000e+00	3.194526e-03	
496	4.850000e+00	3.196987e-03	
497	4.900000e+00	3.199558e-03	
498	4.950000e+00	3.202254e-03	
499	5.000000e+00	3.205091e-03	
500	5.050000e+00	3.208086e-03	
501	5.100000e+00	3.211257e-03	
502	5.150000e+00	3.214622e-03	
503	5.200000e+00	3.218203e-03	
504	5.250000e+00	3.222020e-03	
505	5.300000e+00	3.226096e-03	
506	5.350000e+00	3.230454e-03	
507	5.400000e+00	3.235120e-03	
508	5.450000e+00	3.240120e-03	
509	5.500000e+00	3.245480e-03	
510	5.550000e+00	3.251229e-03	
511	5.600000e+00	3.257396e-03	
512	5.650000e+00	3.264012e-03	
513	5.700000e+00	3.271108e-03	
514	5.750000e+00	3.278717e-03	
515	5.800000e+00	3.286873e-03	
516	5.850000e+00	3.295610e-03	
517	5.900000e+00	3.304966e-03	
518	5.950000e+00	3.314975e-03	

Index   v-sweep         -i(vds)         
--------------------------------------------------------------------------------
519	6.000000e+00	3.325676e-03	
520	6.050000e+00	3.337109e-03	
521	6.100000e+00	3.349311e-03	
522	6.150000e+00	3.362324e-03	
523	6.200000e+00	3.376190e-03	
524	6.250000e+00	3.390949e-03	
525	6.300000e+00	3.406645e-03	
526	6.350000e+00	3.423321e-03	
527	6.400000e+00	3.441021e-03	
528	6.450000e+00	3.459790e-03	
529	6.500000e+00	3.479673e-03	
530	6.550000e+00	3.500716e-03	
531	6.600000e+00	3.522965e-03	
532	0.000000e+00	4.618142e-20	
533	5.000000e-02	2.059953e-04	
534	1.000000e-01	4.054863e-04	
535	1.500000e-01	5.985988e-04	
536	2.000000e-01	7.854567e-04	
537	2.500000e-01	9.661814e-04	
538	3.000000e-01	1.140892e-03	
539	3.500000e-01	1.309706e-03	
540	4.000000e-01	1.472737e-03	
541	4.500000e-01	1.630097e-03	
542	5.000000e-01	1.781897e-03	
543	5.500000e-01	1.928243e-03	
544	6.000000e-01	2.069240e-03	
545	6.500000e-01	2.204990e-03	
546	7.000000e-01	2.335594e-03	
547	7.500000e-01	2.461148e-03	
548	8.000000e-01	2.581748e-03	
549	8.500000e-01	2.697487e-03	
550	9.000000e-01	2.808456e-03	
551	9.500000e-01	2.914742e-03	
552	1.000000e+00	3.016432e-03	
553	1.050000e+00	3.113607e-03	
554	1.100000e+00	3.206349e-03	
555	1.150000e+00	3.294731e-03	
556	1.200000e+00	3.378825e-03	
557	1.250000e+00	3.458692e-03	
558	1.300000e+00	3.534386e-03	
559	1.350000e+00	3.605944e-03	
560	1.400000e+00	3.673379e-03	
561	1.450000e+00	3.736673e-03	
562	1.500000e+00	3.795756e-03	
563	1.550000e+00	3.850494e-03	
564	1.600000e+00	3.900679e-03	
565	1.650000e+00	3.946062e-03	
566	1.700000e+00	3.986435e-03	
567	1.750000e+00	4.021777e-03	
568	1.800000e+00	4.052347e-03	
569	1.850000e+00	4.078652e-03	
570	1.900000e+00	4.101326e-03	
571	1.950000e+00	4.121001e-03	
572	2.000000e+00	4.138231e-03	
573	2.050000e+00	4.153473e-03	
574	2.100000e+00	4.167090e-03	
575	2.150000e+00	4.179367e-03	
576	2.200000e+00	4.190529e-03	

Index   v-sweep         -i(vds)         
--------------------------------------------------------------------------------
577	2.250000e+00	4.200751e-03	
578	2.300000e+00	4.210176e-03	
579	2.350000e+00	4.218915e-03	
580	2.400000e+00	4.227062e-03	
581	2.450000e+00	4.234691e-03	
582	2.500000e+00	4.241865e-03	
583	2.550000e+00	4.248636e-03	
584	2.600000e+00	4.255047e-03	
585	2.650000e+00	4.261137e-03	
586	2.700000e+00	4.266936e-03	
587	2.750000e+00	4.272473e-03	
588	2.800000e+00	4.277772e-03	
589	2.850000e+00	4.282852e-03	
590	2.900000e+00	4.287733e-03	
591	2.950000e+00	4.292430e-03	
592	3.000000e+00	4.296957e-03	
593	3.050000e+00	4.301328e-03	
594	3.100000e+00	4.305554e-03	
595	3.150000e+00	4.309644e-03	
596	3.200000e+00	4.313609e-03	
597	3.250000e+00	4.317455e-03	
598	3.300000e+00	4.321191e-03	
599	3.350000e+00	4.324824e-03	
600	3.400000e+00	4.328359e-03	
601	3.450000e+00	4.331803e-03	
602	3.500000e+00	4.335160e-03	
603	3.550000e+00	4.338435e-03	
604	3.600000e+00	4.341633e-03	
605	3.650000e+00	4.344757e-03	
606	3.700000e+00	4.347813e-03	
607	3.750000e+00	4.350802e-03	
608	3.800000e+00	4.353729e-03	
609	3.850000e+00	4.356597e-03	
610	3.900000e+00	4.359408e-03	
611	3.950000e+00	4.362167e-03	
612	4.000000e+00	4.364875e-03	
613	4.050000e+00	4.367536e-03	
614	4.100000e+00	4.370153e-03	
615	4.150000e+00	4.372728e-03	
616	4.200000e+00	4.375265e-03	
617	4.250000e+00	4.377768e-03	
618	4.300000e+00	4.380239e-03	
619	4.350000e+00	4.382683e-03	
620	4.400000e+00	4.385104e-03	
621	4.450000e+00	4.387506e-03	
622	4.500000e+00	4.389895e-03	
623	4.550000e+00	4.392275e-03	
624	4.600000e+00	4.394654e-03	
625	4.650000e+00	4.397038e-03	
626	4.700000e+00	4.399435e-03	
627	4.750000e+00	4.401852e-03	
628	4.800000e+00	4.404300e-03	
629	4.850000e+00	4.406788e-03	
630	4.900000e+00	4.409327e-03	
631	4.950000e+00	4.411929e-03	
632	5.000000e+00	4.414607e-03	
633	5.050000e+00	4.417377e-03	
634	5.100000e+00	4.420253e-03	

Index   v-sweep         -i(vds)         
--------------------------------------------------------------------------------
635	5.150000e+00	4.423252e-03	
636	5.200000e+00	4.426392e-03	
637	5.250000e+00	4.429693e-03	
638	5.300000e+00	4.433176e-03	
639	5.350000e+00	4.436862e-03	
640	5.400000e+00	4.440777e-03	
641	5.450000e+00	4.444944e-03	
642	5.500000e+00	4.449392e-03	
643	5.550000e+00	4.454147e-03	
644	5.600000e+00	4.459241e-03	
645	5.650000e+00	4.464704e-03	
646	5.700000e+00	4.470569e-03	
647	5.750000e+00	4.476872e-03	
648	5.800000e+00	4.483648e-03	
649	5.850000e+00	4.490935e-03	
650	5.900000e+00	4.498772e-03	
651	5.950000e+00	4.507200e-03	
652	6.000000e+00	4.516261e-03	
653	6.050000e+00	4.526000e-03	
654	6.100000e+00	4.536460e-03	
655	6.150000e+00	4.547690e-03	
656	6.200000e+00	4.559736e-03	
657	6.250000e+00	4.572648e-03	
658	6.300000e+00	4.586477e-03	
659	6.350000e+00	4.601274e-03	
660	6.400000e+00	4.617092e-03	
661	6.450000e+00	4.633986e-03	
662	6.500000e+00	4.652010e-03	
663	6.550000e+00	4.671220e-03	
664	6.600000e+00	4.691674e-03	
665	0.000000e+00	2.771139e-21	
666	5.000000e-02	2.217503e-04	
667	1.000000e-01	4.375941e-04	
668	1.500000e-01	6.476314e-04	
669	2.000000e-01	8.519609e-04	
670	2.500000e-01	1.050680e-03	
671	3.000000e-01	1.243884e-03	
672	3.500000e-01	1.431667e-03	
673	4.000000e-01	1.614121e-03	
674	4.500000e-01	1.791338e-03	
675	5.000000e-01	1.963406e-03	
676	5.500000e-01	2.130414e-03	
677	6.000000e-01	2.292446e-03	
678	6.500000e-01	2.449587e-03	
679	7.000000e-01	2.601920e-03	
680	7.500000e-01	2.749525e-03	
681	8.000000e-01	2.892481e-03	
682	8.500000e-01	3.030866e-03	
683	9.000000e-01	3.164756e-03	
684	9.500000e-01	3.294224e-03	
685	1.000000e+00	3.419345e-03	
686	1.050000e+00	3.540189e-03	
687	1.100000e+00	3.656825e-03	
688	1.150000e+00	3.769324e-03	
689	1.200000e+00	3.877750e-03	
690	1.250000e+00	3.982170e-03	
691	1.300000e+00	4.082645e-03	
692	1.350000e+00	4.179238e-03	

Index   v-sweep         -i(vds)         
--------------------------------------------------------------------------------
693	1.400000e+00	4.272006e-03	
694	1.450000e+00	4.361003e-03	
695	1.500000e+00	4.446279e-03	
696	1.550000e+00	4.527878e-03	
697	1.600000e+00	4.605834e-03	
698	1.650000e+00	4.680168e-03	
699	1.700000e+00	4.750882e-03	
700	1.750000e+00	4.817951e-03	
701	1.800000e+00	4.881310e-03	
702	1.850000e+00	4.940840e-03	
703	1.900000e+00	4.996358e-03	
704	1.950000e+00	5.047619e-03	
705	2.000000e+00	5.094359e-03	
706	2.050000e+00	5.136376e-03	
707	2.100000e+00	5.173648e-03	
708	2.150000e+00	5.206390e-03	
709	2.200000e+00	5.235025e-03	
710	2.250000e+00	5.260090e-03	
711	2.300000e+00	5.282133e-03	
712	2.350000e+00	5.301656e-03	
713	2.400000e+00	5.319085e-03	
714	2.450000e+00	5.334771e-03	
715	2.500000e+00	5.348997e-03	
716	2.550000e+00	5.361992e-03	
717	2.600000e+00	5.373940e-03	
718	2.650000e+00	5.384989e-03	
719	2.700000e+00	5.395261e-03	
720	2.750000e+00	5.404856e-03	
721	2.800000e+00	5.413856e-03	
722	2.850000e+00	5.422330e-03	
723	2.900000e+00	5.430337e-03	
724	2.950000e+00	5.437925e-03	
725	3.000000e+00	5.445138e-03	
726	3.050000e+00	5.452011e-03	
727	3.100000e+00	5.458575e-03	
728	3.150000e+00	5.464859e-03	
729	3.200000e+00	5.470885e-03	
730	3.250000e+00	5.476675e-03	
731	3.300000e+00	5.482248e-03	
732	3.350000e+00	5.487620e-03	
733	3.400000e+00	5.492806e-03	
734	3.450000e+00	5.497820e-03	
735	3.500000e+00	5.502672e-03	
736	3.550000e+00	5.507374e-03	
737	3.600000e+00	5.511935e-03	
738	3.650000e+00	5.516364e-03	
739	3.700000e+00	5.520669e-03	
740	3.750000e+00	5.524858e-03	
741	3.800000e+00	5.528938e-03	
742	3.850000e+00	5.532913e-03	
743	3.900000e+00	5.536790e-03	
744	3.950000e+00	5.540575e-03	
745	4.000000e+00	5.544272e-03	
746	4.050000e+00	5.547885e-03	
747	4.100000e+00	5.551420e-03	
748	4.150000e+00	5.554879e-03	
749	4.200000e+00	5.558267e-03	
750	4.250000e+00	5.561588e-03	

Index   v-sweep         -i(vds)         
--------------------------------------------------------------------------------
751	4.300000e+00	5.564845e-03	
752	4.350000e+00	5.568041e-03	
753	4.400000e+00	5.571181e-03	
754	4.450000e+00	5.574268e-03	
755	4.500000e+00	5.577306e-03	
756	4.550000e+00	5.580299e-03	
757	4.600000e+00	5.583251e-03	
758	4.650000e+00	5.586166e-03	
759	4.700000e+00	5.589049e-03	
760	4.750000e+00	5.591907e-03	
761	4.800000e+00	5.594744e-03	
762	4.850000e+00	5.597567e-03	
763	4.900000e+00	5.600383e-03	
764	4.950000e+00	5.603201e-03	
765	5.000000e+00	5.606029e-03	
766	5.050000e+00	5.608876e-03	
767	5.100000e+00	5.611754e-03	
768	5.150000e+00	5.614675e-03	
769	5.200000e+00	5.617650e-03	
770	5.250000e+00	5.620696e-03	
771	5.300000e+00	5.623826e-03	
772	5.350000e+00	5.627059e-03	
773	5.400000e+00	5.630413e-03	
774	5.450000e+00	5.633907e-03	
775	5.500000e+00	5.637565e-03	
776	5.550000e+00	5.641408e-03	
777	5.600000e+00	5.645461e-03	
778	5.650000e+00	5.649753e-03	
779	5.700000e+00	5.654311e-03	
780	5.750000e+00	5.659167e-03	
781	5.800000e+00	5.664352e-03	
782	5.850000e+00	5.669900e-03	
783	5.900000e+00	5.675849e-03	
784	5.950000e+00	5.682237e-03	
785	6.000000e+00	5.689103e-03	
786	6.050000e+00	5.696490e-03	
787	6.100000e+00	5.704442e-03	
788	6.150000e+00	5.713005e-03	
789	6.200000e+00	5.722228e-03	
790	6.250000e+00	5.732160e-03	
791	6.300000e+00	5.742853e-03	
792	6.350000e+00	5.754362e-03	
793	6.400000e+00	5.766740e-03	
794	6.450000e+00	5.780047e-03	
795	6.500000e+00	5.794340e-03	
796	6.550000e+00	5.809681e-03	
797	6.600000e+00	5.826131e-03	
Note: No ".plot", ".print", or ".fourier" lines; no simulations run
