
Note: Compatibility modes selected: hs

Warning: m=xx on .subckt line will override multiplier m hierarchy!


Circuit: ***************************

Doing analysis at TEMP = 25.000000 and TNOM = 25.000000


No. of Data Rows : 798
                          ***************************
                          DC transfer characteristic  Mon Jan  9 13:58:36  2023
--------------------------------------------------------------------------------
Index   v-sweep         -i(vds)         
--------------------------------------------------------------------------------
0	0.000000e+00	-7.52588e-34	
1	5.000000e-02	5.772155e-07	
2	1.000000e-01	1.032191e-06	
3	1.500000e-01	1.368366e-06	
4	2.000000e-01	1.592526e-06	
5	2.500000e-01	1.721741e-06	
6	3.000000e-01	1.789368e-06	
7	3.500000e-01	1.828431e-06	
8	4.000000e-01	1.855463e-06	
9	4.500000e-01	1.876559e-06	
10	5.000000e-01	1.894141e-06	
11	5.500000e-01	1.909366e-06	
12	6.000000e-01	1.922882e-06	
13	6.500000e-01	1.935090e-06	
14	7.000000e-01	1.946262e-06	
15	7.500000e-01	1.956592e-06	
16	8.000000e-01	1.966220e-06	
17	8.500000e-01	1.975256e-06	
18	9.000000e-01	1.983785e-06	
19	9.500000e-01	1.991873e-06	
20	1.000000e+00	1.999577e-06	
21	1.050000e+00	2.006940e-06	
22	1.100000e+00	2.014001e-06	
23	1.150000e+00	2.020791e-06	
24	1.200000e+00	2.027337e-06	
25	1.250000e+00	2.033663e-06	
26	1.300000e+00	2.039788e-06	
27	1.350000e+00	2.045730e-06	
28	1.400000e+00	2.051503e-06	
29	1.450000e+00	2.057122e-06	
30	1.500000e+00	2.062598e-06	
31	1.550000e+00	2.067942e-06	
32	1.600000e+00	2.073163e-06	
33	1.650000e+00	2.078270e-06	
34	1.700000e+00	2.083270e-06	
35	1.750000e+00	2.088170e-06	
36	1.800000e+00	2.092976e-06	
37	1.850000e+00	2.097695e-06	
38	1.900000e+00	2.102331e-06	
39	1.950000e+00	2.106888e-06	
40	2.000000e+00	2.111373e-06	
41	2.050000e+00	2.115787e-06	
42	2.100000e+00	2.120136e-06	
43	2.150000e+00	2.124422e-06	
44	2.200000e+00	2.128649e-06	
45	2.250000e+00	2.132820e-06	
46	2.300000e+00	2.136937e-06	
47	2.350000e+00	2.141003e-06	
48	2.400000e+00	2.145020e-06	
49	2.450000e+00	2.148992e-06	
50	2.500000e+00	2.152919e-06	
51	2.550000e+00	2.156805e-06	
52	2.600000e+00	2.160651e-06	
53	2.650000e+00	2.164459e-06	
54	2.700000e+00	2.168232e-06	

Index   v-sweep         -i(vds)         
--------------------------------------------------------------------------------
55	2.750000e+00	2.171972e-06	
56	2.800000e+00	2.175681e-06	
57	2.850000e+00	2.179361e-06	
58	2.900000e+00	2.183015e-06	
59	2.950000e+00	2.186646e-06	
60	3.000000e+00	2.190255e-06	
61	3.050000e+00	2.193847e-06	
62	3.100000e+00	2.197423e-06	
63	3.150000e+00	2.200989e-06	
64	3.200000e+00	2.204547e-06	
65	3.250000e+00	2.208102e-06	
66	3.300000e+00	2.211659e-06	
67	3.350000e+00	2.215222e-06	
68	3.400000e+00	2.218797e-06	
69	3.450000e+00	2.222390e-06	
70	3.500000e+00	2.226007e-06	
71	3.550000e+00	2.229657e-06	
72	3.600000e+00	2.233346e-06	
73	3.650000e+00	2.237082e-06	
74	3.700000e+00	2.240876e-06	
75	3.750000e+00	2.244736e-06	
76	3.800000e+00	2.248673e-06	
77	3.850000e+00	2.252698e-06	
78	3.900000e+00	2.256824e-06	
79	3.950000e+00	2.261063e-06	
80	4.000000e+00	2.265428e-06	
81	4.050000e+00	2.269935e-06	
82	4.100000e+00	2.274599e-06	
83	4.150000e+00	2.279435e-06	
84	4.200000e+00	2.284461e-06	
85	4.250000e+00	2.289695e-06	
86	4.300000e+00	2.295156e-06	
87	4.350000e+00	2.300864e-06	
88	4.400000e+00	2.306839e-06	
89	4.450000e+00	2.313103e-06	
90	4.500000e+00	2.319678e-06	
91	4.550000e+00	2.326589e-06	
92	4.600000e+00	2.333859e-06	
93	4.650000e+00	2.341514e-06	
94	4.700000e+00	2.349580e-06	
95	4.750000e+00	2.358084e-06	
96	4.800000e+00	2.367054e-06	
97	4.850000e+00	2.376520e-06	
98	4.900000e+00	2.386510e-06	
99	4.950000e+00	2.397055e-06	
100	5.000000e+00	2.408187e-06	
101	5.050000e+00	2.419938e-06	
102	5.100000e+00	2.432341e-06	
103	5.150000e+00	2.445429e-06	
104	5.200000e+00	2.459238e-06	
105	5.250000e+00	2.473803e-06	
106	5.300000e+00	2.489158e-06	
107	5.350000e+00	2.505342e-06	
108	5.400000e+00	2.522392e-06	
109	5.450000e+00	2.540345e-06	
110	5.500000e+00	2.559240e-06	
111	5.550000e+00	2.579117e-06	
112	5.600000e+00	2.600015e-06	

Index   v-sweep         -i(vds)         
--------------------------------------------------------------------------------
113	5.650000e+00	2.621974e-06	
114	5.700000e+00	2.645035e-06	
115	5.750000e+00	2.669240e-06	
116	5.800000e+00	2.694631e-06	
117	5.850000e+00	2.721249e-06	
118	5.900000e+00	2.749138e-06	
119	5.950000e+00	2.778340e-06	
120	6.000000e+00	2.808900e-06	
121	6.050000e+00	2.840860e-06	
122	6.100000e+00	2.874265e-06	
123	6.150000e+00	2.909159e-06	
124	6.200000e+00	2.945587e-06	
125	6.250000e+00	2.983595e-06	
126	6.300000e+00	3.023226e-06	
127	6.350000e+00	3.064527e-06	
128	6.400000e+00	3.107544e-06	
129	6.450000e+00	3.152321e-06	
130	6.500000e+00	3.198904e-06	
131	6.550000e+00	3.247341e-06	
132	6.600000e+00	3.297675e-06	
133	0.000000e+00	-6.99808e-31	
134	5.000000e-02	2.087246e-06	
135	1.000000e-01	4.042803e-06	
136	1.500000e-01	5.868952e-06	
137	2.000000e-01	7.567934e-06	
138	2.500000e-01	9.141951e-06	
139	3.000000e-01	1.059317e-05	
140	3.500000e-01	1.192372e-05	
141	4.000000e-01	1.313572e-05	
142	4.500000e-01	1.423126e-05	
143	5.000000e-01	1.521246e-05	
144	5.500000e-01	1.608147e-05	
145	6.000000e-01	1.684059e-05	
146	6.500000e-01	1.749244e-05	
147	7.000000e-01	1.804042e-05	
148	7.500000e-01	1.848963e-05	
149	8.000000e-01	1.884850e-05	
150	8.500000e-01	1.913018e-05	
151	9.000000e-01	1.935119e-05	
152	9.500000e-01	1.952757e-05	
153	1.000000e+00	1.967199e-05	
154	1.050000e+00	1.979335e-05	
155	1.100000e+00	1.989766e-05	
156	1.150000e+00	1.998902e-05	
157	1.200000e+00	2.007027e-05	
158	1.250000e+00	2.014345e-05	
159	1.300000e+00	2.021003e-05	
160	1.350000e+00	2.027115e-05	
161	1.400000e+00	2.032766e-05	
162	1.450000e+00	2.038023e-05	
163	1.500000e+00	2.042942e-05	
164	1.550000e+00	2.047565e-05	
165	1.600000e+00	2.051927e-05	
166	1.650000e+00	2.056060e-05	
167	1.700000e+00	2.059987e-05	
168	1.750000e+00	2.063729e-05	
169	1.800000e+00	2.067306e-05	
170	1.850000e+00	2.070731e-05	

Index   v-sweep         -i(vds)         
--------------------------------------------------------------------------------
171	1.900000e+00	2.074020e-05	
172	1.950000e+00	2.077182e-05	
173	2.000000e+00	2.080230e-05	
174	2.050000e+00	2.083171e-05	
175	2.100000e+00	2.086014e-05	
176	2.150000e+00	2.088766e-05	
177	2.200000e+00	2.091434e-05	
178	2.250000e+00	2.094023e-05	
179	2.300000e+00	2.096538e-05	
180	2.350000e+00	2.098984e-05	
181	2.400000e+00	2.101366e-05	
182	2.450000e+00	2.103686e-05	
183	2.500000e+00	2.105950e-05	
184	2.550000e+00	2.108160e-05	
185	2.600000e+00	2.110319e-05	
186	2.650000e+00	2.112429e-05	
187	2.700000e+00	2.114494e-05	
188	2.750000e+00	2.116516e-05	
189	2.800000e+00	2.118496e-05	
190	2.850000e+00	2.120437e-05	
191	2.900000e+00	2.122342e-05	
192	2.950000e+00	2.124210e-05	
193	3.000000e+00	2.126046e-05	
194	3.050000e+00	2.127849e-05	
195	3.100000e+00	2.129623e-05	
196	3.150000e+00	2.131368e-05	
197	3.200000e+00	2.133086e-05	
198	3.250000e+00	2.134778e-05	
199	3.300000e+00	2.136447e-05	
200	3.350000e+00	2.138095e-05	
201	3.400000e+00	2.139722e-05	
202	3.450000e+00	2.141332e-05	
203	3.500000e+00	2.142926e-05	
204	3.550000e+00	2.144507e-05	
205	3.600000e+00	2.146078e-05	
206	3.650000e+00	2.147640e-05	
207	3.700000e+00	2.149198e-05	
208	3.750000e+00	2.150754e-05	
209	3.800000e+00	2.152313e-05	
210	3.850000e+00	2.153879e-05	
211	3.900000e+00	2.155456e-05	
212	3.950000e+00	2.157049e-05	
213	4.000000e+00	2.158664e-05	
214	4.050000e+00	2.160306e-05	
215	4.100000e+00	2.161983e-05	
216	4.150000e+00	2.163702e-05	
217	4.200000e+00	2.165469e-05	
218	4.250000e+00	2.167294e-05	
219	4.300000e+00	2.169186e-05	
220	4.350000e+00	2.171153e-05	
221	4.400000e+00	2.173208e-05	
222	4.450000e+00	2.175359e-05	
223	4.500000e+00	2.177621e-05	
224	4.550000e+00	2.180004e-05	
225	4.600000e+00	2.182523e-05	
226	4.650000e+00	2.185192e-05	
227	4.700000e+00	2.188024e-05	
228	4.750000e+00	2.191038e-05	

Index   v-sweep         -i(vds)         
--------------------------------------------------------------------------------
229	4.800000e+00	2.194248e-05	
230	4.850000e+00	2.197672e-05	
231	4.900000e+00	2.201328e-05	
232	4.950000e+00	2.205236e-05	
233	5.000000e+00	2.209415e-05	
234	5.050000e+00	2.213886e-05	
235	5.100000e+00	2.218669e-05	
236	5.150000e+00	2.223789e-05	
237	5.200000e+00	2.229267e-05	
238	5.250000e+00	2.235127e-05	
239	5.300000e+00	2.241394e-05	
240	5.350000e+00	2.248093e-05	
241	5.400000e+00	2.255251e-05	
242	5.450000e+00	2.262894e-05	
243	5.500000e+00	2.271049e-05	
244	5.550000e+00	2.279745e-05	
245	5.600000e+00	2.289011e-05	
246	5.650000e+00	2.298877e-05	
247	5.700000e+00	2.309371e-05	
248	5.750000e+00	2.320526e-05	
249	5.800000e+00	2.332373e-05	
250	5.850000e+00	2.344943e-05	
251	5.900000e+00	2.358269e-05	
252	5.950000e+00	2.372384e-05	
253	6.000000e+00	2.387321e-05	
254	6.050000e+00	2.403115e-05	
255	6.100000e+00	2.419800e-05	
256	6.150000e+00	2.437410e-05	
257	6.200000e+00	2.455980e-05	
258	6.250000e+00	2.475547e-05	
259	6.300000e+00	2.496145e-05	
260	6.350000e+00	2.517812e-05	
261	6.400000e+00	2.540583e-05	
262	6.450000e+00	2.564495e-05	
263	6.500000e+00	2.589586e-05	
264	6.550000e+00	2.615891e-05	
265	6.600000e+00	2.643449e-05	
266	0.000000e+00	-3.09404e-31	
267	5.000000e-02	3.236494e-06	
268	1.000000e-01	6.341287e-06	
269	1.500000e-01	9.316600e-06	
270	2.000000e-01	1.216461e-05	
271	2.500000e-01	1.488746e-05	
272	3.000000e-01	1.748724e-05	
273	3.500000e-01	1.996600e-05	
274	4.000000e-01	2.232576e-05	
275	4.500000e-01	2.456848e-05	
276	5.000000e-01	2.669612e-05	
277	5.500000e-01	2.871054e-05	
278	6.000000e-01	3.061362e-05	
279	6.500000e-01	3.240716e-05	
280	7.000000e-01	3.409295e-05	
281	7.500000e-01	3.567271e-05	
282	8.000000e-01	3.714815e-05	
283	8.500000e-01	3.852090e-05	
284	9.000000e-01	3.979254e-05	
285	9.500000e-01	4.096458e-05	
286	1.000000e+00	4.203840e-05	

Index   v-sweep         -i(vds)         
--------------------------------------------------------------------------------
287	1.050000e+00	4.301523e-05	
288	1.100000e+00	4.389609e-05	
289	1.150000e+00	4.468183e-05	
290	1.200000e+00	4.537325e-05	
291	1.250000e+00	4.597190e-05	
292	1.300000e+00	4.648148e-05	
293	1.350000e+00	4.690939e-05	
294	1.400000e+00	4.726671e-05	
295	1.450000e+00	4.756618e-05	
296	1.500000e+00	4.781984e-05	
297	1.550000e+00	4.803765e-05	
298	1.600000e+00	4.822736e-05	
299	1.650000e+00	4.839479e-05	
300	1.700000e+00	4.854433e-05	
301	1.750000e+00	4.867926e-05	
302	1.800000e+00	4.880211e-05	
303	1.850000e+00	4.891483e-05	
304	1.900000e+00	4.901894e-05	
305	1.950000e+00	4.911567e-05	
306	2.000000e+00	4.920600e-05	
307	2.050000e+00	4.929075e-05	
308	2.100000e+00	4.937056e-05	
309	2.150000e+00	4.944601e-05	
310	2.200000e+00	4.951755e-05	
311	2.250000e+00	4.958559e-05	
312	2.300000e+00	4.965046e-05	
313	2.350000e+00	4.971246e-05	
314	2.400000e+00	4.977185e-05	
315	2.450000e+00	4.982885e-05	
316	2.500000e+00	4.988365e-05	
317	2.550000e+00	4.993643e-05	
318	2.600000e+00	4.998733e-05	
319	2.650000e+00	5.003651e-05	
320	2.700000e+00	5.008407e-05	
321	2.750000e+00	5.013014e-05	
322	2.800000e+00	5.017480e-05	
323	2.850000e+00	5.021815e-05	
324	2.900000e+00	5.026027e-05	
325	2.950000e+00	5.030124e-05	
326	3.000000e+00	5.034111e-05	
327	3.050000e+00	5.037996e-05	
328	3.100000e+00	5.041784e-05	
329	3.150000e+00	5.045481e-05	
330	3.200000e+00	5.049090e-05	
331	3.250000e+00	5.052618e-05	
332	3.300000e+00	5.056067e-05	
333	3.350000e+00	5.059442e-05	
334	3.400000e+00	5.062747e-05	
335	3.450000e+00	5.065985e-05	
336	3.500000e+00	5.069159e-05	
337	3.550000e+00	5.072274e-05	
338	3.600000e+00	5.075332e-05	
339	3.650000e+00	5.078337e-05	
340	3.700000e+00	5.081292e-05	
341	3.750000e+00	5.084201e-05	
342	3.800000e+00	5.087068e-05	
343	3.850000e+00	5.089895e-05	
344	3.900000e+00	5.092688e-05	

Index   v-sweep         -i(vds)         
--------------------------------------------------------------------------------
345	3.950000e+00	5.095451e-05	
346	4.000000e+00	5.098189e-05	
347	4.050000e+00	5.100908e-05	
348	4.100000e+00	5.103613e-05	
349	4.150000e+00	5.106312e-05	
350	4.200000e+00	5.109011e-05	
351	4.250000e+00	5.111718e-05	
352	4.300000e+00	5.114444e-05	
353	4.350000e+00	5.117197e-05	
354	4.400000e+00	5.119989e-05	
355	4.450000e+00	5.122832e-05	
356	4.500000e+00	5.125739e-05	
357	4.550000e+00	5.128724e-05	
358	4.600000e+00	5.131804e-05	
359	4.650000e+00	5.134995e-05	
360	4.700000e+00	5.138317e-05	
361	4.750000e+00	5.141788e-05	
362	4.800000e+00	5.145432e-05	
363	4.850000e+00	5.149271e-05	
364	4.900000e+00	5.153329e-05	
365	4.950000e+00	5.157635e-05	
366	5.000000e+00	5.162216e-05	
367	5.050000e+00	5.167102e-05	
368	5.100000e+00	5.172325e-05	
369	5.150000e+00	5.177920e-05	
370	5.200000e+00	5.183922e-05	
371	5.250000e+00	5.190368e-05	
372	5.300000e+00	5.197298e-05	
373	5.350000e+00	5.204753e-05	
374	5.400000e+00	5.212777e-05	
375	5.450000e+00	5.221415e-05	
376	5.500000e+00	5.230714e-05	
377	5.550000e+00	5.240722e-05	
378	5.600000e+00	5.251491e-05	
379	5.650000e+00	5.263073e-05	
380	5.700000e+00	5.275523e-05	
381	5.750000e+00	5.288896e-05	
382	5.800000e+00	5.303250e-05	
383	5.850000e+00	5.318646e-05	
384	5.900000e+00	5.335144e-05	
385	5.950000e+00	5.352808e-05	
386	6.000000e+00	5.371701e-05	
387	6.050000e+00	5.391891e-05	
388	6.100000e+00	5.413443e-05	
389	6.150000e+00	5.436428e-05	
390	6.200000e+00	5.460914e-05	
391	6.250000e+00	5.486975e-05	
392	6.300000e+00	5.514683e-05	
393	6.350000e+00	5.544111e-05	
394	6.400000e+00	5.575334e-05	
395	6.450000e+00	5.608430e-05	
396	6.500000e+00	5.643474e-05	
397	6.550000e+00	5.680546e-05	
398	6.600000e+00	5.719723e-05	
399	0.000000e+00	-1.54232e-30	
400	5.000000e-02	4.105588e-06	
401	1.000000e-01	8.084068e-06	
402	1.500000e-01	1.193742e-05	

Index   v-sweep         -i(vds)         
--------------------------------------------------------------------------------
403	2.000000e-01	1.566759e-05	
404	2.500000e-01	1.927649e-05	
405	3.000000e-01	2.276600e-05	
406	3.500000e-01	2.613796e-05	
407	4.000000e-01	2.939418e-05	
408	4.500000e-01	3.253645e-05	
409	5.000000e-01	3.556650e-05	
410	5.500000e-01	3.848605e-05	
411	6.000000e-01	4.129676e-05	
412	6.500000e-01	4.400029e-05	
413	7.000000e-01	4.659824e-05	
414	7.500000e-01	4.909220e-05	
415	8.000000e-01	5.148371e-05	
416	8.500000e-01	5.377431e-05	
417	9.000000e-01	5.596547e-05	
418	9.500000e-01	5.805866e-05	
419	1.000000e+00	6.005531e-05	
420	1.050000e+00	6.195681e-05	
421	1.100000e+00	6.376452e-05	
422	1.150000e+00	6.547976e-05	
423	1.200000e+00	6.710379e-05	
424	1.250000e+00	6.863779e-05	
425	1.300000e+00	7.008287e-05	
426	1.350000e+00	7.143997e-05	
427	1.400000e+00	7.270988e-05	
428	1.450000e+00	7.389309e-05	
429	1.500000e+00	7.498968e-05	
430	1.550000e+00	7.599924e-05	
431	1.600000e+00	7.692070e-05	
432	1.650000e+00	7.775255e-05	
433	1.700000e+00	7.849352e-05	
434	1.750000e+00	7.914401e-05	
435	1.800000e+00	7.970778e-05	
436	1.850000e+00	8.019250e-05	
437	1.900000e+00	8.060861e-05	
438	1.950000e+00	8.096738e-05	
439	2.000000e+00	8.127923e-05	
440	2.050000e+00	8.155296e-05	
441	2.100000e+00	8.179571e-05	
442	2.150000e+00	8.201308e-05	
443	2.200000e+00	8.220946e-05	
444	2.250000e+00	8.238832e-05	
445	2.300000e+00	8.255236e-05	
446	2.350000e+00	8.270378e-05	
447	2.400000e+00	8.284433e-05	
448	2.450000e+00	8.297543e-05	
449	2.500000e+00	8.309827e-05	
450	2.550000e+00	8.321381e-05	
451	2.600000e+00	8.332288e-05	
452	2.650000e+00	8.342616e-05	
453	2.700000e+00	8.352425e-05	
454	2.750000e+00	8.361765e-05	
455	2.800000e+00	8.370680e-05	
456	2.850000e+00	8.379207e-05	
457	2.900000e+00	8.387380e-05	
458	2.950000e+00	8.395227e-05	
459	3.000000e+00	8.402776e-05	
460	3.050000e+00	8.410047e-05	

Index   v-sweep         -i(vds)         
--------------------------------------------------------------------------------
461	3.100000e+00	8.417063e-05	
462	3.150000e+00	8.423840e-05	
463	3.200000e+00	8.430396e-05	
464	3.250000e+00	8.436745e-05	
465	3.300000e+00	8.442900e-05	
466	3.350000e+00	8.448874e-05	
467	3.400000e+00	8.454677e-05	
468	3.450000e+00	8.460320e-05	
469	3.500000e+00	8.465811e-05	
470	3.550000e+00	8.471160e-05	
471	3.600000e+00	8.476373e-05	
472	3.650000e+00	8.481459e-05	
473	3.700000e+00	8.486424e-05	
474	3.750000e+00	8.491274e-05	
475	3.800000e+00	8.496015e-05	
476	3.850000e+00	8.500653e-05	
477	3.900000e+00	8.505193e-05	
478	3.950000e+00	8.509640e-05	
479	4.000000e+00	8.514000e-05	
480	4.050000e+00	8.518277e-05	
481	4.100000e+00	8.522477e-05	
482	4.150000e+00	8.526604e-05	
483	4.200000e+00	8.530665e-05	
484	4.250000e+00	8.534665e-05	
485	4.300000e+00	8.538610e-05	
486	4.350000e+00	8.542507e-05	
487	4.400000e+00	8.546363e-05	
488	4.450000e+00	8.550187e-05	
489	4.500000e+00	8.553986e-05	
490	4.550000e+00	8.557771e-05	
491	4.600000e+00	8.561553e-05	
492	4.650000e+00	8.565344e-05	
493	4.700000e+00	8.569157e-05	
494	4.750000e+00	8.573007e-05	
495	4.800000e+00	8.576911e-05	
496	4.850000e+00	8.580886e-05	
497	4.900000e+00	8.584953e-05	
498	4.950000e+00	8.589134e-05	
499	5.000000e+00	8.593452e-05	
500	5.050000e+00	8.597934e-05	
501	5.100000e+00	8.602609e-05	
502	5.150000e+00	8.607507e-05	
503	5.200000e+00	8.612661e-05	
504	5.250000e+00	8.618108e-05	
505	5.300000e+00	8.623887e-05	
506	5.350000e+00	8.630038e-05	
507	5.400000e+00	8.636607e-05	
508	5.450000e+00	8.643640e-05	
509	5.500000e+00	8.651188e-05	
510	5.550000e+00	8.659304e-05	
511	5.600000e+00	8.668044e-05	
512	5.650000e+00	8.677468e-05	
513	5.700000e+00	8.687638e-05	
514	5.750000e+00	8.698619e-05	
515	5.800000e+00	8.710481e-05	
516	5.850000e+00	8.723294e-05	
517	5.900000e+00	8.737136e-05	
518	5.950000e+00	8.752082e-05	

Index   v-sweep         -i(vds)         
--------------------------------------------------------------------------------
519	6.000000e+00	8.768214e-05	
520	6.050000e+00	8.785617e-05	
521	6.100000e+00	8.804378e-05	
522	6.150000e+00	8.824586e-05	
523	6.200000e+00	8.846335e-05	
524	6.250000e+00	8.869720e-05	
525	6.300000e+00	8.894840e-05	
526	6.350000e+00	8.921796e-05	
527	6.400000e+00	8.950691e-05	
528	6.450000e+00	8.981633e-05	
529	6.500000e+00	9.014729e-05	
530	6.550000e+00	9.050091e-05	
531	6.600000e+00	9.087832e-05	
532	0.000000e+00	4.025544e-31	
533	5.000000e-02	4.742546e-06	
534	1.000000e-01	9.365710e-06	
535	1.500000e-01	1.387118e-05	
536	2.000000e-01	1.826061e-05	
537	2.500000e-01	2.253564e-05	
538	3.000000e-01	2.669787e-05	
539	3.500000e-01	3.074889e-05	
540	4.000000e-01	3.469025e-05	
541	4.500000e-01	3.852349e-05	
542	5.000000e-01	4.225011e-05	
543	5.500000e-01	4.587158e-05	
544	6.000000e-01	4.938936e-05	
545	6.500000e-01	5.280487e-05	
546	7.000000e-01	5.611952e-05	
547	7.500000e-01	5.933469e-05	
548	8.000000e-01	6.245171e-05	
549	8.500000e-01	6.547192e-05	
550	9.000000e-01	6.839663e-05	
551	9.500000e-01	7.122711e-05	
552	1.000000e+00	7.396462e-05	
553	1.050000e+00	7.661041e-05	
554	1.100000e+00	7.916568e-05	
555	1.150000e+00	8.163164e-05	
556	1.200000e+00	8.400946e-05	
557	1.250000e+00	8.630029e-05	
558	1.300000e+00	8.850527e-05	
559	1.350000e+00	9.062550e-05	
560	1.400000e+00	9.266207e-05	
561	1.450000e+00	9.461603e-05	
562	1.500000e+00	9.648840e-05	
563	1.550000e+00	9.828014e-05	
564	1.600000e+00	9.999217e-05	
565	1.650000e+00	1.016253e-04	
566	1.700000e+00	1.031803e-04	
567	1.750000e+00	1.046578e-04	
568	1.800000e+00	1.060580e-04	
569	1.850000e+00	1.073811e-04	
570	1.900000e+00	1.086268e-04	
571	1.950000e+00	1.097941e-04	
572	2.000000e+00	1.108814e-04	
573	2.050000e+00	1.118864e-04	
574	2.100000e+00	1.128060e-04	
575	2.150000e+00	1.136379e-04	
576	2.200000e+00	1.143808e-04	

Index   v-sweep         -i(vds)         
--------------------------------------------------------------------------------
577	2.250000e+00	1.150371e-04	
578	2.300000e+00	1.156123e-04	
579	2.350000e+00	1.161150e-04	
580	2.400000e+00	1.165553e-04	
581	2.450000e+00	1.169428e-04	
582	2.500000e+00	1.172862e-04	
583	2.550000e+00	1.175929e-04	
584	2.600000e+00	1.178691e-04	
585	2.650000e+00	1.181197e-04	
586	2.700000e+00	1.183485e-04	
587	2.750000e+00	1.185589e-04	
588	2.800000e+00	1.187534e-04	
589	2.850000e+00	1.189341e-04	
590	2.900000e+00	1.191028e-04	
591	2.950000e+00	1.192610e-04	
592	3.000000e+00	1.194098e-04	
593	3.050000e+00	1.195503e-04	
594	3.100000e+00	1.196834e-04	
595	3.150000e+00	1.198098e-04	
596	3.200000e+00	1.199301e-04	
597	3.250000e+00	1.200449e-04	
598	3.300000e+00	1.201547e-04	
599	3.350000e+00	1.202599e-04	
600	3.400000e+00	1.203609e-04	
601	3.450000e+00	1.204580e-04	
602	3.500000e+00	1.205515e-04	
603	3.550000e+00	1.206417e-04	
604	3.600000e+00	1.207288e-04	
605	3.650000e+00	1.208130e-04	
606	3.700000e+00	1.208945e-04	
607	3.750000e+00	1.209735e-04	
608	3.800000e+00	1.210501e-04	
609	3.850000e+00	1.211245e-04	
610	3.900000e+00	1.211968e-04	
611	3.950000e+00	1.212672e-04	
612	4.000000e+00	1.213357e-04	
613	4.050000e+00	1.214024e-04	
614	4.100000e+00	1.214675e-04	
615	4.150000e+00	1.215309e-04	
616	4.200000e+00	1.215929e-04	
617	4.250000e+00	1.216535e-04	
618	4.300000e+00	1.217127e-04	
619	4.350000e+00	1.217707e-04	
620	4.400000e+00	1.218274e-04	
621	4.450000e+00	1.218831e-04	
622	4.500000e+00	1.219376e-04	
623	4.550000e+00	1.219912e-04	
624	4.600000e+00	1.220438e-04	
625	4.650000e+00	1.220955e-04	
626	4.700000e+00	1.221465e-04	
627	4.750000e+00	1.221968e-04	
628	4.800000e+00	1.222465e-04	
629	4.850000e+00	1.222958e-04	
630	4.900000e+00	1.223446e-04	
631	4.950000e+00	1.223932e-04	
632	5.000000e+00	1.224416e-04	
633	5.050000e+00	1.224902e-04	
634	5.100000e+00	1.225389e-04	

Index   v-sweep         -i(vds)         
--------------------------------------------------------------------------------
635	5.150000e+00	1.225880e-04	
636	5.200000e+00	1.226377e-04	
637	5.250000e+00	1.226883e-04	
638	5.300000e+00	1.227400e-04	
639	5.350000e+00	1.227932e-04	
640	5.400000e+00	1.228480e-04	
641	5.450000e+00	1.229049e-04	
642	5.500000e+00	1.229642e-04	
643	5.550000e+00	1.230264e-04	
644	5.600000e+00	1.230918e-04	
645	5.650000e+00	1.231611e-04	
646	5.700000e+00	1.232346e-04	
647	5.750000e+00	1.233129e-04	
648	5.800000e+00	1.233967e-04	
649	5.850000e+00	1.234866e-04	
650	5.900000e+00	1.235833e-04	
651	5.950000e+00	1.236874e-04	
652	6.000000e+00	1.237997e-04	
653	6.050000e+00	1.239211e-04	
654	6.100000e+00	1.240523e-04	
655	6.150000e+00	1.241944e-04	
656	6.200000e+00	1.243481e-04	
657	6.250000e+00	1.245146e-04	
658	6.300000e+00	1.246948e-04	
659	6.350000e+00	1.248898e-04	
660	6.400000e+00	1.251007e-04	
661	6.450000e+00	1.253287e-04	
662	6.500000e+00	1.255749e-04	
663	6.550000e+00	1.258406e-04	
664	6.600000e+00	1.261271e-04	
665	0.000000e+00	-4.60593e-20	
666	5.000000e-02	5.191980e-06	
667	1.000000e-01	1.027395e-05	
668	1.500000e-01	1.524732e-05	
669	2.000000e-01	2.011345e-05	
670	2.500000e-01	2.487372e-05	
671	3.000000e-01	2.952945e-05	
672	3.500000e-01	3.408197e-05	
673	4.000000e-01	3.853259e-05	
674	4.500000e-01	4.288258e-05	
675	5.000000e-01	4.713321e-05	
676	5.500000e-01	5.128572e-05	
677	6.000000e-01	5.534135e-05	
678	6.500000e-01	5.930128e-05	
679	7.000000e-01	6.316672e-05	
680	7.500000e-01	6.693882e-05	
681	8.000000e-01	7.061873e-05	
682	8.500000e-01	7.420759e-05	
683	9.000000e-01	7.770650e-05	
684	9.500000e-01	8.111656e-05	
685	1.000000e+00	8.443883e-05	
686	1.050000e+00	8.767438e-05	
687	1.100000e+00	9.082425e-05	
688	1.150000e+00	9.388946e-05	
689	1.200000e+00	9.687103e-05	
690	1.250000e+00	9.976994e-05	
691	1.300000e+00	1.025872e-04	
692	1.350000e+00	1.053237e-04	

Index   v-sweep         -i(vds)         
--------------------------------------------------------------------------------
693	1.400000e+00	1.079805e-04	
694	1.450000e+00	1.105584e-04	
695	1.500000e+00	1.130585e-04	
696	1.550000e+00	1.154815e-04	
697	1.600000e+00	1.178285e-04	
698	1.650000e+00	1.201003e-04	
699	1.700000e+00	1.222977e-04	
700	1.750000e+00	1.244216e-04	
701	1.800000e+00	1.264729e-04	
702	1.850000e+00	1.284522e-04	
703	1.900000e+00	1.303605e-04	
704	1.950000e+00	1.321983e-04	
705	2.000000e+00	1.339663e-04	
706	2.050000e+00	1.356653e-04	
707	2.100000e+00	1.372956e-04	
708	2.150000e+00	1.388575e-04	
709	2.200000e+00	1.403514e-04	
710	2.250000e+00	1.417771e-04	
711	2.300000e+00	1.431342e-04	
712	2.350000e+00	1.444218e-04	
713	2.400000e+00	1.456383e-04	
714	2.450000e+00	1.467816e-04	
715	2.500000e+00	1.478485e-04	
716	2.550000e+00	1.488357e-04	
717	2.600000e+00	1.497398e-04	
718	2.650000e+00	1.505588e-04	
719	2.700000e+00	1.512936e-04	
720	2.750000e+00	1.519479e-04	
721	2.800000e+00	1.525284e-04	
722	2.850000e+00	1.530433e-04	
723	2.900000e+00	1.535013e-04	
724	2.950000e+00	1.539107e-04	
725	3.000000e+00	1.542788e-04	
726	3.050000e+00	1.546120e-04	
727	3.100000e+00	1.549154e-04	
728	3.150000e+00	1.551934e-04	
729	3.200000e+00	1.554495e-04	
730	3.250000e+00	1.556866e-04	
731	3.300000e+00	1.559073e-04	
732	3.350000e+00	1.561136e-04	
733	3.400000e+00	1.563070e-04	
734	3.450000e+00	1.564892e-04	
735	3.500000e+00	1.566613e-04	
736	3.550000e+00	1.568242e-04	
737	3.600000e+00	1.569790e-04	
738	3.650000e+00	1.571265e-04	
739	3.700000e+00	1.572671e-04	
740	3.750000e+00	1.574017e-04	
741	3.800000e+00	1.575305e-04	
742	3.850000e+00	1.576543e-04	
743	3.900000e+00	1.577732e-04	
744	3.950000e+00	1.578877e-04	
745	4.000000e+00	1.579982e-04	
746	4.050000e+00	1.581048e-04	
747	4.100000e+00	1.582078e-04	
748	4.150000e+00	1.583076e-04	
749	4.200000e+00	1.584042e-04	
750	4.250000e+00	1.584980e-04	

Index   v-sweep         -i(vds)         
--------------------------------------------------------------------------------
751	4.300000e+00	1.585890e-04	
752	4.350000e+00	1.586774e-04	
753	4.400000e+00	1.587634e-04	
754	4.450000e+00	1.588471e-04	
755	4.500000e+00	1.589286e-04	
756	4.550000e+00	1.590080e-04	
757	4.600000e+00	1.590856e-04	
758	4.650000e+00	1.591612e-04	
759	4.700000e+00	1.592352e-04	
760	4.750000e+00	1.593074e-04	
761	4.800000e+00	1.593781e-04	
762	4.850000e+00	1.594473e-04	
763	4.900000e+00	1.595151e-04	
764	4.950000e+00	1.595816e-04	
765	5.000000e+00	1.596469e-04	
766	5.050000e+00	1.597110e-04	
767	5.100000e+00	1.597741e-04	
768	5.150000e+00	1.598362e-04	
769	5.200000e+00	1.598975e-04	
770	5.250000e+00	1.599580e-04	
771	5.300000e+00	1.600180e-04	
772	5.350000e+00	1.600776e-04	
773	5.400000e+00	1.601368e-04	
774	5.450000e+00	1.601960e-04	
775	5.500000e+00	1.602553e-04	
776	5.550000e+00	1.603148e-04	
777	5.600000e+00	1.603750e-04	
778	5.650000e+00	1.604360e-04	
779	5.700000e+00	1.604981e-04	
780	5.750000e+00	1.605617e-04	
781	5.800000e+00	1.606272e-04	
782	5.850000e+00	1.606950e-04	
783	5.900000e+00	1.607655e-04	
784	5.950000e+00	1.608391e-04	
785	6.000000e+00	1.609165e-04	
786	6.050000e+00	1.609983e-04	
787	6.100000e+00	1.610849e-04	
788	6.150000e+00	1.611772e-04	
789	6.200000e+00	1.612758e-04	
790	6.250000e+00	1.613814e-04	
791	6.300000e+00	1.614951e-04	
792	6.350000e+00	1.616175e-04	
793	6.400000e+00	1.617497e-04	
794	6.450000e+00	1.618926e-04	
795	6.500000e+00	1.620473e-04	
796	6.550000e+00	1.622149e-04	
797	6.600000e+00	1.623965e-04	
Note: No ".plot", ".print", or ".fourier" lines; no simulations run
