
Note: Compatibility modes selected: hs

Warning: m=xx on .subckt line will override multiplier m hierarchy!


Circuit: ***************************

Doing analysis at TEMP = -40.000000 and TNOM = -40.000000


No. of Data Rows : 798
                          ***************************
                          DC transfer characteristic  Mon Jan  9 13:58:36  2023
--------------------------------------------------------------------------------
Index   v-sweep         -i(vds)         
--------------------------------------------------------------------------------
0	0.000000e+00	-1.07121e-23	
1	5.000000e-02	7.643847e-07	
2	1.000000e-01	1.302346e-06	
3	1.500000e-01	1.625003e-06	
4	2.000000e-01	1.771284e-06	
5	2.500000e-01	1.820510e-06	
6	3.000000e-01	1.837165e-06	
7	3.500000e-01	1.844559e-06	
8	4.000000e-01	1.848890e-06	
9	4.500000e-01	1.851984e-06	
10	5.000000e-01	1.854488e-06	
11	5.500000e-01	1.856675e-06	
12	6.000000e-01	1.858675e-06	
13	6.500000e-01	1.860556e-06	
14	7.000000e-01	1.862357e-06	
15	7.500000e-01	1.864102e-06	
16	8.000000e-01	1.865805e-06	
17	8.500000e-01	1.867478e-06	
18	9.000000e-01	1.869127e-06	
19	9.500000e-01	1.870756e-06	
20	1.000000e+00	1.872370e-06	
21	1.050000e+00	1.873972e-06	
22	1.100000e+00	1.875562e-06	
23	1.150000e+00	1.877144e-06	
24	1.200000e+00	1.878718e-06	
25	1.250000e+00	1.880286e-06	
26	1.300000e+00	1.881847e-06	
27	1.350000e+00	1.883404e-06	
28	1.400000e+00	1.884956e-06	
29	1.450000e+00	1.886504e-06	
30	1.500000e+00	1.888048e-06	
31	1.550000e+00	1.889590e-06	
32	1.600000e+00	1.891128e-06	
33	1.650000e+00	1.892663e-06	
34	1.700000e+00	1.894197e-06	
35	1.750000e+00	1.895727e-06	
36	1.800000e+00	1.897256e-06	
37	1.850000e+00	1.898783e-06	
38	1.900000e+00	1.900308e-06	
39	1.950000e+00	1.901832e-06	
40	2.000000e+00	1.903354e-06	
41	2.050000e+00	1.904874e-06	
42	2.100000e+00	1.906394e-06	
43	2.150000e+00	1.907912e-06	
44	2.200000e+00	1.909429e-06	
45	2.250000e+00	1.910945e-06	
46	2.300000e+00	1.912460e-06	
47	2.350000e+00	1.913975e-06	
48	2.400000e+00	1.915489e-06	
49	2.450000e+00	1.917004e-06	
50	2.500000e+00	1.918518e-06	
51	2.550000e+00	1.920032e-06	
52	2.600000e+00	1.921548e-06	
53	2.650000e+00	1.923065e-06	
54	2.700000e+00	1.924584e-06	

Index   v-sweep         -i(vds)         
--------------------------------------------------------------------------------
55	2.750000e+00	1.926106e-06	
56	2.800000e+00	1.927631e-06	
57	2.850000e+00	1.929162e-06	
58	2.900000e+00	1.930699e-06	
59	2.950000e+00	1.932243e-06	
60	3.000000e+00	1.933797e-06	
61	3.050000e+00	1.935362e-06	
62	3.100000e+00	1.936941e-06	
63	3.150000e+00	1.938536e-06	
64	3.200000e+00	1.940151e-06	
65	3.250000e+00	1.941789e-06	
66	3.300000e+00	1.943453e-06	
67	3.350000e+00	1.945148e-06	
68	3.400000e+00	1.946879e-06	
69	3.450000e+00	1.948651e-06	
70	3.500000e+00	1.950470e-06	
71	3.550000e+00	1.952342e-06	
72	3.600000e+00	1.954273e-06	
73	3.650000e+00	1.956272e-06	
74	3.700000e+00	1.958346e-06	
75	3.750000e+00	1.960505e-06	
76	3.800000e+00	1.962757e-06	
77	3.850000e+00	1.965113e-06	
78	3.900000e+00	1.967584e-06	
79	3.950000e+00	1.970180e-06	
80	4.000000e+00	1.972916e-06	
81	4.050000e+00	1.975802e-06	
82	4.100000e+00	1.978854e-06	
83	4.150000e+00	1.982086e-06	
84	4.200000e+00	1.985513e-06	
85	4.250000e+00	1.989150e-06	
86	4.300000e+00	1.993016e-06	
87	4.350000e+00	1.997128e-06	
88	4.400000e+00	2.001503e-06	
89	4.450000e+00	2.006162e-06	
90	4.500000e+00	2.011124e-06	
91	4.550000e+00	2.016410e-06	
92	4.600000e+00	2.022042e-06	
93	4.650000e+00	2.028041e-06	
94	4.700000e+00	2.034432e-06	
95	4.750000e+00	2.041236e-06	
96	4.800000e+00	2.048480e-06	
97	4.850000e+00	2.056188e-06	
98	4.900000e+00	2.064386e-06	
99	4.950000e+00	2.073101e-06	
100	5.000000e+00	2.082360e-06	
101	5.050000e+00	2.092190e-06	
102	5.100000e+00	2.102621e-06	
103	5.150000e+00	2.113681e-06	
104	5.200000e+00	2.125401e-06	
105	5.250000e+00	2.137810e-06	
106	5.300000e+00	2.150939e-06	
107	5.350000e+00	2.164820e-06	
108	5.400000e+00	2.179486e-06	
109	5.450000e+00	2.194967e-06	
110	5.500000e+00	2.211297e-06	
111	5.550000e+00	2.228510e-06	
112	5.600000e+00	2.246639e-06	

Index   v-sweep         -i(vds)         
--------------------------------------------------------------------------------
113	5.650000e+00	2.265718e-06	
114	5.700000e+00	2.285783e-06	
115	5.750000e+00	2.306868e-06	
116	5.800000e+00	2.329007e-06	
117	5.850000e+00	2.352238e-06	
118	5.900000e+00	2.376596e-06	
119	5.950000e+00	2.402117e-06	
120	6.000000e+00	2.428837e-06	
121	6.050000e+00	2.456793e-06	
122	6.100000e+00	2.486023e-06	
123	6.150000e+00	2.516563e-06	
124	6.200000e+00	2.548451e-06	
125	6.250000e+00	2.581724e-06	
126	6.300000e+00	2.616419e-06	
127	6.350000e+00	2.652575e-06	
128	6.400000e+00	2.690230e-06	
129	6.450000e+00	2.729420e-06	
130	6.500000e+00	2.770185e-06	
131	6.550000e+00	2.812562e-06	
132	6.600000e+00	2.856588e-06	
133	0.000000e+00	1.545863e-21	
134	5.000000e-02	4.441939e-06	
135	1.000000e-01	8.639016e-06	
136	1.500000e-01	1.259179e-05	
137	2.000000e-01	1.630082e-05	
138	2.500000e-01	1.976668e-05	
139	3.000000e-01	2.298994e-05	
140	3.500000e-01	2.597120e-05	
141	4.000000e-01	2.871106e-05	
142	4.500000e-01	3.121019e-05	
143	5.000000e-01	3.346930e-05	
144	5.500000e-01	3.548924e-05	
145	6.000000e-01	3.727103e-05	
146	6.500000e-01	3.881611e-05	
147	7.000000e-01	4.012663e-05	
148	7.500000e-01	4.120623e-05	
149	8.000000e-01	4.206154e-05	
150	8.500000e-01	4.270499e-05	
151	9.000000e-01	4.315902e-05	
152	9.500000e-01	4.345873e-05	
153	1.000000e+00	4.364747e-05	
154	1.050000e+00	4.376551e-05	
155	1.100000e+00	4.384189e-05	
156	1.150000e+00	4.389422e-05	
157	1.200000e+00	4.393240e-05	
158	1.250000e+00	4.396192e-05	
159	1.300000e+00	4.398590e-05	
160	1.350000e+00	4.400616e-05	
161	1.400000e+00	4.402386e-05	
162	1.450000e+00	4.403969e-05	
163	1.500000e+00	4.405415e-05	
164	1.550000e+00	4.406756e-05	
165	1.600000e+00	4.408014e-05	
166	1.650000e+00	4.409208e-05	
167	1.700000e+00	4.410349e-05	
168	1.750000e+00	4.411447e-05	
169	1.800000e+00	4.412508e-05	
170	1.850000e+00	4.413539e-05	

Index   v-sweep         -i(vds)         
--------------------------------------------------------------------------------
171	1.900000e+00	4.414544e-05	
172	1.950000e+00	4.415527e-05	
173	2.000000e+00	4.416490e-05	
174	2.050000e+00	4.417436e-05	
175	2.100000e+00	4.418367e-05	
176	2.150000e+00	4.419285e-05	
177	2.200000e+00	4.420192e-05	
178	2.250000e+00	4.421087e-05	
179	2.300000e+00	4.421973e-05	
180	2.350000e+00	4.422850e-05	
181	2.400000e+00	4.423720e-05	
182	2.450000e+00	4.424582e-05	
183	2.500000e+00	4.425438e-05	
184	2.550000e+00	4.426287e-05	
185	2.600000e+00	4.427131e-05	
186	2.650000e+00	4.427970e-05	
187	2.700000e+00	4.428804e-05	
188	2.750000e+00	4.429634e-05	
189	2.800000e+00	4.430460e-05	
190	2.850000e+00	4.431281e-05	
191	2.900000e+00	4.432100e-05	
192	2.950000e+00	4.432915e-05	
193	3.000000e+00	4.433728e-05	
194	3.050000e+00	4.434538e-05	
195	3.100000e+00	4.435347e-05	
196	3.150000e+00	4.436154e-05	
197	3.200000e+00	4.436960e-05	
198	3.250000e+00	4.437766e-05	
199	3.300000e+00	4.438573e-05	
200	3.350000e+00	4.439381e-05	
201	3.400000e+00	4.440193e-05	
202	3.450000e+00	4.441010e-05	
203	3.500000e+00	4.441833e-05	
204	3.550000e+00	4.442665e-05	
205	3.600000e+00	4.443508e-05	
206	3.650000e+00	4.444366e-05	
207	3.700000e+00	4.445242e-05	
208	3.750000e+00	4.446140e-05	
209	3.800000e+00	4.447066e-05	
210	3.850000e+00	4.448023e-05	
211	3.900000e+00	4.449019e-05	
212	3.950000e+00	4.450061e-05	
213	4.000000e+00	4.451157e-05	
214	4.050000e+00	4.452315e-05	
215	4.100000e+00	4.453545e-05	
216	4.150000e+00	4.454859e-05	
217	4.200000e+00	4.456268e-05	
218	4.250000e+00	4.457786e-05	
219	4.300000e+00	4.459426e-05	
220	4.350000e+00	4.461206e-05	
221	4.400000e+00	4.463141e-05	
222	4.450000e+00	4.465251e-05	
223	4.500000e+00	4.467555e-05	
224	4.550000e+00	4.470075e-05	
225	4.600000e+00	4.472833e-05	
226	4.650000e+00	4.475855e-05	
227	4.700000e+00	4.479167e-05	
228	4.750000e+00	4.482795e-05	

Index   v-sweep         -i(vds)         
--------------------------------------------------------------------------------
229	4.800000e+00	4.486769e-05	
230	4.850000e+00	4.491121e-05	
231	4.900000e+00	4.495883e-05	
232	4.950000e+00	4.501089e-05	
233	5.000000e+00	4.506775e-05	
234	5.050000e+00	4.512978e-05	
235	5.100000e+00	4.519739e-05	
236	5.150000e+00	4.527098e-05	
237	5.200000e+00	4.535098e-05	
238	5.250000e+00	4.543782e-05	
239	5.300000e+00	4.553198e-05	
240	5.350000e+00	4.563392e-05	
241	5.400000e+00	4.574413e-05	
242	5.450000e+00	4.586313e-05	
243	5.500000e+00	4.599143e-05	
244	5.550000e+00	4.612957e-05	
245	5.600000e+00	4.627810e-05	
246	5.650000e+00	4.643759e-05	
247	5.700000e+00	4.660862e-05	
248	5.750000e+00	4.679179e-05	
249	5.800000e+00	4.698769e-05	
250	5.850000e+00	4.719695e-05	
251	5.900000e+00	4.742019e-05	
252	5.950000e+00	4.765807e-05	
253	6.000000e+00	4.791124e-05	
254	6.050000e+00	4.818036e-05	
255	6.100000e+00	4.846611e-05	
256	6.150000e+00	4.876917e-05	
257	6.200000e+00	4.909024e-05	
258	6.250000e+00	4.943002e-05	
259	6.300000e+00	4.978922e-05	
260	6.350000e+00	5.016857e-05	
261	6.400000e+00	5.056879e-05	
262	6.450000e+00	5.099061e-05	
263	6.500000e+00	5.143478e-05	
264	6.550000e+00	5.190203e-05	
265	6.600000e+00	5.239313e-05	
266	0.000000e+00	7.158252e-36	
267	5.000000e-02	7.588559e-06	
268	1.000000e-01	1.494789e-05	
269	1.500000e-01	2.207856e-05	
270	2.000000e-01	2.898113e-05	
271	2.500000e-01	3.565616e-05	
272	3.000000e-01	4.210420e-05	
273	3.500000e-01	4.832582e-05	
274	4.000000e-01	5.432157e-05	
275	4.500000e-01	6.009199e-05	
276	5.000000e-01	6.563765e-05	
277	5.500000e-01	7.095910e-05	
278	6.000000e-01	7.605687e-05	
279	6.500000e-01	8.093152e-05	
280	7.000000e-01	8.558360e-05	
281	7.500000e-01	9.001366e-05	
282	8.000000e-01	9.422223e-05	
283	8.500000e-01	9.820986e-05	
284	9.000000e-01	1.019771e-04	
285	9.500000e-01	1.055245e-04	
286	1.000000e+00	1.088526e-04	

Index   v-sweep         -i(vds)         
--------------------------------------------------------------------------------
287	1.050000e+00	1.119620e-04	
288	1.100000e+00	1.148533e-04	
289	1.150000e+00	1.175271e-04	
290	1.200000e+00	1.199840e-04	
291	1.250000e+00	1.222247e-04	
292	1.300000e+00	1.242503e-04	
293	1.350000e+00	1.260617e-04	
294	1.400000e+00	1.276606e-04	
295	1.450000e+00	1.290493e-04	
296	1.500000e+00	1.302316e-04	
297	1.550000e+00	1.312135e-04	
298	1.600000e+00	1.320052e-04	
299	1.650000e+00	1.326225e-04	
300	1.700000e+00	1.330882e-04	
301	1.750000e+00	1.334305e-04	
302	1.800000e+00	1.336792e-04	
303	1.850000e+00	1.338606e-04	
304	1.900000e+00	1.339956e-04	
305	1.950000e+00	1.340988e-04	
306	2.000000e+00	1.341801e-04	
307	2.050000e+00	1.342463e-04	
308	2.100000e+00	1.343015e-04	
309	2.150000e+00	1.343489e-04	
310	2.200000e+00	1.343903e-04	
311	2.250000e+00	1.344272e-04	
312	2.300000e+00	1.344606e-04	
313	2.350000e+00	1.344912e-04	
314	2.400000e+00	1.345195e-04	
315	2.450000e+00	1.345460e-04	
316	2.500000e+00	1.345710e-04	
317	2.550000e+00	1.345947e-04	
318	2.600000e+00	1.346174e-04	
319	2.650000e+00	1.346391e-04	
320	2.700000e+00	1.346600e-04	
321	2.750000e+00	1.346802e-04	
322	2.800000e+00	1.346999e-04	
323	2.850000e+00	1.347190e-04	
324	2.900000e+00	1.347376e-04	
325	2.950000e+00	1.347558e-04	
326	3.000000e+00	1.347736e-04	
327	3.050000e+00	1.347911e-04	
328	3.100000e+00	1.348083e-04	
329	3.150000e+00	1.348252e-04	
330	3.200000e+00	1.348418e-04	
331	3.250000e+00	1.348582e-04	
332	3.300000e+00	1.348744e-04	
333	3.350000e+00	1.348904e-04	
334	3.400000e+00	1.349062e-04	
335	3.450000e+00	1.349219e-04	
336	3.500000e+00	1.349374e-04	
337	3.550000e+00	1.349527e-04	
338	3.600000e+00	1.349680e-04	
339	3.650000e+00	1.349831e-04	
340	3.700000e+00	1.349981e-04	
341	3.750000e+00	1.350130e-04	
342	3.800000e+00	1.350278e-04	
343	3.850000e+00	1.350425e-04	
344	3.900000e+00	1.350572e-04	

Index   v-sweep         -i(vds)         
--------------------------------------------------------------------------------
345	3.950000e+00	1.350719e-04	
346	4.000000e+00	1.350865e-04	
347	4.050000e+00	1.351011e-04	
348	4.100000e+00	1.351158e-04	
349	4.150000e+00	1.351306e-04	
350	4.200000e+00	1.351454e-04	
351	4.250000e+00	1.351605e-04	
352	4.300000e+00	1.351758e-04	
353	4.350000e+00	1.351914e-04	
354	4.400000e+00	1.352075e-04	
355	4.450000e+00	1.352240e-04	
356	4.500000e+00	1.352412e-04	
357	4.550000e+00	1.352592e-04	
358	4.600000e+00	1.352781e-04	
359	4.650000e+00	1.352982e-04	
360	4.700000e+00	1.353195e-04	
361	4.750000e+00	1.353424e-04	
362	4.800000e+00	1.353672e-04	
363	4.850000e+00	1.353941e-04	
364	4.900000e+00	1.354234e-04	
365	4.950000e+00	1.354555e-04	
366	5.000000e+00	1.354908e-04	
367	5.050000e+00	1.355297e-04	
368	5.100000e+00	1.355726e-04	
369	5.150000e+00	1.356202e-04	
370	5.200000e+00	1.356730e-04	
371	5.250000e+00	1.357314e-04	
372	5.300000e+00	1.357963e-04	
373	5.350000e+00	1.358682e-04	
374	5.400000e+00	1.359478e-04	
375	5.450000e+00	1.360361e-04	
376	5.500000e+00	1.361337e-04	
377	5.550000e+00	1.362416e-04	
378	5.600000e+00	1.363607e-04	
379	5.650000e+00	1.364919e-04	
380	5.700000e+00	1.366364e-04	
381	5.750000e+00	1.367950e-04	
382	5.800000e+00	1.369691e-04	
383	5.850000e+00	1.371597e-04	
384	5.900000e+00	1.373682e-04	
385	5.950000e+00	1.375956e-04	
386	6.000000e+00	1.378435e-04	
387	6.050000e+00	1.381131e-04	
388	6.100000e+00	1.384059e-04	
389	6.150000e+00	1.387234e-04	
390	6.200000e+00	1.390670e-04	
391	6.250000e+00	1.394383e-04	
392	6.300000e+00	1.398390e-04	
393	6.350000e+00	1.402707e-04	
394	6.400000e+00	1.407350e-04	
395	6.450000e+00	1.412338e-04	
396	6.500000e+00	1.417687e-04	
397	6.550000e+00	1.423417e-04	
398	6.600000e+00	1.429545e-04	
399	0.000000e+00	-6.85414e-36	
400	5.000000e-02	1.010370e-05	
401	1.000000e-01	1.999856e-05	
402	1.500000e-01	2.968510e-05	

Index   v-sweep         -i(vds)         
--------------------------------------------------------------------------------
403	2.000000e-01	3.916383e-05	
404	2.500000e-01	4.843524e-05	
405	3.000000e-01	5.749985e-05	
406	3.500000e-01	6.635816e-05	
407	4.000000e-01	7.501067e-05	
408	4.500000e-01	8.345787e-05	
409	5.000000e-01	9.170028e-05	
410	5.500000e-01	9.973838e-05	
411	6.000000e-01	1.075727e-04	
412	6.500000e-01	1.152036e-04	
413	7.000000e-01	1.226318e-04	
414	7.500000e-01	1.298576e-04	
415	8.000000e-01	1.368816e-04	
416	8.500000e-01	1.437042e-04	
417	9.000000e-01	1.503259e-04	
418	9.500000e-01	1.567473e-04	
419	1.000000e+00	1.629687e-04	
420	1.050000e+00	1.689908e-04	
421	1.100000e+00	1.748138e-04	
422	1.150000e+00	1.804384e-04	
423	1.200000e+00	1.858650e-04	
424	1.250000e+00	1.910940e-04	
425	1.300000e+00	1.961260e-04	
426	1.350000e+00	2.009613e-04	
427	1.400000e+00	2.056006e-04	
428	1.450000e+00	2.100441e-04	
429	1.500000e+00	2.142924e-04	
430	1.550000e+00	2.183459e-04	
431	1.600000e+00	2.222051e-04	
432	1.650000e+00	2.258704e-04	
433	1.700000e+00	2.293422e-04	
434	1.750000e+00	2.326210e-04	
435	1.800000e+00	2.357073e-04	
436	1.850000e+00	2.386014e-04	
437	1.900000e+00	2.413037e-04	
438	1.950000e+00	2.438149e-04	
439	2.000000e+00	2.461353e-04	
440	2.050000e+00	2.482655e-04	
441	2.100000e+00	2.502063e-04	
442	2.150000e+00	2.519586e-04	
443	2.200000e+00	2.535237e-04	
444	2.250000e+00	2.549038e-04	
445	2.300000e+00	2.561022e-04	
446	2.350000e+00	2.571243e-04	
447	2.400000e+00	2.579785e-04	
448	2.450000e+00	2.586772e-04	
449	2.500000e+00	2.592372e-04	
450	2.550000e+00	2.596789e-04	
451	2.600000e+00	2.600244e-04	
452	2.650000e+00	2.602948e-04	
453	2.700000e+00	2.605080e-04	
454	2.750000e+00	2.606787e-04	
455	2.800000e+00	2.608178e-04	
456	2.850000e+00	2.609332e-04	
457	2.900000e+00	2.610309e-04	
458	2.950000e+00	2.611150e-04	
459	3.000000e+00	2.611886e-04	
460	3.050000e+00	2.612539e-04	

Index   v-sweep         -i(vds)         
--------------------------------------------------------------------------------
461	3.100000e+00	2.613127e-04	
462	3.150000e+00	2.613661e-04	
463	3.200000e+00	2.614152e-04	
464	3.250000e+00	2.614607e-04	
465	3.300000e+00	2.615031e-04	
466	3.350000e+00	2.615430e-04	
467	3.400000e+00	2.615807e-04	
468	3.450000e+00	2.616166e-04	
469	3.500000e+00	2.616508e-04	
470	3.550000e+00	2.616836e-04	
471	3.600000e+00	2.617152e-04	
472	3.650000e+00	2.617457e-04	
473	3.700000e+00	2.617752e-04	
474	3.750000e+00	2.618038e-04	
475	3.800000e+00	2.618316e-04	
476	3.850000e+00	2.618587e-04	
477	3.900000e+00	2.618852e-04	
478	3.950000e+00	2.619111e-04	
479	4.000000e+00	2.619365e-04	
480	4.050000e+00	2.619614e-04	
481	4.100000e+00	2.619859e-04	
482	4.150000e+00	2.620099e-04	
483	4.200000e+00	2.620336e-04	
484	4.250000e+00	2.620569e-04	
485	4.300000e+00	2.620799e-04	
486	4.350000e+00	2.621026e-04	
487	4.400000e+00	2.621250e-04	
488	4.450000e+00	2.621472e-04	
489	4.500000e+00	2.621691e-04	
490	4.550000e+00	2.621908e-04	
491	4.600000e+00	2.622124e-04	
492	4.650000e+00	2.622338e-04	
493	4.700000e+00	2.622551e-04	
494	4.750000e+00	2.622763e-04	
495	4.800000e+00	2.622975e-04	
496	4.850000e+00	2.623187e-04	
497	4.900000e+00	2.623399e-04	
498	4.950000e+00	2.623613e-04	
499	5.000000e+00	2.623830e-04	
500	5.050000e+00	2.624050e-04	
501	5.100000e+00	2.624275e-04	
502	5.150000e+00	2.624506e-04	
503	5.200000e+00	2.624746e-04	
504	5.250000e+00	2.624995e-04	
505	5.300000e+00	2.625257e-04	
506	5.350000e+00	2.625535e-04	
507	5.400000e+00	2.625830e-04	
508	5.450000e+00	2.626148e-04	
509	5.500000e+00	2.626493e-04	
510	5.550000e+00	2.626868e-04	
511	5.600000e+00	2.627278e-04	
512	5.650000e+00	2.627731e-04	
513	5.700000e+00	2.628231e-04	
514	5.750000e+00	2.628786e-04	
515	5.800000e+00	2.629403e-04	
516	5.850000e+00	2.630092e-04	
517	5.900000e+00	2.630860e-04	
518	5.950000e+00	2.631719e-04	

Index   v-sweep         -i(vds)         
--------------------------------------------------------------------------------
519	6.000000e+00	2.632678e-04	
520	6.050000e+00	2.633749e-04	
521	6.100000e+00	2.634946e-04	
522	6.150000e+00	2.636280e-04	
523	6.200000e+00	2.637766e-04	
524	6.250000e+00	2.639420e-04	
525	6.300000e+00	2.641257e-04	
526	6.350000e+00	2.643294e-04	
527	6.400000e+00	2.645550e-04	
528	6.450000e+00	2.648043e-04	
529	6.500000e+00	2.650793e-04	
530	6.550000e+00	2.653821e-04	
531	6.600000e+00	2.657149e-04	
532	0.000000e+00	5.508573e-20	
533	5.000000e-02	1.199065e-05	
534	1.000000e-01	2.379461e-05	
535	1.500000e-01	3.541231e-05	
536	2.000000e-01	4.684420e-05	
537	2.500000e-01	5.809069e-05	
538	3.000000e-01	6.915222e-05	
539	3.500000e-01	8.002922e-05	
540	4.000000e-01	9.072211e-05	
541	4.500000e-01	1.012313e-04	
542	5.000000e-01	1.115573e-04	
543	5.500000e-01	1.217004e-04	
544	6.000000e-01	1.316611e-04	
545	6.500000e-01	1.414398e-04	
546	7.000000e-01	1.510369e-04	
547	7.500000e-01	1.604528e-04	
548	8.000000e-01	1.696881e-04	
549	8.500000e-01	1.787430e-04	
550	9.000000e-01	1.876179e-04	
551	9.500000e-01	1.963134e-04	
552	1.000000e+00	2.048298e-04	
553	1.050000e+00	2.131675e-04	
554	1.100000e+00	2.213270e-04	
555	1.150000e+00	2.293086e-04	
556	1.200000e+00	2.371127e-04	
557	1.250000e+00	2.447398e-04	
558	1.300000e+00	2.521902e-04	
559	1.350000e+00	2.594644e-04	
560	1.400000e+00	2.665628e-04	
561	1.450000e+00	2.734856e-04	
562	1.500000e+00	2.802335e-04	
563	1.550000e+00	2.868067e-04	
564	1.600000e+00	2.932056e-04	
565	1.650000e+00	2.994307e-04	
566	1.700000e+00	3.054822e-04	
567	1.750000e+00	3.113607e-04	
568	1.800000e+00	3.170665e-04	
569	1.850000e+00	3.225999e-04	
570	1.900000e+00	3.279614e-04	
571	1.950000e+00	3.331513e-04	
572	2.000000e+00	3.381700e-04	
573	2.050000e+00	3.430179e-04	
574	2.100000e+00	3.476953e-04	
575	2.150000e+00	3.522026e-04	
576	2.200000e+00	3.565401e-04	

Index   v-sweep         -i(vds)         
--------------------------------------------------------------------------------
577	2.250000e+00	3.607083e-04	
578	2.300000e+00	3.647073e-04	
579	2.350000e+00	3.685377e-04	
580	2.400000e+00	3.721996e-04	
581	2.450000e+00	3.756934e-04	
582	2.500000e+00	3.790195e-04	
583	2.550000e+00	3.821780e-04	
584	2.600000e+00	3.851694e-04	
585	2.650000e+00	3.879937e-04	
586	2.700000e+00	3.906514e-04	
587	2.750000e+00	3.931426e-04	
588	2.800000e+00	3.954676e-04	
589	2.850000e+00	3.976266e-04	
590	2.900000e+00	3.996200e-04	
591	2.950000e+00	4.014481e-04	
592	3.000000e+00	4.031117e-04	
593	3.050000e+00	4.046117e-04	
594	3.100000e+00	4.059499e-04	
595	3.150000e+00	4.071291e-04	
596	3.200000e+00	4.081538e-04	
597	3.250000e+00	4.090310e-04	
598	3.300000e+00	4.097705e-04	
599	3.350000e+00	4.103854e-04	
600	3.400000e+00	4.108912e-04	
601	3.450000e+00	4.113047e-04	
602	3.500000e+00	4.116426e-04	
603	3.550000e+00	4.119198e-04	
604	3.600000e+00	4.121493e-04	
605	3.650000e+00	4.123414e-04	
606	3.700000e+00	4.125042e-04	
607	3.750000e+00	4.126440e-04	
608	3.800000e+00	4.127656e-04	
609	3.850000e+00	4.128728e-04	
610	3.900000e+00	4.129683e-04	
611	3.950000e+00	4.130542e-04	
612	4.000000e+00	4.131323e-04	
613	4.050000e+00	4.132039e-04	
614	4.100000e+00	4.132701e-04	
615	4.150000e+00	4.133316e-04	
616	4.200000e+00	4.133891e-04	
617	4.250000e+00	4.134433e-04	
618	4.300000e+00	4.134946e-04	
619	4.350000e+00	4.135432e-04	
620	4.400000e+00	4.135897e-04	
621	4.450000e+00	4.136341e-04	
622	4.500000e+00	4.136768e-04	
623	4.550000e+00	4.137179e-04	
624	4.600000e+00	4.137576e-04	
625	4.650000e+00	4.137960e-04	
626	4.700000e+00	4.138333e-04	
627	4.750000e+00	4.138696e-04	
628	4.800000e+00	4.139049e-04	
629	4.850000e+00	4.139394e-04	
630	4.900000e+00	4.139730e-04	
631	4.950000e+00	4.140060e-04	
632	5.000000e+00	4.140383e-04	
633	5.050000e+00	4.140699e-04	
634	5.100000e+00	4.141010e-04	

Index   v-sweep         -i(vds)         
--------------------------------------------------------------------------------
635	5.150000e+00	4.141316e-04	
636	5.200000e+00	4.141617e-04	
637	5.250000e+00	4.141913e-04	
638	5.300000e+00	4.142205e-04	
639	5.350000e+00	4.142494e-04	
640	5.400000e+00	4.142779e-04	
641	5.450000e+00	4.143061e-04	
642	5.500000e+00	4.143341e-04	
643	5.550000e+00	4.143619e-04	
644	5.600000e+00	4.143896e-04	
645	5.650000e+00	4.144172e-04	
646	5.700000e+00	4.144449e-04	
647	5.750000e+00	4.144727e-04	
648	5.800000e+00	4.145007e-04	
649	5.850000e+00	4.145292e-04	
650	5.900000e+00	4.145582e-04	
651	5.950000e+00	4.145881e-04	
652	6.000000e+00	4.146190e-04	
653	6.050000e+00	4.146513e-04	
654	6.100000e+00	4.146852e-04	
655	6.150000e+00	4.147212e-04	
656	6.200000e+00	4.147598e-04	
657	6.250000e+00	4.148014e-04	
658	6.300000e+00	4.148466e-04	
659	6.350000e+00	4.148961e-04	
660	6.400000e+00	4.149506e-04	
661	6.450000e+00	4.150110e-04	
662	6.500000e+00	4.150781e-04	
663	6.550000e+00	4.151531e-04	
664	6.600000e+00	4.152370e-04	
665	0.000000e+00	-4.38633e-35	
666	5.000000e-02	1.331628e-05	
667	1.000000e-01	2.646798e-05	
668	1.500000e-01	3.945545e-05	
669	2.000000e-01	5.227905e-05	
670	2.500000e-01	6.493912e-05	
671	3.000000e-01	7.743602e-05	
672	3.500000e-01	8.977010e-05	
673	4.000000e-01	1.019417e-04	
674	4.500000e-01	1.139512e-04	
675	5.000000e-01	1.257989e-04	
676	5.500000e-01	1.374851e-04	
677	6.000000e-01	1.490103e-04	
678	6.500000e-01	1.603748e-04	
679	7.000000e-01	1.715788e-04	
680	7.500000e-01	1.826228e-04	
681	8.000000e-01	1.935071e-04	
682	8.500000e-01	2.042320e-04	
683	9.000000e-01	2.147978e-04	
684	9.500000e-01	2.252050e-04	
685	1.000000e+00	2.354538e-04	
686	1.050000e+00	2.455446e-04	
687	1.100000e+00	2.554777e-04	
688	1.150000e+00	2.652535e-04	
689	1.200000e+00	2.748722e-04	
690	1.250000e+00	2.843343e-04	
691	1.300000e+00	2.936400e-04	
692	1.350000e+00	3.027898e-04	

Index   v-sweep         -i(vds)         
--------------------------------------------------------------------------------
693	1.400000e+00	3.117838e-04	
694	1.450000e+00	3.206225e-04	
695	1.500000e+00	3.293061e-04	
696	1.550000e+00	3.378351e-04	
697	1.600000e+00	3.462097e-04	
698	1.650000e+00	3.544302e-04	
699	1.700000e+00	3.624971e-04	
700	1.750000e+00	3.704105e-04	
701	1.800000e+00	3.781709e-04	
702	1.850000e+00	3.857785e-04	
703	1.900000e+00	3.932337e-04	
704	1.950000e+00	4.005368e-04	
705	2.000000e+00	4.076880e-04	
706	2.050000e+00	4.146879e-04	
707	2.100000e+00	4.215365e-04	
708	2.150000e+00	4.282343e-04	
709	2.200000e+00	4.347816e-04	
710	2.250000e+00	4.411786e-04	
711	2.300000e+00	4.474257e-04	
712	2.350000e+00	4.535233e-04	
713	2.400000e+00	4.594715e-04	
714	2.450000e+00	4.652707e-04	
715	2.500000e+00	4.709212e-04	
716	2.550000e+00	4.764234e-04	
717	2.600000e+00	4.817774e-04	
718	2.650000e+00	4.869836e-04	
719	2.700000e+00	4.920423e-04	
720	2.750000e+00	4.969538e-04	
721	2.800000e+00	5.017183e-04	
722	2.850000e+00	5.063362e-04	
723	2.900000e+00	5.108077e-04	
724	2.950000e+00	5.151330e-04	
725	3.000000e+00	5.193125e-04	
726	3.050000e+00	5.233464e-04	
727	3.100000e+00	5.272349e-04	
728	3.150000e+00	5.309783e-04	
729	3.200000e+00	5.345767e-04	
730	3.250000e+00	5.380305e-04	
731	3.300000e+00	5.413398e-04	
732	3.350000e+00	5.445048e-04	
733	3.400000e+00	5.475256e-04	
734	3.450000e+00	5.504023e-04	
735	3.500000e+00	5.531352e-04	
736	3.550000e+00	5.557243e-04	
737	3.600000e+00	5.581695e-04	
738	3.650000e+00	5.604710e-04	
739	3.700000e+00	5.626288e-04	
740	3.750000e+00	5.646429e-04	
741	3.800000e+00	5.665132e-04	
742	3.850000e+00	5.682400e-04	
743	3.900000e+00	5.698235e-04	
744	3.950000e+00	5.712643e-04	
745	4.000000e+00	5.725637e-04	
746	4.050000e+00	5.737238e-04	
747	4.100000e+00	5.747482e-04	
748	4.150000e+00	5.756423e-04	
749	4.200000e+00	5.764138e-04	
750	4.250000e+00	5.770726e-04	

Index   v-sweep         -i(vds)         
--------------------------------------------------------------------------------
751	4.300000e+00	5.776306e-04	
752	4.350000e+00	5.781008e-04	
753	4.400000e+00	5.784965e-04	
754	4.450000e+00	5.788302e-04	
755	4.500000e+00	5.791130e-04	
756	4.550000e+00	5.793546e-04	
757	4.600000e+00	5.795627e-04	
758	4.650000e+00	5.797437e-04	
759	4.700000e+00	5.799027e-04	
760	4.750000e+00	5.800436e-04	
761	4.800000e+00	5.801698e-04	
762	4.850000e+00	5.802837e-04	
763	4.900000e+00	5.803873e-04	
764	4.950000e+00	5.804823e-04	
765	5.000000e+00	5.805700e-04	
766	5.050000e+00	5.806514e-04	
767	5.100000e+00	5.807275e-04	
768	5.150000e+00	5.807988e-04	
769	5.200000e+00	5.808662e-04	
770	5.250000e+00	5.809299e-04	
771	5.300000e+00	5.809906e-04	
772	5.350000e+00	5.810484e-04	
773	5.400000e+00	5.811038e-04	
774	5.450000e+00	5.811569e-04	
775	5.500000e+00	5.812081e-04	
776	5.550000e+00	5.812575e-04	
777	5.600000e+00	5.813052e-04	
778	5.650000e+00	5.813515e-04	
779	5.700000e+00	5.813964e-04	
780	5.750000e+00	5.814401e-04	
781	5.800000e+00	5.814827e-04	
782	5.850000e+00	5.815242e-04	
783	5.900000e+00	5.815648e-04	
784	5.950000e+00	5.816045e-04	
785	6.000000e+00	5.816434e-04	
786	6.050000e+00	5.816815e-04	
787	6.100000e+00	5.817190e-04	
788	6.150000e+00	5.817558e-04	
789	6.200000e+00	5.817920e-04	
790	6.250000e+00	5.818276e-04	
791	6.300000e+00	5.818628e-04	
792	6.350000e+00	5.818976e-04	
793	6.400000e+00	5.819321e-04	
794	6.450000e+00	5.819663e-04	
795	6.500000e+00	5.820003e-04	
796	6.550000e+00	5.820342e-04	
797	6.600000e+00	5.820682e-04	
Note: No ".plot", ".print", or ".fourier" lines; no simulations run
