
Note: Compatibility modes selected: hs

Warning: m=xx on .subckt line will override multiplier m hierarchy!


Circuit: ***************************

Doing analysis at TEMP = 25.000000 and TNOM = 25.000000


No. of Data Rows : 798
                          ***************************
                          DC transfer characteristic  Mon Jan  9 13:58:36  2023
--------------------------------------------------------------------------------
Index   v-sweep         -i(vds)         
--------------------------------------------------------------------------------
0	0.000000e+00	-1.20032e-23	
1	5.000000e-02	5.310146e-08	
2	1.000000e-01	9.693852e-08	
3	1.500000e-01	1.315807e-07	
4	2.000000e-01	1.571803e-07	
5	2.500000e-01	1.741433e-07	
6	3.000000e-01	1.835929e-07	
7	3.500000e-01	1.878655e-07	
8	4.000000e-01	1.896205e-07	
9	4.500000e-01	1.904186e-07	
10	5.000000e-01	1.908583e-07	
11	5.500000e-01	1.911477e-07	
12	6.000000e-01	1.913652e-07	
13	6.500000e-01	1.915445e-07	
14	7.000000e-01	1.917013e-07	
15	7.500000e-01	1.918440e-07	
16	8.000000e-01	1.919774e-07	
17	8.500000e-01	1.921042e-07	
18	9.000000e-01	1.922263e-07	
19	9.500000e-01	1.923448e-07	
20	1.000000e+00	1.924606e-07	
21	1.050000e+00	1.925742e-07	
22	1.100000e+00	1.926861e-07	
23	1.150000e+00	1.927966e-07	
24	1.200000e+00	1.929059e-07	
25	1.250000e+00	1.930142e-07	
26	1.300000e+00	1.931216e-07	
27	1.350000e+00	1.932283e-07	
28	1.400000e+00	1.933344e-07	
29	1.450000e+00	1.934399e-07	
30	1.500000e+00	1.935449e-07	
31	1.550000e+00	1.936495e-07	
32	1.600000e+00	1.937536e-07	
33	1.650000e+00	1.938575e-07	
34	1.700000e+00	1.939610e-07	
35	1.750000e+00	1.940642e-07	
36	1.800000e+00	1.941671e-07	
37	1.850000e+00	1.942698e-07	
38	1.900000e+00	1.943723e-07	
39	1.950000e+00	1.944746e-07	
40	2.000000e+00	1.945767e-07	
41	2.050000e+00	1.946786e-07	
42	2.100000e+00	1.947803e-07	
43	2.150000e+00	1.948819e-07	
44	2.200000e+00	1.949833e-07	
45	2.250000e+00	1.950847e-07	
46	2.300000e+00	1.951859e-07	
47	2.350000e+00	1.952870e-07	
48	2.400000e+00	1.953880e-07	
49	2.450000e+00	1.954889e-07	
50	2.500000e+00	1.955898e-07	
51	2.550000e+00	1.956906e-07	
52	2.600000e+00	1.957915e-07	
53	2.650000e+00	1.958923e-07	
54	2.700000e+00	1.959933e-07	

Index   v-sweep         -i(vds)         
--------------------------------------------------------------------------------
55	2.750000e+00	1.960943e-07	
56	2.800000e+00	1.961956e-07	
57	2.850000e+00	1.962971e-07	
58	2.900000e+00	1.963989e-07	
59	2.950000e+00	1.965012e-07	
60	3.000000e+00	1.966040e-07	
61	3.050000e+00	1.967076e-07	
62	3.100000e+00	1.968120e-07	
63	3.150000e+00	1.969176e-07	
64	3.200000e+00	1.970244e-07	
65	3.250000e+00	1.971327e-07	
66	3.300000e+00	1.972430e-07	
67	3.350000e+00	1.973554e-07	
68	3.400000e+00	1.974703e-07	
69	3.450000e+00	1.975882e-07	
70	3.500000e+00	1.977095e-07	
71	3.550000e+00	1.978348e-07	
72	3.600000e+00	1.979645e-07	
73	3.650000e+00	1.980994e-07	
74	3.700000e+00	1.982400e-07	
75	3.750000e+00	1.983871e-07	
76	3.800000e+00	1.985415e-07	
77	3.850000e+00	1.987041e-07	
78	3.900000e+00	1.988757e-07	
79	3.950000e+00	1.990574e-07	
80	4.000000e+00	1.992502e-07	
81	4.050000e+00	1.994553e-07	
82	4.100000e+00	1.996738e-07	
83	4.150000e+00	1.999071e-07	
84	4.200000e+00	2.001565e-07	
85	4.250000e+00	2.004233e-07	
86	4.300000e+00	2.007092e-07	
87	4.350000e+00	2.010157e-07	
88	4.400000e+00	2.013445e-07	
89	4.450000e+00	2.016972e-07	
90	4.500000e+00	2.020758e-07	
91	4.550000e+00	2.024820e-07	
92	4.600000e+00	2.029179e-07	
93	4.650000e+00	2.033855e-07	
94	4.700000e+00	2.038869e-07	
95	4.750000e+00	2.044243e-07	
96	4.800000e+00	2.050000e-07	
97	4.850000e+00	2.056163e-07	
98	4.900000e+00	2.062756e-07	
99	4.950000e+00	2.069804e-07	
100	5.000000e+00	2.077332e-07	
101	5.050000e+00	2.085367e-07	
102	5.100000e+00	2.093935e-07	
103	5.150000e+00	2.103064e-07	
104	5.200000e+00	2.112781e-07	
105	5.250000e+00	2.123116e-07	
106	5.300000e+00	2.134098e-07	
107	5.350000e+00	2.145755e-07	
108	5.400000e+00	2.158120e-07	
109	5.450000e+00	2.171222e-07	
110	5.500000e+00	2.185093e-07	
111	5.550000e+00	2.199765e-07	
112	5.600000e+00	2.215269e-07	

Index   v-sweep         -i(vds)         
--------------------------------------------------------------------------------
113	5.650000e+00	2.231640e-07	
114	5.700000e+00	2.248909e-07	
115	5.750000e+00	2.267110e-07	
116	5.800000e+00	2.286277e-07	
117	5.850000e+00	2.306445e-07	
118	5.900000e+00	2.327648e-07	
119	5.950000e+00	2.349920e-07	
120	6.000000e+00	2.373297e-07	
121	6.050000e+00	2.397814e-07	
122	6.100000e+00	2.423507e-07	
123	6.150000e+00	2.450412e-07	
124	6.200000e+00	2.478564e-07	
125	6.250000e+00	2.508000e-07	
126	6.300000e+00	2.538757e-07	
127	6.350000e+00	2.570869e-07	
128	6.400000e+00	2.604375e-07	
129	6.450000e+00	2.639311e-07	
130	6.500000e+00	2.675713e-07	
131	6.550000e+00	2.713619e-07	
132	6.600000e+00	2.753065e-07	
133	0.000000e+00	6.683102e-22	
134	5.000000e-02	1.995041e-07	
135	1.000000e-01	3.894284e-07	
136	1.500000e-01	5.697951e-07	
137	2.000000e-01	7.406267e-07	
138	2.500000e-01	9.019455e-07	
139	3.000000e-01	1.053774e-06	
140	3.500000e-01	1.196136e-06	
141	4.000000e-01	1.329053e-06	
142	4.500000e-01	1.452550e-06	
143	5.000000e-01	1.566652e-06	
144	5.500000e-01	1.671384e-06	
145	6.000000e-01	1.766775e-06	
146	6.500000e-01	1.852858e-06	
147	7.000000e-01	1.929670e-06	
148	7.500000e-01	1.997262e-06	
149	8.000000e-01	2.055704e-06	
150	8.500000e-01	2.105105e-06	
151	9.000000e-01	2.145648e-06	
152	9.500000e-01	2.177658e-06	
153	1.000000e+00	2.201710e-06	
154	1.050000e+00	2.218766e-06	
155	1.100000e+00	2.230208e-06	
156	1.150000e+00	2.237624e-06	
157	1.200000e+00	2.242432e-06	
158	1.250000e+00	2.245654e-06	
159	1.300000e+00	2.247927e-06	
160	1.350000e+00	2.249622e-06	
161	1.400000e+00	2.250955e-06	
162	1.450000e+00	2.252049e-06	
163	1.500000e+00	2.252982e-06	
164	1.550000e+00	2.253800e-06	
165	1.600000e+00	2.254535e-06	
166	1.650000e+00	2.255208e-06	
167	1.700000e+00	2.255833e-06	
168	1.750000e+00	2.256421e-06	
169	1.800000e+00	2.256978e-06	
170	1.850000e+00	2.257511e-06	

Index   v-sweep         -i(vds)         
--------------------------------------------------------------------------------
171	1.900000e+00	2.258024e-06	
172	1.950000e+00	2.258519e-06	
173	2.000000e+00	2.259001e-06	
174	2.050000e+00	2.259470e-06	
175	2.100000e+00	2.259929e-06	
176	2.150000e+00	2.260378e-06	
177	2.200000e+00	2.260820e-06	
178	2.250000e+00	2.261254e-06	
179	2.300000e+00	2.261682e-06	
180	2.350000e+00	2.262104e-06	
181	2.400000e+00	2.262522e-06	
182	2.450000e+00	2.262934e-06	
183	2.500000e+00	2.263343e-06	
184	2.550000e+00	2.263748e-06	
185	2.600000e+00	2.264149e-06	
186	2.650000e+00	2.264547e-06	
187	2.700000e+00	2.264942e-06	
188	2.750000e+00	2.265335e-06	
189	2.800000e+00	2.265724e-06	
190	2.850000e+00	2.266112e-06	
191	2.900000e+00	2.266498e-06	
192	2.950000e+00	2.266881e-06	
193	3.000000e+00	2.267263e-06	
194	3.050000e+00	2.267643e-06	
195	3.100000e+00	2.268022e-06	
196	3.150000e+00	2.268399e-06	
197	3.200000e+00	2.268775e-06	
198	3.250000e+00	2.269150e-06	
199	3.300000e+00	2.269525e-06	
200	3.350000e+00	2.269899e-06	
201	3.400000e+00	2.270274e-06	
202	3.450000e+00	2.270649e-06	
203	3.500000e+00	2.271025e-06	
204	3.550000e+00	2.271403e-06	
205	3.600000e+00	2.271783e-06	
206	3.650000e+00	2.272167e-06	
207	3.700000e+00	2.272556e-06	
208	3.750000e+00	2.272951e-06	
209	3.800000e+00	2.273354e-06	
210	3.850000e+00	2.273766e-06	
211	3.900000e+00	2.274190e-06	
212	3.950000e+00	2.274629e-06	
213	4.000000e+00	2.275085e-06	
214	4.050000e+00	2.275561e-06	
215	4.100000e+00	2.276061e-06	
216	4.150000e+00	2.276590e-06	
217	4.200000e+00	2.277152e-06	
218	4.250000e+00	2.277751e-06	
219	4.300000e+00	2.278395e-06	
220	4.350000e+00	2.279088e-06	
221	4.400000e+00	2.279839e-06	
222	4.450000e+00	2.280653e-06	
223	4.500000e+00	2.281541e-06	
224	4.550000e+00	2.282510e-06	
225	4.600000e+00	2.283570e-06	
226	4.650000e+00	2.284731e-06	
227	4.700000e+00	2.286005e-06	
228	4.750000e+00	2.287404e-06	

Index   v-sweep         -i(vds)         
--------------------------------------------------------------------------------
229	4.800000e+00	2.288939e-06	
230	4.850000e+00	2.290625e-06	
231	4.900000e+00	2.292476e-06	
232	4.950000e+00	2.294507e-06	
233	5.000000e+00	2.296734e-06	
234	5.050000e+00	2.299174e-06	
235	5.100000e+00	2.301845e-06	
236	5.150000e+00	2.304764e-06	
237	5.200000e+00	2.307952e-06	
238	5.250000e+00	2.311429e-06	
239	5.300000e+00	2.315216e-06	
240	5.350000e+00	2.319334e-06	
241	5.400000e+00	2.323807e-06	
242	5.450000e+00	2.328658e-06	
243	5.500000e+00	2.333911e-06	
244	5.550000e+00	2.339593e-06	
245	5.600000e+00	2.345728e-06	
246	5.650000e+00	2.352344e-06	
247	5.700000e+00	2.359469e-06	
248	5.750000e+00	2.367129e-06	
249	5.800000e+00	2.375356e-06	
250	5.850000e+00	2.384178e-06	
251	5.900000e+00	2.393626e-06	
252	5.950000e+00	2.403731e-06	
253	6.000000e+00	2.414524e-06	
254	6.050000e+00	2.426039e-06	
255	6.100000e+00	2.438307e-06	
256	6.150000e+00	2.451363e-06	
257	6.200000e+00	2.465241e-06	
258	6.250000e+00	2.479975e-06	
259	6.300000e+00	2.495601e-06	
260	6.350000e+00	2.512153e-06	
261	6.400000e+00	2.529668e-06	
262	6.450000e+00	2.548183e-06	
263	6.500000e+00	2.567734e-06	
264	6.550000e+00	2.588358e-06	
265	6.600000e+00	2.610094e-06	
266	0.000000e+00	-5.89437e-22	
267	5.000000e-02	3.249283e-07	
268	1.000000e-01	6.408623e-07	
269	1.500000e-01	9.478231e-07	
270	2.000000e-01	1.245832e-06	
271	2.500000e-01	1.534909e-06	
272	3.000000e-01	1.815077e-06	
273	3.500000e-01	2.086355e-06	
274	4.000000e-01	2.348765e-06	
275	4.500000e-01	2.602327e-06	
276	5.000000e-01	2.847063e-06	
277	5.500000e-01	3.082992e-06	
278	6.000000e-01	3.310136e-06	
279	6.500000e-01	3.528516e-06	
280	7.000000e-01	3.738151e-06	
281	7.500000e-01	3.939062e-06	
282	8.000000e-01	4.131270e-06	
283	8.500000e-01	4.314796e-06	
284	9.000000e-01	4.489659e-06	
285	9.500000e-01	4.655881e-06	
286	1.000000e+00	4.813483e-06	

Index   v-sweep         -i(vds)         
--------------------------------------------------------------------------------
287	1.050000e+00	4.962484e-06	
288	1.100000e+00	5.102907e-06	
289	1.150000e+00	5.234772e-06	
290	1.200000e+00	5.358103e-06	
291	1.250000e+00	5.472922e-06	
292	1.300000e+00	5.579253e-06	
293	1.350000e+00	5.677124e-06	
294	1.400000e+00	5.766565e-06	
295	1.450000e+00	5.847614e-06	
296	1.500000e+00	5.920318e-06	
297	1.550000e+00	5.984743e-06	
298	1.600000e+00	6.040982e-06	
299	1.650000e+00	6.089184e-06	
300	1.700000e+00	6.129580e-06	
301	1.750000e+00	6.162541e-06	
302	1.800000e+00	6.188635e-06	
303	1.850000e+00	6.208668e-06	
304	1.900000e+00	6.223660e-06	
305	1.950000e+00	6.234718e-06	
306	2.000000e+00	6.242878e-06	
307	2.050000e+00	6.248984e-06	
308	2.100000e+00	6.253665e-06	
309	2.150000e+00	6.257355e-06	
310	2.200000e+00	6.260350e-06	
311	2.250000e+00	6.262848e-06	
312	2.300000e+00	6.264983e-06	
313	2.350000e+00	6.266848e-06	
314	2.400000e+00	6.268507e-06	
315	2.450000e+00	6.270006e-06	
316	2.500000e+00	6.271378e-06	
317	2.550000e+00	6.272648e-06	
318	2.600000e+00	6.273835e-06	
319	2.650000e+00	6.274954e-06	
320	2.700000e+00	6.276015e-06	
321	2.750000e+00	6.277028e-06	
322	2.800000e+00	6.277999e-06	
323	2.850000e+00	6.278934e-06	
324	2.900000e+00	6.279839e-06	
325	2.950000e+00	6.280716e-06	
326	3.000000e+00	6.281570e-06	
327	3.050000e+00	6.282402e-06	
328	3.100000e+00	6.283215e-06	
329	3.150000e+00	6.284012e-06	
330	3.200000e+00	6.284793e-06	
331	3.250000e+00	6.285560e-06	
332	3.300000e+00	6.286315e-06	
333	3.350000e+00	6.287059e-06	
334	3.400000e+00	6.287792e-06	
335	3.450000e+00	6.288515e-06	
336	3.500000e+00	6.289230e-06	
337	3.550000e+00	6.289936e-06	
338	3.600000e+00	6.290635e-06	
339	3.650000e+00	6.291328e-06	
340	3.700000e+00	6.292013e-06	
341	3.750000e+00	6.292693e-06	
342	3.800000e+00	6.293368e-06	
343	3.850000e+00	6.294037e-06	
344	3.900000e+00	6.294702e-06	

Index   v-sweep         -i(vds)         
--------------------------------------------------------------------------------
345	3.950000e+00	6.295363e-06	
346	4.000000e+00	6.296021e-06	
347	4.050000e+00	6.296676e-06	
348	4.100000e+00	6.297329e-06	
349	4.150000e+00	6.297982e-06	
350	4.200000e+00	6.298634e-06	
351	4.250000e+00	6.299289e-06	
352	4.300000e+00	6.299946e-06	
353	4.350000e+00	6.300610e-06	
354	4.400000e+00	6.301280e-06	
355	4.450000e+00	6.301962e-06	
356	4.500000e+00	6.302657e-06	
357	4.550000e+00	6.303371e-06	
358	4.600000e+00	6.304107e-06	
359	4.650000e+00	6.304872e-06	
360	4.700000e+00	6.305671e-06	
361	4.750000e+00	6.306512e-06	
362	4.800000e+00	6.307403e-06	
363	4.850000e+00	6.308353e-06	
364	4.900000e+00	6.309373e-06	
365	4.950000e+00	6.310474e-06	
366	5.000000e+00	6.311671e-06	
367	5.050000e+00	6.312977e-06	
368	5.100000e+00	6.314409e-06	
369	5.150000e+00	6.315984e-06	
370	5.200000e+00	6.317722e-06	
371	5.250000e+00	6.319644e-06	
372	5.300000e+00	6.321774e-06	
373	5.350000e+00	6.324137e-06	
374	5.400000e+00	6.326759e-06	
375	5.450000e+00	6.329671e-06	
376	5.500000e+00	6.332902e-06	
377	5.550000e+00	6.336487e-06	
378	5.600000e+00	6.340460e-06	
379	5.650000e+00	6.344861e-06	
380	5.700000e+00	6.349729e-06	
381	5.750000e+00	6.355106e-06	
382	5.800000e+00	6.361038e-06	
383	5.850000e+00	6.367571e-06	
384	5.900000e+00	6.374755e-06	
385	5.950000e+00	6.382641e-06	
386	6.000000e+00	6.391284e-06	
387	6.050000e+00	6.400740e-06	
388	6.100000e+00	6.411068e-06	
389	6.150000e+00	6.422330e-06	
390	6.200000e+00	6.434588e-06	
391	6.250000e+00	6.447908e-06	
392	6.300000e+00	6.462358e-06	
393	6.350000e+00	6.478009e-06	
394	6.400000e+00	6.494932e-06	
395	6.450000e+00	6.513202e-06	
396	6.500000e+00	6.532896e-06	
397	6.550000e+00	6.554092e-06	
398	6.600000e+00	6.576870e-06	
399	0.000000e+00	3.239277e-21	
400	5.000000e-02	4.263253e-07	
401	1.000000e-01	8.444237e-07	
402	1.500000e-01	1.254314e-06	

Index   v-sweep         -i(vds)         
--------------------------------------------------------------------------------
403	2.000000e-01	1.656014e-06	
404	2.500000e-01	2.049544e-06	
405	3.000000e-01	2.434921e-06	
406	3.500000e-01	2.812163e-06	
407	4.000000e-01	3.181290e-06	
408	4.500000e-01	3.542319e-06	
409	5.000000e-01	3.895269e-06	
410	5.500000e-01	4.240158e-06	
411	6.000000e-01	4.577004e-06	
412	6.500000e-01	4.905825e-06	
413	7.000000e-01	5.226640e-06	
414	7.500000e-01	5.539465e-06	
415	8.000000e-01	5.844320e-06	
416	8.500000e-01	6.141222e-06	
417	9.000000e-01	6.430189e-06	
418	9.500000e-01	6.711238e-06	
419	1.000000e+00	6.984388e-06	
420	1.050000e+00	7.249656e-06	
421	1.100000e+00	7.507059e-06	
422	1.150000e+00	7.756616e-06	
423	1.200000e+00	7.998343e-06	
424	1.250000e+00	8.232258e-06	
425	1.300000e+00	8.458379e-06	
426	1.350000e+00	8.676722e-06	
427	1.400000e+00	8.887305e-06	
428	1.450000e+00	9.090146e-06	
429	1.500000e+00	9.285260e-06	
430	1.550000e+00	9.472666e-06	
431	1.600000e+00	9.652381e-06	
432	1.650000e+00	9.824420e-06	
433	1.700000e+00	9.988801e-06	
434	1.750000e+00	1.014554e-05	
435	1.800000e+00	1.029466e-05	
436	1.850000e+00	1.043617e-05	
437	1.900000e+00	1.057008e-05	
438	1.950000e+00	1.069643e-05	
439	2.000000e+00	1.081522e-05	
440	2.050000e+00	1.092647e-05	
441	2.100000e+00	1.103020e-05	
442	2.150000e+00	1.112644e-05	
443	2.200000e+00	1.121520e-05	
444	2.250000e+00	1.129652e-05	
445	2.300000e+00	1.137043e-05	
446	2.350000e+00	1.143699e-05	
447	2.400000e+00	1.149626e-05	
448	2.450000e+00	1.154836e-05	
449	2.500000e+00	1.159345e-05	
450	2.550000e+00	1.163180e-05	
451	2.600000e+00	1.166378e-05	
452	2.650000e+00	1.168992e-05	
453	2.700000e+00	1.171092e-05	
454	2.750000e+00	1.172756e-05	
455	2.800000e+00	1.174067e-05	
456	2.850000e+00	1.175103e-05	
457	2.900000e+00	1.175929e-05	
458	2.950000e+00	1.176597e-05	
459	3.000000e+00	1.177147e-05	
460	3.050000e+00	1.177608e-05	

Index   v-sweep         -i(vds)         
--------------------------------------------------------------------------------
461	3.100000e+00	1.178001e-05	
462	3.150000e+00	1.178343e-05	
463	3.200000e+00	1.178644e-05	
464	3.250000e+00	1.178913e-05	
465	3.300000e+00	1.179157e-05	
466	3.350000e+00	1.179379e-05	
467	3.400000e+00	1.179585e-05	
468	3.450000e+00	1.179776e-05	
469	3.500000e+00	1.179956e-05	
470	3.550000e+00	1.180125e-05	
471	3.600000e+00	1.180285e-05	
472	3.650000e+00	1.180438e-05	
473	3.700000e+00	1.180584e-05	
474	3.750000e+00	1.180725e-05	
475	3.800000e+00	1.180861e-05	
476	3.850000e+00	1.180992e-05	
477	3.900000e+00	1.181119e-05	
478	3.950000e+00	1.181243e-05	
479	4.000000e+00	1.181363e-05	
480	4.050000e+00	1.181481e-05	
481	4.100000e+00	1.181596e-05	
482	4.150000e+00	1.181709e-05	
483	4.200000e+00	1.181819e-05	
484	4.250000e+00	1.181927e-05	
485	4.300000e+00	1.182034e-05	
486	4.350000e+00	1.182139e-05	
487	4.400000e+00	1.182242e-05	
488	4.450000e+00	1.182344e-05	
489	4.500000e+00	1.182445e-05	
490	4.550000e+00	1.182544e-05	
491	4.600000e+00	1.182642e-05	
492	4.650000e+00	1.182739e-05	
493	4.700000e+00	1.182835e-05	
494	4.750000e+00	1.182931e-05	
495	4.800000e+00	1.183025e-05	
496	4.850000e+00	1.183119e-05	
497	4.900000e+00	1.183213e-05	
498	4.950000e+00	1.183306e-05	
499	5.000000e+00	1.183400e-05	
500	5.050000e+00	1.183493e-05	
501	5.100000e+00	1.183587e-05	
502	5.150000e+00	1.183681e-05	
503	5.200000e+00	1.183777e-05	
504	5.250000e+00	1.183875e-05	
505	5.300000e+00	1.183975e-05	
506	5.350000e+00	1.184078e-05	
507	5.400000e+00	1.184184e-05	
508	5.450000e+00	1.184296e-05	
509	5.500000e+00	1.184414e-05	
510	5.550000e+00	1.184538e-05	
511	5.600000e+00	1.184672e-05	
512	5.650000e+00	1.184816e-05	
513	5.700000e+00	1.184972e-05	
514	5.750000e+00	1.185142e-05	
515	5.800000e+00	1.185329e-05	
516	5.850000e+00	1.185535e-05	
517	5.900000e+00	1.185764e-05	
518	5.950000e+00	1.186018e-05	

Index   v-sweep         -i(vds)         
--------------------------------------------------------------------------------
519	6.000000e+00	1.186301e-05	
520	6.050000e+00	1.186617e-05	
521	6.100000e+00	1.186970e-05	
522	6.150000e+00	1.187364e-05	
523	6.200000e+00	1.187805e-05	
524	6.250000e+00	1.188298e-05	
525	6.300000e+00	1.188848e-05	
526	6.350000e+00	1.189461e-05	
527	6.400000e+00	1.190145e-05	
528	6.450000e+00	1.190906e-05	
529	6.500000e+00	1.191750e-05	
530	6.550000e+00	1.192687e-05	
531	6.600000e+00	1.193724e-05	
532	0.000000e+00	5.513064e-21	
533	5.000000e-02	5.040234e-07	
534	1.000000e-01	1.000651e-06	
535	1.500000e-01	1.489899e-06	
536	2.000000e-01	1.971782e-06	
537	2.500000e-01	2.446317e-06	
538	3.000000e-01	2.913518e-06	
539	3.500000e-01	3.373402e-06	
540	4.000000e-01	3.825983e-06	
541	4.500000e-01	4.271278e-06	
542	5.000000e-01	4.709301e-06	
543	5.500000e-01	5.140068e-06	
544	6.000000e-01	5.563595e-06	
545	6.500000e-01	5.979896e-06	
546	7.000000e-01	6.388987e-06	
547	7.500000e-01	6.790882e-06	
548	8.000000e-01	7.185598e-06	
549	8.500000e-01	7.573149e-06	
550	9.000000e-01	7.953550e-06	
551	9.500000e-01	8.326816e-06	
552	1.000000e+00	8.692963e-06	
553	1.050000e+00	9.052005e-06	
554	1.100000e+00	9.403956e-06	
555	1.150000e+00	9.748833e-06	
556	1.200000e+00	1.008665e-05	
557	1.250000e+00	1.041742e-05	
558	1.300000e+00	1.074116e-05	
559	1.350000e+00	1.105788e-05	
560	1.400000e+00	1.136760e-05	
561	1.450000e+00	1.167034e-05	
562	1.500000e+00	1.196610e-05	
563	1.550000e+00	1.225491e-05	
564	1.600000e+00	1.253677e-05	
565	1.650000e+00	1.281170e-05	
566	1.700000e+00	1.307971e-05	
567	1.750000e+00	1.334083e-05	
568	1.800000e+00	1.359506e-05	
569	1.850000e+00	1.384242e-05	
570	1.900000e+00	1.408292e-05	
571	1.950000e+00	1.431657e-05	
572	2.000000e+00	1.454339e-05	
573	2.050000e+00	1.476340e-05	
574	2.100000e+00	1.497661e-05	
575	2.150000e+00	1.518302e-05	
576	2.200000e+00	1.538267e-05	

Index   v-sweep         -i(vds)         
--------------------------------------------------------------------------------
577	2.250000e+00	1.557555e-05	
578	2.300000e+00	1.576168e-05	
579	2.350000e+00	1.594107e-05	
580	2.400000e+00	1.611375e-05	
581	2.450000e+00	1.627972e-05	
582	2.500000e+00	1.643899e-05	
583	2.550000e+00	1.659157e-05	
584	2.600000e+00	1.673749e-05	
585	2.650000e+00	1.687675e-05	
586	2.700000e+00	1.700936e-05	
587	2.750000e+00	1.713534e-05	
588	2.800000e+00	1.725469e-05	
589	2.850000e+00	1.736744e-05	
590	2.900000e+00	1.747358e-05	
591	2.950000e+00	1.757315e-05	
592	3.000000e+00	1.766613e-05	
593	3.050000e+00	1.775256e-05	
594	3.100000e+00	1.783245e-05	
595	3.150000e+00	1.790583e-05	
596	3.200000e+00	1.797273e-05	
597	3.250000e+00	1.803319e-05	
598	3.300000e+00	1.808730e-05	
599	3.350000e+00	1.813518e-05	
600	3.400000e+00	1.817700e-05	
601	3.450000e+00	1.821302e-05	
602	3.500000e+00	1.824361e-05	
603	3.550000e+00	1.826924e-05	
604	3.600000e+00	1.829048e-05	
605	3.650000e+00	1.830797e-05	
606	3.700000e+00	1.832234e-05	
607	3.750000e+00	1.833418e-05	
608	3.800000e+00	1.834400e-05	
609	3.850000e+00	1.835224e-05	
610	3.900000e+00	1.835923e-05	
611	3.950000e+00	1.836524e-05	
612	4.000000e+00	1.837047e-05	
613	4.050000e+00	1.837507e-05	
614	4.100000e+00	1.837918e-05	
615	4.150000e+00	1.838287e-05	
616	4.200000e+00	1.838624e-05	
617	4.250000e+00	1.838932e-05	
618	4.300000e+00	1.839217e-05	
619	4.350000e+00	1.839482e-05	
620	4.400000e+00	1.839731e-05	
621	4.450000e+00	1.839965e-05	
622	4.500000e+00	1.840186e-05	
623	4.550000e+00	1.840397e-05	
624	4.600000e+00	1.840598e-05	
625	4.650000e+00	1.840791e-05	
626	4.700000e+00	1.840976e-05	
627	4.750000e+00	1.841155e-05	
628	4.800000e+00	1.841327e-05	
629	4.850000e+00	1.841495e-05	
630	4.900000e+00	1.841657e-05	
631	4.950000e+00	1.841815e-05	
632	5.000000e+00	1.841969e-05	
633	5.050000e+00	1.842119e-05	
634	5.100000e+00	1.842266e-05	

Index   v-sweep         -i(vds)         
--------------------------------------------------------------------------------
635	5.150000e+00	1.842410e-05	
636	5.200000e+00	1.842551e-05	
637	5.250000e+00	1.842690e-05	
638	5.300000e+00	1.842826e-05	
639	5.350000e+00	1.842960e-05	
640	5.400000e+00	1.843091e-05	
641	5.450000e+00	1.843221e-05	
642	5.500000e+00	1.843349e-05	
643	5.550000e+00	1.843476e-05	
644	5.600000e+00	1.843601e-05	
645	5.650000e+00	1.843725e-05	
646	5.700000e+00	1.843848e-05	
647	5.750000e+00	1.843969e-05	
648	5.800000e+00	1.844091e-05	
649	5.850000e+00	1.844212e-05	
650	5.900000e+00	1.844333e-05	
651	5.950000e+00	1.844455e-05	
652	6.000000e+00	1.844577e-05	
653	6.050000e+00	1.844702e-05	
654	6.100000e+00	1.844828e-05	
655	6.150000e+00	1.844958e-05	
656	6.200000e+00	1.845093e-05	
657	6.250000e+00	1.845233e-05	
658	6.300000e+00	1.845379e-05	
659	6.350000e+00	1.845535e-05	
660	6.400000e+00	1.845701e-05	
661	6.450000e+00	1.845880e-05	
662	6.500000e+00	1.846074e-05	
663	6.550000e+00	1.846285e-05	
664	6.600000e+00	1.846519e-05	
665	0.000000e+00	-1.26843e-21	
666	5.000000e-02	5.604724e-07	
667	1.000000e-01	1.114378e-06	
668	1.500000e-01	1.661731e-06	
669	2.000000e-01	2.202542e-06	
670	2.500000e-01	2.736825e-06	
671	3.000000e-01	3.264593e-06	
672	3.500000e-01	3.785858e-06	
673	4.000000e-01	4.300633e-06	
674	4.500000e-01	4.808930e-06	
675	5.000000e-01	5.310763e-06	
676	5.500000e-01	5.806143e-06	
677	6.000000e-01	6.295084e-06	
678	6.500000e-01	6.777597e-06	
679	7.000000e-01	7.253696e-06	
680	7.500000e-01	7.723392e-06	
681	8.000000e-01	8.186698e-06	
682	8.500000e-01	8.643627e-06	
683	9.000000e-01	9.094191e-06	
684	9.500000e-01	9.538402e-06	
685	1.000000e+00	9.976273e-06	
686	1.050000e+00	1.040782e-05	
687	1.100000e+00	1.083304e-05	
688	1.150000e+00	1.125196e-05	
689	1.200000e+00	1.166459e-05	
690	1.250000e+00	1.207095e-05	
691	1.300000e+00	1.247103e-05	
692	1.350000e+00	1.286486e-05	

Index   v-sweep         -i(vds)         
--------------------------------------------------------------------------------
693	1.400000e+00	1.325244e-05	
694	1.450000e+00	1.363380e-05	
695	1.500000e+00	1.400893e-05	
696	1.550000e+00	1.437786e-05	
697	1.600000e+00	1.474059e-05	
698	1.650000e+00	1.509714e-05	
699	1.700000e+00	1.544752e-05	
700	1.750000e+00	1.579173e-05	
701	1.800000e+00	1.612980e-05	
702	1.850000e+00	1.646174e-05	
703	1.900000e+00	1.678754e-05	
704	1.950000e+00	1.710724e-05	
705	2.000000e+00	1.742083e-05	
706	2.050000e+00	1.772834e-05	
707	2.100000e+00	1.802976e-05	
708	2.150000e+00	1.832512e-05	
709	2.200000e+00	1.861443e-05	
710	2.250000e+00	1.889769e-05	
711	2.300000e+00	1.917492e-05	
712	2.350000e+00	1.944613e-05	
713	2.400000e+00	1.971133e-05	
714	2.450000e+00	1.997053e-05	
715	2.500000e+00	2.022374e-05	
716	2.550000e+00	2.047098e-05	
717	2.600000e+00	2.071225e-05	
718	2.650000e+00	2.094757e-05	
719	2.700000e+00	2.117695e-05	
720	2.750000e+00	2.140040e-05	
721	2.800000e+00	2.161792e-05	
722	2.850000e+00	2.182954e-05	
723	2.900000e+00	2.203525e-05	
724	2.950000e+00	2.223508e-05	
725	3.000000e+00	2.242903e-05	
726	3.050000e+00	2.261711e-05	
727	3.100000e+00	2.279934e-05	
728	3.150000e+00	2.297571e-05	
729	3.200000e+00	2.314625e-05	
730	3.250000e+00	2.331097e-05	
731	3.300000e+00	2.346986e-05	
732	3.350000e+00	2.362295e-05	
733	3.400000e+00	2.377023e-05	
734	3.450000e+00	2.391173e-05	
735	3.500000e+00	2.404744e-05	
736	3.550000e+00	2.417738e-05	
737	3.600000e+00	2.430155e-05	
738	3.650000e+00	2.441996e-05	
739	3.700000e+00	2.453262e-05	
740	3.750000e+00	2.463953e-05	
741	3.800000e+00	2.474070e-05	
742	3.850000e+00	2.483613e-05	
743	3.900000e+00	2.492584e-05	
744	3.950000e+00	2.500983e-05	
745	4.000000e+00	2.508809e-05	
746	4.050000e+00	2.516066e-05	
747	4.100000e+00	2.522754e-05	
748	4.150000e+00	2.528877e-05	
749	4.200000e+00	2.534438e-05	
750	4.250000e+00	2.539446e-05	

Index   v-sweep         -i(vds)         
--------------------------------------------------------------------------------
751	4.300000e+00	2.543911e-05	
752	4.350000e+00	2.547851e-05	
753	4.400000e+00	2.551290e-05	
754	4.450000e+00	2.554260e-05	
755	4.500000e+00	2.556801e-05	
756	4.550000e+00	2.558960e-05	
757	4.600000e+00	2.560787e-05	
758	4.650000e+00	2.562333e-05	
759	4.700000e+00	2.563643e-05	
760	4.750000e+00	2.564760e-05	
761	4.800000e+00	2.565719e-05	
762	4.850000e+00	2.566550e-05	
763	4.900000e+00	2.567277e-05	
764	4.950000e+00	2.567919e-05	
765	5.000000e+00	2.568491e-05	
766	5.050000e+00	2.569005e-05	
767	5.100000e+00	2.569471e-05	
768	5.150000e+00	2.569897e-05	
769	5.200000e+00	2.570290e-05	
770	5.250000e+00	2.570653e-05	
771	5.300000e+00	2.570992e-05	
772	5.350000e+00	2.571309e-05	
773	5.400000e+00	2.571608e-05	
774	5.450000e+00	2.571891e-05	
775	5.500000e+00	2.572159e-05	
776	5.550000e+00	2.572415e-05	
777	5.600000e+00	2.572660e-05	
778	5.650000e+00	2.572895e-05	
779	5.700000e+00	2.573121e-05	
780	5.750000e+00	2.573339e-05	
781	5.800000e+00	2.573550e-05	
782	5.850000e+00	2.573755e-05	
783	5.900000e+00	2.573953e-05	
784	5.950000e+00	2.574146e-05	
785	6.000000e+00	2.574334e-05	
786	6.050000e+00	2.574517e-05	
787	6.100000e+00	2.574697e-05	
788	6.150000e+00	2.574872e-05	
789	6.200000e+00	2.575044e-05	
790	6.250000e+00	2.575212e-05	
791	6.300000e+00	2.575377e-05	
792	6.350000e+00	2.575540e-05	
793	6.400000e+00	2.575700e-05	
794	6.450000e+00	2.575857e-05	
795	6.500000e+00	2.576012e-05	
796	6.550000e+00	2.576166e-05	
797	6.600000e+00	2.576317e-05	
Note: No ".plot", ".print", or ".fourier" lines; no simulations run
