
Note: Compatibility modes selected: hs

Warning: m=xx on .subckt line will override multiplier m hierarchy!


Circuit: ***************************

Doing analysis at TEMP = 25.000000 and TNOM = 25.000000


No. of Data Rows : 798
                          ***************************
                          DC transfer characteristic  Mon Jan  9 13:58:36  2023
--------------------------------------------------------------------------------
Index   v-sweep         -i(vds)         
--------------------------------------------------------------------------------
0	0.000000e+00	-1.19779e-29	
1	5.000000e-02	1.434121e-05	
2	1.000000e-01	2.472221e-05	
3	1.500000e-01	3.144583e-05	
4	2.000000e-01	3.524942e-05	
5	2.500000e-01	3.742360e-05	
6	3.000000e-01	3.894941e-05	
7	3.500000e-01	4.019518e-05	
8	4.000000e-01	4.128366e-05	
9	4.500000e-01	4.226760e-05	
10	5.000000e-01	4.317557e-05	
11	5.500000e-01	4.402537e-05	
12	6.000000e-01	4.482906e-05	
13	6.500000e-01	4.559529e-05	
14	7.000000e-01	4.633048e-05	
15	7.500000e-01	4.703953e-05	
16	8.000000e-01	4.772632e-05	
17	8.500000e-01	4.839390e-05	
18	9.000000e-01	4.904480e-05	
19	9.500000e-01	4.968104e-05	
20	1.000000e+00	5.030435e-05	
21	1.050000e+00	5.091617e-05	
22	1.100000e+00	5.151771e-05	
23	1.150000e+00	5.211002e-05	
24	1.200000e+00	5.269399e-05	
25	1.250000e+00	5.327041e-05	
26	1.300000e+00	5.383996e-05	
27	1.350000e+00	5.440325e-05	
28	1.400000e+00	5.496079e-05	
29	1.450000e+00	5.551305e-05	
30	1.500000e+00	5.606046e-05	
31	1.550000e+00	5.660339e-05	
32	1.600000e+00	5.714217e-05	
33	1.650000e+00	5.767710e-05	
34	1.700000e+00	5.820845e-05	
35	1.750000e+00	5.873648e-05	
36	1.800000e+00	5.926140e-05	
37	1.850000e+00	5.978343e-05	
38	1.900000e+00	6.030274e-05	
39	1.950000e+00	6.081951e-05	
40	2.000000e+00	6.133389e-05	
41	2.050000e+00	6.184604e-05	
42	2.100000e+00	6.235608e-05	
43	2.150000e+00	6.286414e-05	
44	2.200000e+00	6.337034e-05	
45	2.250000e+00	6.387477e-05	
46	2.300000e+00	6.437755e-05	
47	2.350000e+00	6.487876e-05	
48	2.400000e+00	6.537849e-05	
49	2.450000e+00	6.587684e-05	
50	2.500000e+00	6.637388e-05	
51	2.550000e+00	6.686969e-05	
52	2.600000e+00	6.736436e-05	
53	2.650000e+00	6.785796e-05	
54	2.700000e+00	6.835057e-05	

Index   v-sweep         -i(vds)         
--------------------------------------------------------------------------------
55	2.750000e+00	6.884227e-05	
56	2.800000e+00	6.933315e-05	
57	2.850000e+00	6.982329e-05	
58	2.900000e+00	7.031278e-05	
59	2.950000e+00	7.080174e-05	
60	3.000000e+00	7.129026e-05	
61	3.050000e+00	7.177846e-05	
62	3.100000e+00	7.226647e-05	
63	3.150000e+00	7.275443e-05	
64	3.200000e+00	7.324250e-05	
65	3.250000e+00	7.373084e-05	
66	3.300000e+00	7.421963e-05	
67	3.350000e+00	7.470909e-05	
68	3.400000e+00	7.519944e-05	
69	3.450000e+00	7.569092e-05	
70	3.500000e+00	7.618381e-05	
71	3.550000e+00	7.667839e-05	
72	3.600000e+00	7.717499e-05	
73	3.650000e+00	7.767396e-05	
74	3.700000e+00	7.817568e-05	
75	3.750000e+00	7.868056e-05	
76	3.800000e+00	7.918904e-05	
77	3.850000e+00	7.970159e-05	
78	3.900000e+00	8.021874e-05	
79	3.950000e+00	8.074103e-05	
80	4.000000e+00	8.126905e-05	
81	4.050000e+00	8.180342e-05	
82	4.100000e+00	8.234482e-05	
83	4.150000e+00	8.289396e-05	
84	4.200000e+00	8.345158e-05	
85	4.250000e+00	8.401849e-05	
86	4.300000e+00	8.459552e-05	
87	4.350000e+00	8.518356e-05	
88	4.400000e+00	8.578355e-05	
89	4.450000e+00	8.639646e-05	
90	4.500000e+00	8.702332e-05	
91	4.550000e+00	8.766521e-05	
92	4.600000e+00	8.832325e-05	
93	4.650000e+00	8.899861e-05	
94	4.700000e+00	8.969252e-05	
95	4.750000e+00	9.040623e-05	
96	4.800000e+00	9.114109e-05	
97	4.850000e+00	9.189844e-05	
98	4.900000e+00	9.267972e-05	
99	4.950000e+00	9.348639e-05	
100	5.000000e+00	9.431996e-05	
101	5.050000e+00	9.518201e-05	
102	5.100000e+00	9.607416e-05	
103	5.150000e+00	9.699805e-05	
104	5.200000e+00	9.795542e-05	
105	5.250000e+00	9.894802e-05	
106	5.300000e+00	9.997765e-05	
107	5.350000e+00	1.010462e-04	
108	5.400000e+00	1.021555e-04	
109	5.450000e+00	1.033076e-04	
110	5.500000e+00	1.045043e-04	
111	5.550000e+00	1.057479e-04	
112	5.600000e+00	1.070403e-04	

Index   v-sweep         -i(vds)         
--------------------------------------------------------------------------------
113	5.650000e+00	1.083837e-04	
114	5.700000e+00	1.097802e-04	
115	5.750000e+00	1.112321e-04	
116	5.800000e+00	1.127415e-04	
117	5.850000e+00	1.143109e-04	
118	5.900000e+00	1.159424e-04	
119	5.950000e+00	1.176385e-04	
120	6.000000e+00	1.194016e-04	
121	6.050000e+00	1.212341e-04	
122	6.100000e+00	1.231385e-04	
123	6.150000e+00	1.251173e-04	
124	6.200000e+00	1.271729e-04	
125	6.250000e+00	1.293081e-04	
126	6.300000e+00	1.315254e-04	
127	6.350000e+00	1.338275e-04	
128	6.400000e+00	1.362169e-04	
129	6.450000e+00	1.386964e-04	
130	6.500000e+00	1.412687e-04	
131	6.550000e+00	1.439366e-04	
132	6.600000e+00	1.467028e-04	
133	0.000000e+00	8.145045e-30	
134	5.000000e-02	5.580795e-05	
135	1.000000e-01	1.072942e-04	
136	1.500000e-01	1.545789e-04	
137	2.000000e-01	1.977795e-04	
138	2.500000e-01	2.370106e-04	
139	3.000000e-01	2.723841e-04	
140	3.500000e-01	3.040103e-04	
141	4.000000e-01	3.319989e-04	
142	4.500000e-01	3.564606e-04	
143	5.000000e-01	3.775124e-04	
144	5.500000e-01	3.952878e-04	
145	6.000000e-01	4.099658e-04	
146	6.500000e-01	4.218293e-04	
147	7.000000e-01	4.313159e-04	
148	7.500000e-01	4.389602e-04	
149	8.000000e-01	4.452538e-04	
150	8.500000e-01	4.505690e-04	
151	9.000000e-01	4.551642e-04	
152	9.500000e-01	4.592156e-04	
153	1.000000e+00	4.628456e-04	
154	1.050000e+00	4.661407e-04	
155	1.100000e+00	4.691643e-04	
156	1.150000e+00	4.719635e-04	
157	1.200000e+00	4.745745e-04	
158	1.250000e+00	4.770255e-04	
159	1.300000e+00	4.793390e-04	
160	1.350000e+00	4.815328e-04	
161	1.400000e+00	4.836220e-04	
162	1.450000e+00	4.856185e-04	
163	1.500000e+00	4.875327e-04	
164	1.550000e+00	4.893732e-04	
165	1.600000e+00	4.911473e-04	
166	1.650000e+00	4.928614e-04	
167	1.700000e+00	4.945209e-04	
168	1.750000e+00	4.961305e-04	
169	1.800000e+00	4.976945e-04	
170	1.850000e+00	4.992165e-04	

Index   v-sweep         -i(vds)         
--------------------------------------------------------------------------------
171	1.900000e+00	5.006998e-04	
172	1.950000e+00	5.021472e-04	
173	2.000000e+00	5.035614e-04	
174	2.050000e+00	5.049446e-04	
175	2.100000e+00	5.062989e-04	
176	2.150000e+00	5.076262e-04	
177	2.200000e+00	5.089282e-04	
178	2.250000e+00	5.102065e-04	
179	2.300000e+00	5.114625e-04	
180	2.350000e+00	5.126975e-04	
181	2.400000e+00	5.139126e-04	
182	2.450000e+00	5.151089e-04	
183	2.500000e+00	5.162875e-04	
184	2.550000e+00	5.174493e-04	
185	2.600000e+00	5.185951e-04	
186	2.650000e+00	5.197258e-04	
187	2.700000e+00	5.208421e-04	
188	2.750000e+00	5.219447e-04	
189	2.800000e+00	5.230342e-04	
190	2.850000e+00	5.241114e-04	
191	2.900000e+00	5.251767e-04	
192	2.950000e+00	5.262309e-04	
193	3.000000e+00	5.272745e-04	
194	3.050000e+00	5.283079e-04	
195	3.100000e+00	5.293319e-04	
196	3.150000e+00	5.303470e-04	
197	3.200000e+00	5.313538e-04	
198	3.250000e+00	5.323528e-04	
199	3.300000e+00	5.333447e-04	
200	3.350000e+00	5.343302e-04	
201	3.400000e+00	5.353100e-04	
202	3.450000e+00	5.362849e-04	
203	3.500000e+00	5.372556e-04	
204	3.550000e+00	5.382232e-04	
205	3.600000e+00	5.391885e-04	
206	3.650000e+00	5.401527e-04	
207	3.700000e+00	5.411169e-04	
208	3.750000e+00	5.420824e-04	
209	3.800000e+00	5.430505e-04	
210	3.850000e+00	5.440229e-04	
211	3.900000e+00	5.450011e-04	
212	3.950000e+00	5.459869e-04	
213	4.000000e+00	5.469822e-04	
214	4.050000e+00	5.479892e-04	
215	4.100000e+00	5.490101e-04	
216	4.150000e+00	5.500474e-04	
217	4.200000e+00	5.511035e-04	
218	4.250000e+00	5.521814e-04	
219	4.300000e+00	5.532840e-04	
220	4.350000e+00	5.544145e-04	
221	4.400000e+00	5.555763e-04	
222	4.450000e+00	5.567729e-04	
223	4.500000e+00	5.580082e-04	
224	4.550000e+00	5.592861e-04	
225	4.600000e+00	5.606109e-04	
226	4.650000e+00	5.619870e-04	
227	4.700000e+00	5.634191e-04	
228	4.750000e+00	5.649121e-04	

Index   v-sweep         -i(vds)         
--------------------------------------------------------------------------------
229	4.800000e+00	5.664710e-04	
230	4.850000e+00	5.681013e-04	
231	4.900000e+00	5.698084e-04	
232	4.950000e+00	5.715981e-04	
233	5.000000e+00	5.734765e-04	
234	5.050000e+00	5.754496e-04	
235	5.100000e+00	5.775240e-04	
236	5.150000e+00	5.797063e-04	
237	5.200000e+00	5.820034e-04	
238	5.250000e+00	5.844222e-04	
239	5.300000e+00	5.869701e-04	
240	5.350000e+00	5.896545e-04	
241	5.400000e+00	5.924831e-04	
242	5.450000e+00	5.954636e-04	
243	5.500000e+00	5.986043e-04	
244	5.550000e+00	6.019131e-04	
245	5.600000e+00	6.053986e-04	
246	5.650000e+00	6.090692e-04	
247	5.700000e+00	6.129338e-04	
248	5.750000e+00	6.170010e-04	
249	5.800000e+00	6.212800e-04	
250	5.850000e+00	6.257800e-04	
251	5.900000e+00	6.305101e-04	
252	5.950000e+00	6.354798e-04	
253	6.000000e+00	6.406987e-04	
254	6.050000e+00	6.461764e-04	
255	6.100000e+00	6.519227e-04	
256	6.150000e+00	6.579474e-04	
257	6.200000e+00	6.642604e-04	
258	6.250000e+00	6.708719e-04	
259	6.300000e+00	6.777919e-04	
260	6.350000e+00	6.850307e-04	
261	6.400000e+00	6.925985e-04	
262	6.450000e+00	7.005055e-04	
263	6.500000e+00	7.087622e-04	
264	6.550000e+00	7.173790e-04	
265	6.600000e+00	7.263662e-04	
266	0.000000e+00	2.407426e-20	
267	5.000000e-02	8.439460e-05	
268	1.000000e-01	1.644833e-04	
269	1.500000e-01	2.403742e-04	
270	2.000000e-01	3.121728e-04	
271	2.500000e-01	3.799818e-04	
272	3.000000e-01	4.439015e-04	
273	3.500000e-01	5.040289e-04	
274	4.000000e-01	5.604584e-04	
275	4.500000e-01	6.132816e-04	
276	5.000000e-01	6.625872e-04	
277	5.500000e-01	7.084609e-04	
278	6.000000e-01	7.509856e-04	
279	6.500000e-01	7.902401e-04	
280	7.000000e-01	8.262984e-04	
281	7.500000e-01	8.592264e-04	
282	8.000000e-01	8.890771e-04	
283	8.500000e-01	9.158836e-04	
284	9.000000e-01	9.396516e-04	
285	9.500000e-01	9.603713e-04	
286	1.000000e+00	9.780750e-04	

Index   v-sweep         -i(vds)         
--------------------------------------------------------------------------------
287	1.050000e+00	9.929377e-04	
288	1.100000e+00	1.005319e-03	
289	1.150000e+00	1.015678e-03	
290	1.200000e+00	1.024457e-03	
291	1.250000e+00	1.032018e-03	
292	1.300000e+00	1.038632e-03	
293	1.350000e+00	1.044503e-03	
294	1.400000e+00	1.049779e-03	
295	1.450000e+00	1.054571e-03	
296	1.500000e+00	1.058963e-03	
297	1.550000e+00	1.063021e-03	
298	1.600000e+00	1.066795e-03	
299	1.650000e+00	1.070326e-03	
300	1.700000e+00	1.073645e-03	
301	1.750000e+00	1.076781e-03	
302	1.800000e+00	1.079753e-03	
303	1.850000e+00	1.082581e-03	
304	1.900000e+00	1.085281e-03	
305	1.950000e+00	1.087865e-03	
306	2.000000e+00	1.090344e-03	
307	2.050000e+00	1.092729e-03	
308	2.100000e+00	1.095027e-03	
309	2.150000e+00	1.097246e-03	
310	2.200000e+00	1.099393e-03	
311	2.250000e+00	1.101472e-03	
312	2.300000e+00	1.103490e-03	
313	2.350000e+00	1.105451e-03	
314	2.400000e+00	1.107359e-03	
315	2.450000e+00	1.109217e-03	
316	2.500000e+00	1.111028e-03	
317	2.550000e+00	1.112796e-03	
318	2.600000e+00	1.114524e-03	
319	2.650000e+00	1.116213e-03	
320	2.700000e+00	1.117867e-03	
321	2.750000e+00	1.119486e-03	
322	2.800000e+00	1.121074e-03	
323	2.850000e+00	1.122631e-03	
324	2.900000e+00	1.124159e-03	
325	2.950000e+00	1.125660e-03	
326	3.000000e+00	1.127136e-03	
327	3.050000e+00	1.128586e-03	
328	3.100000e+00	1.130014e-03	
329	3.150000e+00	1.131419e-03	
330	3.200000e+00	1.132803e-03	
331	3.250000e+00	1.134168e-03	
332	3.300000e+00	1.135513e-03	
333	3.350000e+00	1.136840e-03	
334	3.400000e+00	1.138151e-03	
335	3.450000e+00	1.139445e-03	
336	3.500000e+00	1.140725e-03	
337	3.550000e+00	1.141990e-03	
338	3.600000e+00	1.143244e-03	
339	3.650000e+00	1.144485e-03	
340	3.700000e+00	1.145717e-03	
341	3.750000e+00	1.146939e-03	
342	3.800000e+00	1.148155e-03	
343	3.850000e+00	1.149364e-03	
344	3.900000e+00	1.150570e-03	

Index   v-sweep         -i(vds)         
--------------------------------------------------------------------------------
345	3.950000e+00	1.151774e-03	
346	4.000000e+00	1.152978e-03	
347	4.050000e+00	1.154185e-03	
348	4.100000e+00	1.155396e-03	
349	4.150000e+00	1.156616e-03	
350	4.200000e+00	1.157847e-03	
351	4.250000e+00	1.159092e-03	
352	4.300000e+00	1.160355e-03	
353	4.350000e+00	1.161640e-03	
354	4.400000e+00	1.162951e-03	
355	4.450000e+00	1.164293e-03	
356	4.500000e+00	1.165671e-03	
357	4.550000e+00	1.167091e-03	
358	4.600000e+00	1.168557e-03	
359	4.650000e+00	1.170076e-03	
360	4.700000e+00	1.171654e-03	
361	4.750000e+00	1.173299e-03	
362	4.800000e+00	1.175018e-03	
363	4.850000e+00	1.176818e-03	
364	4.900000e+00	1.178708e-03	
365	4.950000e+00	1.180696e-03	
366	5.000000e+00	1.182791e-03	
367	5.050000e+00	1.185003e-03	
368	5.100000e+00	1.187342e-03	
369	5.150000e+00	1.189817e-03	
370	5.200000e+00	1.192441e-03	
371	5.250000e+00	1.195224e-03	
372	5.300000e+00	1.198177e-03	
373	5.350000e+00	1.201313e-03	
374	5.400000e+00	1.204644e-03	
375	5.450000e+00	1.208183e-03	
376	5.500000e+00	1.211944e-03	
377	5.550000e+00	1.215940e-03	
378	5.600000e+00	1.220185e-03	
379	5.650000e+00	1.224693e-03	
380	5.700000e+00	1.229480e-03	
381	5.750000e+00	1.234561e-03	
382	5.800000e+00	1.239951e-03	
383	5.850000e+00	1.245666e-03	
384	5.900000e+00	1.251721e-03	
385	5.950000e+00	1.258135e-03	
386	6.000000e+00	1.264922e-03	
387	6.050000e+00	1.272101e-03	
388	6.100000e+00	1.279688e-03	
389	6.150000e+00	1.287700e-03	
390	6.200000e+00	1.296157e-03	
391	6.250000e+00	1.305075e-03	
392	6.300000e+00	1.314472e-03	
393	6.350000e+00	1.324367e-03	
394	6.400000e+00	1.334778e-03	
395	6.450000e+00	1.345724e-03	
396	6.500000e+00	1.357223e-03	
397	6.550000e+00	1.369295e-03	
398	6.600000e+00	1.381957e-03	
399	0.000000e+00	-3.84260e-19	
400	5.000000e-02	1.045235e-04	
401	1.000000e-01	2.049411e-04	
402	1.500000e-01	3.013431e-04	

Index   v-sweep         -i(vds)         
--------------------------------------------------------------------------------
403	2.000000e-01	3.938177e-04	
404	2.500000e-01	4.824518e-04	
405	3.000000e-01	5.673299e-04	
406	3.500000e-01	6.485347e-04	
407	4.000000e-01	7.261469e-04	
408	4.500000e-01	8.002447e-04	
409	5.000000e-01	8.709044e-04	
410	5.500000e-01	9.382003e-04	
411	6.000000e-01	1.002204e-03	
412	6.500000e-01	1.062986e-03	
413	7.000000e-01	1.120615e-03	
414	7.500000e-01	1.175155e-03	
415	8.000000e-01	1.226672e-03	
416	8.500000e-01	1.275225e-03	
417	9.000000e-01	1.320873e-03	
418	9.500000e-01	1.363668e-03	
419	1.000000e+00	1.403654e-03	
420	1.050000e+00	1.440864e-03	
421	1.100000e+00	1.475310e-03	
422	1.150000e+00	1.506975e-03	
423	1.200000e+00	1.535800e-03	
424	1.250000e+00	1.561689e-03	
425	1.300000e+00	1.584545e-03	
426	1.350000e+00	1.604363e-03	
427	1.400000e+00	1.621316e-03	
428	1.450000e+00	1.635745e-03	
429	1.500000e+00	1.648071e-03	
430	1.550000e+00	1.658701e-03	
431	1.600000e+00	1.667979e-03	
432	1.650000e+00	1.676175e-03	
433	1.700000e+00	1.683500e-03	
434	1.750000e+00	1.690114e-03	
435	1.800000e+00	1.696140e-03	
436	1.850000e+00	1.701674e-03	
437	1.900000e+00	1.706791e-03	
438	1.950000e+00	1.711552e-03	
439	2.000000e+00	1.716005e-03	
440	2.050000e+00	1.720189e-03	
441	2.100000e+00	1.724137e-03	
442	2.150000e+00	1.727877e-03	
443	2.200000e+00	1.731430e-03	
444	2.250000e+00	1.734817e-03	
445	2.300000e+00	1.738053e-03	
446	2.350000e+00	1.741153e-03	
447	2.400000e+00	1.744130e-03	
448	2.450000e+00	1.746994e-03	
449	2.500000e+00	1.749755e-03	
450	2.550000e+00	1.752420e-03	
451	2.600000e+00	1.754997e-03	
452	2.650000e+00	1.757494e-03	
453	2.700000e+00	1.759914e-03	
454	2.750000e+00	1.762265e-03	
455	2.800000e+00	1.764550e-03	
456	2.850000e+00	1.766774e-03	
457	2.900000e+00	1.768941e-03	
458	2.950000e+00	1.771053e-03	
459	3.000000e+00	1.773116e-03	
460	3.050000e+00	1.775130e-03	

Index   v-sweep         -i(vds)         
--------------------------------------------------------------------------------
461	3.100000e+00	1.777099e-03	
462	3.150000e+00	1.779026e-03	
463	3.200000e+00	1.780913e-03	
464	3.250000e+00	1.782761e-03	
465	3.300000e+00	1.784574e-03	
466	3.350000e+00	1.786352e-03	
467	3.400000e+00	1.788097e-03	
468	3.450000e+00	1.789811e-03	
469	3.500000e+00	1.791496e-03	
470	3.550000e+00	1.793153e-03	
471	3.600000e+00	1.794784e-03	
472	3.650000e+00	1.796390e-03	
473	3.700000e+00	1.797971e-03	
474	3.750000e+00	1.799531e-03	
475	3.800000e+00	1.801070e-03	
476	3.850000e+00	1.802590e-03	
477	3.900000e+00	1.804093e-03	
478	3.950000e+00	1.805579e-03	
479	4.000000e+00	1.807052e-03	
480	4.050000e+00	1.808513e-03	
481	4.100000e+00	1.809963e-03	
482	4.150000e+00	1.811407e-03	
483	4.200000e+00	1.812845e-03	
484	4.250000e+00	1.814282e-03	
485	4.300000e+00	1.815720e-03	
486	4.350000e+00	1.817162e-03	
487	4.400000e+00	1.818613e-03	
488	4.450000e+00	1.820076e-03	
489	4.500000e+00	1.821557e-03	
490	4.550000e+00	1.823059e-03	
491	4.600000e+00	1.824589e-03	
492	4.650000e+00	1.826153e-03	
493	4.700000e+00	1.827757e-03	
494	4.750000e+00	1.829407e-03	
495	4.800000e+00	1.831112e-03	
496	4.850000e+00	1.832879e-03	
497	4.900000e+00	1.834716e-03	
498	4.950000e+00	1.836634e-03	
499	5.000000e+00	1.838642e-03	
500	5.050000e+00	1.840750e-03	
501	5.100000e+00	1.842969e-03	
502	5.150000e+00	1.845312e-03	
503	5.200000e+00	1.847790e-03	
504	5.250000e+00	1.850416e-03	
505	5.300000e+00	1.853205e-03	
506	5.350000e+00	1.856170e-03	
507	5.400000e+00	1.859326e-03	
508	5.450000e+00	1.862690e-03	
509	5.500000e+00	1.866277e-03	
510	5.550000e+00	1.870105e-03	
511	5.600000e+00	1.874190e-03	
512	5.650000e+00	1.878553e-03	
513	5.700000e+00	1.883210e-03	
514	5.750000e+00	1.888182e-03	
515	5.800000e+00	1.893489e-03	
516	5.850000e+00	1.899152e-03	
517	5.900000e+00	1.905192e-03	
518	5.950000e+00	1.911630e-03	

Index   v-sweep         -i(vds)         
--------------------------------------------------------------------------------
519	6.000000e+00	1.918489e-03	
520	6.050000e+00	1.925791e-03	
521	6.100000e+00	1.933561e-03	
522	6.150000e+00	1.941822e-03	
523	6.200000e+00	1.950598e-03	
524	6.250000e+00	1.959913e-03	
525	6.300000e+00	1.969793e-03	
526	6.350000e+00	1.980263e-03	
527	6.400000e+00	1.991349e-03	
528	6.450000e+00	2.003076e-03	
529	6.500000e+00	2.015472e-03	
530	6.550000e+00	2.028562e-03	
531	6.600000e+00	2.042373e-03	
532	0.000000e+00	1.397402e-19	
533	5.000000e-02	1.181557e-04	
534	1.000000e-01	2.325158e-04	
535	1.500000e-01	3.431528e-04	
536	2.000000e-01	4.501380e-04	
537	2.500000e-01	5.535416e-04	
538	3.000000e-01	6.534325e-04	
539	3.500000e-01	7.498784e-04	
540	4.000000e-01	8.429454e-04	
541	4.500000e-01	9.326983e-04	
542	5.000000e-01	1.019200e-03	
543	5.500000e-01	1.102513e-03	
544	6.000000e-01	1.182697e-03	
545	6.500000e-01	1.259810e-03	
546	7.000000e-01	1.333910e-03	
547	7.500000e-01	1.405053e-03	
548	8.000000e-01	1.473293e-03	
549	8.500000e-01	1.538684e-03	
550	9.000000e-01	1.601276e-03	
551	9.500000e-01	1.661122e-03	
552	1.000000e+00	1.718270e-03	
553	1.050000e+00	1.772767e-03	
554	1.100000e+00	1.824660e-03	
555	1.150000e+00	1.873990e-03	
556	1.200000e+00	1.920797e-03	
557	1.250000e+00	1.965113e-03	
558	1.300000e+00	2.006962e-03	
559	1.350000e+00	2.046353e-03	
560	1.400000e+00	2.083274e-03	
561	1.450000e+00	2.117680e-03	
562	1.500000e+00	2.149487e-03	
563	1.550000e+00	2.178567e-03	
564	1.600000e+00	2.204781e-03	
565	1.650000e+00	2.228041e-03	
566	1.700000e+00	2.248396e-03	
567	1.750000e+00	2.266059e-03	
568	1.800000e+00	2.281366e-03	
569	1.850000e+00	2.294690e-03	
570	1.900000e+00	2.306380e-03	
571	1.950000e+00	2.316735e-03	
572	2.000000e+00	2.325996e-03	
573	2.050000e+00	2.334354e-03	
574	2.100000e+00	2.341961e-03	
575	2.150000e+00	2.348937e-03	
576	2.200000e+00	2.355375e-03	

Index   v-sweep         -i(vds)         
--------------------------------------------------------------------------------
577	2.250000e+00	2.361354e-03	
578	2.300000e+00	2.366934e-03	
579	2.350000e+00	2.372167e-03	
580	2.400000e+00	2.377095e-03	
581	2.450000e+00	2.381753e-03	
582	2.500000e+00	2.386169e-03	
583	2.550000e+00	2.390371e-03	
584	2.600000e+00	2.394377e-03	
585	2.650000e+00	2.398208e-03	
586	2.700000e+00	2.401880e-03	
587	2.750000e+00	2.405405e-03	
588	2.800000e+00	2.408797e-03	
589	2.850000e+00	2.412066e-03	
590	2.900000e+00	2.415222e-03	
591	2.950000e+00	2.418273e-03	
592	3.000000e+00	2.421226e-03	
593	3.050000e+00	2.424090e-03	
594	3.100000e+00	2.426869e-03	
595	3.150000e+00	2.429569e-03	
596	3.200000e+00	2.432195e-03	
597	3.250000e+00	2.434752e-03	
598	3.300000e+00	2.437244e-03	
599	3.350000e+00	2.439675e-03	
600	3.400000e+00	2.442047e-03	
601	3.450000e+00	2.444365e-03	
602	3.500000e+00	2.446632e-03	
603	3.550000e+00	2.448849e-03	
604	3.600000e+00	2.451020e-03	
605	3.650000e+00	2.453147e-03	
606	3.700000e+00	2.455232e-03	
607	3.750000e+00	2.457277e-03	
608	3.800000e+00	2.459284e-03	
609	3.850000e+00	2.461256e-03	
610	3.900000e+00	2.463193e-03	
611	3.950000e+00	2.465099e-03	
612	4.000000e+00	2.466974e-03	
613	4.050000e+00	2.468821e-03	
614	4.100000e+00	2.470641e-03	
615	4.150000e+00	2.472437e-03	
616	4.200000e+00	2.474210e-03	
617	4.250000e+00	2.475963e-03	
618	4.300000e+00	2.477698e-03	
619	4.350000e+00	2.479418e-03	
620	4.400000e+00	2.481125e-03	
621	4.450000e+00	2.482823e-03	
622	4.500000e+00	2.484514e-03	
623	4.550000e+00	2.486204e-03	
624	4.600000e+00	2.487895e-03	
625	4.650000e+00	2.489593e-03	
626	4.700000e+00	2.491302e-03	
627	4.750000e+00	2.493027e-03	
628	4.800000e+00	2.494776e-03	
629	4.850000e+00	2.496554e-03	
630	4.900000e+00	2.498368e-03	
631	4.950000e+00	2.500227e-03	
632	5.000000e+00	2.502139e-03	
633	5.050000e+00	2.504112e-03	
634	5.100000e+00	2.506158e-03	

Index   v-sweep         -i(vds)         
--------------------------------------------------------------------------------
635	5.150000e+00	2.508286e-03	
636	5.200000e+00	2.510508e-03	
637	5.250000e+00	2.512836e-03	
638	5.300000e+00	2.515284e-03	
639	5.350000e+00	2.517864e-03	
640	5.400000e+00	2.520593e-03	
641	5.450000e+00	2.523485e-03	
642	5.500000e+00	2.526557e-03	
643	5.550000e+00	2.529827e-03	
644	5.600000e+00	2.533312e-03	
645	5.650000e+00	2.537032e-03	
646	5.700000e+00	2.541006e-03	
647	5.750000e+00	2.545257e-03	
648	5.800000e+00	2.549805e-03	
649	5.850000e+00	2.554673e-03	
650	5.900000e+00	2.559885e-03	
651	5.950000e+00	2.565466e-03	
652	6.000000e+00	2.571439e-03	
653	6.050000e+00	2.577832e-03	
654	6.100000e+00	2.584671e-03	
655	6.150000e+00	2.591984e-03	
656	6.200000e+00	2.599799e-03	
657	6.250000e+00	2.608145e-03	
658	6.300000e+00	2.617052e-03	
659	6.350000e+00	2.626550e-03	
660	6.400000e+00	2.636669e-03	
661	6.450000e+00	2.647442e-03	
662	6.500000e+00	2.658901e-03	
663	6.550000e+00	2.671077e-03	
664	6.600000e+00	2.684005e-03	
665	0.000000e+00	1.488918e-19	
666	5.000000e-02	1.268572e-04	
667	1.000000e-01	2.502735e-04	
668	1.500000e-01	3.703062e-04	
669	2.000000e-01	4.870119e-04	
670	2.500000e-01	6.004465e-04	
671	3.000000e-01	7.106649e-04	
672	3.500000e-01	8.177214e-04	
673	4.000000e-01	9.216692e-04	
674	4.500000e-01	1.022561e-03	
675	5.000000e-01	1.120447e-03	
676	5.500000e-01	1.215378e-03	
677	6.000000e-01	1.307404e-03	
678	6.500000e-01	1.396572e-03	
679	7.000000e-01	1.482930e-03	
680	7.500000e-01	1.566524e-03	
681	8.000000e-01	1.647398e-03	
682	8.500000e-01	1.725597e-03	
683	9.000000e-01	1.801164e-03	
684	9.500000e-01	1.874141e-03	
685	1.000000e+00	1.944570e-03	
686	1.050000e+00	2.012492e-03	
687	1.100000e+00	2.077946e-03	
688	1.150000e+00	2.140971e-03	
689	1.200000e+00	2.201606e-03	
690	1.250000e+00	2.259888e-03	
691	1.300000e+00	2.315853e-03	
692	1.350000e+00	2.369535e-03	

Index   v-sweep         -i(vds)         
--------------------------------------------------------------------------------
693	1.400000e+00	2.420968e-03	
694	1.450000e+00	2.470182e-03	
695	1.500000e+00	2.517202e-03	
696	1.550000e+00	2.562049e-03	
697	1.600000e+00	2.604733e-03	
698	1.650000e+00	2.645252e-03	
699	1.700000e+00	2.683586e-03	
700	1.750000e+00	2.719684e-03	
701	1.800000e+00	2.753462e-03	
702	1.850000e+00	2.784793e-03	
703	1.900000e+00	2.813531e-03	
704	1.950000e+00	2.839546e-03	
705	2.000000e+00	2.862793e-03	
706	2.050000e+00	2.883364e-03	
707	2.100000e+00	2.901475e-03	
708	2.150000e+00	2.917426e-03	
709	2.200000e+00	2.931532e-03	
710	2.250000e+00	2.944090e-03	
711	2.300000e+00	2.955355e-03	
712	2.350000e+00	2.965538e-03	
713	2.400000e+00	2.974811e-03	
714	2.450000e+00	2.983315e-03	
715	2.500000e+00	2.991161e-03	
716	2.550000e+00	2.998441e-03	
717	2.600000e+00	3.005231e-03	
718	2.650000e+00	3.011593e-03	
719	2.700000e+00	3.017576e-03	
720	2.750000e+00	3.023226e-03	
721	2.800000e+00	3.028577e-03	
722	2.850000e+00	3.033661e-03	
723	2.900000e+00	3.038505e-03	
724	2.950000e+00	3.043130e-03	
725	3.000000e+00	3.047558e-03	
726	3.050000e+00	3.051805e-03	
727	3.100000e+00	3.055887e-03	
728	3.150000e+00	3.059816e-03	
729	3.200000e+00	3.063605e-03	
730	3.250000e+00	3.067264e-03	
731	3.300000e+00	3.070803e-03	
732	3.350000e+00	3.074230e-03	
733	3.400000e+00	3.077552e-03	
734	3.450000e+00	3.080777e-03	
735	3.500000e+00	3.083910e-03	
736	3.550000e+00	3.086958e-03	
737	3.600000e+00	3.089925e-03	
738	3.650000e+00	3.092816e-03	
739	3.700000e+00	3.095635e-03	
740	3.750000e+00	3.098387e-03	
741	3.800000e+00	3.101075e-03	
742	3.850000e+00	3.103703e-03	
743	3.900000e+00	3.106272e-03	
744	3.950000e+00	3.108788e-03	
745	4.000000e+00	3.111251e-03	
746	4.050000e+00	3.113666e-03	
747	4.100000e+00	3.116033e-03	
748	4.150000e+00	3.118357e-03	
749	4.200000e+00	3.120638e-03	
750	4.250000e+00	3.122879e-03	

Index   v-sweep         -i(vds)         
--------------------------------------------------------------------------------
751	4.300000e+00	3.125083e-03	
752	4.350000e+00	3.127251e-03	
753	4.400000e+00	3.129387e-03	
754	4.450000e+00	3.131491e-03	
755	4.500000e+00	3.133568e-03	
756	4.550000e+00	3.135619e-03	
757	4.600000e+00	3.137647e-03	
758	4.650000e+00	3.139656e-03	
759	4.700000e+00	3.141648e-03	
760	4.750000e+00	3.143628e-03	
761	4.800000e+00	3.145599e-03	
762	4.850000e+00	3.147567e-03	
763	4.900000e+00	3.149535e-03	
764	4.950000e+00	3.151510e-03	
765	5.000000e+00	3.153497e-03	
766	5.050000e+00	3.155503e-03	
767	5.100000e+00	3.157536e-03	
768	5.150000e+00	3.159603e-03	
769	5.200000e+00	3.161712e-03	
770	5.250000e+00	3.163874e-03	
771	5.300000e+00	3.166099e-03	
772	5.350000e+00	3.168397e-03	
773	5.400000e+00	3.170782e-03	
774	5.450000e+00	3.173265e-03	
775	5.500000e+00	3.175861e-03	
776	5.550000e+00	3.178585e-03	
777	5.600000e+00	3.181452e-03	
778	5.650000e+00	3.184481e-03	
779	5.700000e+00	3.187688e-03	
780	5.750000e+00	3.191093e-03	
781	5.800000e+00	3.194717e-03	
782	5.850000e+00	3.198580e-03	
783	5.900000e+00	3.202705e-03	
784	5.950000e+00	3.207116e-03	
785	6.000000e+00	3.211837e-03	
786	6.050000e+00	3.216895e-03	
787	6.100000e+00	3.222315e-03	
788	6.150000e+00	3.228126e-03	
789	6.200000e+00	3.234357e-03	
790	6.250000e+00	3.241039e-03	
791	6.300000e+00	3.248201e-03	
792	6.350000e+00	3.255876e-03	
793	6.400000e+00	3.264098e-03	
794	6.450000e+00	3.272900e-03	
795	6.500000e+00	3.282316e-03	
796	6.550000e+00	3.292384e-03	
797	6.600000e+00	3.303139e-03	
Note: No ".plot", ".print", or ".fourier" lines; no simulations run
