
Note: Compatibility modes selected: hs

Warning: m=xx on .subckt line will override multiplier m hierarchy!


Circuit: ***************************

Doing analysis at TEMP = 125.000000 and TNOM = 125.000000


No. of Data Rows : 798
                          ***************************
                          DC transfer characteristic  Mon Jan  9 13:58:37  2023
--------------------------------------------------------------------------------
Index   v-sweep         -i(vds)         
--------------------------------------------------------------------------------
0	0.000000e+00	2.997513e-23	
1	5.000000e-02	1.070372e-07	
2	1.000000e-01	1.964644e-07	
3	1.500000e-01	2.717027e-07	
4	2.000000e-01	3.337048e-07	
5	2.500000e-01	3.828526e-07	
6	3.000000e-01	4.195148e-07	
7	3.500000e-01	4.444111e-07	
8	4.000000e-01	4.591765e-07	
9	4.500000e-01	4.667673e-07	
10	5.000000e-01	4.704693e-07	
11	5.500000e-01	4.724270e-07	
12	6.000000e-01	4.736194e-07	
13	6.500000e-01	4.744472e-07	
14	7.000000e-01	4.750813e-07	
15	7.500000e-01	4.756022e-07	
16	8.000000e-01	4.760511e-07	
17	8.500000e-01	4.764514e-07	
18	9.000000e-01	4.768171e-07	
19	9.500000e-01	4.771569e-07	
20	1.000000e+00	4.774770e-07	
21	1.050000e+00	4.777814e-07	
22	1.100000e+00	4.780731e-07	
23	1.150000e+00	4.783543e-07	
24	1.200000e+00	4.786269e-07	
25	1.250000e+00	4.788920e-07	
26	1.300000e+00	4.791507e-07	
27	1.350000e+00	4.794038e-07	
28	1.400000e+00	4.796520e-07	
29	1.450000e+00	4.798960e-07	
30	1.500000e+00	4.801361e-07	
31	1.550000e+00	4.803727e-07	
32	1.600000e+00	4.806063e-07	
33	1.650000e+00	4.808370e-07	
34	1.700000e+00	4.810652e-07	
35	1.750000e+00	4.812910e-07	
36	1.800000e+00	4.815146e-07	
37	1.850000e+00	4.817363e-07	
38	1.900000e+00	4.819562e-07	
39	1.950000e+00	4.821743e-07	
40	2.000000e+00	4.823909e-07	
41	2.050000e+00	4.826060e-07	
42	2.100000e+00	4.828198e-07	
43	2.150000e+00	4.830322e-07	
44	2.200000e+00	4.832434e-07	
45	2.250000e+00	4.834535e-07	
46	2.300000e+00	4.836626e-07	
47	2.350000e+00	4.838706e-07	
48	2.400000e+00	4.840778e-07	
49	2.450000e+00	4.842840e-07	
50	2.500000e+00	4.844895e-07	
51	2.550000e+00	4.846942e-07	
52	2.600000e+00	4.848983e-07	
53	2.650000e+00	4.851017e-07	
54	2.700000e+00	4.853047e-07	

Index   v-sweep         -i(vds)         
--------------------------------------------------------------------------------
55	2.750000e+00	4.855073e-07	
56	2.800000e+00	4.857096e-07	
57	2.850000e+00	4.859118e-07	
58	2.900000e+00	4.861140e-07	
59	2.950000e+00	4.863165e-07	
60	3.000000e+00	4.865194e-07	
61	3.050000e+00	4.867231e-07	
62	3.100000e+00	4.869278e-07	
63	3.150000e+00	4.871339e-07	
64	3.200000e+00	4.873418e-07	
65	3.250000e+00	4.875521e-07	
66	3.300000e+00	4.877652e-07	
67	3.350000e+00	4.879819e-07	
68	3.400000e+00	4.882027e-07	
69	3.450000e+00	4.884287e-07	
70	3.500000e+00	4.886605e-07	
71	3.550000e+00	4.888993e-07	
72	3.600000e+00	4.891463e-07	
73	3.650000e+00	4.894025e-07	
74	3.700000e+00	4.896694e-07	
75	3.750000e+00	4.899485e-07	
76	3.800000e+00	4.902415e-07	
77	3.850000e+00	4.905501e-07	
78	3.900000e+00	4.908762e-07	
79	3.950000e+00	4.912219e-07	
80	4.000000e+00	4.915896e-07	
81	4.050000e+00	4.919815e-07	
82	4.100000e+00	4.924002e-07	
83	4.150000e+00	4.928486e-07	
84	4.200000e+00	4.933294e-07	
85	4.250000e+00	4.938459e-07	
86	4.300000e+00	4.944013e-07	
87	4.350000e+00	4.949991e-07	
88	4.400000e+00	4.956428e-07	
89	4.450000e+00	4.963364e-07	
90	4.500000e+00	4.970839e-07	
91	4.550000e+00	4.978894e-07	
92	4.600000e+00	4.987573e-07	
93	4.650000e+00	4.996922e-07	
94	4.700000e+00	5.006988e-07	
95	4.750000e+00	5.017821e-07	
96	4.800000e+00	5.029473e-07	
97	4.850000e+00	5.041995e-07	
98	4.900000e+00	5.055442e-07	
99	4.950000e+00	5.069872e-07	
100	5.000000e+00	5.085341e-07	
101	5.050000e+00	5.101910e-07	
102	5.100000e+00	5.119641e-07	
103	5.150000e+00	5.138596e-07	
104	5.200000e+00	5.158839e-07	
105	5.250000e+00	5.180437e-07	
106	5.300000e+00	5.203458e-07	
107	5.350000e+00	5.227970e-07	
108	5.400000e+00	5.254043e-07	
109	5.450000e+00	5.281750e-07	
110	5.500000e+00	5.311163e-07	
111	5.550000e+00	5.342356e-07	
112	5.600000e+00	5.375405e-07	

Index   v-sweep         -i(vds)         
--------------------------------------------------------------------------------
113	5.650000e+00	5.410385e-07	
114	5.700000e+00	5.447375e-07	
115	5.750000e+00	5.486453e-07	
116	5.800000e+00	5.527699e-07	
117	5.850000e+00	5.571192e-07	
118	5.900000e+00	5.617014e-07	
119	5.950000e+00	5.665247e-07	
120	6.000000e+00	5.715974e-07	
121	6.050000e+00	5.769278e-07	
122	6.100000e+00	5.825243e-07	
123	6.150000e+00	5.883954e-07	
124	6.200000e+00	5.945496e-07	
125	6.250000e+00	6.009955e-07	
126	6.300000e+00	6.077416e-07	
127	6.350000e+00	6.147966e-07	
128	6.400000e+00	6.221692e-07	
129	6.450000e+00	6.298681e-07	
130	6.500000e+00	6.379020e-07	
131	6.550000e+00	6.462797e-07	
132	6.600000e+00	6.550099e-07	
133	0.000000e+00	5.335434e-22	
134	5.000000e-02	3.037309e-07	
135	1.000000e-01	5.893593e-07	
136	1.500000e-01	8.602679e-07	
137	2.000000e-01	1.117366e-06	
138	2.500000e-01	1.360940e-06	
139	3.000000e-01	1.591116e-06	
140	3.500000e-01	1.807980e-06	
141	4.000000e-01	2.011611e-06	
142	4.500000e-01	2.202082e-06	
143	5.000000e-01	2.379468e-06	
144	5.500000e-01	2.543841e-06	
145	6.000000e-01	2.695279e-06	
146	6.500000e-01	2.833856e-06	
147	7.000000e-01	2.959653e-06	
148	7.500000e-01	3.072756e-06	
149	8.000000e-01	3.173261e-06	
150	8.500000e-01	3.261282e-06	
151	9.000000e-01	3.336970e-06	
152	9.500000e-01	3.400543e-06	
153	1.000000e+00	3.452355e-06	
154	1.050000e+00	3.493006e-06	
155	1.100000e+00	3.523508e-06	
156	1.150000e+00	3.545405e-06	
157	1.200000e+00	3.560652e-06	
158	1.250000e+00	3.571223e-06	
159	1.300000e+00	3.578717e-06	
160	1.350000e+00	3.584239e-06	
161	1.400000e+00	3.588487e-06	
162	1.450000e+00	3.591889e-06	
163	1.500000e+00	3.594710e-06	
164	1.550000e+00	3.597119e-06	
165	1.600000e+00	3.599224e-06	
166	1.650000e+00	3.601099e-06	
167	1.700000e+00	3.602795e-06	
168	1.750000e+00	3.604350e-06	
169	1.800000e+00	3.605790e-06	
170	1.850000e+00	3.607135e-06	

Index   v-sweep         -i(vds)         
--------------------------------------------------------------------------------
171	1.900000e+00	3.608402e-06	
172	1.950000e+00	3.609601e-06	
173	2.000000e+00	3.610744e-06	
174	2.050000e+00	3.611837e-06	
175	2.100000e+00	3.612886e-06	
176	2.150000e+00	3.613898e-06	
177	2.200000e+00	3.614876e-06	
178	2.250000e+00	3.615824e-06	
179	2.300000e+00	3.616746e-06	
180	2.350000e+00	3.617642e-06	
181	2.400000e+00	3.618518e-06	
182	2.450000e+00	3.619373e-06	
183	2.500000e+00	3.620209e-06	
184	2.550000e+00	3.621029e-06	
185	2.600000e+00	3.621834e-06	
186	2.650000e+00	3.622624e-06	
187	2.700000e+00	3.623402e-06	
188	2.750000e+00	3.624167e-06	
189	2.800000e+00	3.624920e-06	
190	2.850000e+00	3.625663e-06	
191	2.900000e+00	3.626396e-06	
192	2.950000e+00	3.627120e-06	
193	3.000000e+00	3.627835e-06	
194	3.050000e+00	3.628542e-06	
195	3.100000e+00	3.629242e-06	
196	3.150000e+00	3.629934e-06	
197	3.200000e+00	3.630620e-06	
198	3.250000e+00	3.631299e-06	
199	3.300000e+00	3.631973e-06	
200	3.350000e+00	3.632643e-06	
201	3.400000e+00	3.633308e-06	
202	3.450000e+00	3.633969e-06	
203	3.500000e+00	3.634628e-06	
204	3.550000e+00	3.635285e-06	
205	3.600000e+00	3.635942e-06	
206	3.650000e+00	3.636599e-06	
207	3.700000e+00	3.637259e-06	
208	3.750000e+00	3.637924e-06	
209	3.800000e+00	3.638594e-06	
210	3.850000e+00	3.639274e-06	
211	3.900000e+00	3.639966e-06	
212	3.950000e+00	3.640674e-06	
213	4.000000e+00	3.641400e-06	
214	4.050000e+00	3.642151e-06	
215	4.100000e+00	3.642930e-06	
216	4.150000e+00	3.643744e-06	
217	4.200000e+00	3.644600e-06	
218	4.250000e+00	3.645503e-06	
219	4.300000e+00	3.646462e-06	
220	4.350000e+00	3.647487e-06	
221	4.400000e+00	3.648587e-06	
222	4.450000e+00	3.649772e-06	
223	4.500000e+00	3.651054e-06	
224	4.550000e+00	3.652447e-06	
225	4.600000e+00	3.653963e-06	
226	4.650000e+00	3.655619e-06	
227	4.700000e+00	3.657429e-06	
228	4.750000e+00	3.659413e-06	

Index   v-sweep         -i(vds)         
--------------------------------------------------------------------------------
229	4.800000e+00	3.661587e-06	
230	4.850000e+00	3.663972e-06	
231	4.900000e+00	3.666589e-06	
232	4.950000e+00	3.669460e-06	
233	5.000000e+00	3.672610e-06	
234	5.050000e+00	3.676064e-06	
235	5.100000e+00	3.679847e-06	
236	5.150000e+00	3.683987e-06	
237	5.200000e+00	3.688515e-06	
238	5.250000e+00	3.693459e-06	
239	5.300000e+00	3.698853e-06	
240	5.350000e+00	3.704730e-06	
241	5.400000e+00	3.711123e-06	
242	5.450000e+00	3.718069e-06	
243	5.500000e+00	3.725606e-06	
244	5.550000e+00	3.733772e-06	
245	5.600000e+00	3.742606e-06	
246	5.650000e+00	3.752150e-06	
247	5.700000e+00	3.762447e-06	
248	5.750000e+00	3.773539e-06	
249	5.800000e+00	3.785472e-06	
250	5.850000e+00	3.798291e-06	
251	5.900000e+00	3.812045e-06	
252	5.950000e+00	3.826780e-06	
253	6.000000e+00	3.842546e-06	
254	6.050000e+00	3.859394e-06	
255	6.100000e+00	3.877375e-06	
256	6.150000e+00	3.896541e-06	
257	6.200000e+00	3.916945e-06	
258	6.250000e+00	3.938641e-06	
259	6.300000e+00	3.961684e-06	
260	6.350000e+00	3.986131e-06	
261	6.400000e+00	4.012036e-06	
262	6.450000e+00	4.039458e-06	
263	6.500000e+00	4.068454e-06	
264	6.550000e+00	4.099083e-06	
265	6.600000e+00	4.131404e-06	
266	0.000000e+00	1.404116e-26	
267	5.000000e-02	4.676838e-07	
268	1.000000e-01	9.178883e-07	
269	1.500000e-01	1.353973e-06	
270	2.000000e-01	1.776841e-06	
271	2.500000e-01	2.186769e-06	
272	3.000000e-01	2.583879e-06	
273	3.500000e-01	2.968251e-06	
274	4.000000e-01	3.339957e-06	
275	4.500000e-01	3.699062e-06	
276	5.000000e-01	4.045632e-06	
277	5.500000e-01	4.379734e-06	
278	6.000000e-01	4.701432e-06	
279	6.500000e-01	5.010790e-06	
280	7.000000e-01	5.307873e-06	
281	7.500000e-01	5.592744e-06	
282	8.000000e-01	5.865467e-06	
283	8.500000e-01	6.126104e-06	
284	9.000000e-01	6.374717e-06	
285	9.500000e-01	6.611368e-06	
286	1.000000e+00	6.836119e-06	

Index   v-sweep         -i(vds)         
--------------------------------------------------------------------------------
287	1.050000e+00	7.049032e-06	
288	1.100000e+00	7.250166e-06	
289	1.150000e+00	7.439582e-06	
290	1.200000e+00	7.617340e-06	
291	1.250000e+00	7.783501e-06	
292	1.300000e+00	7.938125e-06	
293	1.350000e+00	8.081271e-06	
294	1.400000e+00	8.213003e-06	
295	1.450000e+00	8.333386e-06	
296	1.500000e+00	8.442490e-06	
297	1.550000e+00	8.540397e-06	
298	1.600000e+00	8.627212e-06	
299	1.650000e+00	8.703078e-06	
300	1.700000e+00	8.768216e-06	
301	1.750000e+00	8.822976e-06	
302	1.800000e+00	8.867927e-06	
303	1.850000e+00	8.903929e-06	
304	1.900000e+00	8.932160e-06	
305	1.950000e+00	8.954017e-06	
306	2.000000e+00	8.970919e-06	
307	2.050000e+00	8.984120e-06	
308	2.100000e+00	8.994615e-06	
309	2.150000e+00	9.003139e-06	
310	2.200000e+00	9.010216e-06	
311	2.250000e+00	9.016217e-06	
312	2.300000e+00	9.021401e-06	
313	2.350000e+00	9.025954e-06	
314	2.400000e+00	9.030009e-06	
315	2.450000e+00	9.033667e-06	
316	2.500000e+00	9.037001e-06	
317	2.550000e+00	9.040069e-06	
318	2.600000e+00	9.042913e-06	
319	2.650000e+00	9.045568e-06	
320	2.700000e+00	9.048062e-06	
321	2.750000e+00	9.050417e-06	
322	2.800000e+00	9.052651e-06	
323	2.850000e+00	9.054779e-06	
324	2.900000e+00	9.056813e-06	
325	2.950000e+00	9.058764e-06	
326	3.000000e+00	9.060641e-06	
327	3.050000e+00	9.062451e-06	
328	3.100000e+00	9.064200e-06	
329	3.150000e+00	9.065895e-06	
330	3.200000e+00	9.067540e-06	
331	3.250000e+00	9.069140e-06	
332	3.300000e+00	9.070698e-06	
333	3.350000e+00	9.072218e-06	
334	3.400000e+00	9.073702e-06	
335	3.450000e+00	9.075153e-06	
336	3.500000e+00	9.076574e-06	
337	3.550000e+00	9.077966e-06	
338	3.600000e+00	9.079332e-06	
339	3.650000e+00	9.080674e-06	
340	3.700000e+00	9.081992e-06	
341	3.750000e+00	9.083289e-06	
342	3.800000e+00	9.084566e-06	
343	3.850000e+00	9.085824e-06	
344	3.900000e+00	9.087064e-06	

Index   v-sweep         -i(vds)         
--------------------------------------------------------------------------------
345	3.950000e+00	9.088289e-06	
346	4.000000e+00	9.089499e-06	
347	4.050000e+00	9.090695e-06	
348	4.100000e+00	9.091880e-06	
349	4.150000e+00	9.093054e-06	
350	4.200000e+00	9.094221e-06	
351	4.250000e+00	9.095382e-06	
352	4.300000e+00	9.096540e-06	
353	4.350000e+00	9.097698e-06	
354	4.400000e+00	9.098860e-06	
355	4.450000e+00	9.100030e-06	
356	4.500000e+00	9.101213e-06	
357	4.550000e+00	9.102416e-06	
358	4.600000e+00	9.103644e-06	
359	4.650000e+00	9.104906e-06	
360	4.700000e+00	9.106210e-06	
361	4.750000e+00	9.107568e-06	
362	4.800000e+00	9.108991e-06	
363	4.850000e+00	9.110492e-06	
364	4.900000e+00	9.112087e-06	
365	4.950000e+00	9.113792e-06	
366	5.000000e+00	9.115626e-06	
367	5.050000e+00	9.117610e-06	
368	5.100000e+00	9.119767e-06	
369	5.150000e+00	9.122123e-06	
370	5.200000e+00	9.124706e-06	
371	5.250000e+00	9.127545e-06	
372	5.300000e+00	9.130674e-06	
373	5.350000e+00	9.134129e-06	
374	5.400000e+00	9.137948e-06	
375	5.450000e+00	9.142173e-06	
376	5.500000e+00	9.146849e-06	
377	5.550000e+00	9.152023e-06	
378	5.600000e+00	9.157746e-06	
379	5.650000e+00	9.164073e-06	
380	5.700000e+00	9.171061e-06	
381	5.750000e+00	9.178770e-06	
382	5.800000e+00	9.187265e-06	
383	5.850000e+00	9.196612e-06	
384	5.900000e+00	9.206883e-06	
385	5.950000e+00	9.218152e-06	
386	6.000000e+00	9.230497e-06	
387	6.050000e+00	9.243997e-06	
388	6.100000e+00	9.258738e-06	
389	6.150000e+00	9.274808e-06	
390	6.200000e+00	9.292296e-06	
391	6.250000e+00	9.311298e-06	
392	6.300000e+00	9.331910e-06	
393	6.350000e+00	9.354234e-06	
394	6.400000e+00	9.378372e-06	
395	6.450000e+00	9.404432e-06	
396	6.500000e+00	9.432524e-06	
397	6.550000e+00	9.462759e-06	
398	6.600000e+00	9.495254e-06	
399	0.000000e+00	-4.35538e-27	
400	5.000000e-02	5.986418e-07	
401	1.000000e-01	1.180736e-06	
402	1.500000e-01	1.749619e-06	

Index   v-sweep         -i(vds)         
--------------------------------------------------------------------------------
403	2.000000e-01	2.306183e-06	
404	2.500000e-01	2.850697e-06	
405	3.000000e-01	3.383275e-06	
406	3.500000e-01	3.903988e-06	
407	4.000000e-01	4.412897e-06	
408	4.500000e-01	4.910061e-06	
409	5.000000e-01	5.395538e-06	
410	5.500000e-01	5.869384e-06	
411	6.000000e-01	6.331657e-06	
412	6.500000e-01	6.782412e-06	
413	7.000000e-01	7.221705e-06	
414	7.500000e-01	7.649593e-06	
415	8.000000e-01	8.066129e-06	
416	8.500000e-01	8.471370e-06	
417	9.000000e-01	8.865369e-06	
418	9.500000e-01	9.248180e-06	
419	1.000000e+00	9.619858e-06	
420	1.050000e+00	9.980455e-06	
421	1.100000e+00	1.033002e-05	
422	1.150000e+00	1.066862e-05	
423	1.200000e+00	1.099629e-05	
424	1.250000e+00	1.131309e-05	
425	1.300000e+00	1.161908e-05	
426	1.350000e+00	1.191429e-05	
427	1.400000e+00	1.219879e-05	
428	1.450000e+00	1.247262e-05	
429	1.500000e+00	1.273583e-05	
430	1.550000e+00	1.298848e-05	
431	1.600000e+00	1.323061e-05	
432	1.650000e+00	1.346226e-05	
433	1.700000e+00	1.368349e-05	
434	1.750000e+00	1.389435e-05	
435	1.800000e+00	1.409487e-05	
436	1.850000e+00	1.428511e-05	
437	1.900000e+00	1.446510e-05	
438	1.950000e+00	1.463489e-05	
439	2.000000e+00	1.479453e-05	
440	2.050000e+00	1.494404e-05	
441	2.100000e+00	1.508348e-05	
442	2.150000e+00	1.521287e-05	
443	2.200000e+00	1.533225e-05	
444	2.250000e+00	1.544166e-05	
445	2.300000e+00	1.554114e-05	
446	2.350000e+00	1.563075e-05	
447	2.400000e+00	1.571057e-05	
448	2.450000e+00	1.578075e-05	
449	2.500000e+00	1.584153e-05	
450	2.550000e+00	1.589331e-05	
451	2.600000e+00	1.593672e-05	
452	2.650000e+00	1.597259e-05	
453	2.700000e+00	1.600196e-05	
454	2.750000e+00	1.602592e-05	
455	2.800000e+00	1.604555e-05	
456	2.850000e+00	1.606175e-05	
457	2.900000e+00	1.607530e-05	
458	2.950000e+00	1.608679e-05	
459	3.000000e+00	1.609665e-05	
460	3.050000e+00	1.610525e-05	

Index   v-sweep         -i(vds)         
--------------------------------------------------------------------------------
461	3.100000e+00	1.611284e-05	
462	3.150000e+00	1.611960e-05	
463	3.200000e+00	1.612570e-05	
464	3.250000e+00	1.613125e-05	
465	3.300000e+00	1.613633e-05	
466	3.350000e+00	1.614103e-05	
467	3.400000e+00	1.614540e-05	
468	3.450000e+00	1.614948e-05	
469	3.500000e+00	1.615332e-05	
470	3.550000e+00	1.615694e-05	
471	3.600000e+00	1.616037e-05	
472	3.650000e+00	1.616363e-05	
473	3.700000e+00	1.616675e-05	
474	3.750000e+00	1.616973e-05	
475	3.800000e+00	1.617259e-05	
476	3.850000e+00	1.617534e-05	
477	3.900000e+00	1.617799e-05	
478	3.950000e+00	1.618055e-05	
479	4.000000e+00	1.618304e-05	
480	4.050000e+00	1.618544e-05	
481	4.100000e+00	1.618778e-05	
482	4.150000e+00	1.619005e-05	
483	4.200000e+00	1.619227e-05	
484	4.250000e+00	1.619443e-05	
485	4.300000e+00	1.619654e-05	
486	4.350000e+00	1.619860e-05	
487	4.400000e+00	1.620061e-05	
488	4.450000e+00	1.620259e-05	
489	4.500000e+00	1.620453e-05	
490	4.550000e+00	1.620643e-05	
491	4.600000e+00	1.620830e-05	
492	4.650000e+00	1.621013e-05	
493	4.700000e+00	1.621194e-05	
494	4.750000e+00	1.621372e-05	
495	4.800000e+00	1.621548e-05	
496	4.850000e+00	1.621722e-05	
497	4.900000e+00	1.621894e-05	
498	4.950000e+00	1.622064e-05	
499	5.000000e+00	1.622234e-05	
500	5.050000e+00	1.622403e-05	
501	5.100000e+00	1.622572e-05	
502	5.150000e+00	1.622742e-05	
503	5.200000e+00	1.622914e-05	
504	5.250000e+00	1.623088e-05	
505	5.300000e+00	1.623265e-05	
506	5.350000e+00	1.623448e-05	
507	5.400000e+00	1.623636e-05	
508	5.450000e+00	1.623832e-05	
509	5.500000e+00	1.624038e-05	
510	5.550000e+00	1.624256e-05	
511	5.600000e+00	1.624488e-05	
512	5.650000e+00	1.624737e-05	
513	5.700000e+00	1.625006e-05	
514	5.750000e+00	1.625299e-05	
515	5.800000e+00	1.625618e-05	
516	5.850000e+00	1.625969e-05	
517	5.900000e+00	1.626356e-05	
518	5.950000e+00	1.626784e-05	

Index   v-sweep         -i(vds)         
--------------------------------------------------------------------------------
519	6.000000e+00	1.627258e-05	
520	6.050000e+00	1.627784e-05	
521	6.100000e+00	1.628369e-05	
522	6.150000e+00	1.629020e-05	
523	6.200000e+00	1.629744e-05	
524	6.250000e+00	1.630548e-05	
525	6.300000e+00	1.631443e-05	
526	6.350000e+00	1.632437e-05	
527	6.400000e+00	1.633538e-05	
528	6.450000e+00	1.634759e-05	
529	6.500000e+00	1.636109e-05	
530	6.550000e+00	1.637601e-05	
531	6.600000e+00	1.639245e-05	
532	0.000000e+00	4.228134e-21	
533	5.000000e-02	6.989289e-07	
534	1.000000e-01	1.382377e-06	
535	1.500000e-01	2.053661e-06	
536	2.000000e-01	2.713663e-06	
537	2.500000e-01	3.362642e-06	
538	3.000000e-01	4.000702e-06	
539	3.500000e-01	4.627906e-06	
540	4.000000e-01	5.244306e-06	
541	4.500000e-01	5.849952e-06	
542	5.000000e-01	6.444891e-06	
543	5.500000e-01	7.029173e-06	
544	6.000000e-01	7.602845e-06	
545	6.500000e-01	8.165955e-06	
546	7.000000e-01	8.718549e-06	
547	7.500000e-01	9.260675e-06	
548	8.000000e-01	9.792380e-06	
549	8.500000e-01	1.031371e-05	
550	9.000000e-01	1.082471e-05	
551	9.500000e-01	1.132543e-05	
552	1.000000e+00	1.181591e-05	
553	1.050000e+00	1.229619e-05	
554	1.100000e+00	1.276633e-05	
555	1.150000e+00	1.322637e-05	
556	1.200000e+00	1.367635e-05	
557	1.250000e+00	1.411632e-05	
558	1.300000e+00	1.454632e-05	
559	1.350000e+00	1.496639e-05	
560	1.400000e+00	1.537658e-05	
561	1.450000e+00	1.577693e-05	
562	1.500000e+00	1.616748e-05	
563	1.550000e+00	1.654828e-05	
564	1.600000e+00	1.691937e-05	
565	1.650000e+00	1.728080e-05	
566	1.700000e+00	1.763259e-05	
567	1.750000e+00	1.797480e-05	
568	1.800000e+00	1.830746e-05	
569	1.850000e+00	1.863062e-05	
570	1.900000e+00	1.894432e-05	
571	1.950000e+00	1.924860e-05	
572	2.000000e+00	1.954349e-05	
573	2.050000e+00	1.982904e-05	
574	2.100000e+00	2.010528e-05	
575	2.150000e+00	2.037226e-05	
576	2.200000e+00	2.063001e-05	

Index   v-sweep         -i(vds)         
--------------------------------------------------------------------------------
577	2.250000e+00	2.087856e-05	
578	2.300000e+00	2.111797e-05	
579	2.350000e+00	2.134826e-05	
580	2.400000e+00	2.156946e-05	
581	2.450000e+00	2.178162e-05	
582	2.500000e+00	2.198476e-05	
583	2.550000e+00	2.217891e-05	
584	2.600000e+00	2.236411e-05	
585	2.650000e+00	2.254039e-05	
586	2.700000e+00	2.270776e-05	
587	2.750000e+00	2.286626e-05	
588	2.800000e+00	2.301590e-05	
589	2.850000e+00	2.315669e-05	
590	2.900000e+00	2.328866e-05	
591	2.950000e+00	2.341179e-05	
592	3.000000e+00	2.352610e-05	
593	3.050000e+00	2.363158e-05	
594	3.100000e+00	2.372824e-05	
595	3.150000e+00	2.381608e-05	
596	3.200000e+00	2.389515e-05	
597	3.250000e+00	2.396556e-05	
598	3.300000e+00	2.402750e-05	
599	3.350000e+00	2.408132e-05	
600	3.400000e+00	2.412753e-05	
601	3.450000e+00	2.416683e-05	
602	3.500000e+00	2.420005e-05	
603	3.550000e+00	2.422809e-05	
604	3.600000e+00	2.425179e-05	
605	3.650000e+00	2.427195e-05	
606	3.700000e+00	2.428923e-05	
607	3.750000e+00	2.430419e-05	
608	3.800000e+00	2.431726e-05	
609	3.850000e+00	2.432880e-05	
610	3.900000e+00	2.433909e-05	
611	3.950000e+00	2.434833e-05	
612	4.000000e+00	2.435672e-05	
613	4.050000e+00	2.436437e-05	
614	4.100000e+00	2.437141e-05	
615	4.150000e+00	2.437793e-05	
616	4.200000e+00	2.438398e-05	
617	4.250000e+00	2.438965e-05	
618	4.300000e+00	2.439497e-05	
619	4.350000e+00	2.439999e-05	
620	4.400000e+00	2.440474e-05	
621	4.450000e+00	2.440925e-05	
622	4.500000e+00	2.441354e-05	
623	4.550000e+00	2.441765e-05	
624	4.600000e+00	2.442158e-05	
625	4.650000e+00	2.442536e-05	
626	4.700000e+00	2.442900e-05	
627	4.750000e+00	2.443250e-05	
628	4.800000e+00	2.443589e-05	
629	4.850000e+00	2.443916e-05	
630	4.900000e+00	2.444234e-05	
631	4.950000e+00	2.444542e-05	
632	5.000000e+00	2.444842e-05	
633	5.050000e+00	2.445133e-05	
634	5.100000e+00	2.445417e-05	

Index   v-sweep         -i(vds)         
--------------------------------------------------------------------------------
635	5.150000e+00	2.445695e-05	
636	5.200000e+00	2.445965e-05	
637	5.250000e+00	2.446230e-05	
638	5.300000e+00	2.446489e-05	
639	5.350000e+00	2.446743e-05	
640	5.400000e+00	2.446991e-05	
641	5.450000e+00	2.447236e-05	
642	5.500000e+00	2.447476e-05	
643	5.550000e+00	2.447712e-05	
644	5.600000e+00	2.447945e-05	
645	5.650000e+00	2.448175e-05	
646	5.700000e+00	2.448403e-05	
647	5.750000e+00	2.448629e-05	
648	5.800000e+00	2.448854e-05	
649	5.850000e+00	2.449079e-05	
650	5.900000e+00	2.449304e-05	
651	5.950000e+00	2.449531e-05	
652	6.000000e+00	2.449761e-05	
653	6.050000e+00	2.449995e-05	
654	6.100000e+00	2.450236e-05	
655	6.150000e+00	2.450486e-05	
656	6.200000e+00	2.450745e-05	
657	6.250000e+00	2.451018e-05	
658	6.300000e+00	2.451308e-05	
659	6.350000e+00	2.451617e-05	
660	6.400000e+00	2.451950e-05	
661	6.450000e+00	2.452311e-05	
662	6.500000e+00	2.452704e-05	
663	6.550000e+00	2.453136e-05	
664	6.600000e+00	2.453612e-05	
665	0.000000e+00	-3.69406e-26	
666	5.000000e-02	7.725677e-07	
667	1.000000e-01	1.530757e-06	
668	1.500000e-01	2.277868e-06	
669	2.000000e-01	3.014773e-06	
670	2.500000e-01	3.741723e-06	
671	3.000000e-01	4.458813e-06	
672	3.500000e-01	5.166097e-06	
673	4.000000e-01	5.863618e-06	
674	4.500000e-01	6.551418e-06	
675	5.000000e-01	7.229537e-06	
676	5.500000e-01	7.898014e-06	
677	6.000000e-01	8.556890e-06	
678	6.500000e-01	9.206202e-06	
679	7.000000e-01	9.845991e-06	
680	7.500000e-01	1.047629e-05	
681	8.000000e-01	1.109715e-05	
682	8.500000e-01	1.170860e-05	
683	9.000000e-01	1.231068e-05	
684	9.500000e-01	1.290343e-05	
685	1.000000e+00	1.348688e-05	
686	1.050000e+00	1.406108e-05	
687	1.100000e+00	1.462606e-05	
688	1.150000e+00	1.518186e-05	
689	1.200000e+00	1.572852e-05	
690	1.250000e+00	1.626606e-05	
691	1.300000e+00	1.679454e-05	
692	1.350000e+00	1.731398e-05	

Index   v-sweep         -i(vds)         
--------------------------------------------------------------------------------
693	1.400000e+00	1.782443e-05	
694	1.450000e+00	1.832591e-05	
695	1.500000e+00	1.881846e-05	
696	1.550000e+00	1.930213e-05	
697	1.600000e+00	1.977694e-05	
698	1.650000e+00	2.024293e-05	
699	1.700000e+00	2.070014e-05	
700	1.750000e+00	2.114860e-05	
701	1.800000e+00	2.158834e-05	
702	1.850000e+00	2.201940e-05	
703	1.900000e+00	2.244182e-05	
704	1.950000e+00	2.285563e-05	
705	2.000000e+00	2.326086e-05	
706	2.050000e+00	2.365754e-05	
707	2.100000e+00	2.404572e-05	
708	2.150000e+00	2.442541e-05	
709	2.200000e+00	2.479667e-05	
710	2.250000e+00	2.515951e-05	
711	2.300000e+00	2.551398e-05	
712	2.350000e+00	2.586010e-05	
713	2.400000e+00	2.619790e-05	
714	2.450000e+00	2.652743e-05	
715	2.500000e+00	2.684870e-05	
716	2.550000e+00	2.716176e-05	
717	2.600000e+00	2.746663e-05	
718	2.650000e+00	2.776334e-05	
719	2.700000e+00	2.805193e-05	
720	2.750000e+00	2.833242e-05	
721	2.800000e+00	2.860484e-05	
722	2.850000e+00	2.886923e-05	
723	2.900000e+00	2.912561e-05	
724	2.950000e+00	2.937402e-05	
725	3.000000e+00	2.961447e-05	
726	3.050000e+00	2.984699e-05	
727	3.100000e+00	3.007162e-05	
728	3.150000e+00	3.028837e-05	
729	3.200000e+00	3.049727e-05	
730	3.250000e+00	3.069834e-05	
731	3.300000e+00	3.089161e-05	
732	3.350000e+00	3.107708e-05	
733	3.400000e+00	3.125479e-05	
734	3.450000e+00	3.142474e-05	
735	3.500000e+00	3.158694e-05	
736	3.550000e+00	3.174140e-05	
737	3.600000e+00	3.188812e-05	
738	3.650000e+00	3.202709e-05	
739	3.700000e+00	3.215830e-05	
740	3.750000e+00	3.228174e-05	
741	3.800000e+00	3.239737e-05	
742	3.850000e+00	3.250517e-05	
743	3.900000e+00	3.260508e-05	
744	3.950000e+00	3.269709e-05	
745	4.000000e+00	3.278117e-05	
746	4.050000e+00	3.285735e-05	
747	4.100000e+00	3.292571e-05	
748	4.150000e+00	3.298645e-05	
749	4.200000e+00	3.303990e-05	
750	4.250000e+00	3.308654e-05	

Index   v-sweep         -i(vds)         
--------------------------------------------------------------------------------
751	4.300000e+00	3.312697e-05	
752	4.350000e+00	3.316189e-05	
753	4.400000e+00	3.319205e-05	
754	4.450000e+00	3.321814e-05	
755	4.500000e+00	3.324081e-05	
756	4.550000e+00	3.326064e-05	
757	4.600000e+00	3.327811e-05	
758	4.650000e+00	3.329361e-05	
759	4.700000e+00	3.330746e-05	
760	4.750000e+00	3.331995e-05	
761	4.800000e+00	3.333127e-05	
762	4.850000e+00	3.334160e-05	
763	4.900000e+00	3.335110e-05	
764	4.950000e+00	3.335987e-05	
765	5.000000e+00	3.336801e-05	
766	5.050000e+00	3.337561e-05	
767	5.100000e+00	3.338273e-05	
768	5.150000e+00	3.338943e-05	
769	5.200000e+00	3.339576e-05	
770	5.250000e+00	3.340175e-05	
771	5.300000e+00	3.340745e-05	
772	5.350000e+00	3.341287e-05	
773	5.400000e+00	3.341806e-05	
774	5.450000e+00	3.342303e-05	
775	5.500000e+00	3.342779e-05	
776	5.550000e+00	3.343238e-05	
777	5.600000e+00	3.343680e-05	
778	5.650000e+00	3.344106e-05	
779	5.700000e+00	3.344519e-05	
780	5.750000e+00	3.344918e-05	
781	5.800000e+00	3.345305e-05	
782	5.850000e+00	3.345682e-05	
783	5.900000e+00	3.346047e-05	
784	5.950000e+00	3.346403e-05	
785	6.000000e+00	3.346750e-05	
786	6.050000e+00	3.347089e-05	
787	6.100000e+00	3.347419e-05	
788	6.150000e+00	3.347743e-05	
789	6.200000e+00	3.348059e-05	
790	6.250000e+00	3.348369e-05	
791	6.300000e+00	3.348673e-05	
792	6.350000e+00	3.348972e-05	
793	6.400000e+00	3.349266e-05	
794	6.450000e+00	3.349556e-05	
795	6.500000e+00	3.349843e-05	
796	6.550000e+00	3.350127e-05	
797	6.600000e+00	3.350409e-05	
Note: No ".plot", ".print", or ".fourier" lines; no simulations run
