
Note: Compatibility modes selected: hs

Warning: m=xx on .subckt line will override multiplier m hierarchy!


Circuit: ***************************

Doing analysis at TEMP = 125.000000 and TNOM = 125.000000


No. of Data Rows : 798
                          ***************************
                          DC transfer characteristic  Mon Jan  9 13:58:37  2023
--------------------------------------------------------------------------------
Index   v-sweep         -i(vds)         
--------------------------------------------------------------------------------
0	0.000000e+00	-3.23775e-23	
1	5.000000e-02	5.637457e-08	
2	1.000000e-01	1.019949e-07	
3	1.500000e-01	1.402228e-07	
4	2.000000e-01	1.719331e-07	
5	2.500000e-01	1.973954e-07	
6	3.000000e-01	2.167761e-07	
7	3.500000e-01	2.303469e-07	
8	4.000000e-01	2.387282e-07	
9	4.500000e-01	2.431595e-07	
10	5.000000e-01	2.452647e-07	
11	5.500000e-01	2.462877e-07	
12	6.000000e-01	2.468497e-07	
13	6.500000e-01	2.472064e-07	
14	7.000000e-01	2.474629e-07	
15	7.500000e-01	2.476653e-07	
16	8.000000e-01	2.478361e-07	
17	8.500000e-01	2.479872e-07	
18	9.000000e-01	2.481252e-07	
19	9.500000e-01	2.482540e-07	
20	1.000000e+00	2.483762e-07	
21	1.050000e+00	2.484936e-07	
22	1.100000e+00	2.486071e-07	
23	1.150000e+00	2.487177e-07	
24	1.200000e+00	2.488259e-07	
25	1.250000e+00	2.489321e-07	
26	1.300000e+00	2.490368e-07	
27	1.350000e+00	2.491401e-07	
28	1.400000e+00	2.492422e-07	
29	1.450000e+00	2.493433e-07	
30	1.500000e+00	2.494436e-07	
31	1.550000e+00	2.495432e-07	
32	1.600000e+00	2.496420e-07	
33	1.650000e+00	2.497403e-07	
34	1.700000e+00	2.498380e-07	
35	1.750000e+00	2.499353e-07	
36	1.800000e+00	2.500322e-07	
37	1.850000e+00	2.501286e-07	
38	1.900000e+00	2.502247e-07	
39	1.950000e+00	2.503205e-07	
40	2.000000e+00	2.504160e-07	
41	2.050000e+00	2.505112e-07	
42	2.100000e+00	2.506062e-07	
43	2.150000e+00	2.507009e-07	
44	2.200000e+00	2.507954e-07	
45	2.250000e+00	2.508897e-07	
46	2.300000e+00	2.509839e-07	
47	2.350000e+00	2.510778e-07	
48	2.400000e+00	2.511716e-07	
49	2.450000e+00	2.512653e-07	
50	2.500000e+00	2.513588e-07	
51	2.550000e+00	2.514522e-07	
52	2.600000e+00	2.515456e-07	
53	2.650000e+00	2.516389e-07	
54	2.700000e+00	2.517322e-07	

Index   v-sweep         -i(vds)         
--------------------------------------------------------------------------------
55	2.750000e+00	2.518255e-07	
56	2.800000e+00	2.519188e-07	
57	2.850000e+00	2.520123e-07	
58	2.900000e+00	2.521060e-07	
59	2.950000e+00	2.522000e-07	
60	3.000000e+00	2.522943e-07	
61	3.050000e+00	2.523892e-07	
62	3.100000e+00	2.524847e-07	
63	3.150000e+00	2.525810e-07	
64	3.200000e+00	2.526784e-07	
65	3.250000e+00	2.527770e-07	
66	3.300000e+00	2.528772e-07	
67	3.350000e+00	2.529792e-07	
68	3.400000e+00	2.530833e-07	
69	3.450000e+00	2.531901e-07	
70	3.500000e+00	2.532998e-07	
71	3.550000e+00	2.534131e-07	
72	3.600000e+00	2.535304e-07	
73	3.650000e+00	2.536524e-07	
74	3.700000e+00	2.537797e-07	
75	3.750000e+00	2.539131e-07	
76	3.800000e+00	2.540534e-07	
77	3.850000e+00	2.542015e-07	
78	3.900000e+00	2.543584e-07	
79	3.950000e+00	2.545250e-07	
80	4.000000e+00	2.547024e-07	
81	4.050000e+00	2.548920e-07	
82	4.100000e+00	2.550949e-07	
83	4.150000e+00	2.553126e-07	
84	4.200000e+00	2.555465e-07	
85	4.250000e+00	2.557981e-07	
86	4.300000e+00	2.560691e-07	
87	4.350000e+00	2.563612e-07	
88	4.400000e+00	2.566763e-07	
89	4.450000e+00	2.570163e-07	
90	4.500000e+00	2.573831e-07	
91	4.550000e+00	2.577789e-07	
92	4.600000e+00	2.582060e-07	
93	4.650000e+00	2.586665e-07	
94	4.700000e+00	2.591629e-07	
95	4.750000e+00	2.596978e-07	
96	4.800000e+00	2.602735e-07	
97	4.850000e+00	2.608929e-07	
98	4.900000e+00	2.615587e-07	
99	4.950000e+00	2.622737e-07	
100	5.000000e+00	2.630409e-07	
101	5.050000e+00	2.638632e-07	
102	5.100000e+00	2.647439e-07	
103	5.150000e+00	2.656860e-07	
104	5.200000e+00	2.666929e-07	
105	5.250000e+00	2.677679e-07	
106	5.300000e+00	2.689144e-07	
107	5.350000e+00	2.701358e-07	
108	5.400000e+00	2.714359e-07	
109	5.450000e+00	2.728181e-07	
110	5.500000e+00	2.742863e-07	
111	5.550000e+00	2.758440e-07	
112	5.600000e+00	2.774953e-07	

Index   v-sweep         -i(vds)         
--------------------------------------------------------------------------------
113	5.650000e+00	2.792439e-07	
114	5.700000e+00	2.810938e-07	
115	5.750000e+00	2.830489e-07	
116	5.800000e+00	2.851134e-07	
117	5.850000e+00	2.872913e-07	
118	5.900000e+00	2.895866e-07	
119	5.950000e+00	2.920037e-07	
120	6.000000e+00	2.945466e-07	
121	6.050000e+00	2.972197e-07	
122	6.100000e+00	3.000272e-07	
123	6.150000e+00	3.029733e-07	
124	6.200000e+00	3.060626e-07	
125	6.250000e+00	3.092992e-07	
126	6.300000e+00	3.126876e-07	
127	6.350000e+00	3.162322e-07	
128	6.400000e+00	3.199374e-07	
129	6.450000e+00	3.238077e-07	
130	6.500000e+00	3.278474e-07	
131	6.550000e+00	3.320611e-07	
132	6.600000e+00	3.364531e-07	
133	0.000000e+00	-1.87186e-22	
134	5.000000e-02	1.534301e-07	
135	1.000000e-01	2.959945e-07	
136	1.500000e-01	4.310364e-07	
137	2.000000e-01	5.594115e-07	
138	2.500000e-01	6.813499e-07	
139	3.000000e-01	7.969237e-07	
140	3.500000e-01	9.061656e-07	
141	4.000000e-01	1.009098e-06	
142	4.500000e-01	1.105743e-06	
143	5.000000e-01	1.196118e-06	
144	5.500000e-01	1.280244e-06	
145	6.000000e-01	1.358143e-06	
146	6.500000e-01	1.429835e-06	
147	7.000000e-01	1.495343e-06	
148	7.500000e-01	1.554693e-06	
149	8.000000e-01	1.607913e-06	
150	8.500000e-01	1.655039e-06	
151	9.000000e-01	1.696119e-06	
152	9.500000e-01	1.731221e-06	
153	1.000000e+00	1.760456e-06	
154	1.050000e+00	1.784009e-06	
155	1.100000e+00	1.802201e-06	
156	1.150000e+00	1.815565e-06	
157	1.200000e+00	1.824891e-06	
158	1.250000e+00	1.831155e-06	
159	1.300000e+00	1.835314e-06	
160	1.350000e+00	1.838128e-06	
161	1.400000e+00	1.840108e-06	
162	1.450000e+00	1.841572e-06	
163	1.500000e+00	1.842708e-06	
164	1.550000e+00	1.843629e-06	
165	1.600000e+00	1.844402e-06	
166	1.650000e+00	1.845073e-06	
167	1.700000e+00	1.845668e-06	
168	1.750000e+00	1.846208e-06	
169	1.800000e+00	1.846704e-06	
170	1.850000e+00	1.847167e-06	

Index   v-sweep         -i(vds)         
--------------------------------------------------------------------------------
171	1.900000e+00	1.847604e-06	
172	1.950000e+00	1.848018e-06	
173	2.000000e+00	1.848415e-06	
174	2.050000e+00	1.848797e-06	
175	2.100000e+00	1.849166e-06	
176	2.150000e+00	1.849524e-06	
177	2.200000e+00	1.849874e-06	
178	2.250000e+00	1.850215e-06	
179	2.300000e+00	1.850549e-06	
180	2.350000e+00	1.850877e-06	
181	2.400000e+00	1.851200e-06	
182	2.450000e+00	1.851517e-06	
183	2.500000e+00	1.851831e-06	
184	2.550000e+00	1.852140e-06	
185	2.600000e+00	1.852446e-06	
186	2.650000e+00	1.852748e-06	
187	2.700000e+00	1.853048e-06	
188	2.750000e+00	1.853344e-06	
189	2.800000e+00	1.853639e-06	
190	2.850000e+00	1.853931e-06	
191	2.900000e+00	1.854220e-06	
192	2.950000e+00	1.854508e-06	
193	3.000000e+00	1.854794e-06	
194	3.050000e+00	1.855079e-06	
195	3.100000e+00	1.855361e-06	
196	3.150000e+00	1.855643e-06	
197	3.200000e+00	1.855923e-06	
198	3.250000e+00	1.856202e-06	
199	3.300000e+00	1.856480e-06	
200	3.350000e+00	1.856757e-06	
201	3.400000e+00	1.857033e-06	
202	3.450000e+00	1.857309e-06	
203	3.500000e+00	1.857586e-06	
204	3.550000e+00	1.857862e-06	
205	3.600000e+00	1.858139e-06	
206	3.650000e+00	1.858417e-06	
207	3.700000e+00	1.858698e-06	
208	3.750000e+00	1.858980e-06	
209	3.800000e+00	1.859267e-06	
210	3.850000e+00	1.859558e-06	
211	3.900000e+00	1.859855e-06	
212	3.950000e+00	1.860159e-06	
213	4.000000e+00	1.860472e-06	
214	4.050000e+00	1.860796e-06	
215	4.100000e+00	1.861134e-06	
216	4.150000e+00	1.861487e-06	
217	4.200000e+00	1.861858e-06	
218	4.250000e+00	1.862252e-06	
219	4.300000e+00	1.862671e-06	
220	4.350000e+00	1.863119e-06	
221	4.400000e+00	1.863602e-06	
222	4.450000e+00	1.864123e-06	
223	4.500000e+00	1.864689e-06	
224	4.550000e+00	1.865305e-06	
225	4.600000e+00	1.865978e-06	
226	4.650000e+00	1.866715e-06	
227	4.700000e+00	1.867523e-06	
228	4.750000e+00	1.868411e-06	

Index   v-sweep         -i(vds)         
--------------------------------------------------------------------------------
229	4.800000e+00	1.869387e-06	
230	4.850000e+00	1.870462e-06	
231	4.900000e+00	1.871644e-06	
232	4.950000e+00	1.872946e-06	
233	5.000000e+00	1.874377e-06	
234	5.050000e+00	1.875951e-06	
235	5.100000e+00	1.877680e-06	
236	5.150000e+00	1.879577e-06	
237	5.200000e+00	1.881657e-06	
238	5.250000e+00	1.883935e-06	
239	5.300000e+00	1.886426e-06	
240	5.350000e+00	1.889146e-06	
241	5.400000e+00	1.892113e-06	
242	5.450000e+00	1.895343e-06	
243	5.500000e+00	1.898855e-06	
244	5.550000e+00	1.902669e-06	
245	5.600000e+00	1.906804e-06	
246	5.650000e+00	1.911280e-06	
247	5.700000e+00	1.916117e-06	
248	5.750000e+00	1.921339e-06	
249	5.800000e+00	1.926967e-06	
250	5.850000e+00	1.933023e-06	
251	5.900000e+00	1.939532e-06	
252	5.950000e+00	1.946517e-06	
253	6.000000e+00	1.954002e-06	
254	6.050000e+00	1.962014e-06	
255	6.100000e+00	1.970577e-06	
256	6.150000e+00	1.979718e-06	
257	6.200000e+00	1.989463e-06	
258	6.250000e+00	1.999840e-06	
259	6.300000e+00	2.010876e-06	
260	6.350000e+00	2.022599e-06	
261	6.400000e+00	2.035037e-06	
262	6.450000e+00	2.048220e-06	
263	6.500000e+00	2.062176e-06	
264	6.550000e+00	2.076935e-06	
265	6.600000e+00	2.092527e-06	
266	0.000000e+00	7.325622e-22	
267	5.000000e-02	2.353179e-07	
268	1.000000e-01	4.601684e-07	
269	1.500000e-01	6.778842e-07	
270	2.000000e-01	8.893185e-07	
271	2.500000e-01	1.094699e-06	
272	3.000000e-01	1.294096e-06	
273	3.500000e-01	1.487541e-06	
274	4.000000e-01	1.675053e-06	
275	4.500000e-01	1.856651e-06	
276	5.000000e-01	2.032352e-06	
277	5.500000e-01	2.202172e-06	
278	6.000000e-01	2.366130e-06	
279	6.500000e-01	2.524241e-06	
280	7.000000e-01	2.676522e-06	
281	7.500000e-01	2.822991e-06	
282	8.000000e-01	2.963664e-06	
283	8.500000e-01	3.098556e-06	
284	9.000000e-01	3.227686e-06	
285	9.500000e-01	3.351070e-06	
286	1.000000e+00	3.468724e-06	

Index   v-sweep         -i(vds)         
--------------------------------------------------------------------------------
287	1.050000e+00	3.580664e-06	
288	1.100000e+00	3.686907e-06	
289	1.150000e+00	3.787470e-06	
290	1.200000e+00	3.882370e-06	
291	1.250000e+00	3.971623e-06	
292	1.300000e+00	4.055246e-06	
293	1.350000e+00	4.133257e-06	
294	1.400000e+00	4.205675e-06	
295	1.450000e+00	4.272520e-06	
296	1.500000e+00	4.333812e-06	
297	1.550000e+00	4.389578e-06	
298	1.600000e+00	4.439848e-06	
299	1.650000e+00	4.484663e-06	
300	1.700000e+00	4.524080e-06	
301	1.750000e+00	4.558183e-06	
302	1.800000e+00	4.587106e-06	
303	1.850000e+00	4.611056e-06	
304	1.900000e+00	4.630353e-06	
305	1.950000e+00	4.645462e-06	
306	2.000000e+00	4.656990e-06	
307	2.050000e+00	4.665635e-06	
308	2.100000e+00	4.672086e-06	
309	2.150000e+00	4.676940e-06	
310	2.200000e+00	4.680662e-06	
311	2.250000e+00	4.683586e-06	
312	2.300000e+00	4.685947e-06	
313	2.350000e+00	4.687902e-06	
314	2.400000e+00	4.689561e-06	
315	2.450000e+00	4.690999e-06	
316	2.500000e+00	4.692269e-06	
317	2.550000e+00	4.693408e-06	
318	2.600000e+00	4.694444e-06	
319	2.650000e+00	4.695398e-06	
320	2.700000e+00	4.696285e-06	
321	2.750000e+00	4.697117e-06	
322	2.800000e+00	4.697902e-06	
323	2.850000e+00	4.698648e-06	
324	2.900000e+00	4.699361e-06	
325	2.950000e+00	4.700045e-06	
326	3.000000e+00	4.700705e-06	
327	3.050000e+00	4.701343e-06	
328	3.100000e+00	4.701962e-06	
329	3.150000e+00	4.702564e-06	
330	3.200000e+00	4.703151e-06	
331	3.250000e+00	4.703725e-06	
332	3.300000e+00	4.704287e-06	
333	3.350000e+00	4.704838e-06	
334	3.400000e+00	4.705379e-06	
335	3.450000e+00	4.705910e-06	
336	3.500000e+00	4.706434e-06	
337	3.550000e+00	4.706951e-06	
338	3.600000e+00	4.707460e-06	
339	3.650000e+00	4.707963e-06	
340	3.700000e+00	4.708460e-06	
341	3.750000e+00	4.708952e-06	
342	3.800000e+00	4.709439e-06	
343	3.850000e+00	4.709921e-06	
344	3.900000e+00	4.710399e-06	

Index   v-sweep         -i(vds)         
--------------------------------------------------------------------------------
345	3.950000e+00	4.710872e-06	
346	4.000000e+00	4.711343e-06	
347	4.050000e+00	4.711810e-06	
348	4.100000e+00	4.712275e-06	
349	4.150000e+00	4.712737e-06	
350	4.200000e+00	4.713198e-06	
351	4.250000e+00	4.713658e-06	
352	4.300000e+00	4.714117e-06	
353	4.350000e+00	4.714578e-06	
354	4.400000e+00	4.715041e-06	
355	4.450000e+00	4.715507e-06	
356	4.500000e+00	4.715978e-06	
357	4.550000e+00	4.716456e-06	
358	4.600000e+00	4.716944e-06	
359	4.650000e+00	4.717445e-06	
360	4.700000e+00	4.717961e-06	
361	4.750000e+00	4.718497e-06	
362	4.800000e+00	4.719057e-06	
363	4.850000e+00	4.719646e-06	
364	4.900000e+00	4.720271e-06	
365	4.950000e+00	4.720937e-06	
366	5.000000e+00	4.721653e-06	
367	5.050000e+00	4.722427e-06	
368	5.100000e+00	4.723269e-06	
369	5.150000e+00	4.724188e-06	
370	5.200000e+00	4.725198e-06	
371	5.250000e+00	4.726310e-06	
372	5.300000e+00	4.727539e-06	
373	5.350000e+00	4.728901e-06	
374	5.400000e+00	4.730412e-06	
375	5.450000e+00	4.732090e-06	
376	5.500000e+00	4.733955e-06	
377	5.550000e+00	4.736029e-06	
378	5.600000e+00	4.738335e-06	
379	5.650000e+00	4.740896e-06	
380	5.700000e+00	4.743738e-06	
381	5.750000e+00	4.746891e-06	
382	5.800000e+00	4.750382e-06	
383	5.850000e+00	4.754244e-06	
384	5.900000e+00	4.758508e-06	
385	5.950000e+00	4.763210e-06	
386	6.000000e+00	4.768385e-06	
387	6.050000e+00	4.774073e-06	
388	6.100000e+00	4.780313e-06	
389	6.150000e+00	4.787146e-06	
390	6.200000e+00	4.794616e-06	
391	6.250000e+00	4.802767e-06	
392	6.300000e+00	4.811648e-06	
393	6.350000e+00	4.821306e-06	
394	6.400000e+00	4.831791e-06	
395	6.450000e+00	4.843155e-06	
396	6.500000e+00	4.855452e-06	
397	6.550000e+00	4.868737e-06	
398	6.600000e+00	4.883067e-06	
399	0.000000e+00	1.855080e-21	
400	5.000000e-02	3.013369e-07	
401	1.000000e-01	5.927189e-07	
402	1.500000e-01	8.774695e-07	

Index   v-sweep         -i(vds)         
--------------------------------------------------------------------------------
403	2.000000e-01	1.156439e-06	
404	2.500000e-01	1.429852e-06	
405	3.000000e-01	1.697777e-06	
406	3.500000e-01	1.960243e-06	
407	4.000000e-01	2.217267e-06	
408	4.500000e-01	2.468865e-06	
409	5.000000e-01	2.715052e-06	
410	5.500000e-01	2.955842e-06	
411	6.000000e-01	3.191250e-06	
412	6.500000e-01	3.421290e-06	
413	7.000000e-01	3.645977e-06	
414	7.500000e-01	3.865325e-06	
415	8.000000e-01	4.079349e-06	
416	8.500000e-01	4.288062e-06	
417	9.000000e-01	4.491480e-06	
418	9.500000e-01	4.689615e-06	
419	1.000000e+00	4.882483e-06	
420	1.050000e+00	5.070096e-06	
421	1.100000e+00	5.252470e-06	
422	1.150000e+00	5.429618e-06	
423	1.200000e+00	5.601554e-06	
424	1.250000e+00	5.768292e-06	
425	1.300000e+00	5.929846e-06	
426	1.350000e+00	6.086228e-06	
427	1.400000e+00	6.237454e-06	
428	1.450000e+00	6.383536e-06	
429	1.500000e+00	6.524487e-06	
430	1.550000e+00	6.660323e-06	
431	1.600000e+00	6.791055e-06	
432	1.650000e+00	6.916697e-06	
433	1.700000e+00	7.037262e-06	
434	1.750000e+00	7.152763e-06	
435	1.800000e+00	7.263214e-06	
436	1.850000e+00	7.368628e-06	
437	1.900000e+00	7.469017e-06	
438	1.950000e+00	7.564393e-06	
439	2.000000e+00	7.654771e-06	
440	2.050000e+00	7.740163e-06	
441	2.100000e+00	7.820582e-06	
442	2.150000e+00	7.896041e-06	
443	2.200000e+00	7.966553e-06	
444	2.250000e+00	8.032133e-06	
445	2.300000e+00	8.092798e-06	
446	2.350000e+00	8.148564e-06	
447	2.400000e+00	8.199455e-06	
448	2.450000e+00	8.245501e-06	
449	2.500000e+00	8.286743e-06	
450	2.550000e+00	8.323244e-06	
451	2.600000e+00	8.355098e-06	
452	2.650000e+00	8.382448e-06	
453	2.700000e+00	8.405512e-06	
454	2.750000e+00	8.424598e-06	
455	2.800000e+00	8.440112e-06	
456	2.850000e+00	8.452546e-06	
457	2.900000e+00	8.462432e-06	
458	2.950000e+00	8.470286e-06	
459	3.000000e+00	8.476567e-06	
460	3.050000e+00	8.481650e-06	

Index   v-sweep         -i(vds)         
--------------------------------------------------------------------------------
461	3.100000e+00	8.485826e-06	
462	3.150000e+00	8.489316e-06	
463	3.200000e+00	8.492283e-06	
464	3.250000e+00	8.494847e-06	
465	3.300000e+00	8.497096e-06	
466	3.350000e+00	8.499096e-06	
467	3.400000e+00	8.500897e-06	
468	3.450000e+00	8.502536e-06	
469	3.500000e+00	8.504043e-06	
470	3.550000e+00	8.505439e-06	
471	3.600000e+00	8.506742e-06	
472	3.650000e+00	8.507968e-06	
473	3.700000e+00	8.509126e-06	
474	3.750000e+00	8.510227e-06	
475	3.800000e+00	8.511277e-06	
476	3.850000e+00	8.512284e-06	
477	3.900000e+00	8.513252e-06	
478	3.950000e+00	8.514186e-06	
479	4.000000e+00	8.515090e-06	
480	4.050000e+00	8.515967e-06	
481	4.100000e+00	8.516820e-06	
482	4.150000e+00	8.517650e-06	
483	4.200000e+00	8.518461e-06	
484	4.250000e+00	8.519253e-06	
485	4.300000e+00	8.520030e-06	
486	4.350000e+00	8.520790e-06	
487	4.400000e+00	8.521538e-06	
488	4.450000e+00	8.522272e-06	
489	4.500000e+00	8.522994e-06	
490	4.550000e+00	8.523706e-06	
491	4.600000e+00	8.524408e-06	
492	4.650000e+00	8.525100e-06	
493	4.700000e+00	8.525784e-06	
494	4.750000e+00	8.526460e-06	
495	4.800000e+00	8.527129e-06	
496	4.850000e+00	8.527791e-06	
497	4.900000e+00	8.528448e-06	
498	4.950000e+00	8.529100e-06	
499	5.000000e+00	8.529748e-06	
500	5.050000e+00	8.530394e-06	
501	5.100000e+00	8.531038e-06	
502	5.150000e+00	8.531683e-06	
503	5.200000e+00	8.532331e-06	
504	5.250000e+00	8.532984e-06	
505	5.300000e+00	8.533644e-06	
506	5.350000e+00	8.534315e-06	
507	5.400000e+00	8.535002e-06	
508	5.450000e+00	8.535709e-06	
509	5.500000e+00	8.536442e-06	
510	5.550000e+00	8.537208e-06	
511	5.600000e+00	8.538014e-06	
512	5.650000e+00	8.538868e-06	
513	5.700000e+00	8.539782e-06	
514	5.750000e+00	8.540767e-06	
515	5.800000e+00	8.541836e-06	
516	5.850000e+00	8.543003e-06	
517	5.900000e+00	8.544285e-06	
518	5.950000e+00	8.545700e-06	

Index   v-sweep         -i(vds)         
--------------------------------------------------------------------------------
519	6.000000e+00	8.547269e-06	
520	6.050000e+00	8.549014e-06	
521	6.100000e+00	8.550959e-06	
522	6.150000e+00	8.553133e-06	
523	6.200000e+00	8.555564e-06	
524	6.250000e+00	8.558284e-06	
525	6.300000e+00	8.561328e-06	
526	6.350000e+00	8.564732e-06	
527	6.400000e+00	8.568539e-06	
528	6.450000e+00	8.572789e-06	
529	6.500000e+00	8.577529e-06	
530	6.550000e+00	8.582808e-06	
531	6.600000e+00	8.588678e-06	
532	0.000000e+00	2.238539e-21	
533	5.000000e-02	3.522997e-07	
534	1.000000e-01	6.951920e-07	
535	1.500000e-01	1.031993e-06	
536	2.000000e-01	1.363548e-06	
537	2.500000e-01	1.690083e-06	
538	3.000000e-01	2.011661e-06	
539	3.500000e-01	2.328308e-06	
540	4.000000e-01	2.640041e-06	
541	4.500000e-01	2.946873e-06	
542	5.000000e-01	3.248815e-06	
543	5.500000e-01	3.545880e-06	
544	6.000000e-01	3.838080e-06	
545	6.500000e-01	4.125428e-06	
546	7.000000e-01	4.407934e-06	
547	7.500000e-01	4.685612e-06	
548	8.000000e-01	4.958473e-06	
549	8.500000e-01	5.226530e-06	
550	9.000000e-01	5.489793e-06	
551	9.500000e-01	5.748275e-06	
552	1.000000e+00	6.001988e-06	
553	1.050000e+00	6.250944e-06	
554	1.100000e+00	6.495153e-06	
555	1.150000e+00	6.734628e-06	
556	1.200000e+00	6.969381e-06	
557	1.250000e+00	7.199423e-06	
558	1.300000e+00	7.424765e-06	
559	1.350000e+00	7.645420e-06	
560	1.400000e+00	7.861398e-06	
561	1.450000e+00	8.072711e-06	
562	1.500000e+00	8.279371e-06	
563	1.550000e+00	8.481389e-06	
564	1.600000e+00	8.678775e-06	
565	1.650000e+00	8.871542e-06	
566	1.700000e+00	9.059701e-06	
567	1.750000e+00	9.243262e-06	
568	1.800000e+00	9.422237e-06	
569	1.850000e+00	9.596637e-06	
570	1.900000e+00	9.766473e-06	
571	1.950000e+00	9.931756e-06	
572	2.000000e+00	1.009250e-05	
573	2.050000e+00	1.024871e-05	
574	2.100000e+00	1.040040e-05	
575	2.150000e+00	1.054757e-05	
576	2.200000e+00	1.069025e-05	

Index   v-sweep         -i(vds)         
--------------------------------------------------------------------------------
577	2.250000e+00	1.082845e-05	
578	2.300000e+00	1.096216e-05	
579	2.350000e+00	1.109140e-05	
580	2.400000e+00	1.121619e-05	
581	2.450000e+00	1.133653e-05	
582	2.500000e+00	1.145243e-05	
583	2.550000e+00	1.156391e-05	
584	2.600000e+00	1.167097e-05	
585	2.650000e+00	1.177362e-05	
586	2.700000e+00	1.187187e-05	
587	2.750000e+00	1.196573e-05	
588	2.800000e+00	1.205522e-05	
589	2.850000e+00	1.214033e-05	
590	2.900000e+00	1.222108e-05	
591	2.950000e+00	1.229747e-05	
592	3.000000e+00	1.236952e-05	
593	3.050000e+00	1.243723e-05	
594	3.100000e+00	1.250061e-05	
595	3.150000e+00	1.255966e-05	
596	3.200000e+00	1.261441e-05	
597	3.250000e+00	1.266487e-05	
598	3.300000e+00	1.271104e-05	
599	3.350000e+00	1.275296e-05	
600	3.400000e+00	1.279068e-05	
601	3.450000e+00	1.282424e-05	
602	3.500000e+00	1.285376e-05	
603	3.550000e+00	1.287939e-05	
604	3.600000e+00	1.290132e-05	
605	3.650000e+00	1.291985e-05	
606	3.700000e+00	1.293534e-05	
607	3.750000e+00	1.294817e-05	
608	3.800000e+00	1.295877e-05	
609	3.850000e+00	1.296753e-05	
610	3.900000e+00	1.297481e-05	
611	3.950000e+00	1.298092e-05	
612	4.000000e+00	1.298610e-05	
613	4.050000e+00	1.299053e-05	
614	4.100000e+00	1.299439e-05	
615	4.150000e+00	1.299777e-05	
616	4.200000e+00	1.300078e-05	
617	4.250000e+00	1.300348e-05	
618	4.300000e+00	1.300592e-05	
619	4.350000e+00	1.300816e-05	
620	4.400000e+00	1.301022e-05	
621	4.450000e+00	1.301213e-05	
622	4.500000e+00	1.301391e-05	
623	4.550000e+00	1.301559e-05	
624	4.600000e+00	1.301717e-05	
625	4.650000e+00	1.301867e-05	
626	4.700000e+00	1.302010e-05	
627	4.750000e+00	1.302146e-05	
628	4.800000e+00	1.302277e-05	
629	4.850000e+00	1.302403e-05	
630	4.900000e+00	1.302525e-05	
631	4.950000e+00	1.302642e-05	
632	5.000000e+00	1.302756e-05	
633	5.050000e+00	1.302867e-05	
634	5.100000e+00	1.302974e-05	

Index   v-sweep         -i(vds)         
--------------------------------------------------------------------------------
635	5.150000e+00	1.303079e-05	
636	5.200000e+00	1.303182e-05	
637	5.250000e+00	1.303282e-05	
638	5.300000e+00	1.303380e-05	
639	5.350000e+00	1.303476e-05	
640	5.400000e+00	1.303571e-05	
641	5.450000e+00	1.303663e-05	
642	5.500000e+00	1.303755e-05	
643	5.550000e+00	1.303844e-05	
644	5.600000e+00	1.303933e-05	
645	5.650000e+00	1.304020e-05	
646	5.700000e+00	1.304106e-05	
647	5.750000e+00	1.304192e-05	
648	5.800000e+00	1.304276e-05	
649	5.850000e+00	1.304360e-05	
650	5.900000e+00	1.304443e-05	
651	5.950000e+00	1.304526e-05	
652	6.000000e+00	1.304609e-05	
653	6.050000e+00	1.304693e-05	
654	6.100000e+00	1.304777e-05	
655	6.150000e+00	1.304862e-05	
656	6.200000e+00	1.304948e-05	
657	6.250000e+00	1.305037e-05	
658	6.300000e+00	1.305128e-05	
659	6.350000e+00	1.305223e-05	
660	6.400000e+00	1.305323e-05	
661	6.450000e+00	1.305429e-05	
662	6.500000e+00	1.305541e-05	
663	6.550000e+00	1.305663e-05	
664	6.600000e+00	1.305794e-05	
665	0.000000e+00	-9.65086e-22	
666	5.000000e-02	3.899916e-07	
667	1.000000e-01	7.711176e-07	
668	1.500000e-01	1.146688e-06	
669	2.000000e-01	1.517546e-06	
670	2.500000e-01	1.883914e-06	
671	3.000000e-01	2.245853e-06	
672	3.500000e-01	2.603389e-06	
673	4.000000e-01	2.956534e-06	
674	4.500000e-01	3.305300e-06	
675	5.000000e-01	3.649695e-06	
676	5.500000e-01	3.989731e-06	
677	6.000000e-01	4.325418e-06	
678	6.500000e-01	4.656764e-06	
679	7.000000e-01	4.983781e-06	
680	7.500000e-01	5.306477e-06	
681	8.000000e-01	5.624864e-06	
682	8.500000e-01	5.938949e-06	
683	9.000000e-01	6.248744e-06	
684	9.500000e-01	6.554258e-06	
685	1.000000e+00	6.855500e-06	
686	1.050000e+00	7.152480e-06	
687	1.100000e+00	7.445208e-06	
688	1.150000e+00	7.733694e-06	
689	1.200000e+00	8.017947e-06	
690	1.250000e+00	8.297976e-06	
691	1.300000e+00	8.573791e-06	
692	1.350000e+00	8.845401e-06	

Index   v-sweep         -i(vds)         
--------------------------------------------------------------------------------
693	1.400000e+00	9.112817e-06	
694	1.450000e+00	9.376047e-06	
695	1.500000e+00	9.635101e-06	
696	1.550000e+00	9.889987e-06	
697	1.600000e+00	1.014072e-05	
698	1.650000e+00	1.038730e-05	
699	1.700000e+00	1.062974e-05	
700	1.750000e+00	1.086805e-05	
701	1.800000e+00	1.110224e-05	
702	1.850000e+00	1.133232e-05	
703	1.900000e+00	1.155830e-05	
704	1.950000e+00	1.178019e-05	
705	2.000000e+00	1.199799e-05	
706	2.050000e+00	1.221171e-05	
707	2.100000e+00	1.242137e-05	
708	2.150000e+00	1.262698e-05	
709	2.200000e+00	1.282853e-05	
710	2.250000e+00	1.302605e-05	
711	2.300000e+00	1.321954e-05	
712	2.350000e+00	1.340900e-05	
713	2.400000e+00	1.359445e-05	
714	2.450000e+00	1.377590e-05	
715	2.500000e+00	1.395336e-05	
716	2.550000e+00	1.412682e-05	
717	2.600000e+00	1.429631e-05	
718	2.650000e+00	1.446183e-05	
719	2.700000e+00	1.462339e-05	
720	2.750000e+00	1.478100e-05	
721	2.800000e+00	1.493467e-05	
722	2.850000e+00	1.508440e-05	
723	2.900000e+00	1.523020e-05	
724	2.950000e+00	1.537209e-05	
725	3.000000e+00	1.551006e-05	
726	3.050000e+00	1.564413e-05	
727	3.100000e+00	1.577431e-05	
728	3.150000e+00	1.590060e-05	
729	3.200000e+00	1.602302e-05	
730	3.250000e+00	1.614156e-05	
731	3.300000e+00	1.625624e-05	
732	3.350000e+00	1.636706e-05	
733	3.400000e+00	1.647404e-05	
734	3.450000e+00	1.657717e-05	
735	3.500000e+00	1.667647e-05	
736	3.550000e+00	1.677194e-05	
737	3.600000e+00	1.686359e-05	
738	3.650000e+00	1.695142e-05	
739	3.700000e+00	1.703544e-05	
740	3.750000e+00	1.711565e-05	
741	3.800000e+00	1.719207e-05	
742	3.850000e+00	1.726469e-05	
743	3.900000e+00	1.733351e-05	
744	3.950000e+00	1.739854e-05	
745	4.000000e+00	1.745979e-05	
746	4.050000e+00	1.751725e-05	
747	4.100000e+00	1.757093e-05	
748	4.150000e+00	1.762083e-05	
749	4.200000e+00	1.766696e-05	
750	4.250000e+00	1.770934e-05	

Index   v-sweep         -i(vds)         
--------------------------------------------------------------------------------
751	4.300000e+00	1.774798e-05	
752	4.350000e+00	1.778293e-05	
753	4.400000e+00	1.781424e-05	
754	4.450000e+00	1.784202e-05	
755	4.500000e+00	1.786640e-05	
756	4.550000e+00	1.788758e-05	
757	4.600000e+00	1.790581e-05	
758	4.650000e+00	1.792137e-05	
759	4.700000e+00	1.793460e-05	
760	4.750000e+00	1.794582e-05	
761	4.800000e+00	1.795536e-05	
762	4.850000e+00	1.796350e-05	
763	4.900000e+00	1.797050e-05	
764	4.950000e+00	1.797655e-05	
765	5.000000e+00	1.798184e-05	
766	5.050000e+00	1.798650e-05	
767	5.100000e+00	1.799065e-05	
768	5.150000e+00	1.799437e-05	
769	5.200000e+00	1.799773e-05	
770	5.250000e+00	1.800080e-05	
771	5.300000e+00	1.800361e-05	
772	5.350000e+00	1.800622e-05	
773	5.400000e+00	1.800864e-05	
774	5.450000e+00	1.801090e-05	
775	5.500000e+00	1.801302e-05	
776	5.550000e+00	1.801503e-05	
777	5.600000e+00	1.801693e-05	
778	5.650000e+00	1.801874e-05	
779	5.700000e+00	1.802046e-05	
780	5.750000e+00	1.802212e-05	
781	5.800000e+00	1.802370e-05	
782	5.850000e+00	1.802523e-05	
783	5.900000e+00	1.802671e-05	
784	5.950000e+00	1.802814e-05	
785	6.000000e+00	1.802952e-05	
786	6.050000e+00	1.803086e-05	
787	6.100000e+00	1.803217e-05	
788	6.150000e+00	1.803345e-05	
789	6.200000e+00	1.803469e-05	
790	6.250000e+00	1.803590e-05	
791	6.300000e+00	1.803709e-05	
792	6.350000e+00	1.803826e-05	
793	6.400000e+00	1.803940e-05	
794	6.450000e+00	1.804052e-05	
795	6.500000e+00	1.804162e-05	
796	6.550000e+00	1.804271e-05	
797	6.600000e+00	1.804377e-05	
Note: No ".plot", ".print", or ".fourier" lines; no simulations run
