
Note: Compatibility modes selected: hs

Warning: m=xx on .subckt line will override multiplier m hierarchy!


Circuit: ***************************

Doing analysis at TEMP = -40.000000 and TNOM = -40.000000


No. of Data Rows : 798
                          ***************************
                          DC transfer characteristic  Mon Jan  9 13:58:36  2023
--------------------------------------------------------------------------------
Index   v-sweep         -i(vds)         
--------------------------------------------------------------------------------
0	0.000000e+00	1.647242e-36	
1	5.000000e-02	2.669944e-05	
2	1.000000e-01	4.288187e-05	
3	1.500000e-01	5.090924e-05	
4	2.000000e-01	5.497439e-05	
5	2.500000e-01	5.772927e-05	
6	3.000000e-01	5.995571e-05	
7	3.500000e-01	6.189232e-05	
8	4.000000e-01	6.364123e-05	
9	4.500000e-01	6.525730e-05	
10	5.000000e-01	6.677411e-05	
11	5.500000e-01	6.821392e-05	
12	6.000000e-01	6.959232e-05	
13	6.500000e-01	7.092068e-05	
14	7.000000e-01	7.220753e-05	
15	7.500000e-01	7.345948e-05	
16	8.000000e-01	7.468170e-05	
17	8.500000e-01	7.587836e-05	
18	9.000000e-01	7.705283e-05	
19	9.500000e-01	7.820789e-05	
20	1.000000e+00	7.934586e-05	
21	1.050000e+00	8.046869e-05	
22	1.100000e+00	8.157803e-05	
23	1.150000e+00	8.267530e-05	
24	1.200000e+00	8.376171e-05	
25	1.250000e+00	8.483832e-05	
26	1.300000e+00	8.590606e-05	
27	1.350000e+00	8.696573e-05	
28	1.400000e+00	8.801805e-05	
29	1.450000e+00	8.906364e-05	
30	1.500000e+00	9.010308e-05	
31	1.550000e+00	9.113685e-05	
32	1.600000e+00	9.216542e-05	
33	1.650000e+00	9.318917e-05	
34	1.700000e+00	9.420849e-05	
35	1.750000e+00	9.522369e-05	
36	1.800000e+00	9.623508e-05	
37	1.850000e+00	9.724293e-05	
38	1.900000e+00	9.824749e-05	
39	1.950000e+00	9.924898e-05	
40	2.000000e+00	1.002476e-04	
41	2.050000e+00	1.012436e-04	
42	2.100000e+00	1.022371e-04	
43	2.150000e+00	1.032282e-04	
44	2.200000e+00	1.042172e-04	
45	2.250000e+00	1.052041e-04	
46	2.300000e+00	1.061892e-04	
47	2.350000e+00	1.071725e-04	
48	2.400000e+00	1.081541e-04	
49	2.450000e+00	1.091342e-04	
50	2.500000e+00	1.101129e-04	
51	2.550000e+00	1.110903e-04	
52	2.600000e+00	1.120665e-04	
53	2.650000e+00	1.130416e-04	
54	2.700000e+00	1.140158e-04	

Index   v-sweep         -i(vds)         
--------------------------------------------------------------------------------
55	2.750000e+00	1.149891e-04	
56	2.800000e+00	1.159617e-04	
57	2.850000e+00	1.169338e-04	
58	2.900000e+00	1.179055e-04	
59	2.950000e+00	1.188770e-04	
60	3.000000e+00	1.198485e-04	
61	3.050000e+00	1.208201e-04	
62	3.100000e+00	1.217921e-04	
63	3.150000e+00	1.227648e-04	
64	3.200000e+00	1.237384e-04	
65	3.250000e+00	1.247132e-04	
66	3.300000e+00	1.256897e-04	
67	3.350000e+00	1.266681e-04	
68	3.400000e+00	1.276489e-04	
69	3.450000e+00	1.286325e-04	
70	3.500000e+00	1.296195e-04	
71	3.550000e+00	1.306104e-04	
72	3.600000e+00	1.316058e-04	
73	3.650000e+00	1.326063e-04	
74	3.700000e+00	1.336128e-04	
75	3.750000e+00	1.346259e-04	
76	3.800000e+00	1.356464e-04	
77	3.850000e+00	1.366754e-04	
78	3.900000e+00	1.377137e-04	
79	3.950000e+00	1.387623e-04	
80	4.000000e+00	1.398224e-04	
81	4.050000e+00	1.408952e-04	
82	4.100000e+00	1.419819e-04	
83	4.150000e+00	1.430838e-04	
84	4.200000e+00	1.442024e-04	
85	4.250000e+00	1.453391e-04	
86	4.300000e+00	1.464956e-04	
87	4.350000e+00	1.476734e-04	
88	4.400000e+00	1.488743e-04	
89	4.450000e+00	1.501003e-04	
90	4.500000e+00	1.513531e-04	
91	4.550000e+00	1.526348e-04	
92	4.600000e+00	1.539475e-04	
93	4.650000e+00	1.552935e-04	
94	4.700000e+00	1.566749e-04	
95	4.750000e+00	1.580942e-04	
96	4.800000e+00	1.595538e-04	
97	4.850000e+00	1.610563e-04	
98	4.900000e+00	1.626045e-04	
99	4.950000e+00	1.642009e-04	
100	5.000000e+00	1.658485e-04	
101	5.050000e+00	1.675502e-04	
102	5.100000e+00	1.693090e-04	
103	5.150000e+00	1.711281e-04	
104	5.200000e+00	1.730106e-04	
105	5.250000e+00	1.749600e-04	
106	5.300000e+00	1.769794e-04	
107	5.350000e+00	1.790726e-04	
108	5.400000e+00	1.812429e-04	
109	5.450000e+00	1.834942e-04	
110	5.500000e+00	1.858301e-04	
111	5.550000e+00	1.882544e-04	
112	5.600000e+00	1.907712e-04	

Index   v-sweep         -i(vds)         
--------------------------------------------------------------------------------
113	5.650000e+00	1.933843e-04	
114	5.700000e+00	1.960978e-04	
115	5.750000e+00	1.989160e-04	
116	5.800000e+00	2.018431e-04	
117	5.850000e+00	2.048833e-04	
118	5.900000e+00	2.080411e-04	
119	5.950000e+00	2.113210e-04	
120	6.000000e+00	2.147274e-04	
121	6.050000e+00	2.182651e-04	
122	6.100000e+00	2.219386e-04	
123	6.150000e+00	2.257528e-04	
124	6.200000e+00	2.297124e-04	
125	6.250000e+00	2.338223e-04	
126	6.300000e+00	2.380875e-04	
127	6.350000e+00	2.425130e-04	
128	6.400000e+00	2.471038e-04	
129	6.450000e+00	2.518651e-04	
130	6.500000e+00	2.568021e-04	
131	6.550000e+00	2.619199e-04	
132	6.600000e+00	2.672238e-04	
133	0.000000e+00	1.418957e-20	
134	5.000000e-02	1.358732e-04	
135	1.000000e-01	2.600763e-04	
136	1.500000e-01	3.729899e-04	
137	2.000000e-01	4.749820e-04	
138	2.500000e-01	5.664067e-04	
139	3.000000e-01	6.476032e-04	
140	3.500000e-01	7.188951e-04	
141	4.000000e-01	7.805849e-04	
142	4.500000e-01	8.329463e-04	
143	5.000000e-01	8.762336e-04	
144	5.500000e-01	9.108060e-04	
145	6.000000e-01	9.374924e-04	
146	6.500000e-01	9.578206e-04	
147	7.000000e-01	9.735602e-04	
148	7.500000e-01	9.861483e-04	
149	8.000000e-01	9.965608e-04	
150	8.500000e-01	1.005427e-03	
151	9.000000e-01	1.013155e-03	
152	9.500000e-01	1.020019e-03	
153	1.000000e+00	1.026207e-03	
154	1.050000e+00	1.031854e-03	
155	1.100000e+00	1.037059e-03	
156	1.150000e+00	1.041897e-03	
157	1.200000e+00	1.046426e-03	
158	1.250000e+00	1.050691e-03	
159	1.300000e+00	1.054727e-03	
160	1.350000e+00	1.058565e-03	
161	1.400000e+00	1.062228e-03	
162	1.450000e+00	1.065736e-03	
163	1.500000e+00	1.069107e-03	
164	1.550000e+00	1.072354e-03	
165	1.600000e+00	1.075489e-03	
166	1.650000e+00	1.078522e-03	
167	1.700000e+00	1.081464e-03	
168	1.750000e+00	1.084322e-03	
169	1.800000e+00	1.087103e-03	
170	1.850000e+00	1.089812e-03	

Index   v-sweep         -i(vds)         
--------------------------------------------------------------------------------
171	1.900000e+00	1.092456e-03	
172	1.950000e+00	1.095039e-03	
173	2.000000e+00	1.097565e-03	
174	2.050000e+00	1.100039e-03	
175	2.100000e+00	1.102464e-03	
176	2.150000e+00	1.104843e-03	
177	2.200000e+00	1.107179e-03	
178	2.250000e+00	1.109474e-03	
179	2.300000e+00	1.111732e-03	
180	2.350000e+00	1.113953e-03	
181	2.400000e+00	1.116141e-03	
182	2.450000e+00	1.118297e-03	
183	2.500000e+00	1.120422e-03	
184	2.550000e+00	1.122519e-03	
185	2.600000e+00	1.124588e-03	
186	2.650000e+00	1.126632e-03	
187	2.700000e+00	1.128651e-03	
188	2.750000e+00	1.130646e-03	
189	2.800000e+00	1.132620e-03	
190	2.850000e+00	1.134573e-03	
191	2.900000e+00	1.136505e-03	
192	2.950000e+00	1.138419e-03	
193	3.000000e+00	1.140315e-03	
194	3.050000e+00	1.142195e-03	
195	3.100000e+00	1.144059e-03	
196	3.150000e+00	1.145909e-03	
197	3.200000e+00	1.147746e-03	
198	3.250000e+00	1.149571e-03	
199	3.300000e+00	1.151386e-03	
200	3.350000e+00	1.153192e-03	
201	3.400000e+00	1.154991e-03	
202	3.450000e+00	1.156784e-03	
203	3.500000e+00	1.158574e-03	
204	3.550000e+00	1.160363e-03	
205	3.600000e+00	1.162153e-03	
206	3.650000e+00	1.163947e-03	
207	3.700000e+00	1.165747e-03	
208	3.750000e+00	1.167556e-03	
209	3.800000e+00	1.169378e-03	
210	3.850000e+00	1.171217e-03	
211	3.900000e+00	1.173076e-03	
212	3.950000e+00	1.174960e-03	
213	4.000000e+00	1.176874e-03	
214	4.050000e+00	1.178821e-03	
215	4.100000e+00	1.180808e-03	
216	4.150000e+00	1.182841e-03	
217	4.200000e+00	1.184925e-03	
218	4.250000e+00	1.187067e-03	
219	4.300000e+00	1.189275e-03	
220	4.350000e+00	1.191555e-03	
221	4.400000e+00	1.193915e-03	
222	4.450000e+00	1.196364e-03	
223	4.500000e+00	1.198911e-03	
224	4.550000e+00	1.201564e-03	
225	4.600000e+00	1.204334e-03	
226	4.650000e+00	1.207230e-03	
227	4.700000e+00	1.210263e-03	
228	4.750000e+00	1.213445e-03	

Index   v-sweep         -i(vds)         
--------------------------------------------------------------------------------
229	4.800000e+00	1.216787e-03	
230	4.850000e+00	1.220300e-03	
231	4.900000e+00	1.223998e-03	
232	4.950000e+00	1.227893e-03	
233	5.000000e+00	1.232000e-03	
234	5.050000e+00	1.236330e-03	
235	5.100000e+00	1.240900e-03	
236	5.150000e+00	1.245724e-03	
237	5.200000e+00	1.250817e-03	
238	5.250000e+00	1.256194e-03	
239	5.300000e+00	1.261872e-03	
240	5.350000e+00	1.267867e-03	
241	5.400000e+00	1.274196e-03	
242	5.450000e+00	1.280875e-03	
243	5.500000e+00	1.287924e-03	
244	5.550000e+00	1.295359e-03	
245	5.600000e+00	1.303199e-03	
246	5.650000e+00	1.311462e-03	
247	5.700000e+00	1.320167e-03	
248	5.750000e+00	1.329334e-03	
249	5.800000e+00	1.338982e-03	
250	5.850000e+00	1.349131e-03	
251	5.900000e+00	1.359800e-03	
252	5.950000e+00	1.371011e-03	
253	6.000000e+00	1.382783e-03	
254	6.050000e+00	1.395137e-03	
255	6.100000e+00	1.408094e-03	
256	6.150000e+00	1.421675e-03	
257	6.200000e+00	1.435902e-03	
258	6.250000e+00	1.450795e-03	
259	6.300000e+00	1.466376e-03	
260	6.350000e+00	1.482668e-03	
261	6.400000e+00	1.499691e-03	
262	6.450000e+00	1.517468e-03	
263	6.500000e+00	1.536020e-03	
264	6.550000e+00	1.555369e-03	
265	6.600000e+00	1.575538e-03	
266	0.000000e+00	-1.07290e-35	
267	5.000000e-02	2.086704e-04	
268	1.000000e-01	4.056410e-04	
269	1.500000e-01	5.912552e-04	
270	2.000000e-01	7.658465e-04	
271	2.500000e-01	9.297368e-04	
272	3.000000e-01	1.083235e-03	
273	3.500000e-01	1.226638e-03	
274	4.000000e-01	1.360226e-03	
275	4.500000e-01	1.484267e-03	
276	5.000000e-01	1.599012e-03	
277	5.500000e-01	1.704692e-03	
278	6.000000e-01	1.801513e-03	
279	6.500000e-01	1.889634e-03	
280	7.000000e-01	1.969141e-03	
281	7.500000e-01	2.039997e-03	
282	8.000000e-01	2.102001e-03	
283	8.500000e-01	2.154845e-03	
284	9.000000e-01	2.198448e-03	
285	9.500000e-01	2.233444e-03	
286	1.000000e+00	2.261244e-03	

Index   v-sweep         -i(vds)         
--------------------------------------------------------------------------------
287	1.050000e+00	2.283519e-03	
288	1.100000e+00	2.301723e-03	
289	1.150000e+00	2.316943e-03	
290	1.200000e+00	2.329946e-03	
291	1.250000e+00	2.341265e-03	
292	1.300000e+00	2.351277e-03	
293	1.350000e+00	2.360252e-03	
294	1.400000e+00	2.368388e-03	
295	1.450000e+00	2.375835e-03	
296	1.500000e+00	2.382706e-03	
297	1.550000e+00	2.389089e-03	
298	1.600000e+00	2.395055e-03	
299	1.650000e+00	2.400661e-03	
300	1.700000e+00	2.405952e-03	
301	1.750000e+00	2.410965e-03	
302	1.800000e+00	2.415734e-03	
303	1.850000e+00	2.420283e-03	
304	1.900000e+00	2.424637e-03	
305	1.950000e+00	2.428813e-03	
306	2.000000e+00	2.432828e-03	
307	2.050000e+00	2.436698e-03	
308	2.100000e+00	2.440434e-03	
309	2.150000e+00	2.444048e-03	
310	2.200000e+00	2.447549e-03	
311	2.250000e+00	2.450946e-03	
312	2.300000e+00	2.454246e-03	
313	2.350000e+00	2.457457e-03	
314	2.400000e+00	2.460584e-03	
315	2.450000e+00	2.463634e-03	
316	2.500000e+00	2.466611e-03	
317	2.550000e+00	2.469520e-03	
318	2.600000e+00	2.472364e-03	
319	2.650000e+00	2.475149e-03	
320	2.700000e+00	2.477876e-03	
321	2.750000e+00	2.480550e-03	
322	2.800000e+00	2.483173e-03	
323	2.850000e+00	2.485748e-03	
324	2.900000e+00	2.488278e-03	
325	2.950000e+00	2.490765e-03	
326	3.000000e+00	2.493210e-03	
327	3.050000e+00	2.495618e-03	
328	3.100000e+00	2.497988e-03	
329	3.150000e+00	2.500324e-03	
330	3.200000e+00	2.502627e-03	
331	3.250000e+00	2.504899e-03	
332	3.300000e+00	2.507142e-03	
333	3.350000e+00	2.509359e-03	
334	3.400000e+00	2.511550e-03	
335	3.450000e+00	2.513719e-03	
336	3.500000e+00	2.515867e-03	
337	3.550000e+00	2.517997e-03	
338	3.600000e+00	2.520112e-03	
339	3.650000e+00	2.522214e-03	
340	3.700000e+00	2.524307e-03	
341	3.750000e+00	2.526394e-03	
342	3.800000e+00	2.528479e-03	
343	3.850000e+00	2.530566e-03	
344	3.900000e+00	2.532660e-03	

Index   v-sweep         -i(vds)         
--------------------------------------------------------------------------------
345	3.950000e+00	2.534766e-03	
346	4.000000e+00	2.536889e-03	
347	4.050000e+00	2.539036e-03	
348	4.100000e+00	2.541214e-03	
349	4.150000e+00	2.543429e-03	
350	4.200000e+00	2.545690e-03	
351	4.250000e+00	2.548005e-03	
352	4.300000e+00	2.550384e-03	
353	4.350000e+00	2.552838e-03	
354	4.400000e+00	2.555376e-03	
355	4.450000e+00	2.558011e-03	
356	4.500000e+00	2.560756e-03	
357	4.550000e+00	2.563623e-03	
358	4.600000e+00	2.566627e-03	
359	4.650000e+00	2.569784e-03	
360	4.700000e+00	2.573109e-03	
361	4.750000e+00	2.576620e-03	
362	4.800000e+00	2.580334e-03	
363	4.850000e+00	2.584270e-03	
364	4.900000e+00	2.588449e-03	
365	4.950000e+00	2.592891e-03	
366	5.000000e+00	2.597617e-03	
367	5.050000e+00	2.602652e-03	
368	5.100000e+00	2.608017e-03	
369	5.150000e+00	2.613738e-03	
370	5.200000e+00	2.619841e-03	
371	5.250000e+00	2.626351e-03	
372	5.300000e+00	2.633297e-03	
373	5.350000e+00	2.640705e-03	
374	5.400000e+00	2.648606e-03	
375	5.450000e+00	2.657029e-03	
376	5.500000e+00	2.666006e-03	
377	5.550000e+00	2.675566e-03	
378	5.600000e+00	2.685744e-03	
379	5.650000e+00	2.696571e-03	
380	5.700000e+00	2.708082e-03	
381	5.750000e+00	2.720311e-03	
382	5.800000e+00	2.733293e-03	
383	5.850000e+00	2.747064e-03	
384	5.900000e+00	2.761660e-03	
385	5.950000e+00	2.777119e-03	
386	6.000000e+00	2.793477e-03	
387	6.050000e+00	2.810772e-03	
388	6.100000e+00	2.829043e-03	
389	6.150000e+00	2.848328e-03	
390	6.200000e+00	2.868667e-03	
391	6.250000e+00	2.890099e-03	
392	6.300000e+00	2.912665e-03	
393	6.350000e+00	2.936403e-03	
394	6.400000e+00	2.961354e-03	
395	6.450000e+00	2.987559e-03	
396	6.500000e+00	3.015059e-03	
397	6.550000e+00	3.043894e-03	
398	6.600000e+00	3.074105e-03	
399	0.000000e+00	8.397278e-35	
400	5.000000e-02	2.604574e-04	
401	1.000000e-01	5.096532e-04	
402	1.500000e-01	7.478753e-04	

Index   v-sweep         -i(vds)         
--------------------------------------------------------------------------------
403	2.000000e-01	9.754052e-04	
404	2.500000e-01	1.192517e-03	
405	3.000000e-01	1.399476e-03	
406	3.500000e-01	1.596539e-03	
407	4.000000e-01	1.783952e-03	
408	4.500000e-01	1.961951e-03	
409	5.000000e-01	2.130760e-03	
410	5.500000e-01	2.290596e-03	
411	6.000000e-01	2.441663e-03	
412	6.500000e-01	2.584157e-03	
413	7.000000e-01	2.718262e-03	
414	7.500000e-01	2.844147e-03	
415	8.000000e-01	2.961963e-03	
416	8.500000e-01	3.071830e-03	
417	9.000000e-01	3.173820e-03	
418	9.500000e-01	3.267923e-03	
419	1.000000e+00	3.354005e-03	
420	1.050000e+00	3.431753e-03	
421	1.100000e+00	3.500670e-03	
422	1.150000e+00	3.560236e-03	
423	1.200000e+00	3.610295e-03	
424	1.250000e+00	3.651443e-03	
425	1.300000e+00	3.684970e-03	
426	1.350000e+00	3.712424e-03	
427	1.400000e+00	3.735218e-03	
428	1.450000e+00	3.754469e-03	
429	1.500000e+00	3.771012e-03	
430	1.550000e+00	3.785453e-03	
431	1.600000e+00	3.798237e-03	
432	1.650000e+00	3.809690e-03	
433	1.700000e+00	3.820057e-03	
434	1.750000e+00	3.829526e-03	
435	1.800000e+00	3.838241e-03	
436	1.850000e+00	3.846315e-03	
437	1.900000e+00	3.853839e-03	
438	1.950000e+00	3.860887e-03	
439	2.000000e+00	3.867519e-03	
440	2.050000e+00	3.873784e-03	
441	2.100000e+00	3.879724e-03	
442	2.150000e+00	3.885373e-03	
443	2.200000e+00	3.890762e-03	
444	2.250000e+00	3.895916e-03	
445	2.300000e+00	3.900857e-03	
446	2.350000e+00	3.905604e-03	
447	2.400000e+00	3.910174e-03	
448	2.450000e+00	3.914581e-03	
449	2.500000e+00	3.918839e-03	
450	2.550000e+00	3.922958e-03	
451	2.600000e+00	3.926949e-03	
452	2.650000e+00	3.930821e-03	
453	2.700000e+00	3.934583e-03	
454	2.750000e+00	3.938241e-03	
455	2.800000e+00	3.941803e-03	
456	2.850000e+00	3.945274e-03	
457	2.900000e+00	3.948660e-03	
458	2.950000e+00	3.951967e-03	
459	3.000000e+00	3.955197e-03	
460	3.050000e+00	3.958357e-03	

Index   v-sweep         -i(vds)         
--------------------------------------------------------------------------------
461	3.100000e+00	3.961450e-03	
462	3.150000e+00	3.964479e-03	
463	3.200000e+00	3.967448e-03	
464	3.250000e+00	3.970360e-03	
465	3.300000e+00	3.973218e-03	
466	3.350000e+00	3.976025e-03	
467	3.400000e+00	3.978783e-03	
468	3.450000e+00	3.981496e-03	
469	3.500000e+00	3.984167e-03	
470	3.550000e+00	3.986797e-03	
471	3.600000e+00	3.989389e-03	
472	3.650000e+00	3.991947e-03	
473	3.700000e+00	3.994474e-03	
474	3.750000e+00	3.996972e-03	
475	3.800000e+00	3.999445e-03	
476	3.850000e+00	4.001897e-03	
477	3.900000e+00	4.004331e-03	
478	3.950000e+00	4.006753e-03	
479	4.000000e+00	4.009167e-03	
480	4.050000e+00	4.011579e-03	
481	4.100000e+00	4.013995e-03	
482	4.150000e+00	4.016421e-03	
483	4.200000e+00	4.018865e-03	
484	4.250000e+00	4.021334e-03	
485	4.300000e+00	4.023839e-03	
486	4.350000e+00	4.026388e-03	
487	4.400000e+00	4.028993e-03	
488	4.450000e+00	4.031665e-03	
489	4.500000e+00	4.034418e-03	
490	4.550000e+00	4.037264e-03	
491	4.600000e+00	4.040219e-03	
492	4.650000e+00	4.043300e-03	
493	4.700000e+00	4.046523e-03	
494	4.750000e+00	4.049908e-03	
495	4.800000e+00	4.053475e-03	
496	4.850000e+00	4.057245e-03	
497	4.900000e+00	4.061240e-03	
498	4.950000e+00	4.065486e-03	
499	5.000000e+00	4.070008e-03	
500	5.050000e+00	4.074833e-03	
501	5.100000e+00	4.079989e-03	
502	5.150000e+00	4.085506e-03	
503	5.200000e+00	4.091416e-03	
504	5.250000e+00	4.097752e-03	
505	5.300000e+00	4.104548e-03	
506	5.350000e+00	4.111840e-03	
507	5.400000e+00	4.119665e-03	
508	5.450000e+00	4.128062e-03	
509	5.500000e+00	4.137071e-03	
510	5.550000e+00	4.146733e-03	
511	5.600000e+00	4.157091e-03	
512	5.650000e+00	4.168189e-03	
513	5.700000e+00	4.180072e-03	
514	5.750000e+00	4.192787e-03	
515	5.800000e+00	4.206382e-03	
516	5.850000e+00	4.220905e-03	
517	5.900000e+00	4.236407e-03	
518	5.950000e+00	4.252938e-03	

Index   v-sweep         -i(vds)         
--------------------------------------------------------------------------------
519	6.000000e+00	4.270551e-03	
520	6.050000e+00	4.289299e-03	
521	6.100000e+00	4.309235e-03	
522	6.150000e+00	4.330414e-03	
523	6.200000e+00	4.352891e-03	
524	6.250000e+00	4.376724e-03	
525	6.300000e+00	4.401968e-03	
526	6.350000e+00	4.428680e-03	
527	6.400000e+00	4.456920e-03	
528	6.450000e+00	4.486745e-03	
529	6.500000e+00	4.518214e-03	
530	6.550000e+00	4.551387e-03	
531	6.600000e+00	4.586322e-03	
532	0.000000e+00	-1.20176e-19	
533	5.000000e-02	2.962792e-04	
534	1.000000e-01	5.820556e-04	
535	1.500000e-01	8.575614e-04	
536	2.000000e-01	1.123025e-03	
537	2.500000e-01	1.378672e-03	
538	3.000000e-01	1.624719e-03	
539	3.500000e-01	1.861379e-03	
540	4.000000e-01	2.088860e-03	
541	4.500000e-01	2.307359e-03	
542	5.000000e-01	2.517068e-03	
543	5.500000e-01	2.718171e-03	
544	6.000000e-01	2.910845e-03	
545	6.500000e-01	3.095260e-03	
546	7.000000e-01	3.271579e-03	
547	7.500000e-01	3.439959e-03	
548	8.000000e-01	3.600550e-03	
549	8.500000e-01	3.753497e-03	
550	9.000000e-01	3.898938e-03	
551	9.500000e-01	4.037000e-03	
552	1.000000e+00	4.167799e-03	
553	1.050000e+00	4.291431e-03	
554	1.100000e+00	4.407963e-03	
555	1.150000e+00	4.517411e-03	
556	1.200000e+00	4.619722e-03	
557	1.250000e+00	4.714723e-03	
558	1.300000e+00	4.802086e-03	
559	1.350000e+00	4.881300e-03	
560	1.400000e+00	4.951745e-03	
561	1.450000e+00	5.012941e-03	
562	1.500000e+00	5.064909e-03	
563	1.550000e+00	5.108359e-03	
564	1.600000e+00	5.144517e-03	
565	1.650000e+00	5.174759e-03	
566	1.700000e+00	5.200337e-03	
567	1.750000e+00	5.222266e-03	
568	1.800000e+00	5.241330e-03	
569	1.850000e+00	5.258120e-03	
570	1.900000e+00	5.273082e-03	
571	1.950000e+00	5.286552e-03	
572	2.000000e+00	5.298791e-03	
573	2.050000e+00	5.309998e-03	
574	2.100000e+00	5.320331e-03	
575	2.150000e+00	5.329918e-03	
576	2.200000e+00	5.338859e-03	

Index   v-sweep         -i(vds)         
--------------------------------------------------------------------------------
577	2.250000e+00	5.347237e-03	
578	2.300000e+00	5.355122e-03	
579	2.350000e+00	5.362570e-03	
580	2.400000e+00	5.369629e-03	
581	2.450000e+00	5.376341e-03	
582	2.500000e+00	5.382739e-03	
583	2.550000e+00	5.388854e-03	
584	2.600000e+00	5.394711e-03	
585	2.650000e+00	5.400334e-03	
586	2.700000e+00	5.405742e-03	
587	2.750000e+00	5.410953e-03	
588	2.800000e+00	5.415981e-03	
589	2.850000e+00	5.420841e-03	
590	2.900000e+00	5.425546e-03	
591	2.950000e+00	5.430105e-03	
592	3.000000e+00	5.434529e-03	
593	3.050000e+00	5.438827e-03	
594	3.100000e+00	5.443006e-03	
595	3.150000e+00	5.447075e-03	
596	3.200000e+00	5.451039e-03	
597	3.250000e+00	5.454906e-03	
598	3.300000e+00	5.458680e-03	
599	3.350000e+00	5.462366e-03	
600	3.400000e+00	5.465971e-03	
601	3.450000e+00	5.469497e-03	
602	3.500000e+00	5.472949e-03	
603	3.550000e+00	5.476332e-03	
604	3.600000e+00	5.479648e-03	
605	3.650000e+00	5.482902e-03	
606	3.700000e+00	5.486097e-03	
607	3.750000e+00	5.489236e-03	
608	3.800000e+00	5.492323e-03	
609	3.850000e+00	5.495362e-03	
610	3.900000e+00	5.498355e-03	
611	3.950000e+00	5.501308e-03	
612	4.000000e+00	5.504223e-03	
613	4.050000e+00	5.507106e-03	
614	4.100000e+00	5.509960e-03	
615	4.150000e+00	5.512792e-03	
616	4.200000e+00	5.515607e-03	
617	4.250000e+00	5.518410e-03	
618	4.300000e+00	5.521210e-03	
619	4.350000e+00	5.524014e-03	
620	4.400000e+00	5.526830e-03	
621	4.450000e+00	5.529668e-03	
622	4.500000e+00	5.532538e-03	
623	4.550000e+00	5.535453e-03	
624	4.600000e+00	5.538424e-03	
625	4.650000e+00	5.541466e-03	
626	4.700000e+00	5.544594e-03	
627	4.750000e+00	5.547824e-03	
628	4.800000e+00	5.551176e-03	
629	4.850000e+00	5.554668e-03	
630	4.900000e+00	5.558323e-03	
631	4.950000e+00	5.562162e-03	
632	5.000000e+00	5.566211e-03	
633	5.050000e+00	5.570496e-03	
634	5.100000e+00	5.575046e-03	

Index   v-sweep         -i(vds)         
--------------------------------------------------------------------------------
635	5.150000e+00	5.579890e-03	
636	5.200000e+00	5.585062e-03	
637	5.250000e+00	5.590593e-03	
638	5.300000e+00	5.596522e-03	
639	5.350000e+00	5.602885e-03	
640	5.400000e+00	5.609722e-03	
641	5.450000e+00	5.617075e-03	
642	5.500000e+00	5.624988e-03	
643	5.550000e+00	5.633507e-03	
644	5.600000e+00	5.642679e-03	
645	5.650000e+00	5.652554e-03	
646	5.700000e+00	5.663183e-03	
647	5.750000e+00	5.674621e-03	
648	5.800000e+00	5.686921e-03	
649	5.850000e+00	5.700141e-03	
650	5.900000e+00	5.714340e-03	
651	5.950000e+00	5.729578e-03	
652	6.000000e+00	5.745917e-03	
653	6.050000e+00	5.763421e-03	
654	6.100000e+00	5.782155e-03	
655	6.150000e+00	5.802185e-03	
656	6.200000e+00	5.823580e-03	
657	6.250000e+00	5.846408e-03	
658	6.300000e+00	5.870739e-03	
659	6.350000e+00	5.896646e-03	
660	6.400000e+00	5.924201e-03	
661	6.450000e+00	5.953477e-03	
662	6.500000e+00	5.984548e-03	
663	6.550000e+00	6.017490e-03	
664	6.600000e+00	6.052378e-03	
665	0.000000e+00	4.951761e-19	
666	5.000000e-02	3.198714e-04	
667	1.000000e-01	6.301459e-04	
668	1.500000e-01	9.310084e-04	
669	2.000000e-01	1.222641e-03	
670	2.500000e-01	1.505224e-03	
671	3.000000e-01	1.778932e-03	
672	3.500000e-01	2.043940e-03	
673	4.000000e-01	2.300414e-03	
674	4.500000e-01	2.548520e-03	
675	5.000000e-01	2.788415e-03	
676	5.500000e-01	3.020254e-03	
677	6.000000e-01	3.244185e-03	
678	6.500000e-01	3.460351e-03	
679	7.000000e-01	3.668890e-03	
680	7.500000e-01	3.869936e-03	
681	8.000000e-01	4.063618e-03	
682	8.500000e-01	4.250061e-03	
683	9.000000e-01	4.429385e-03	
684	9.500000e-01	4.601707e-03	
685	1.000000e+00	4.767142e-03	
686	1.050000e+00	4.925799e-03	
687	1.100000e+00	5.077785e-03	
688	1.150000e+00	5.223199e-03	
689	1.200000e+00	5.362135e-03	
690	1.250000e+00	5.494672e-03	
691	1.300000e+00	5.620875e-03	
692	1.350000e+00	5.740781e-03	

Index   v-sweep         -i(vds)         
--------------------------------------------------------------------------------
693	1.400000e+00	5.854386e-03	
694	1.450000e+00	5.961626e-03	
695	1.500000e+00	6.062340e-03	
696	1.550000e+00	6.156244e-03	
697	1.600000e+00	6.242890e-03	
698	1.650000e+00	6.321695e-03	
699	1.700000e+00	6.392063e-03	
700	1.750000e+00	6.453637e-03	
701	1.800000e+00	6.506567e-03	
702	1.850000e+00	6.551568e-03	
703	1.900000e+00	6.589730e-03	
704	1.950000e+00	6.622241e-03	
705	2.000000e+00	6.650189e-03	
706	2.050000e+00	6.674479e-03	
707	2.100000e+00	6.695831e-03	
708	2.150000e+00	6.714804e-03	
709	2.200000e+00	6.731832e-03	
710	2.250000e+00	6.747250e-03	
711	2.300000e+00	6.761321e-03	
712	2.350000e+00	6.774253e-03	
713	2.400000e+00	6.786212e-03	
714	2.450000e+00	6.797332e-03	
715	2.500000e+00	6.807722e-03	
716	2.550000e+00	6.817474e-03	
717	2.600000e+00	6.826661e-03	
718	2.650000e+00	6.835346e-03	
719	2.700000e+00	6.843584e-03	
720	2.750000e+00	6.851420e-03	
721	2.800000e+00	6.858893e-03	
722	2.850000e+00	6.866036e-03	
723	2.900000e+00	6.872879e-03	
724	2.950000e+00	6.879448e-03	
725	3.000000e+00	6.885765e-03	
726	3.050000e+00	6.891850e-03	
727	3.100000e+00	6.897722e-03	
728	3.150000e+00	6.903396e-03	
729	3.200000e+00	6.908885e-03	
730	3.250000e+00	6.914203e-03	
731	3.300000e+00	6.919362e-03	
732	3.350000e+00	6.924371e-03	
733	3.400000e+00	6.929240e-03	
734	3.450000e+00	6.933977e-03	
735	3.500000e+00	6.938591e-03	
736	3.550000e+00	6.943088e-03	
737	3.600000e+00	6.947476e-03	
738	3.650000e+00	6.951760e-03	
739	3.700000e+00	6.955945e-03	
740	3.750000e+00	6.960038e-03	
741	3.800000e+00	6.964042e-03	
742	3.850000e+00	6.967964e-03	
743	3.900000e+00	6.971806e-03	
744	3.950000e+00	6.975575e-03	
745	4.000000e+00	6.979273e-03	
746	4.050000e+00	6.982905e-03	
747	4.100000e+00	6.986476e-03	
748	4.150000e+00	6.989989e-03	
749	4.200000e+00	6.993450e-03	
750	4.250000e+00	6.996862e-03	

Index   v-sweep         -i(vds)         
--------------------------------------------------------------------------------
751	4.300000e+00	7.000233e-03	
752	4.350000e+00	7.003566e-03	
753	4.400000e+00	7.006868e-03	
754	4.450000e+00	7.010146e-03	
755	4.500000e+00	7.013407e-03	
756	4.550000e+00	7.016659e-03	
757	4.600000e+00	7.019912e-03	
758	4.650000e+00	7.023176e-03	
759	4.700000e+00	7.026461e-03	
760	4.750000e+00	7.029781e-03	
761	4.800000e+00	7.033149e-03	
762	4.850000e+00	7.036580e-03	
763	4.900000e+00	7.040092e-03	
764	4.950000e+00	7.043701e-03	
765	5.000000e+00	7.047429e-03	
766	5.050000e+00	7.051297e-03	
767	5.100000e+00	7.055329e-03	
768	5.150000e+00	7.059551e-03	
769	5.200000e+00	7.063990e-03	
770	5.250000e+00	7.068677e-03	
771	5.300000e+00	7.073643e-03	
772	5.350000e+00	7.078923e-03	
773	5.400000e+00	7.084553e-03	
774	5.450000e+00	7.090574e-03	
775	5.500000e+00	7.097025e-03	
776	5.550000e+00	7.103951e-03	
777	5.600000e+00	7.111398e-03	
778	5.650000e+00	7.119416e-03	
779	5.700000e+00	7.128055e-03	
780	5.750000e+00	7.137369e-03	
781	5.800000e+00	7.147413e-03	
782	5.850000e+00	7.158248e-03	
783	5.900000e+00	7.169934e-03	
784	5.950000e+00	7.182534e-03	
785	6.000000e+00	7.196113e-03	
786	6.050000e+00	7.210741e-03	
787	6.100000e+00	7.226486e-03	
788	6.150000e+00	7.243423e-03	
789	6.200000e+00	7.261624e-03	
790	6.250000e+00	7.281166e-03	
791	6.300000e+00	7.302129e-03	
792	6.350000e+00	7.324591e-03	
793	6.400000e+00	7.348636e-03	
794	6.450000e+00	7.374346e-03	
795	6.500000e+00	7.401807e-03	
796	6.550000e+00	7.431105e-03	
797	6.600000e+00	7.462329e-03	
Note: No ".plot", ".print", or ".fourier" lines; no simulations run
