
Note: Compatibility modes selected: hs

Warning: m=xx on .subckt line will override multiplier m hierarchy!


Circuit: ***************************

Doing analysis at TEMP = -40.000000 and TNOM = -40.000000


No. of Data Rows : 798
                          ***************************
                          DC transfer characteristic  Mon Jan  9 13:58:36  2023
--------------------------------------------------------------------------------
Index   v-sweep         -i(vds)         
--------------------------------------------------------------------------------
0	0.000000e+00	-4.18662e-22	
1	5.000000e-02	1.523373e-06	
2	1.000000e-01	2.592369e-06	
3	1.500000e-01	3.229922e-06	
4	2.000000e-01	3.516184e-06	
5	2.500000e-01	3.611762e-06	
6	3.000000e-01	3.644156e-06	
7	3.500000e-01	3.658625e-06	
8	4.000000e-01	3.667151e-06	
9	4.500000e-01	3.673266e-06	
10	5.000000e-01	3.678229e-06	
11	5.500000e-01	3.682572e-06	
12	6.000000e-01	3.686547e-06	
13	6.500000e-01	3.690289e-06	
14	7.000000e-01	3.693874e-06	
15	7.500000e-01	3.697349e-06	
16	8.000000e-01	3.700742e-06	
17	8.500000e-01	3.704074e-06	
18	9.000000e-01	3.707359e-06	
19	9.500000e-01	3.710606e-06	
20	1.000000e+00	3.713823e-06	
21	1.050000e+00	3.717014e-06	
22	1.100000e+00	3.720185e-06	
23	1.150000e+00	3.723337e-06	
24	1.200000e+00	3.726475e-06	
25	1.250000e+00	3.729599e-06	
26	1.300000e+00	3.732712e-06	
27	1.350000e+00	3.735816e-06	
28	1.400000e+00	3.738910e-06	
29	1.450000e+00	3.741996e-06	
30	1.500000e+00	3.745075e-06	
31	1.550000e+00	3.748147e-06	
32	1.600000e+00	3.751214e-06	
33	1.650000e+00	3.754276e-06	
34	1.700000e+00	3.757332e-06	
35	1.750000e+00	3.760385e-06	
36	1.800000e+00	3.763433e-06	
37	1.850000e+00	3.766477e-06	
38	1.900000e+00	3.769518e-06	
39	1.950000e+00	3.772555e-06	
40	2.000000e+00	3.775590e-06	
41	2.050000e+00	3.778622e-06	
42	2.100000e+00	3.781651e-06	
43	2.150000e+00	3.784678e-06	
44	2.200000e+00	3.787703e-06	
45	2.250000e+00	3.790726e-06	
46	2.300000e+00	3.793748e-06	
47	2.350000e+00	3.796768e-06	
48	2.400000e+00	3.799787e-06	
49	2.450000e+00	3.802806e-06	
50	2.500000e+00	3.805826e-06	
51	2.550000e+00	3.808846e-06	
52	2.600000e+00	3.811868e-06	
53	2.650000e+00	3.814893e-06	
54	2.700000e+00	3.817921e-06	

Index   v-sweep         -i(vds)         
--------------------------------------------------------------------------------
55	2.750000e+00	3.820956e-06	
56	2.800000e+00	3.823998e-06	
57	2.850000e+00	3.827050e-06	
58	2.900000e+00	3.830114e-06	
59	2.950000e+00	3.833193e-06	
60	3.000000e+00	3.836291e-06	
61	3.050000e+00	3.839412e-06	
62	3.100000e+00	3.842561e-06	
63	3.150000e+00	3.845742e-06	
64	3.200000e+00	3.848962e-06	
65	3.250000e+00	3.852227e-06	
66	3.300000e+00	3.855546e-06	
67	3.350000e+00	3.858926e-06	
68	3.400000e+00	3.862377e-06	
69	3.450000e+00	3.865910e-06	
70	3.500000e+00	3.869535e-06	
71	3.550000e+00	3.873266e-06	
72	3.600000e+00	3.877116e-06	
73	3.650000e+00	3.881101e-06	
74	3.700000e+00	3.885235e-06	
75	3.750000e+00	3.889537e-06	
76	3.800000e+00	3.894025e-06	
77	3.850000e+00	3.898720e-06	
78	3.900000e+00	3.903642e-06	
79	3.950000e+00	3.908815e-06	
80	4.000000e+00	3.914264e-06	
81	4.050000e+00	3.920014e-06	
82	4.100000e+00	3.926092e-06	
83	4.150000e+00	3.932528e-06	
84	4.200000e+00	3.939351e-06	
85	4.250000e+00	3.946594e-06	
86	4.300000e+00	3.954290e-06	
87	4.350000e+00	3.962475e-06	
88	4.400000e+00	3.971184e-06	
89	4.450000e+00	3.980457e-06	
90	4.500000e+00	3.990332e-06	
91	4.550000e+00	4.000851e-06	
92	4.600000e+00	4.012057e-06	
93	4.650000e+00	4.023993e-06	
94	4.700000e+00	4.036706e-06	
95	4.750000e+00	4.050243e-06	
96	4.800000e+00	4.064652e-06	
97	4.850000e+00	4.079983e-06	
98	4.900000e+00	4.096288e-06	
99	4.950000e+00	4.113620e-06	
100	5.000000e+00	4.132032e-06	
101	5.050000e+00	4.151580e-06	
102	5.100000e+00	4.172321e-06	
103	5.150000e+00	4.194312e-06	
104	5.200000e+00	4.217613e-06	
105	5.250000e+00	4.242284e-06	
106	5.300000e+00	4.268385e-06	
107	5.350000e+00	4.295981e-06	
108	5.400000e+00	4.325132e-06	
109	5.450000e+00	4.355906e-06	
110	5.500000e+00	4.388365e-06	
111	5.550000e+00	4.422578e-06	
112	5.600000e+00	4.458610e-06	

Index   v-sweep         -i(vds)         
--------------------------------------------------------------------------------
113	5.650000e+00	4.496530e-06	
114	5.700000e+00	4.536406e-06	
115	5.750000e+00	4.578309e-06	
116	5.800000e+00	4.622307e-06	
117	5.850000e+00	4.668472e-06	
118	5.900000e+00	4.716875e-06	
119	5.950000e+00	4.767587e-06	
120	6.000000e+00	4.820683e-06	
121	6.050000e+00	4.876233e-06	
122	6.100000e+00	4.934312e-06	
123	6.150000e+00	4.994993e-06	
124	6.200000e+00	5.058350e-06	
125	6.250000e+00	5.124458e-06	
126	6.300000e+00	5.193391e-06	
127	6.350000e+00	5.265225e-06	
128	6.400000e+00	5.340033e-06	
129	6.450000e+00	5.417893e-06	
130	6.500000e+00	5.498878e-06	
131	6.550000e+00	5.583065e-06	
132	6.600000e+00	5.670528e-06	
133	0.000000e+00	-1.54356e-20	
134	5.000000e-02	8.907058e-06	
135	1.000000e-01	1.732227e-05	
136	1.500000e-01	2.524675e-05	
137	2.000000e-01	3.268162e-05	
138	2.500000e-01	3.962803e-05	
139	3.000000e-01	4.608713e-05	
140	3.500000e-01	5.206011e-05	
141	4.000000e-01	5.754820e-05	
142	4.500000e-01	6.255271e-05	
143	5.000000e-01	6.707510e-05	
144	5.500000e-01	7.111706e-05	
145	6.000000e-01	7.468068e-05	
146	6.500000e-01	7.776884e-05	
147	7.000000e-01	8.038595e-05	
148	7.500000e-01	8.253944e-05	
149	8.000000e-01	8.424286e-05	
150	8.500000e-01	8.552171e-05	
151	9.000000e-01	8.642185e-05	
152	9.500000e-01	8.701464e-05	
153	1.000000e+00	8.738743e-05	
154	1.050000e+00	8.762061e-05	
155	1.100000e+00	8.777168e-05	
156	1.150000e+00	8.787537e-05	
157	1.200000e+00	8.795116e-05	
158	1.250000e+00	8.800986e-05	
159	1.300000e+00	8.805761e-05	
160	1.350000e+00	8.809802e-05	
161	1.400000e+00	8.813332e-05	
162	1.450000e+00	8.816494e-05	
163	1.500000e+00	8.819383e-05	
164	1.550000e+00	8.822063e-05	
165	1.600000e+00	8.824581e-05	
166	1.650000e+00	8.826968e-05	
167	1.700000e+00	8.829251e-05	
168	1.750000e+00	8.831448e-05	
169	1.800000e+00	8.833572e-05	
170	1.850000e+00	8.835636e-05	

Index   v-sweep         -i(vds)         
--------------------------------------------------------------------------------
171	1.900000e+00	8.837648e-05	
172	1.950000e+00	8.839616e-05	
173	2.000000e+00	8.841545e-05	
174	2.050000e+00	8.843440e-05	
175	2.100000e+00	8.845305e-05	
176	2.150000e+00	8.847143e-05	
177	2.200000e+00	8.848958e-05	
178	2.250000e+00	8.850752e-05	
179	2.300000e+00	8.852527e-05	
180	2.350000e+00	8.854284e-05	
181	2.400000e+00	8.856026e-05	
182	2.450000e+00	8.857753e-05	
183	2.500000e+00	8.859467e-05	
184	2.550000e+00	8.861169e-05	
185	2.600000e+00	8.862860e-05	
186	2.650000e+00	8.864540e-05	
187	2.700000e+00	8.866211e-05	
188	2.750000e+00	8.867874e-05	
189	2.800000e+00	8.869528e-05	
190	2.850000e+00	8.871175e-05	
191	2.900000e+00	8.872814e-05	
192	2.950000e+00	8.874448e-05	
193	3.000000e+00	8.876076e-05	
194	3.050000e+00	8.877700e-05	
195	3.100000e+00	8.879320e-05	
196	3.150000e+00	8.880936e-05	
197	3.200000e+00	8.882552e-05	
198	3.250000e+00	8.884167e-05	
199	3.300000e+00	8.885784e-05	
200	3.350000e+00	8.887405e-05	
201	3.400000e+00	8.889032e-05	
202	3.450000e+00	8.890668e-05	
203	3.500000e+00	8.892318e-05	
204	3.550000e+00	8.893986e-05	
205	3.600000e+00	8.895677e-05	
206	3.650000e+00	8.897397e-05	
207	3.700000e+00	8.899153e-05	
208	3.750000e+00	8.900955e-05	
209	3.800000e+00	8.902810e-05	
210	3.850000e+00	8.904731e-05	
211	3.900000e+00	8.906730e-05	
212	3.950000e+00	8.908820e-05	
213	4.000000e+00	8.911019e-05	
214	4.050000e+00	8.913344e-05	
215	4.100000e+00	8.915813e-05	
216	4.150000e+00	8.918451e-05	
217	4.200000e+00	8.921280e-05	
218	4.250000e+00	8.924327e-05	
219	4.300000e+00	8.927622e-05	
220	4.350000e+00	8.931195e-05	
221	4.400000e+00	8.935082e-05	
222	4.450000e+00	8.939319e-05	
223	4.500000e+00	8.943947e-05	
224	4.550000e+00	8.949009e-05	
225	4.600000e+00	8.954549e-05	
226	4.650000e+00	8.960619e-05	
227	4.700000e+00	8.967269e-05	
228	4.750000e+00	8.974556e-05	

Index   v-sweep         -i(vds)         
--------------------------------------------------------------------------------
229	4.800000e+00	8.982539e-05	
230	4.850000e+00	8.991278e-05	
231	4.900000e+00	9.000841e-05	
232	4.950000e+00	9.011295e-05	
233	5.000000e+00	9.022712e-05	
234	5.050000e+00	9.035169e-05	
235	5.100000e+00	9.048744e-05	
236	5.150000e+00	9.063519e-05	
237	5.200000e+00	9.079579e-05	
238	5.250000e+00	9.097013e-05	
239	5.300000e+00	9.115914e-05	
240	5.350000e+00	9.136377e-05	
241	5.400000e+00	9.158499e-05	
242	5.450000e+00	9.182383e-05	
243	5.500000e+00	9.208133e-05	
244	5.550000e+00	9.235857e-05	
245	5.600000e+00	9.265665e-05	
246	5.650000e+00	9.297670e-05	
247	5.700000e+00	9.331990e-05	
248	5.750000e+00	9.368742e-05	
249	5.800000e+00	9.408049e-05	
250	5.850000e+00	9.450034e-05	
251	5.900000e+00	9.494823e-05	
252	5.950000e+00	9.542547e-05	
253	6.000000e+00	9.593335e-05	
254	6.050000e+00	9.647321e-05	
255	6.100000e+00	9.704640e-05	
256	6.150000e+00	9.765430e-05	
257	6.200000e+00	9.829830e-05	
258	6.250000e+00	9.897980e-05	
259	6.300000e+00	9.970024e-05	
260	6.350000e+00	1.004610e-04	
261	6.400000e+00	1.012637e-04	
262	6.450000e+00	1.021096e-04	
263	6.500000e+00	1.030003e-04	
264	6.550000e+00	1.039373e-04	
265	6.600000e+00	1.049221e-04	
266	0.000000e+00	6.075083e-36	
267	5.000000e-02	1.522270e-05	
268	1.000000e-01	2.998506e-05	
269	1.500000e-01	4.428819e-05	
270	2.000000e-01	5.813324e-05	
271	2.500000e-01	7.152132e-05	
272	3.000000e-01	8.445354e-05	
273	3.500000e-01	9.693104e-05	
274	4.000000e-01	1.089549e-04	
275	4.500000e-01	1.205263e-04	
276	5.000000e-01	1.316463e-04	
277	5.500000e-01	1.423159e-04	
278	6.000000e-01	1.525364e-04	
279	6.500000e-01	1.623088e-04	
280	7.000000e-01	1.716342e-04	
281	7.500000e-01	1.805136e-04	
282	8.000000e-01	1.889483e-04	
283	8.500000e-01	1.969393e-04	
284	9.000000e-01	2.044876e-04	
285	9.500000e-01	2.115944e-04	
286	1.000000e+00	2.182608e-04	

Index   v-sweep         -i(vds)         
--------------------------------------------------------------------------------
287	1.050000e+00	2.244880e-04	
288	1.100000e+00	2.302771e-04	
289	1.150000e+00	2.356293e-04	
290	1.200000e+00	2.405460e-04	
291	1.250000e+00	2.450286e-04	
292	1.300000e+00	2.490791e-04	
293	1.350000e+00	2.526995e-04	
294	1.400000e+00	2.558932e-04	
295	1.450000e+00	2.586650e-04	
296	1.500000e+00	2.610223e-04	
297	1.550000e+00	2.629779e-04	
298	1.600000e+00	2.645524e-04	
299	1.650000e+00	2.657783e-04	
300	1.700000e+00	2.667018e-04	
301	1.750000e+00	2.673799e-04	
302	1.800000e+00	2.678722e-04	
303	1.850000e+00	2.682316e-04	
304	1.900000e+00	2.684992e-04	
305	1.950000e+00	2.687040e-04	
306	2.000000e+00	2.688657e-04	
307	2.050000e+00	2.689973e-04	
308	2.100000e+00	2.691073e-04	
309	2.150000e+00	2.692017e-04	
310	2.200000e+00	2.692843e-04	
311	2.250000e+00	2.693580e-04	
312	2.300000e+00	2.694246e-04	
313	2.350000e+00	2.694857e-04	
314	2.400000e+00	2.695424e-04	
315	2.450000e+00	2.695954e-04	
316	2.500000e+00	2.696454e-04	
317	2.550000e+00	2.696929e-04	
318	2.600000e+00	2.697382e-04	
319	2.650000e+00	2.697816e-04	
320	2.700000e+00	2.698235e-04	
321	2.750000e+00	2.698640e-04	
322	2.800000e+00	2.699033e-04	
323	2.850000e+00	2.699416e-04	
324	2.900000e+00	2.699788e-04	
325	2.950000e+00	2.700153e-04	
326	3.000000e+00	2.700510e-04	
327	3.050000e+00	2.700860e-04	
328	3.100000e+00	2.701204e-04	
329	3.150000e+00	2.701543e-04	
330	3.200000e+00	2.701876e-04	
331	3.250000e+00	2.702205e-04	
332	3.300000e+00	2.702530e-04	
333	3.350000e+00	2.702850e-04	
334	3.400000e+00	2.703167e-04	
335	3.450000e+00	2.703481e-04	
336	3.500000e+00	2.703791e-04	
337	3.550000e+00	2.704099e-04	
338	3.600000e+00	2.704404e-04	
339	3.650000e+00	2.704707e-04	
340	3.700000e+00	2.705007e-04	
341	3.750000e+00	2.705306e-04	
342	3.800000e+00	2.705603e-04	
343	3.850000e+00	2.705898e-04	
344	3.900000e+00	2.706192e-04	

Index   v-sweep         -i(vds)         
--------------------------------------------------------------------------------
345	3.950000e+00	2.706486e-04	
346	4.000000e+00	2.706779e-04	
347	4.050000e+00	2.707073e-04	
348	4.100000e+00	2.707367e-04	
349	4.150000e+00	2.707663e-04	
350	4.200000e+00	2.707961e-04	
351	4.250000e+00	2.708263e-04	
352	4.300000e+00	2.708571e-04	
353	4.350000e+00	2.708884e-04	
354	4.400000e+00	2.709206e-04	
355	4.450000e+00	2.709538e-04	
356	4.500000e+00	2.709884e-04	
357	4.550000e+00	2.710245e-04	
358	4.600000e+00	2.710624e-04	
359	4.650000e+00	2.711027e-04	
360	4.700000e+00	2.711456e-04	
361	4.750000e+00	2.711917e-04	
362	4.800000e+00	2.712415e-04	
363	4.850000e+00	2.712955e-04	
364	4.900000e+00	2.713545e-04	
365	4.950000e+00	2.714191e-04	
366	5.000000e+00	2.714901e-04	
367	5.050000e+00	2.715684e-04	
368	5.100000e+00	2.716549e-04	
369	5.150000e+00	2.717507e-04	
370	5.200000e+00	2.718568e-04	
371	5.250000e+00	2.719744e-04	
372	5.300000e+00	2.721049e-04	
373	5.350000e+00	2.722496e-04	
374	5.400000e+00	2.724100e-04	
375	5.450000e+00	2.725876e-04	
376	5.500000e+00	2.727840e-04	
377	5.550000e+00	2.730012e-04	
378	5.600000e+00	2.732408e-04	
379	5.650000e+00	2.735048e-04	
380	5.700000e+00	2.737954e-04	
381	5.750000e+00	2.741146e-04	
382	5.800000e+00	2.744648e-04	
383	5.850000e+00	2.748482e-04	
384	5.900000e+00	2.752674e-04	
385	5.950000e+00	2.757249e-04	
386	6.000000e+00	2.762233e-04	
387	6.050000e+00	2.767654e-04	
388	6.100000e+00	2.773542e-04	
389	6.150000e+00	2.779924e-04	
390	6.200000e+00	2.786832e-04	
391	6.250000e+00	2.794297e-04	
392	6.300000e+00	2.802351e-04	
393	6.350000e+00	2.811027e-04	
394	6.400000e+00	2.820360e-04	
395	6.450000e+00	2.830384e-04	
396	6.500000e+00	2.841134e-04	
397	6.550000e+00	2.852648e-04	
398	6.600000e+00	2.864962e-04	
399	0.000000e+00	-1.59507e-35	
400	5.000000e-02	2.026882e-05	
401	1.000000e-01	4.011833e-05	
402	1.500000e-01	5.954955e-05	

Index   v-sweep         -i(vds)         
--------------------------------------------------------------------------------
403	2.000000e-01	7.856351e-05	
404	2.500000e-01	9.716122e-05	
405	3.000000e-01	1.153437e-04	
406	3.500000e-01	1.331119e-04	
407	4.000000e-01	1.504670e-04	
408	4.500000e-01	1.674098e-04	
409	5.000000e-01	1.839414e-04	
410	5.500000e-01	2.000627e-04	
411	6.000000e-01	2.157749e-04	
412	6.500000e-01	2.310788e-04	
413	7.000000e-01	2.459755e-04	
414	7.500000e-01	2.604659e-04	
415	8.000000e-01	2.745510e-04	
416	8.500000e-01	2.882318e-04	
417	9.000000e-01	3.015093e-04	
418	9.500000e-01	3.143845e-04	
419	1.000000e+00	3.268582e-04	
420	1.050000e+00	3.389315e-04	
421	1.100000e+00	3.506053e-04	
422	1.150000e+00	3.618806e-04	
423	1.200000e+00	3.727583e-04	
424	1.250000e+00	3.832394e-04	
425	1.300000e+00	3.933248e-04	
426	1.350000e+00	4.030154e-04	
427	1.400000e+00	4.123122e-04	
428	1.450000e+00	4.212160e-04	
429	1.500000e+00	4.297279e-04	
430	1.550000e+00	4.378486e-04	
431	1.600000e+00	4.455791e-04	
432	1.650000e+00	4.529203e-04	
433	1.700000e+00	4.598731e-04	
434	1.750000e+00	4.664382e-04	
435	1.800000e+00	4.726167e-04	
436	1.850000e+00	4.784094e-04	
437	1.900000e+00	4.838171e-04	
438	1.950000e+00	4.888408e-04	
439	2.000000e+00	4.934815e-04	
440	2.050000e+00	4.977404e-04	
441	2.100000e+00	5.016189e-04	
442	2.150000e+00	5.051189e-04	
443	2.200000e+00	5.082432e-04	
444	2.250000e+00	5.109962e-04	
445	2.300000e+00	5.133847e-04	
446	2.350000e+00	5.154197e-04	
447	2.400000e+00	5.171186e-04	
448	2.450000e+00	5.185065e-04	
449	2.500000e+00	5.196178e-04	
450	2.550000e+00	5.204937e-04	
451	2.600000e+00	5.211786e-04	
452	2.650000e+00	5.217145e-04	
453	2.700000e+00	5.221375e-04	
454	2.750000e+00	5.224763e-04	
455	2.800000e+00	5.227526e-04	
456	2.850000e+00	5.229822e-04	
457	2.900000e+00	5.231765e-04	
458	2.950000e+00	5.233441e-04	
459	3.000000e+00	5.234907e-04	
460	3.050000e+00	5.236210e-04	

Index   v-sweep         -i(vds)         
--------------------------------------------------------------------------------
461	3.100000e+00	5.237383e-04	
462	3.150000e+00	5.238449e-04	
463	3.200000e+00	5.239430e-04	
464	3.250000e+00	5.240338e-04	
465	3.300000e+00	5.241187e-04	
466	3.350000e+00	5.241984e-04	
467	3.400000e+00	5.242739e-04	
468	3.450000e+00	5.243456e-04	
469	3.500000e+00	5.244141e-04	
470	3.550000e+00	5.244797e-04	
471	3.600000e+00	5.245429e-04	
472	3.650000e+00	5.246039e-04	
473	3.700000e+00	5.246629e-04	
474	3.750000e+00	5.247202e-04	
475	3.800000e+00	5.247760e-04	
476	3.850000e+00	5.248303e-04	
477	3.900000e+00	5.248833e-04	
478	3.950000e+00	5.249352e-04	
479	4.000000e+00	5.249860e-04	
480	4.050000e+00	5.250359e-04	
481	4.100000e+00	5.250849e-04	
482	4.150000e+00	5.251330e-04	
483	4.200000e+00	5.251804e-04	
484	4.250000e+00	5.252271e-04	
485	4.300000e+00	5.252732e-04	
486	4.350000e+00	5.253187e-04	
487	4.400000e+00	5.253636e-04	
488	4.450000e+00	5.254080e-04	
489	4.500000e+00	5.254520e-04	
490	4.550000e+00	5.254955e-04	
491	4.600000e+00	5.255387e-04	
492	4.650000e+00	5.255816e-04	
493	4.700000e+00	5.256243e-04	
494	4.750000e+00	5.256668e-04	
495	4.800000e+00	5.257092e-04	
496	4.850000e+00	5.257517e-04	
497	4.900000e+00	5.257943e-04	
498	4.950000e+00	5.258373e-04	
499	5.000000e+00	5.258807e-04	
500	5.050000e+00	5.259249e-04	
501	5.100000e+00	5.259700e-04	
502	5.150000e+00	5.260165e-04	
503	5.200000e+00	5.260645e-04	
504	5.250000e+00	5.261147e-04	
505	5.300000e+00	5.261673e-04	
506	5.350000e+00	5.262231e-04	
507	5.400000e+00	5.262826e-04	
508	5.450000e+00	5.263466e-04	
509	5.500000e+00	5.264159e-04	
510	5.550000e+00	5.264914e-04	
511	5.600000e+00	5.265741e-04	
512	5.650000e+00	5.266652e-04	
513	5.700000e+00	5.267660e-04	
514	5.750000e+00	5.268778e-04	
515	5.800000e+00	5.270023e-04	
516	5.850000e+00	5.271411e-04	
517	5.900000e+00	5.272960e-04	
518	5.950000e+00	5.274690e-04	

Index   v-sweep         -i(vds)         
--------------------------------------------------------------------------------
519	6.000000e+00	5.276624e-04	
520	6.050000e+00	5.278783e-04	
521	6.100000e+00	5.281194e-04	
522	6.150000e+00	5.283883e-04	
523	6.200000e+00	5.286878e-04	
524	6.250000e+00	5.290210e-04	
525	6.300000e+00	5.293912e-04	
526	6.350000e+00	5.298017e-04	
527	6.400000e+00	5.302561e-04	
528	6.450000e+00	5.307583e-04	
529	6.500000e+00	5.313123e-04	
530	6.550000e+00	5.319222e-04	
531	6.600000e+00	5.325924e-04	
532	0.000000e+00	2.339787e-19	
533	5.000000e-02	2.405265e-05	
534	1.000000e-01	4.773054e-05	
535	1.500000e-01	7.103454e-05	
536	2.000000e-01	9.396550e-05	
537	2.500000e-01	1.165243e-04	
538	3.000000e-01	1.387118e-04	
539	3.500000e-01	1.605289e-04	
540	4.000000e-01	1.819763e-04	
541	4.500000e-01	2.030551e-04	
542	5.000000e-01	2.237659e-04	
543	5.500000e-01	2.441097e-04	
544	6.000000e-01	2.640873e-04	
545	6.500000e-01	2.836996e-04	
546	7.000000e-01	3.029473e-04	
547	7.500000e-01	3.218314e-04	
548	8.000000e-01	3.403527e-04	
549	8.500000e-01	3.585119e-04	
550	9.000000e-01	3.763100e-04	
551	9.500000e-01	3.937478e-04	
552	1.000000e+00	4.108260e-04	
553	1.050000e+00	4.275456e-04	
554	1.100000e+00	4.439073e-04	
555	1.150000e+00	4.599119e-04	
556	1.200000e+00	4.755603e-04	
557	1.250000e+00	4.908533e-04	
558	1.300000e+00	5.057916e-04	
559	1.350000e+00	5.203762e-04	
560	1.400000e+00	5.346077e-04	
561	1.450000e+00	5.484871e-04	
562	1.500000e+00	5.620150e-04	
563	1.550000e+00	5.751923e-04	
564	1.600000e+00	5.880198e-04	
565	1.650000e+00	6.004982e-04	
566	1.700000e+00	6.126284e-04	
567	1.750000e+00	6.244111e-04	
568	1.800000e+00	6.358471e-04	
569	1.850000e+00	6.469371e-04	
570	1.900000e+00	6.576820e-04	
571	1.950000e+00	6.680824e-04	
572	2.000000e+00	6.781391e-04	
573	2.050000e+00	6.878529e-04	
574	2.100000e+00	6.972244e-04	
575	2.150000e+00	7.062545e-04	
576	2.200000e+00	7.149438e-04	

Index   v-sweep         -i(vds)         
--------------------------------------------------------------------------------
577	2.250000e+00	7.232930e-04	
578	2.300000e+00	7.313027e-04	
579	2.350000e+00	7.389738e-04	
580	2.400000e+00	7.463068e-04	
581	2.450000e+00	7.533023e-04	
582	2.500000e+00	7.599610e-04	
583	2.550000e+00	7.662834e-04	
584	2.600000e+00	7.722700e-04	
585	2.650000e+00	7.779216e-04	
586	2.700000e+00	7.832384e-04	
587	2.750000e+00	7.882210e-04	
588	2.800000e+00	7.928699e-04	
589	2.850000e+00	7.971856e-04	
590	2.900000e+00	8.011688e-04	
591	2.950000e+00	8.048202e-04	
592	3.000000e+00	8.081413e-04	
593	3.050000e+00	8.111341e-04	
594	3.100000e+00	8.138022e-04	
595	3.150000e+00	8.161514e-04	
596	3.200000e+00	8.181911e-04	
597	3.250000e+00	8.199354e-04	
598	3.300000e+00	8.214047e-04	
599	3.350000e+00	8.226254e-04	
600	3.400000e+00	8.236289e-04	
601	3.450000e+00	8.244490e-04	
602	3.500000e+00	8.251192e-04	
603	3.550000e+00	8.256692e-04	
604	3.600000e+00	8.261247e-04	
605	3.650000e+00	8.265062e-04	
606	3.700000e+00	8.268298e-04	
607	3.750000e+00	8.271080e-04	
608	3.800000e+00	8.273501e-04	
609	3.850000e+00	8.275636e-04	
610	3.900000e+00	8.277538e-04	
611	3.950000e+00	8.279252e-04	
612	4.000000e+00	8.280810e-04	
613	4.050000e+00	8.282239e-04	
614	4.100000e+00	8.283560e-04	
615	4.150000e+00	8.284789e-04	
616	4.200000e+00	8.285939e-04	
617	4.250000e+00	8.287022e-04	
618	4.300000e+00	8.288046e-04	
619	4.350000e+00	8.289019e-04	
620	4.400000e+00	8.289948e-04	
621	4.450000e+00	8.290837e-04	
622	4.500000e+00	8.291690e-04	
623	4.550000e+00	8.292513e-04	
624	4.600000e+00	8.293308e-04	
625	4.650000e+00	8.294077e-04	
626	4.700000e+00	8.294823e-04	
627	4.750000e+00	8.295549e-04	
628	4.800000e+00	8.296256e-04	
629	4.850000e+00	8.296946e-04	
630	4.900000e+00	8.297620e-04	
631	4.950000e+00	8.298280e-04	
632	5.000000e+00	8.298926e-04	
633	5.050000e+00	8.299560e-04	
634	5.100000e+00	8.300182e-04	

Index   v-sweep         -i(vds)         
--------------------------------------------------------------------------------
635	5.150000e+00	8.300795e-04	
636	5.200000e+00	8.301397e-04	
637	5.250000e+00	8.301991e-04	
638	5.300000e+00	8.302576e-04	
639	5.350000e+00	8.303154e-04	
640	5.400000e+00	8.303726e-04	
641	5.450000e+00	8.304291e-04	
642	5.500000e+00	8.304852e-04	
643	5.550000e+00	8.305409e-04	
644	5.600000e+00	8.305964e-04	
645	5.650000e+00	8.306517e-04	
646	5.700000e+00	8.307072e-04	
647	5.750000e+00	8.307629e-04	
648	5.800000e+00	8.308192e-04	
649	5.850000e+00	8.308763e-04	
650	5.900000e+00	8.309346e-04	
651	5.950000e+00	8.309946e-04	
652	6.000000e+00	8.310567e-04	
653	6.050000e+00	8.311216e-04	
654	6.100000e+00	8.311898e-04	
655	6.150000e+00	8.312623e-04	
656	6.200000e+00	8.313399e-04	
657	6.250000e+00	8.314236e-04	
658	6.300000e+00	8.315147e-04	
659	6.350000e+00	8.316145e-04	
660	6.400000e+00	8.317244e-04	
661	6.450000e+00	8.318462e-04	
662	6.500000e+00	8.319817e-04	
663	6.550000e+00	8.321329e-04	
664	6.600000e+00	8.323022e-04	
665	0.000000e+00	3.453220e-35	
666	5.000000e-02	2.670906e-05	
667	1.000000e-01	5.308780e-05	
668	1.500000e-01	7.913693e-05	
669	2.000000e-01	1.048571e-04	
670	2.500000e-01	1.302492e-04	
671	3.000000e-01	1.553137e-04	
672	3.500000e-01	1.800514e-04	
673	4.000000e-01	2.044631e-04	
674	4.500000e-01	2.285493e-04	
675	5.000000e-01	2.523108e-04	
676	5.500000e-01	2.757484e-04	
677	6.000000e-01	2.988626e-04	
678	6.500000e-01	3.216542e-04	
679	7.000000e-01	3.441239e-04	
680	7.500000e-01	3.662724e-04	
681	8.000000e-01	3.881002e-04	
682	8.500000e-01	4.096083e-04	
683	9.000000e-01	4.307971e-04	
684	9.500000e-01	4.516674e-04	
685	1.000000e+00	4.722199e-04	
686	1.050000e+00	4.924553e-04	
687	1.100000e+00	5.123741e-04	
688	1.150000e+00	5.319772e-04	
689	1.200000e+00	5.512651e-04	
690	1.250000e+00	5.702386e-04	
691	1.300000e+00	5.888983e-04	
692	1.350000e+00	6.072448e-04	

Index   v-sweep         -i(vds)         
--------------------------------------------------------------------------------
693	1.400000e+00	6.252789e-04	
694	1.450000e+00	6.430012e-04	
695	1.500000e+00	6.604124e-04	
696	1.550000e+00	6.775130e-04	
697	1.600000e+00	6.943039e-04	
698	1.650000e+00	7.107855e-04	
699	1.700000e+00	7.269587e-04	
700	1.750000e+00	7.428239e-04	
701	1.800000e+00	7.583820e-04	
702	1.850000e+00	7.736334e-04	
703	1.900000e+00	7.885790e-04	
704	1.950000e+00	8.032192e-04	
705	2.000000e+00	8.175548e-04	
706	2.050000e+00	8.315864e-04	
707	2.100000e+00	8.453145e-04	
708	2.150000e+00	8.587400e-04	
709	2.200000e+00	8.718632e-04	
710	2.250000e+00	8.846850e-04	
711	2.300000e+00	8.972059e-04	
712	2.350000e+00	9.094265e-04	
713	2.400000e+00	9.213475e-04	
714	2.450000e+00	9.329694e-04	
715	2.500000e+00	9.442929e-04	
716	2.550000e+00	9.553186e-04	
717	2.600000e+00	9.660470e-04	
718	2.650000e+00	9.764787e-04	
719	2.700000e+00	9.866144e-04	
720	2.750000e+00	9.964545e-04	
721	2.800000e+00	1.006000e-03	
722	2.850000e+00	1.015251e-03	
723	2.900000e+00	1.024208e-03	
724	2.950000e+00	1.032871e-03	
725	3.000000e+00	1.041242e-03	
726	3.050000e+00	1.049321e-03	
727	3.100000e+00	1.057108e-03	
728	3.150000e+00	1.064604e-03	
729	3.200000e+00	1.071809e-03	
730	3.250000e+00	1.078723e-03	
731	3.300000e+00	1.085347e-03	
732	3.350000e+00	1.091682e-03	
733	3.400000e+00	1.097727e-03	
734	3.450000e+00	1.103484e-03	
735	3.500000e+00	1.108951e-03	
736	3.550000e+00	1.114130e-03	
737	3.600000e+00	1.119020e-03	
738	3.650000e+00	1.123621e-03	
739	3.700000e+00	1.127934e-03	
740	3.750000e+00	1.131959e-03	
741	3.800000e+00	1.135695e-03	
742	3.850000e+00	1.139142e-03	
743	3.900000e+00	1.142302e-03	
744	3.950000e+00	1.145176e-03	
745	4.000000e+00	1.147766e-03	
746	4.050000e+00	1.150077e-03	
747	4.100000e+00	1.152116e-03	
748	4.150000e+00	1.153894e-03	
749	4.200000e+00	1.155427e-03	
750	4.250000e+00	1.156735e-03	

Index   v-sweep         -i(vds)         
--------------------------------------------------------------------------------
751	4.300000e+00	1.157842e-03	
752	4.350000e+00	1.158775e-03	
753	4.400000e+00	1.159560e-03	
754	4.450000e+00	1.160223e-03	
755	4.500000e+00	1.160784e-03	
756	4.550000e+00	1.161264e-03	
757	4.600000e+00	1.161677e-03	
758	4.650000e+00	1.162037e-03	
759	4.700000e+00	1.162354e-03	
760	4.750000e+00	1.162634e-03	
761	4.800000e+00	1.162886e-03	
762	4.850000e+00	1.163113e-03	
763	4.900000e+00	1.163319e-03	
764	4.950000e+00	1.163509e-03	
765	5.000000e+00	1.163684e-03	
766	5.050000e+00	1.163846e-03	
767	5.100000e+00	1.163998e-03	
768	5.150000e+00	1.164141e-03	
769	5.200000e+00	1.164275e-03	
770	5.250000e+00	1.164402e-03	
771	5.300000e+00	1.164524e-03	
772	5.350000e+00	1.164639e-03	
773	5.400000e+00	1.164750e-03	
774	5.450000e+00	1.164856e-03	
775	5.500000e+00	1.164959e-03	
776	5.550000e+00	1.165057e-03	
777	5.600000e+00	1.165153e-03	
778	5.650000e+00	1.165245e-03	
779	5.700000e+00	1.165335e-03	
780	5.750000e+00	1.165423e-03	
781	5.800000e+00	1.165508e-03	
782	5.850000e+00	1.165591e-03	
783	5.900000e+00	1.165672e-03	
784	5.950000e+00	1.165752e-03	
785	6.000000e+00	1.165830e-03	
786	6.050000e+00	1.165906e-03	
787	6.100000e+00	1.165981e-03	
788	6.150000e+00	1.166055e-03	
789	6.200000e+00	1.166127e-03	
790	6.250000e+00	1.166199e-03	
791	6.300000e+00	1.166269e-03	
792	6.350000e+00	1.166339e-03	
793	6.400000e+00	1.166408e-03	
794	6.450000e+00	1.166476e-03	
795	6.500000e+00	1.166544e-03	
796	6.550000e+00	1.166612e-03	
797	6.600000e+00	1.166681e-03	
Note: No ".plot", ".print", or ".fourier" lines; no simulations run
