
Note: Compatibility modes selected: hs

Warning: m=xx on .subckt line will override multiplier m hierarchy!


Circuit: ***************************

Doing analysis at TEMP = -40.000000 and TNOM = -40.000000


No. of Data Rows : 798
                          ***************************
                          DC transfer characteristic  Mon Jan  9 13:58:36  2023
--------------------------------------------------------------------------------
Index   v-sweep         -i(vds)         
--------------------------------------------------------------------------------
0	0.000000e+00	2.312522e-23	
1	5.000000e-02	1.516105e-06	
2	1.000000e-01	2.567648e-06	
3	1.500000e-01	3.181540e-06	
4	2.000000e-01	3.448899e-06	
5	2.500000e-01	3.538301e-06	
6	3.000000e-01	3.570779e-06	
7	3.500000e-01	3.586651e-06	
8	4.000000e-01	3.596656e-06	
9	4.500000e-01	3.604099e-06	
10	5.000000e-01	3.610224e-06	
11	5.500000e-01	3.615583e-06	
12	6.000000e-01	3.620454e-06	
13	6.500000e-01	3.624994e-06	
14	7.000000e-01	3.629296e-06	
15	7.500000e-01	3.633420e-06	
16	8.000000e-01	3.637405e-06	
17	8.500000e-01	3.641280e-06	
18	9.000000e-01	3.645066e-06	
19	9.500000e-01	3.648778e-06	
20	1.000000e+00	3.652427e-06	
21	1.050000e+00	3.656024e-06	
22	1.100000e+00	3.659574e-06	
23	1.150000e+00	3.663084e-06	
24	1.200000e+00	3.666558e-06	
25	1.250000e+00	3.670001e-06	
26	1.300000e+00	3.673417e-06	
27	1.350000e+00	3.676807e-06	
28	1.400000e+00	3.680174e-06	
29	1.450000e+00	3.683521e-06	
30	1.500000e+00	3.686849e-06	
31	1.550000e+00	3.690159e-06	
32	1.600000e+00	3.693454e-06	
33	1.650000e+00	3.696734e-06	
34	1.700000e+00	3.700001e-06	
35	1.750000e+00	3.703254e-06	
36	1.800000e+00	3.706497e-06	
37	1.850000e+00	3.709728e-06	
38	1.900000e+00	3.712949e-06	
39	1.950000e+00	3.716161e-06	
40	2.000000e+00	3.719363e-06	
41	2.050000e+00	3.722558e-06	
42	2.100000e+00	3.725744e-06	
43	2.150000e+00	3.728923e-06	
44	2.200000e+00	3.732095e-06	
45	2.250000e+00	3.735261e-06	
46	2.300000e+00	3.738420e-06	
47	2.350000e+00	3.741575e-06	
48	2.400000e+00	3.744725e-06	
49	2.450000e+00	3.747870e-06	
50	2.500000e+00	3.751012e-06	
51	2.550000e+00	3.754152e-06	
52	2.600000e+00	3.757291e-06	
53	2.650000e+00	3.760429e-06	
54	2.700000e+00	3.763568e-06	

Index   v-sweep         -i(vds)         
--------------------------------------------------------------------------------
55	2.750000e+00	3.766710e-06	
56	2.800000e+00	3.769857e-06	
57	2.850000e+00	3.773011e-06	
58	2.900000e+00	3.776175e-06	
59	2.950000e+00	3.779351e-06	
60	3.000000e+00	3.782545e-06	
61	3.050000e+00	3.785758e-06	
62	3.100000e+00	3.788998e-06	
63	3.150000e+00	3.792267e-06	
64	3.200000e+00	3.795574e-06	
65	3.250000e+00	3.798925e-06	
66	3.300000e+00	3.802326e-06	
67	3.350000e+00	3.805788e-06	
68	3.400000e+00	3.809318e-06	
69	3.450000e+00	3.812929e-06	
70	3.500000e+00	3.816630e-06	
71	3.550000e+00	3.820435e-06	
72	3.600000e+00	3.824358e-06	
73	3.650000e+00	3.828412e-06	
74	3.700000e+00	3.832615e-06	
75	3.750000e+00	3.836984e-06	
76	3.800000e+00	3.841537e-06	
77	3.850000e+00	3.846294e-06	
78	3.900000e+00	3.851277e-06	
79	3.950000e+00	3.856509e-06	
80	4.000000e+00	3.862013e-06	
81	4.050000e+00	3.867816e-06	
82	4.100000e+00	3.873944e-06	
83	4.150000e+00	3.880427e-06	
84	4.200000e+00	3.887295e-06	
85	4.250000e+00	3.894578e-06	
86	4.300000e+00	3.902311e-06	
87	4.350000e+00	3.910529e-06	
88	4.400000e+00	3.919267e-06	
89	4.450000e+00	3.928563e-06	
90	4.500000e+00	3.938457e-06	
91	4.550000e+00	3.948989e-06	
92	4.600000e+00	3.960203e-06	
93	4.650000e+00	3.972141e-06	
94	4.700000e+00	3.984849e-06	
95	4.750000e+00	3.998374e-06	
96	4.800000e+00	4.012763e-06	
97	4.850000e+00	4.028067e-06	
98	4.900000e+00	4.044336e-06	
99	4.950000e+00	4.061623e-06	
100	5.000000e+00	4.079981e-06	
101	5.050000e+00	4.099464e-06	
102	5.100000e+00	4.120130e-06	
103	5.150000e+00	4.142034e-06	
104	5.200000e+00	4.165237e-06	
105	5.250000e+00	4.189796e-06	
106	5.300000e+00	4.215773e-06	
107	5.350000e+00	4.243230e-06	
108	5.400000e+00	4.272229e-06	
109	5.450000e+00	4.302833e-06	
110	5.500000e+00	4.335109e-06	
111	5.550000e+00	4.369120e-06	
112	5.600000e+00	4.404933e-06	

Index   v-sweep         -i(vds)         
--------------------------------------------------------------------------------
113	5.650000e+00	4.442616e-06	
114	5.700000e+00	4.482236e-06	
115	5.750000e+00	4.523862e-06	
116	5.800000e+00	4.567564e-06	
117	5.850000e+00	4.613410e-06	
118	5.900000e+00	4.661473e-06	
119	5.950000e+00	4.711822e-06	
120	6.000000e+00	4.764529e-06	
121	6.050000e+00	4.819666e-06	
122	6.100000e+00	4.877307e-06	
123	6.150000e+00	4.937523e-06	
124	6.200000e+00	5.000387e-06	
125	6.250000e+00	5.065975e-06	
126	6.300000e+00	5.134358e-06	
127	6.350000e+00	5.205611e-06	
128	6.400000e+00	5.279809e-06	
129	6.450000e+00	5.357025e-06	
130	6.500000e+00	5.437334e-06	
131	6.550000e+00	5.520811e-06	
132	6.600000e+00	5.607531e-06	
133	0.000000e+00	1.037501e-36	
134	5.000000e-02	8.847976e-06	
135	1.000000e-01	1.718770e-05	
136	1.500000e-01	2.502148e-05	
137	2.000000e-01	3.235161e-05	
138	2.500000e-01	3.918038e-05	
139	3.000000e-01	4.551011e-05	
140	3.500000e-01	5.134312e-05	
141	4.000000e-01	5.668177e-05	
142	4.500000e-01	6.152851e-05	
143	5.000000e-01	6.588590e-05	
144	5.500000e-01	6.975676e-05	
145	6.000000e-01	7.314436e-05	
146	6.500000e-01	7.605293e-05	
147	7.000000e-01	7.848865e-05	
148	7.500000e-01	8.046184e-05	
149	8.000000e-01	8.199156e-05	
150	8.500000e-01	8.311351e-05	
151	9.000000e-01	8.388847e-05	
152	9.500000e-01	8.439993e-05	
153	1.000000e+00	8.473417e-05	
154	1.050000e+00	8.495889e-05	
155	1.100000e+00	8.511781e-05	
156	1.150000e+00	8.523654e-05	
157	1.200000e+00	8.532977e-05	
158	1.250000e+00	8.540607e-05	
159	1.300000e+00	8.547064e-05	
160	1.350000e+00	8.552677e-05	
161	1.400000e+00	8.557661e-05	
162	1.450000e+00	8.562162e-05	
163	1.500000e+00	8.566285e-05	
164	1.550000e+00	8.570104e-05	
165	1.600000e+00	8.573675e-05	
166	1.650000e+00	8.577039e-05	
167	1.700000e+00	8.580230e-05	
168	1.750000e+00	8.583273e-05	
169	1.800000e+00	8.586190e-05	
170	1.850000e+00	8.588995e-05	

Index   v-sweep         -i(vds)         
--------------------------------------------------------------------------------
171	1.900000e+00	8.591704e-05	
172	1.950000e+00	8.594327e-05	
173	2.000000e+00	8.596874e-05	
174	2.050000e+00	8.599354e-05	
175	2.100000e+00	8.601772e-05	
176	2.150000e+00	8.604135e-05	
177	2.200000e+00	8.606447e-05	
178	2.250000e+00	8.608715e-05	
179	2.300000e+00	8.610940e-05	
180	2.350000e+00	8.613127e-05	
181	2.400000e+00	8.615278e-05	
182	2.450000e+00	8.617397e-05	
183	2.500000e+00	8.619485e-05	
184	2.550000e+00	8.621545e-05	
185	2.600000e+00	8.623579e-05	
186	2.650000e+00	8.625588e-05	
187	2.700000e+00	8.627575e-05	
188	2.750000e+00	8.629540e-05	
189	2.800000e+00	8.631485e-05	
190	2.850000e+00	8.633411e-05	
191	2.900000e+00	8.635320e-05	
192	2.950000e+00	8.637212e-05	
193	3.000000e+00	8.639090e-05	
194	3.050000e+00	8.640954e-05	
195	3.100000e+00	8.642806e-05	
196	3.150000e+00	8.644647e-05	
197	3.200000e+00	8.646479e-05	
198	3.250000e+00	8.648305e-05	
199	3.300000e+00	8.650126e-05	
200	3.350000e+00	8.651945e-05	
201	3.400000e+00	8.653766e-05	
202	3.450000e+00	8.655592e-05	
203	3.500000e+00	8.657427e-05	
204	3.550000e+00	8.659278e-05	
205	3.600000e+00	8.661149e-05	
206	3.650000e+00	8.663047e-05	
207	3.700000e+00	8.664982e-05	
208	3.750000e+00	8.666962e-05	
209	3.800000e+00	8.668997e-05	
210	3.850000e+00	8.671099e-05	
211	3.900000e+00	8.673282e-05	
212	3.950000e+00	8.675562e-05	
213	4.000000e+00	8.677954e-05	
214	4.050000e+00	8.680479e-05	
215	4.100000e+00	8.683156e-05	
216	4.150000e+00	8.686009e-05	
217	4.200000e+00	8.689064e-05	
218	4.250000e+00	8.692347e-05	
219	4.300000e+00	8.695890e-05	
220	4.350000e+00	8.699725e-05	
221	4.400000e+00	8.703887e-05	
222	4.450000e+00	8.708416e-05	
223	4.500000e+00	8.713351e-05	
224	4.550000e+00	8.718737e-05	
225	4.600000e+00	8.724622e-05	
226	4.650000e+00	8.731055e-05	
227	4.700000e+00	8.738090e-05	
228	4.750000e+00	8.745783e-05	

Index   v-sweep         -i(vds)         
--------------------------------------------------------------------------------
229	4.800000e+00	8.754194e-05	
230	4.850000e+00	8.763385e-05	
231	4.900000e+00	8.773422e-05	
232	4.950000e+00	8.784376e-05	
233	5.000000e+00	8.796318e-05	
234	5.050000e+00	8.809325e-05	
235	5.100000e+00	8.823476e-05	
236	5.150000e+00	8.838852e-05	
237	5.200000e+00	8.855540e-05	
238	5.250000e+00	8.873628e-05	
239	5.300000e+00	8.893208e-05	
240	5.350000e+00	8.914375e-05	
241	5.400000e+00	8.937228e-05	
242	5.450000e+00	8.961866e-05	
243	5.500000e+00	8.988395e-05	
244	5.550000e+00	9.016920e-05	
245	5.600000e+00	9.047552e-05	
246	5.650000e+00	9.080402e-05	
247	5.700000e+00	9.115586e-05	
248	5.750000e+00	9.153222e-05	
249	5.800000e+00	9.193428e-05	
250	5.850000e+00	9.236328e-05	
251	5.900000e+00	9.282047e-05	
252	5.950000e+00	9.330710e-05	
253	6.000000e+00	9.382447e-05	
254	6.050000e+00	9.437390e-05	
255	6.100000e+00	9.495671e-05	
256	6.150000e+00	9.557424e-05	
257	6.200000e+00	9.622787e-05	
258	6.250000e+00	9.691897e-05	
259	6.300000e+00	9.764894e-05	
260	6.350000e+00	9.841919e-05	
261	6.400000e+00	9.923115e-05	
262	6.450000e+00	1.000862e-04	
263	6.500000e+00	1.009859e-04	
264	6.550000e+00	1.019317e-04	
265	6.600000e+00	1.029249e-04	
266	0.000000e+00	1.129758e-35	
267	5.000000e-02	1.499892e-05	
268	1.000000e-01	2.951354e-05	
269	1.500000e-01	4.354621e-05	
270	2.000000e-01	5.709927e-05	
271	2.500000e-01	7.017504e-05	
272	3.000000e-01	8.277583e-05	
273	3.500000e-01	9.490395e-05	
274	4.000000e-01	1.065617e-04	
275	4.500000e-01	1.177513e-04	
276	5.000000e-01	1.284750e-04	
277	5.500000e-01	1.387351e-04	
278	6.000000e-01	1.485337e-04	
279	6.500000e-01	1.578732e-04	
280	7.000000e-01	1.667557e-04	
281	7.500000e-01	1.751833e-04	
282	8.000000e-01	1.831583e-04	
283	8.500000e-01	1.906827e-04	
284	9.000000e-01	1.977587e-04	
285	9.500000e-01	2.043884e-04	
286	1.000000e+00	2.105738e-04	

Index   v-sweep         -i(vds)         
--------------------------------------------------------------------------------
287	1.050000e+00	2.163171e-04	
288	1.100000e+00	2.216201e-04	
289	1.150000e+00	2.264851e-04	
290	1.200000e+00	2.309140e-04	
291	1.250000e+00	2.349092e-04	
292	1.300000e+00	2.384730e-04	
293	1.350000e+00	2.416090e-04	
294	1.400000e+00	2.443218e-04	
295	1.450000e+00	2.466197e-04	
296	1.500000e+00	2.485169e-04	
297	1.550000e+00	2.500383e-04	
298	1.600000e+00	2.512230e-04	
299	1.650000e+00	2.521242e-04	
300	1.700000e+00	2.528024e-04	
301	1.750000e+00	2.533148e-04	
302	1.800000e+00	2.537085e-04	
303	1.850000e+00	2.540182e-04	
304	1.900000e+00	2.542681e-04	
305	1.950000e+00	2.544749e-04	
306	2.000000e+00	2.546498e-04	
307	2.050000e+00	2.548008e-04	
308	2.100000e+00	2.549334e-04	
309	2.150000e+00	2.550516e-04	
310	2.200000e+00	2.551582e-04	
311	2.250000e+00	2.552554e-04	
312	2.300000e+00	2.553449e-04	
313	2.350000e+00	2.554279e-04	
314	2.400000e+00	2.555055e-04	
315	2.450000e+00	2.555784e-04	
316	2.500000e+00	2.556473e-04	
317	2.550000e+00	2.557127e-04	
318	2.600000e+00	2.557750e-04	
319	2.650000e+00	2.558347e-04	
320	2.700000e+00	2.558920e-04	
321	2.750000e+00	2.559471e-04	
322	2.800000e+00	2.560003e-04	
323	2.850000e+00	2.560517e-04	
324	2.900000e+00	2.561016e-04	
325	2.950000e+00	2.561501e-04	
326	3.000000e+00	2.561973e-04	
327	3.050000e+00	2.562432e-04	
328	3.100000e+00	2.562881e-04	
329	3.150000e+00	2.563319e-04	
330	3.200000e+00	2.563749e-04	
331	3.250000e+00	2.564169e-04	
332	3.300000e+00	2.564581e-04	
333	3.350000e+00	2.564986e-04	
334	3.400000e+00	2.565384e-04	
335	3.450000e+00	2.565775e-04	
336	3.500000e+00	2.566160e-04	
337	3.550000e+00	2.566540e-04	
338	3.600000e+00	2.566914e-04	
339	3.650000e+00	2.567283e-04	
340	3.700000e+00	2.567648e-04	
341	3.750000e+00	2.568008e-04	
342	3.800000e+00	2.568365e-04	
343	3.850000e+00	2.568719e-04	
344	3.900000e+00	2.569070e-04	

Index   v-sweep         -i(vds)         
--------------------------------------------------------------------------------
345	3.950000e+00	2.569418e-04	
346	4.000000e+00	2.569766e-04	
347	4.050000e+00	2.570112e-04	
348	4.100000e+00	2.570460e-04	
349	4.150000e+00	2.570808e-04	
350	4.200000e+00	2.571160e-04	
351	4.250000e+00	2.571516e-04	
352	4.300000e+00	2.571877e-04	
353	4.350000e+00	2.572247e-04	
354	4.400000e+00	2.572628e-04	
355	4.450000e+00	2.573021e-04	
356	4.500000e+00	2.573431e-04	
357	4.550000e+00	2.573861e-04	
358	4.600000e+00	2.574315e-04	
359	4.650000e+00	2.574796e-04	
360	4.700000e+00	2.575312e-04	
361	4.750000e+00	2.575865e-04	
362	4.800000e+00	2.576464e-04	
363	4.850000e+00	2.577115e-04	
364	4.900000e+00	2.577825e-04	
365	4.950000e+00	2.578602e-04	
366	5.000000e+00	2.579456e-04	
367	5.050000e+00	2.580395e-04	
368	5.100000e+00	2.581432e-04	
369	5.150000e+00	2.582575e-04	
370	5.200000e+00	2.583839e-04	
371	5.250000e+00	2.585235e-04	
372	5.300000e+00	2.586778e-04	
373	5.350000e+00	2.588483e-04	
374	5.400000e+00	2.590365e-04	
375	5.450000e+00	2.592440e-04	
376	5.500000e+00	2.594727e-04	
377	5.550000e+00	2.597243e-04	
378	5.600000e+00	2.600009e-04	
379	5.650000e+00	2.603044e-04	
380	5.700000e+00	2.606370e-04	
381	5.750000e+00	2.610010e-04	
382	5.800000e+00	2.613986e-04	
383	5.850000e+00	2.618322e-04	
384	5.900000e+00	2.623045e-04	
385	5.950000e+00	2.628180e-04	
386	6.000000e+00	2.633753e-04	
387	6.050000e+00	2.639794e-04	
388	6.100000e+00	2.646330e-04	
389	6.150000e+00	2.653391e-04	
390	6.200000e+00	2.661008e-04	
391	6.250000e+00	2.669212e-04	
392	6.300000e+00	2.678036e-04	
393	6.350000e+00	2.687511e-04	
394	6.400000e+00	2.697672e-04	
395	6.450000e+00	2.708554e-04	
396	6.500000e+00	2.720191e-04	
397	6.550000e+00	2.732618e-04	
398	6.600000e+00	2.745874e-04	
399	0.000000e+00	-2.64836e-35	
400	5.000000e-02	1.985108e-05	
401	1.000000e-01	3.925339e-05	
402	1.500000e-01	5.820906e-05	

Index   v-sweep         -i(vds)         
--------------------------------------------------------------------------------
403	2.000000e-01	7.672024e-05	
404	2.500000e-01	9.478902e-05	
405	3.000000e-01	1.124175e-04	
406	3.500000e-01	1.296078e-04	
407	4.000000e-01	1.463620e-04	
408	4.500000e-01	1.626821e-04	
409	5.000000e-01	1.785703e-04	
410	5.500000e-01	1.940285e-04	
411	6.000000e-01	2.090588e-04	
412	6.500000e-01	2.236631e-04	
413	7.000000e-01	2.378436e-04	
414	7.500000e-01	2.516022e-04	
415	8.000000e-01	2.649408e-04	
416	8.500000e-01	2.778615e-04	
417	9.000000e-01	2.903661e-04	
418	9.500000e-01	3.024567e-04	
419	1.000000e+00	3.141352e-04	
420	1.050000e+00	3.254034e-04	
421	1.100000e+00	3.362633e-04	
422	1.150000e+00	3.467167e-04	
423	1.200000e+00	3.567655e-04	
424	1.250000e+00	3.664115e-04	
425	1.300000e+00	3.756565e-04	
426	1.350000e+00	3.845024e-04	
427	1.400000e+00	3.929508e-04	
428	1.450000e+00	4.010035e-04	
429	1.500000e+00	4.086621e-04	
430	1.550000e+00	4.159283e-04	
431	1.600000e+00	4.228037e-04	
432	1.650000e+00	4.292897e-04	
433	1.700000e+00	4.353877e-04	
434	1.750000e+00	4.410991e-04	
435	1.800000e+00	4.464250e-04	
436	1.850000e+00	4.513664e-04	
437	1.900000e+00	4.559242e-04	
438	1.950000e+00	4.600991e-04	
439	2.000000e+00	4.638919e-04	
440	2.050000e+00	4.673033e-04	
441	2.100000e+00	4.703351e-04	
442	2.150000e+00	4.729908e-04	
443	2.200000e+00	4.752779e-04	
444	2.250000e+00	4.772101e-04	
445	2.300000e+00	4.788111e-04	
446	2.350000e+00	4.801150e-04	
447	2.400000e+00	4.811648e-04	
448	2.450000e+00	4.820066e-04	
449	2.500000e+00	4.826844e-04	
450	2.550000e+00	4.832357e-04	
451	2.600000e+00	4.836906e-04	
452	2.650000e+00	4.840716e-04	
453	2.700000e+00	4.843960e-04	
454	2.750000e+00	4.846762e-04	
455	2.800000e+00	4.849216e-04	
456	2.850000e+00	4.851393e-04	
457	2.900000e+00	4.853344e-04	
458	2.950000e+00	4.855111e-04	
459	3.000000e+00	4.856725e-04	
460	3.050000e+00	4.858210e-04	

Index   v-sweep         -i(vds)         
--------------------------------------------------------------------------------
461	3.100000e+00	4.859586e-04	
462	3.150000e+00	4.860869e-04	
463	3.200000e+00	4.862071e-04	
464	3.250000e+00	4.863204e-04	
465	3.300000e+00	4.864275e-04	
466	3.350000e+00	4.865292e-04	
467	3.400000e+00	4.866261e-04	
468	3.450000e+00	4.867187e-04	
469	3.500000e+00	4.868074e-04	
470	3.550000e+00	4.868927e-04	
471	3.600000e+00	4.869749e-04	
472	3.650000e+00	4.870542e-04	
473	3.700000e+00	4.871309e-04	
474	3.750000e+00	4.872053e-04	
475	3.800000e+00	4.872775e-04	
476	3.850000e+00	4.873476e-04	
477	3.900000e+00	4.874159e-04	
478	3.950000e+00	4.874825e-04	
479	4.000000e+00	4.875475e-04	
480	4.050000e+00	4.876110e-04	
481	4.100000e+00	4.876732e-04	
482	4.150000e+00	4.877340e-04	
483	4.200000e+00	4.877937e-04	
484	4.250000e+00	4.878522e-04	
485	4.300000e+00	4.879097e-04	
486	4.350000e+00	4.879662e-04	
487	4.400000e+00	4.880218e-04	
488	4.450000e+00	4.880767e-04	
489	4.500000e+00	4.881307e-04	
490	4.550000e+00	4.881842e-04	
491	4.600000e+00	4.882371e-04	
492	4.650000e+00	4.882896e-04	
493	4.700000e+00	4.883418e-04	
494	4.750000e+00	4.883938e-04	
495	4.800000e+00	4.884458e-04	
496	4.850000e+00	4.884981e-04	
497	4.900000e+00	4.885508e-04	
498	4.950000e+00	4.886043e-04	
499	5.000000e+00	4.886589e-04	
500	5.050000e+00	4.887148e-04	
501	5.100000e+00	4.887727e-04	
502	5.150000e+00	4.888330e-04	
503	5.200000e+00	4.888962e-04	
504	5.250000e+00	4.889629e-04	
505	5.300000e+00	4.890341e-04	
506	5.350000e+00	4.891103e-04	
507	5.400000e+00	4.891927e-04	
508	5.450000e+00	4.892821e-04	
509	5.500000e+00	4.893798e-04	
510	5.550000e+00	4.894870e-04	
511	5.600000e+00	4.896050e-04	
512	5.650000e+00	4.897355e-04	
513	5.700000e+00	4.898800e-04	
514	5.750000e+00	4.900403e-04	
515	5.800000e+00	4.902184e-04	
516	5.850000e+00	4.904165e-04	
517	5.900000e+00	4.906366e-04	
518	5.950000e+00	4.908814e-04	

Index   v-sweep         -i(vds)         
--------------------------------------------------------------------------------
519	6.000000e+00	4.911532e-04	
520	6.050000e+00	4.914550e-04	
521	6.100000e+00	4.917896e-04	
522	6.150000e+00	4.921601e-04	
523	6.200000e+00	4.925698e-04	
524	6.250000e+00	4.930222e-04	
525	6.300000e+00	4.935208e-04	
526	6.350000e+00	4.940696e-04	
527	6.400000e+00	4.946725e-04	
528	6.450000e+00	4.953336e-04	
529	6.500000e+00	4.960574e-04	
530	6.550000e+00	4.968483e-04	
531	6.600000e+00	4.977111e-04	
532	0.000000e+00	-3.43794e-35	
533	5.000000e-02	2.345061e-05	
534	1.000000e-01	4.649418e-05	
535	1.500000e-01	6.913254e-05	
536	2.000000e-01	9.136750e-05	
537	2.500000e-01	1.132009e-04	
538	3.000000e-01	1.346344e-04	
539	3.500000e-01	1.556700e-04	
540	4.000000e-01	1.763093e-04	
541	4.500000e-01	1.965542e-04	
542	5.000000e-01	2.164064e-04	
543	5.500000e-01	2.358676e-04	
544	6.000000e-01	2.549397e-04	
545	6.500000e-01	2.736242e-04	
546	7.000000e-01	2.919230e-04	
547	7.500000e-01	3.098378e-04	
548	8.000000e-01	3.273702e-04	
549	8.500000e-01	3.445219e-04	
550	9.000000e-01	3.612947e-04	
551	9.500000e-01	3.776903e-04	
552	1.000000e+00	3.937102e-04	
553	1.050000e+00	4.093561e-04	
554	1.100000e+00	4.246297e-04	
555	1.150000e+00	4.395326e-04	
556	1.200000e+00	4.540665e-04	
557	1.250000e+00	4.682329e-04	
558	1.300000e+00	4.820335e-04	
559	1.350000e+00	4.954698e-04	
560	1.400000e+00	5.085435e-04	
561	1.450000e+00	5.212561e-04	
562	1.500000e+00	5.336091e-04	
563	1.550000e+00	5.456042e-04	
564	1.600000e+00	5.572428e-04	
565	1.650000e+00	5.685264e-04	
566	1.700000e+00	5.794566e-04	
567	1.750000e+00	5.900349e-04	
568	1.800000e+00	6.002626e-04	
569	1.850000e+00	6.101413e-04	
570	1.900000e+00	6.196724e-04	
571	1.950000e+00	6.288572e-04	
572	2.000000e+00	6.376971e-04	
573	2.050000e+00	6.461935e-04	
574	2.100000e+00	6.543476e-04	
575	2.150000e+00	6.621606e-04	
576	2.200000e+00	6.696337e-04	

Index   v-sweep         -i(vds)         
--------------------------------------------------------------------------------
577	2.250000e+00	6.767680e-04	
578	2.300000e+00	6.835644e-04	
579	2.350000e+00	6.900239e-04	
580	2.400000e+00	6.961471e-04	
581	2.450000e+00	7.019346e-04	
582	2.500000e+00	7.073868e-04	
583	2.550000e+00	7.125037e-04	
584	2.600000e+00	7.172851e-04	
585	2.650000e+00	7.217304e-04	
586	2.700000e+00	7.258386e-04	
587	2.750000e+00	7.296085e-04	
588	2.800000e+00	7.330391e-04	
589	2.850000e+00	7.361295e-04	
590	2.900000e+00	7.388810e-04	
591	2.950000e+00	7.412978e-04	
592	3.000000e+00	7.433902e-04	
593	3.050000e+00	7.451759e-04	
594	3.100000e+00	7.466809e-04	
595	3.150000e+00	7.479384e-04	
596	3.200000e+00	7.489852e-04	
597	3.250000e+00	7.498578e-04	
598	3.300000e+00	7.505893e-04	
599	3.350000e+00	7.512079e-04	
600	3.400000e+00	7.517364e-04	
601	3.450000e+00	7.521930e-04	
602	3.500000e+00	7.525917e-04	
603	3.550000e+00	7.529437e-04	
604	3.600000e+00	7.532575e-04	
605	3.650000e+00	7.535397e-04	
606	3.700000e+00	7.537957e-04	
607	3.750000e+00	7.540296e-04	
608	3.800000e+00	7.542448e-04	
609	3.850000e+00	7.544440e-04	
610	3.900000e+00	7.546293e-04	
611	3.950000e+00	7.548027e-04	
612	4.000000e+00	7.549655e-04	
613	4.050000e+00	7.551191e-04	
614	4.100000e+00	7.552646e-04	
615	4.150000e+00	7.554028e-04	
616	4.200000e+00	7.555345e-04	
617	4.250000e+00	7.556603e-04	
618	4.300000e+00	7.557808e-04	
619	4.350000e+00	7.558966e-04	
620	4.400000e+00	7.560080e-04	
621	4.450000e+00	7.561155e-04	
622	4.500000e+00	7.562193e-04	
623	4.550000e+00	7.563197e-04	
624	4.600000e+00	7.564171e-04	
625	4.650000e+00	7.565116e-04	
626	4.700000e+00	7.566035e-04	
627	4.750000e+00	7.566929e-04	
628	4.800000e+00	7.567801e-04	
629	4.850000e+00	7.568651e-04	
630	4.900000e+00	7.569482e-04	
631	4.950000e+00	7.570294e-04	
632	5.000000e+00	7.571089e-04	
633	5.050000e+00	7.571868e-04	
634	5.100000e+00	7.572632e-04	

Index   v-sweep         -i(vds)         
--------------------------------------------------------------------------------
635	5.150000e+00	7.573383e-04	
636	5.200000e+00	7.574121e-04	
637	5.250000e+00	7.574848e-04	
638	5.300000e+00	7.575566e-04	
639	5.350000e+00	7.576276e-04	
640	5.400000e+00	7.576979e-04	
641	5.450000e+00	7.577679e-04	
642	5.500000e+00	7.578377e-04	
643	5.550000e+00	7.579075e-04	
644	5.600000e+00	7.579779e-04	
645	5.650000e+00	7.580490e-04	
646	5.700000e+00	7.581215e-04	
647	5.750000e+00	7.581957e-04	
648	5.800000e+00	7.582724e-04	
649	5.850000e+00	7.583522e-04	
650	5.900000e+00	7.584359e-04	
651	5.950000e+00	7.585244e-04	
652	6.000000e+00	7.586188e-04	
653	6.050000e+00	7.587202e-04	
654	6.100000e+00	7.588300e-04	
655	6.150000e+00	7.589496e-04	
656	6.200000e+00	7.590807e-04	
657	6.250000e+00	7.592250e-04	
658	6.300000e+00	7.593846e-04	
659	6.350000e+00	7.595617e-04	
660	6.400000e+00	7.597587e-04	
661	6.450000e+00	7.599781e-04	
662	6.500000e+00	7.602229e-04	
663	6.550000e+00	7.604961e-04	
664	6.600000e+00	7.608009e-04	
665	0.000000e+00	1.008575e-35	
666	5.000000e-02	2.595238e-05	
667	1.000000e-01	5.154151e-05	
668	1.500000e-01	7.676889e-05	
669	2.000000e-01	1.016360e-04	
670	2.500000e-01	1.261444e-04	
671	3.000000e-01	1.502954e-04	
672	3.500000e-01	1.740907e-04	
673	4.000000e-01	1.975315e-04	
674	4.500000e-01	2.206195e-04	
675	5.000000e-01	2.433561e-04	
676	5.500000e-01	2.657426e-04	
677	6.000000e-01	2.877806e-04	
678	6.500000e-01	3.094714e-04	
679	7.000000e-01	3.308166e-04	
680	7.500000e-01	3.518174e-04	
681	8.000000e-01	3.724754e-04	
682	8.500000e-01	3.927918e-04	
683	9.000000e-01	4.127682e-04	
684	9.500000e-01	4.324059e-04	
685	1.000000e+00	4.517063e-04	
686	1.050000e+00	4.706707e-04	
687	1.100000e+00	4.893006e-04	
688	1.150000e+00	5.075972e-04	
689	1.200000e+00	5.255620e-04	
690	1.250000e+00	5.431963e-04	
691	1.300000e+00	5.605014e-04	
692	1.350000e+00	5.774787e-04	

Index   v-sweep         -i(vds)         
--------------------------------------------------------------------------------
693	1.400000e+00	5.941295e-04	
694	1.450000e+00	6.104551e-04	
695	1.500000e+00	6.264568e-04	
696	1.550000e+00	6.421359e-04	
697	1.600000e+00	6.574938e-04	
698	1.650000e+00	6.725316e-04	
699	1.700000e+00	6.872508e-04	
700	1.750000e+00	7.016526e-04	
701	1.800000e+00	7.157382e-04	
702	1.850000e+00	7.295089e-04	
703	1.900000e+00	7.429659e-04	
704	1.950000e+00	7.561105e-04	
705	2.000000e+00	7.689440e-04	
706	2.050000e+00	7.814675e-04	
707	2.100000e+00	7.936823e-04	
708	2.150000e+00	8.055895e-04	
709	2.200000e+00	8.171904e-04	
710	2.250000e+00	8.284862e-04	
711	2.300000e+00	8.394779e-04	
712	2.350000e+00	8.501668e-04	
713	2.400000e+00	8.605540e-04	
714	2.450000e+00	8.706406e-04	
715	2.500000e+00	8.804277e-04	
716	2.550000e+00	8.899163e-04	
717	2.600000e+00	8.991076e-04	
718	2.650000e+00	9.080026e-04	
719	2.700000e+00	9.166022e-04	
720	2.750000e+00	9.249074e-04	
721	2.800000e+00	9.329190e-04	
722	2.850000e+00	9.406380e-04	
723	2.900000e+00	9.480650e-04	
724	2.950000e+00	9.552008e-04	
725	3.000000e+00	9.620460e-04	
726	3.050000e+00	9.686010e-04	
727	3.100000e+00	9.748661e-04	
728	3.150000e+00	9.808415e-04	
729	3.200000e+00	9.865270e-04	
730	3.250000e+00	9.919223e-04	
731	3.300000e+00	9.970267e-04	
732	3.350000e+00	1.001839e-03	
733	3.400000e+00	1.006358e-03	
734	3.450000e+00	1.010581e-03	
735	3.500000e+00	1.014506e-03	
736	3.550000e+00	1.018130e-03	
737	3.600000e+00	1.021450e-03	
738	3.650000e+00	1.024465e-03	
739	3.700000e+00	1.027173e-03	
740	3.750000e+00	1.029580e-03	
741	3.800000e+00	1.031694e-03	
742	3.850000e+00	1.033530e-03	
743	3.900000e+00	1.035111e-03	
744	3.950000e+00	1.036464e-03	
745	4.000000e+00	1.037618e-03	
746	4.050000e+00	1.038605e-03	
747	4.100000e+00	1.039451e-03	
748	4.150000e+00	1.040182e-03	
749	4.200000e+00	1.040817e-03	
750	4.250000e+00	1.041374e-03	

Index   v-sweep         -i(vds)         
--------------------------------------------------------------------------------
751	4.300000e+00	1.041867e-03	
752	4.350000e+00	1.042306e-03	
753	4.400000e+00	1.042701e-03	
754	4.450000e+00	1.043058e-03	
755	4.500000e+00	1.043384e-03	
756	4.550000e+00	1.043682e-03	
757	4.600000e+00	1.043958e-03	
758	4.650000e+00	1.044214e-03	
759	4.700000e+00	1.044452e-03	
760	4.750000e+00	1.044675e-03	
761	4.800000e+00	1.044884e-03	
762	4.850000e+00	1.045082e-03	
763	4.900000e+00	1.045269e-03	
764	4.950000e+00	1.045447e-03	
765	5.000000e+00	1.045616e-03	
766	5.050000e+00	1.045777e-03	
767	5.100000e+00	1.045932e-03	
768	5.150000e+00	1.046080e-03	
769	5.200000e+00	1.046223e-03	
770	5.250000e+00	1.046360e-03	
771	5.300000e+00	1.046492e-03	
772	5.350000e+00	1.046620e-03	
773	5.400000e+00	1.046744e-03	
774	5.450000e+00	1.046864e-03	
775	5.500000e+00	1.046981e-03	
776	5.550000e+00	1.047094e-03	
777	5.600000e+00	1.047204e-03	
778	5.650000e+00	1.047312e-03	
779	5.700000e+00	1.047417e-03	
780	5.750000e+00	1.047519e-03	
781	5.800000e+00	1.047619e-03	
782	5.850000e+00	1.047717e-03	
783	5.900000e+00	1.047813e-03	
784	5.950000e+00	1.047907e-03	
785	6.000000e+00	1.047999e-03	
786	6.050000e+00	1.048090e-03	
787	6.100000e+00	1.048180e-03	
788	6.150000e+00	1.048269e-03	
789	6.200000e+00	1.048357e-03	
790	6.250000e+00	1.048445e-03	
791	6.300000e+00	1.048533e-03	
792	6.350000e+00	1.048621e-03	
793	6.400000e+00	1.048710e-03	
794	6.450000e+00	1.048800e-03	
795	6.500000e+00	1.048893e-03	
796	6.550000e+00	1.048989e-03	
797	6.600000e+00	1.049088e-03	
Note: No ".plot", ".print", or ".fourier" lines; no simulations run
