
Note: Compatibility modes selected: hs

Warning: m=xx on .subckt line will override multiplier m hierarchy!


Circuit: ***************************

Doing analysis at TEMP = 125.000000 and TNOM = 125.000000


No. of Data Rows : 798
                          ***************************
                          DC transfer characteristic  Mon Jan  9 13:58:37  2023
--------------------------------------------------------------------------------
Index   v-sweep         -i(vds)         
--------------------------------------------------------------------------------
0	0.000000e+00	-2.47130e-25	
1	5.000000e-02	2.435060e-06	
2	1.000000e-01	4.421531e-06	
3	1.500000e-01	5.981168e-06	
4	2.000000e-01	7.132973e-06	
5	2.500000e-01	7.910288e-06	
6	3.000000e-01	8.386777e-06	
7	3.500000e-01	8.679865e-06	
8	4.000000e-01	8.887324e-06	
9	4.500000e-01	9.054911e-06	
10	5.000000e-01	9.200084e-06	
11	5.500000e-01	9.330340e-06	
12	6.000000e-01	9.449605e-06	
13	6.500000e-01	9.560282e-06	
14	7.000000e-01	9.663997e-06	
15	7.500000e-01	9.761928e-06	
16	8.000000e-01	9.854964e-06	
17	8.500000e-01	9.943798e-06	
18	9.000000e-01	1.002898e-05	
19	9.500000e-01	1.011097e-05	
20	1.000000e+00	1.019013e-05	
21	1.050000e+00	1.026677e-05	
22	1.100000e+00	1.034116e-05	
23	1.150000e+00	1.041351e-05	
24	1.200000e+00	1.048402e-05	
25	1.250000e+00	1.055286e-05	
26	1.300000e+00	1.062018e-05	
27	1.350000e+00	1.068609e-05	
28	1.400000e+00	1.075071e-05	
29	1.450000e+00	1.081414e-05	
30	1.500000e+00	1.087647e-05	
31	1.550000e+00	1.093779e-05	
32	1.600000e+00	1.099815e-05	
33	1.650000e+00	1.105762e-05	
34	1.700000e+00	1.111627e-05	
35	1.750000e+00	1.117414e-05	
36	1.800000e+00	1.123129e-05	
37	1.850000e+00	1.128775e-05	
38	1.900000e+00	1.134357e-05	
39	1.950000e+00	1.139879e-05	
40	2.000000e+00	1.145343e-05	
41	2.050000e+00	1.150753e-05	
42	2.100000e+00	1.156112e-05	
43	2.150000e+00	1.161422e-05	
44	2.200000e+00	1.166686e-05	
45	2.250000e+00	1.171906e-05	
46	2.300000e+00	1.177085e-05	
47	2.350000e+00	1.182224e-05	
48	2.400000e+00	1.187325e-05	
49	2.450000e+00	1.192390e-05	
50	2.500000e+00	1.197421e-05	
51	2.550000e+00	1.202420e-05	
52	2.600000e+00	1.207387e-05	
53	2.650000e+00	1.212325e-05	
54	2.700000e+00	1.217235e-05	

Index   v-sweep         -i(vds)         
--------------------------------------------------------------------------------
55	2.750000e+00	1.222119e-05	
56	2.800000e+00	1.226978e-05	
57	2.850000e+00	1.231813e-05	
58	2.900000e+00	1.236626e-05	
59	2.950000e+00	1.241419e-05	
60	3.000000e+00	1.246194e-05	
61	3.050000e+00	1.250952e-05	
62	3.100000e+00	1.255696e-05	
63	3.150000e+00	1.260427e-05	
64	3.200000e+00	1.265148e-05	
65	3.250000e+00	1.269861e-05	
66	3.300000e+00	1.274568e-05	
67	3.350000e+00	1.279274e-05	
68	3.400000e+00	1.283980e-05	
69	3.450000e+00	1.288691e-05	
70	3.500000e+00	1.293410e-05	
71	3.550000e+00	1.298142e-05	
72	3.600000e+00	1.302890e-05	
73	3.650000e+00	1.307661e-05	
74	3.700000e+00	1.312458e-05	
75	3.750000e+00	1.317287e-05	
76	3.800000e+00	1.322156e-05	
77	3.850000e+00	1.327070e-05	
78	3.900000e+00	1.332036e-05	
79	3.950000e+00	1.337063e-05	
80	4.000000e+00	1.342157e-05	
81	4.050000e+00	1.347329e-05	
82	4.100000e+00	1.352587e-05	
83	4.150000e+00	1.357940e-05	
84	4.200000e+00	1.363400e-05	
85	4.250000e+00	1.368977e-05	
86	4.300000e+00	1.374682e-05	
87	4.350000e+00	1.380528e-05	
88	4.400000e+00	1.386529e-05	
89	4.450000e+00	1.392696e-05	
90	4.500000e+00	1.399044e-05	
91	4.550000e+00	1.405588e-05	
92	4.600000e+00	1.412344e-05	
93	4.650000e+00	1.419327e-05	
94	4.700000e+00	1.426553e-05	
95	4.750000e+00	1.434040e-05	
96	4.800000e+00	1.441807e-05	
97	4.850000e+00	1.449871e-05	
98	4.900000e+00	1.458252e-05	
99	4.950000e+00	1.466969e-05	
100	5.000000e+00	1.476044e-05	
101	5.050000e+00	1.485496e-05	
102	5.100000e+00	1.495348e-05	
103	5.150000e+00	1.505623e-05	
104	5.200000e+00	1.516342e-05	
105	5.250000e+00	1.527530e-05	
106	5.300000e+00	1.539211e-05	
107	5.350000e+00	1.551409e-05	
108	5.400000e+00	1.564149e-05	
109	5.450000e+00	1.577458e-05	
110	5.500000e+00	1.591361e-05	
111	5.550000e+00	1.605885e-05	
112	5.600000e+00	1.621058e-05	

Index   v-sweep         -i(vds)         
--------------------------------------------------------------------------------
113	5.650000e+00	1.636907e-05	
114	5.700000e+00	1.653461e-05	
115	5.750000e+00	1.670748e-05	
116	5.800000e+00	1.688799e-05	
117	5.850000e+00	1.707641e-05	
118	5.900000e+00	1.727306e-05	
119	5.950000e+00	1.747824e-05	
120	6.000000e+00	1.769225e-05	
121	6.050000e+00	1.791542e-05	
122	6.100000e+00	1.814805e-05	
123	6.150000e+00	1.839048e-05	
124	6.200000e+00	1.864301e-05	
125	6.250000e+00	1.890597e-05	
126	6.300000e+00	1.917971e-05	
127	6.350000e+00	1.946454e-05	
128	6.400000e+00	1.976080e-05	
129	6.450000e+00	2.006883e-05	
130	6.500000e+00	2.038898e-05	
131	6.550000e+00	2.072157e-05	
132	6.600000e+00	2.106697e-05	
133	0.000000e+00	9.792232e-25	
134	5.000000e-02	7.371359e-06	
135	1.000000e-01	1.426477e-05	
136	1.500000e-01	2.069888e-05	
137	2.000000e-01	2.668475e-05	
138	2.500000e-01	3.223131e-05	
139	3.000000e-01	3.734685e-05	
140	3.500000e-01	4.203948e-05	
141	4.000000e-01	4.631720e-05	
142	4.500000e-01	5.018805e-05	
143	5.000000e-01	5.366025e-05	
144	5.500000e-01	5.674248e-05	
145	6.000000e-01	5.944434e-05	
146	6.500000e-01	6.177749e-05	
147	7.000000e-01	6.375769e-05	
148	7.500000e-01	6.540871e-05	
149	8.000000e-01	6.676706e-05	
150	8.500000e-01	6.788274e-05	
151	9.000000e-01	6.881068e-05	
152	9.500000e-01	6.959876e-05	
153	1.000000e+00	7.028262e-05	
154	1.050000e+00	7.088717e-05	
155	1.100000e+00	7.142972e-05	
156	1.150000e+00	7.192261e-05	
157	1.200000e+00	7.237488e-05	
158	1.250000e+00	7.279331e-05	
159	1.300000e+00	7.318313e-05	
160	1.350000e+00	7.354845e-05	
161	1.400000e+00	7.389257e-05	
162	1.450000e+00	7.421814e-05	
163	1.500000e+00	7.452737e-05	
164	1.550000e+00	7.482209e-05	
165	1.600000e+00	7.510383e-05	
166	1.650000e+00	7.537391e-05	
167	1.700000e+00	7.563344e-05	
168	1.750000e+00	7.588340e-05	
169	1.800000e+00	7.612463e-05	
170	1.850000e+00	7.635785e-05	

Index   v-sweep         -i(vds)         
--------------------------------------------------------------------------------
171	1.900000e+00	7.658372e-05	
172	1.950000e+00	7.680281e-05	
173	2.000000e+00	7.701563e-05	
174	2.050000e+00	7.722262e-05	
175	2.100000e+00	7.742420e-05	
176	2.150000e+00	7.762074e-05	
177	2.200000e+00	7.781255e-05	
178	2.250000e+00	7.799994e-05	
179	2.300000e+00	7.818318e-05	
180	2.350000e+00	7.836252e-05	
181	2.400000e+00	7.853819e-05	
182	2.450000e+00	7.871038e-05	
183	2.500000e+00	7.887930e-05	
184	2.550000e+00	7.904511e-05	
185	2.600000e+00	7.920798e-05	
186	2.650000e+00	7.936806e-05	
187	2.700000e+00	7.952548e-05	
188	2.750000e+00	7.968038e-05	
189	2.800000e+00	7.983288e-05	
190	2.850000e+00	7.998309e-05	
191	2.900000e+00	8.013112e-05	
192	2.950000e+00	8.027706e-05	
193	3.000000e+00	8.042102e-05	
194	3.050000e+00	8.056308e-05	
195	3.100000e+00	8.070334e-05	
196	3.150000e+00	8.084188e-05	
197	3.200000e+00	8.097880e-05	
198	3.250000e+00	8.111416e-05	
199	3.300000e+00	8.124807e-05	
200	3.350000e+00	8.138061e-05	
201	3.400000e+00	8.151187e-05	
202	3.450000e+00	8.164194e-05	
203	3.500000e+00	8.177093e-05	
204	3.550000e+00	8.189895e-05	
205	3.600000e+00	8.202611e-05	
206	3.650000e+00	8.215253e-05	
207	3.700000e+00	8.227835e-05	
208	3.750000e+00	8.240371e-05	
209	3.800000e+00	8.252877e-05	
210	3.850000e+00	8.265371e-05	
211	3.900000e+00	8.277872e-05	
212	3.950000e+00	8.290400e-05	
213	4.000000e+00	8.302977e-05	
214	4.050000e+00	8.315629e-05	
215	4.100000e+00	8.328380e-05	
216	4.150000e+00	8.341261e-05	
217	4.200000e+00	8.354303e-05	
218	4.250000e+00	8.367538e-05	
219	4.300000e+00	8.381002e-05	
220	4.350000e+00	8.394736e-05	
221	4.400000e+00	8.408779e-05	
222	4.450000e+00	8.423176e-05	
223	4.500000e+00	8.437975e-05	
224	4.550000e+00	8.453225e-05	
225	4.600000e+00	8.468981e-05	
226	4.650000e+00	8.485298e-05	
227	4.700000e+00	8.502235e-05	
228	4.750000e+00	8.519857e-05	

Index   v-sweep         -i(vds)         
--------------------------------------------------------------------------------
229	4.800000e+00	8.538228e-05	
230	4.850000e+00	8.557419e-05	
231	4.900000e+00	8.577502e-05	
232	4.950000e+00	8.598552e-05	
233	5.000000e+00	8.620649e-05	
234	5.050000e+00	8.643876e-05	
235	5.100000e+00	8.668319e-05	
236	5.150000e+00	8.694067e-05	
237	5.200000e+00	8.721211e-05	
238	5.250000e+00	8.749849e-05	
239	5.300000e+00	8.780078e-05	
240	5.350000e+00	8.812000e-05	
241	5.400000e+00	8.845721e-05	
242	5.450000e+00	8.881349e-05	
243	5.500000e+00	8.918994e-05	
244	5.550000e+00	8.958771e-05	
245	5.600000e+00	9.000796e-05	
246	5.650000e+00	9.045188e-05	
247	5.700000e+00	9.092070e-05	
248	5.750000e+00	9.141567e-05	
249	5.800000e+00	9.193805e-05	
250	5.850000e+00	9.248914e-05	
251	5.900000e+00	9.307026e-05	
252	5.950000e+00	9.368274e-05	
253	6.000000e+00	9.432796e-05	
254	6.050000e+00	9.500729e-05	
255	6.100000e+00	9.572214e-05	
256	6.150000e+00	9.647391e-05	
257	6.200000e+00	9.726405e-05	
258	6.250000e+00	9.809401e-05	
259	6.300000e+00	9.896525e-05	
260	6.350000e+00	9.987925e-05	
261	6.400000e+00	1.008375e-04	
262	6.450000e+00	1.018415e-04	
263	6.500000e+00	1.028928e-04	
264	6.550000e+00	1.039929e-04	
265	6.600000e+00	1.051433e-04	
266	0.000000e+00	-5.87559e-25	
267	5.000000e-02	1.094309e-05	
268	1.000000e-01	2.141759e-05	
269	1.500000e-01	3.144097e-05	
270	2.000000e-01	4.102347e-05	
271	2.500000e-01	5.017327e-05	
272	3.000000e-01	5.889789e-05	
273	3.500000e-01	6.720459e-05	
274	4.000000e-01	7.510048e-05	
275	4.500000e-01	8.259252e-05	
276	5.000000e-01	8.968755e-05	
277	5.500000e-01	9.639230e-05	
278	6.000000e-01	1.027134e-04	
279	6.500000e-01	1.086574e-04	
280	7.000000e-01	1.142307e-04	
281	7.500000e-01	1.194396e-04	
282	8.000000e-01	1.242905e-04	
283	8.500000e-01	1.287896e-04	
284	9.000000e-01	1.329432e-04	
285	9.500000e-01	1.367575e-04	
286	1.000000e+00	1.402390e-04	

Index   v-sweep         -i(vds)         
--------------------------------------------------------------------------------
287	1.050000e+00	1.433945e-04	
288	1.100000e+00	1.462316e-04	
289	1.150000e+00	1.487592e-04	
290	1.200000e+00	1.509897e-04	
291	1.250000e+00	1.529411e-04	
292	1.300000e+00	1.546394e-04	
293	1.350000e+00	1.561173e-04	
294	1.400000e+00	1.574104e-04	
295	1.450000e+00	1.585518e-04	
296	1.500000e+00	1.595696e-04	
297	1.550000e+00	1.604864e-04	
298	1.600000e+00	1.613199e-04	
299	1.650000e+00	1.620839e-04	
300	1.700000e+00	1.627892e-04	
301	1.750000e+00	1.634446e-04	
302	1.800000e+00	1.640569e-04	
303	1.850000e+00	1.646318e-04	
304	1.900000e+00	1.651738e-04	
305	1.950000e+00	1.656868e-04	
306	2.000000e+00	1.661739e-04	
307	2.050000e+00	1.666380e-04	
308	2.100000e+00	1.670813e-04	
309	2.150000e+00	1.675058e-04	
310	2.200000e+00	1.679132e-04	
311	2.250000e+00	1.683050e-04	
312	2.300000e+00	1.686825e-04	
313	2.350000e+00	1.690468e-04	
314	2.400000e+00	1.693990e-04	
315	2.450000e+00	1.697401e-04	
316	2.500000e+00	1.700706e-04	
317	2.550000e+00	1.703915e-04	
318	2.600000e+00	1.707034e-04	
319	2.650000e+00	1.710068e-04	
320	2.700000e+00	1.713023e-04	
321	2.750000e+00	1.715904e-04	
322	2.800000e+00	1.718715e-04	
323	2.850000e+00	1.721460e-04	
324	2.900000e+00	1.724143e-04	
325	2.950000e+00	1.726767e-04	
326	3.000000e+00	1.729335e-04	
327	3.050000e+00	1.731851e-04	
328	3.100000e+00	1.734316e-04	
329	3.150000e+00	1.736735e-04	
330	3.200000e+00	1.739107e-04	
331	3.250000e+00	1.741437e-04	
332	3.300000e+00	1.743726e-04	
333	3.350000e+00	1.745975e-04	
334	3.400000e+00	1.748187e-04	
335	3.450000e+00	1.750364e-04	
336	3.500000e+00	1.752507e-04	
337	3.550000e+00	1.754618e-04	
338	3.600000e+00	1.756698e-04	
339	3.650000e+00	1.758748e-04	
340	3.700000e+00	1.760772e-04	
341	3.750000e+00	1.762770e-04	
342	3.800000e+00	1.764744e-04	
343	3.850000e+00	1.766695e-04	
344	3.900000e+00	1.768627e-04	

Index   v-sweep         -i(vds)         
--------------------------------------------------------------------------------
345	3.950000e+00	1.770539e-04	
346	4.000000e+00	1.772436e-04	
347	4.050000e+00	1.774319e-04	
348	4.100000e+00	1.776191e-04	
349	4.150000e+00	1.778054e-04	
350	4.200000e+00	1.779912e-04	
351	4.250000e+00	1.781768e-04	
352	4.300000e+00	1.783625e-04	
353	4.350000e+00	1.785488e-04	
354	4.400000e+00	1.787361e-04	
355	4.450000e+00	1.789248e-04	
356	4.500000e+00	1.791155e-04	
357	4.550000e+00	1.793088e-04	
358	4.600000e+00	1.795052e-04	
359	4.650000e+00	1.797055e-04	
360	4.700000e+00	1.799102e-04	
361	4.750000e+00	1.801203e-04	
362	4.800000e+00	1.803365e-04	
363	4.850000e+00	1.805597e-04	
364	4.900000e+00	1.807908e-04	
365	4.950000e+00	1.810309e-04	
366	5.000000e+00	1.812810e-04	
367	5.050000e+00	1.815422e-04	
368	5.100000e+00	1.818158e-04	
369	5.150000e+00	1.821029e-04	
370	5.200000e+00	1.824050e-04	
371	5.250000e+00	1.827234e-04	
372	5.300000e+00	1.830596e-04	
373	5.350000e+00	1.834151e-04	
374	5.400000e+00	1.837915e-04	
375	5.450000e+00	1.841905e-04	
376	5.500000e+00	1.846137e-04	
377	5.550000e+00	1.850631e-04	
378	5.600000e+00	1.855404e-04	
379	5.650000e+00	1.860477e-04	
380	5.700000e+00	1.865868e-04	
381	5.750000e+00	1.871598e-04	
382	5.800000e+00	1.877690e-04	
383	5.850000e+00	1.884163e-04	
384	5.900000e+00	1.891041e-04	
385	5.950000e+00	1.898347e-04	
386	6.000000e+00	1.906104e-04	
387	6.050000e+00	1.914336e-04	
388	6.100000e+00	1.923068e-04	
389	6.150000e+00	1.932324e-04	
390	6.200000e+00	1.942131e-04	
391	6.250000e+00	1.952513e-04	
392	6.300000e+00	1.963498e-04	
393	6.350000e+00	1.975112e-04	
394	6.400000e+00	1.987382e-04	
395	6.450000e+00	2.000336e-04	
396	6.500000e+00	2.014002e-04	
397	6.550000e+00	2.028407e-04	
398	6.600000e+00	2.043580e-04	
399	0.000000e+00	-1.51831e-21	
400	5.000000e-02	1.349607e-05	
401	1.000000e-01	2.654963e-05	
402	1.500000e-01	3.917664e-05	

Index   v-sweep         -i(vds)         
--------------------------------------------------------------------------------
403	2.000000e-01	5.138614e-05	
404	2.500000e-01	6.318517e-05	
405	3.000000e-01	7.458018e-05	
406	3.500000e-01	8.557736e-05	
407	4.000000e-01	9.618277e-05	
408	4.500000e-01	1.064024e-04	
409	5.000000e-01	1.162420e-04	
410	5.500000e-01	1.257074e-04	
411	6.000000e-01	1.348042e-04	
412	6.500000e-01	1.435381e-04	
413	7.000000e-01	1.519145e-04	
414	7.500000e-01	1.599388e-04	
415	8.000000e-01	1.676163e-04	
416	8.500000e-01	1.749522e-04	
417	9.000000e-01	1.819516e-04	
418	9.500000e-01	1.886198e-04	
419	1.000000e+00	1.949615e-04	
420	1.050000e+00	2.009818e-04	
421	1.100000e+00	2.066854e-04	
422	1.150000e+00	2.120772e-04	
423	1.200000e+00	2.171617e-04	
424	1.250000e+00	2.219434e-04	
425	1.300000e+00	2.264268e-04	
426	1.350000e+00	2.306159e-04	
427	1.400000e+00	2.345146e-04	
428	1.450000e+00	2.381263e-04	
429	1.500000e+00	2.414538e-04	
430	1.550000e+00	2.444997e-04	
431	1.600000e+00	2.472670e-04	
432	1.650000e+00	2.497610e-04	
433	1.700000e+00	2.519925e-04	
434	1.750000e+00	2.539800e-04	
435	1.800000e+00	2.557489e-04	
436	1.850000e+00	2.573278e-04	
437	1.900000e+00	2.587451e-04	
438	1.950000e+00	2.600261e-04	
439	2.000000e+00	2.611922e-04	
440	2.050000e+00	2.622610e-04	
441	2.100000e+00	2.632470e-04	
442	2.150000e+00	2.641619e-04	
443	2.200000e+00	2.650153e-04	
444	2.250000e+00	2.658150e-04	
445	2.300000e+00	2.665676e-04	
446	2.350000e+00	2.672784e-04	
447	2.400000e+00	2.679522e-04	
448	2.450000e+00	2.685926e-04	
449	2.500000e+00	2.692032e-04	
450	2.550000e+00	2.697866e-04	
451	2.600000e+00	2.703455e-04	
452	2.650000e+00	2.708818e-04	
453	2.700000e+00	2.713977e-04	
454	2.750000e+00	2.718946e-04	
455	2.800000e+00	2.723740e-04	
456	2.850000e+00	2.728374e-04	
457	2.900000e+00	2.732857e-04	
458	2.950000e+00	2.737201e-04	
459	3.000000e+00	2.741416e-04	
460	3.050000e+00	2.745509e-04	

Index   v-sweep         -i(vds)         
--------------------------------------------------------------------------------
461	3.100000e+00	2.749488e-04	
462	3.150000e+00	2.753361e-04	
463	3.200000e+00	2.757133e-04	
464	3.250000e+00	2.760811e-04	
465	3.300000e+00	2.764400e-04	
466	3.350000e+00	2.767904e-04	
467	3.400000e+00	2.771329e-04	
468	3.450000e+00	2.774677e-04	
469	3.500000e+00	2.777955e-04	
470	3.550000e+00	2.781164e-04	
471	3.600000e+00	2.784308e-04	
472	3.650000e+00	2.787390e-04	
473	3.700000e+00	2.790414e-04	
474	3.750000e+00	2.793381e-04	
475	3.800000e+00	2.796295e-04	
476	3.850000e+00	2.799159e-04	
477	3.900000e+00	2.801973e-04	
478	3.950000e+00	2.804742e-04	
479	4.000000e+00	2.807467e-04	
480	4.050000e+00	2.810150e-04	
481	4.100000e+00	2.812794e-04	
482	4.150000e+00	2.815402e-04	
483	4.200000e+00	2.817975e-04	
484	4.250000e+00	2.820517e-04	
485	4.300000e+00	2.823030e-04	
486	4.350000e+00	2.825517e-04	
487	4.400000e+00	2.827981e-04	
488	4.450000e+00	2.830427e-04	
489	4.500000e+00	2.832857e-04	
490	4.550000e+00	2.835276e-04	
491	4.600000e+00	2.837688e-04	
492	4.650000e+00	2.840099e-04	
493	4.700000e+00	2.842514e-04	
494	4.750000e+00	2.844939e-04	
495	4.800000e+00	2.847381e-04	
496	4.850000e+00	2.849846e-04	
497	4.900000e+00	2.852343e-04	
498	4.950000e+00	2.854881e-04	
499	5.000000e+00	2.857469e-04	
500	5.050000e+00	2.860116e-04	
501	5.100000e+00	2.862835e-04	
502	5.150000e+00	2.865635e-04	
503	5.200000e+00	2.868532e-04	
504	5.250000e+00	2.871537e-04	
505	5.300000e+00	2.874665e-04	
506	5.350000e+00	2.877933e-04	
507	5.400000e+00	2.881355e-04	
508	5.450000e+00	2.884950e-04	
509	5.500000e+00	2.888737e-04	
510	5.550000e+00	2.892734e-04	
511	5.600000e+00	2.896962e-04	
512	5.650000e+00	2.901444e-04	
513	5.700000e+00	2.906200e-04	
514	5.750000e+00	2.911255e-04	
515	5.800000e+00	2.916635e-04	
516	5.850000e+00	2.922363e-04	
517	5.900000e+00	2.928468e-04	
518	5.950000e+00	2.934977e-04	

Index   v-sweep         -i(vds)         
--------------------------------------------------------------------------------
519	6.000000e+00	2.941919e-04	
520	6.050000e+00	2.949323e-04	
521	6.100000e+00	2.957221e-04	
522	6.150000e+00	2.965643e-04	
523	6.200000e+00	2.974624e-04	
524	6.250000e+00	2.984196e-04	
525	6.300000e+00	2.994393e-04	
526	6.350000e+00	3.005252e-04	
527	6.400000e+00	3.016807e-04	
528	6.450000e+00	3.029097e-04	
529	6.500000e+00	3.042158e-04	
530	6.550000e+00	3.056029e-04	
531	6.600000e+00	3.070749e-04	
532	0.000000e+00	1.377204e-21	
533	5.000000e-02	1.524524e-05	
534	1.000000e-01	3.008295e-05	
535	1.500000e-01	4.452769e-05	
536	2.000000e-01	5.858728e-05	
537	2.500000e-01	7.226761e-05	
538	3.000000e-01	8.557398e-05	
539	3.500000e-01	9.851149e-05	
540	4.000000e-01	1.110851e-04	
541	4.500000e-01	1.232998e-04	
542	5.000000e-01	1.351603e-04	
543	5.500000e-01	1.466715e-04	
544	6.000000e-01	1.578380e-04	
545	6.500000e-01	1.686645e-04	
546	7.000000e-01	1.791554e-04	
547	7.500000e-01	1.893154e-04	
548	8.000000e-01	1.991488e-04	
549	8.500000e-01	2.086599e-04	
550	9.000000e-01	2.178532e-04	
551	9.500000e-01	2.267327e-04	
552	1.000000e+00	2.353027e-04	
553	1.050000e+00	2.435674e-04	
554	1.100000e+00	2.515306e-04	
555	1.150000e+00	2.591966e-04	
556	1.200000e+00	2.665691e-04	
557	1.250000e+00	2.736522e-04	
558	1.300000e+00	2.804496e-04	
559	1.350000e+00	2.869651e-04	
560	1.400000e+00	2.932024e-04	
561	1.450000e+00	2.991651e-04	
562	1.500000e+00	3.048569e-04	
563	1.550000e+00	3.102811e-04	
564	1.600000e+00	3.154410e-04	
565	1.650000e+00	3.203398e-04	
566	1.700000e+00	3.249802e-04	
567	1.750000e+00	3.293647e-04	
568	1.800000e+00	3.334951e-04	
569	1.850000e+00	3.373725e-04	
570	1.900000e+00	3.409968e-04	
571	1.950000e+00	3.443671e-04	
572	2.000000e+00	3.474817e-04	
573	2.050000e+00	3.503399e-04	
574	2.100000e+00	3.529446e-04	
575	2.150000e+00	3.553053e-04	
576	2.200000e+00	3.574384e-04	

Index   v-sweep         -i(vds)         
--------------------------------------------------------------------------------
577	2.250000e+00	3.593660e-04	
578	2.300000e+00	3.611125e-04	
579	2.350000e+00	3.627016e-04	
580	2.400000e+00	3.641552e-04	
581	2.450000e+00	3.654921e-04	
582	2.500000e+00	3.667282e-04	
583	2.550000e+00	3.678769e-04	
584	2.600000e+00	3.689495e-04	
585	2.650000e+00	3.699551e-04	
586	2.700000e+00	3.709018e-04	
587	2.750000e+00	3.717960e-04	
588	2.800000e+00	3.726434e-04	
589	2.850000e+00	3.734487e-04	
590	2.900000e+00	3.742162e-04	
591	2.950000e+00	3.749493e-04	
592	3.000000e+00	3.756511e-04	
593	3.050000e+00	3.763243e-04	
594	3.100000e+00	3.769713e-04	
595	3.150000e+00	3.775942e-04	
596	3.200000e+00	3.781949e-04	
597	3.250000e+00	3.787749e-04	
598	3.300000e+00	3.793358e-04	
599	3.350000e+00	3.798788e-04	
600	3.400000e+00	3.804053e-04	
601	3.450000e+00	3.809162e-04	
602	3.500000e+00	3.814125e-04	
603	3.550000e+00	3.818952e-04	
604	3.600000e+00	3.823650e-04	
605	3.650000e+00	3.828227e-04	
606	3.700000e+00	3.832689e-04	
607	3.750000e+00	3.837043e-04	
608	3.800000e+00	3.841295e-04	
609	3.850000e+00	3.845450e-04	
610	3.900000e+00	3.849513e-04	
611	3.950000e+00	3.853487e-04	
612	4.000000e+00	3.857379e-04	
613	4.050000e+00	3.861191e-04	
614	4.100000e+00	3.864928e-04	
615	4.150000e+00	3.868592e-04	
616	4.200000e+00	3.872188e-04	
617	4.250000e+00	3.875719e-04	
618	4.300000e+00	3.879187e-04	
619	4.350000e+00	3.882595e-04	
620	4.400000e+00	3.885947e-04	
621	4.450000e+00	3.889246e-04	
622	4.500000e+00	3.892495e-04	
623	4.550000e+00	3.895697e-04	
624	4.600000e+00	3.898854e-04	
625	4.650000e+00	3.901971e-04	
626	4.700000e+00	3.905052e-04	
627	4.750000e+00	3.908099e-04	
628	4.800000e+00	3.911117e-04	
629	4.850000e+00	3.914111e-04	
630	4.900000e+00	3.917087e-04	
631	4.950000e+00	3.920048e-04	
632	5.000000e+00	3.923002e-04	
633	5.050000e+00	3.925955e-04	
634	5.100000e+00	3.928915e-04	

Index   v-sweep         -i(vds)         
--------------------------------------------------------------------------------
635	5.150000e+00	3.931889e-04	
636	5.200000e+00	3.934887e-04	
637	5.250000e+00	3.937917e-04	
638	5.300000e+00	3.940992e-04	
639	5.350000e+00	3.944121e-04	
640	5.400000e+00	3.947319e-04	
641	5.450000e+00	3.950598e-04	
642	5.500000e+00	3.953973e-04	
643	5.550000e+00	3.957460e-04	
644	5.600000e+00	3.961076e-04	
645	5.650000e+00	3.964840e-04	
646	5.700000e+00	3.968771e-04	
647	5.750000e+00	3.972889e-04	
648	5.800000e+00	3.977218e-04	
649	5.850000e+00	3.981780e-04	
650	5.900000e+00	3.986602e-04	
651	5.950000e+00	3.991708e-04	
652	6.000000e+00	3.997127e-04	
653	6.050000e+00	4.002887e-04	
654	6.100000e+00	4.009021e-04	
655	6.150000e+00	4.015559e-04	
656	6.200000e+00	4.022535e-04	
657	6.250000e+00	4.029983e-04	
658	6.300000e+00	4.037941e-04	
659	6.350000e+00	4.046446e-04	
660	6.400000e+00	4.055536e-04	
661	6.450000e+00	4.065252e-04	
662	6.500000e+00	4.075635e-04	
663	6.550000e+00	4.086728e-04	
664	6.600000e+00	4.098576e-04	
665	0.000000e+00	-1.17919e-19	
666	5.000000e-02	1.637803e-05	
667	1.000000e-01	3.238661e-05	
668	1.500000e-01	4.803910e-05	
669	2.000000e-01	6.334226e-05	
670	2.500000e-01	7.830095e-05	
671	3.000000e-01	9.291947e-05	
672	3.500000e-01	1.072019e-04	
673	4.000000e-01	1.211524e-04	
674	4.500000e-01	1.347747e-04	
675	5.000000e-01	1.480730e-04	
676	5.500000e-01	1.610509e-04	
677	6.000000e-01	1.737124e-04	
678	6.500000e-01	1.860611e-04	
679	7.000000e-01	1.981009e-04	
680	7.500000e-01	2.098353e-04	
681	8.000000e-01	2.212681e-04	
682	8.500000e-01	2.324027e-04	
683	9.000000e-01	2.432427e-04	
684	9.500000e-01	2.537916e-04	
685	1.000000e+00	2.640528e-04	
686	1.050000e+00	2.740296e-04	
687	1.100000e+00	2.837255e-04	
688	1.150000e+00	2.931438e-04	
689	1.200000e+00	3.022877e-04	
690	1.250000e+00	3.111604e-04	
691	1.300000e+00	3.197651e-04	
692	1.350000e+00	3.281049e-04	

Index   v-sweep         -i(vds)         
--------------------------------------------------------------------------------
693	1.400000e+00	3.361830e-04	
694	1.450000e+00	3.440025e-04	
695	1.500000e+00	3.515663e-04	
696	1.550000e+00	3.588774e-04	
697	1.600000e+00	3.659389e-04	
698	1.650000e+00	3.727536e-04	
699	1.700000e+00	3.793244e-04	
700	1.750000e+00	3.856541e-04	
701	1.800000e+00	3.917455e-04	
702	1.850000e+00	3.976012e-04	
703	1.900000e+00	4.032239e-04	
704	1.950000e+00	4.086159e-04	
705	2.000000e+00	4.137797e-04	
706	2.050000e+00	4.187173e-04	
707	2.100000e+00	4.234305e-04	
708	2.150000e+00	4.279205e-04	
709	2.200000e+00	4.321882e-04	
710	2.250000e+00	4.362332e-04	
711	2.300000e+00	4.400543e-04	
712	2.350000e+00	4.436490e-04	
713	2.400000e+00	4.470136e-04	
714	2.450000e+00	4.501445e-04	
715	2.500000e+00	4.530402e-04	
716	2.550000e+00	4.557034e-04	
717	2.600000e+00	4.581430e-04	
718	2.650000e+00	4.603736e-04	
719	2.700000e+00	4.624140e-04	
720	2.750000e+00	4.642846e-04	
721	2.800000e+00	4.660053e-04	
722	2.850000e+00	4.675946e-04	
723	2.900000e+00	4.690689e-04	
724	2.950000e+00	4.704422e-04	
725	3.000000e+00	4.717267e-04	
726	3.050000e+00	4.729328e-04	
727	3.100000e+00	4.740691e-04	
728	3.150000e+00	4.751434e-04	
729	3.200000e+00	4.761619e-04	
730	3.250000e+00	4.771302e-04	
731	3.300000e+00	4.780531e-04	
732	3.350000e+00	4.789348e-04	
733	3.400000e+00	4.797788e-04	
734	3.450000e+00	4.805885e-04	
735	3.500000e+00	4.813666e-04	
736	3.550000e+00	4.821155e-04	
737	3.600000e+00	4.828375e-04	
738	3.650000e+00	4.835346e-04	
739	3.700000e+00	4.842085e-04	
740	3.750000e+00	4.848608e-04	
741	3.800000e+00	4.854929e-04	
742	3.850000e+00	4.861061e-04	
743	3.900000e+00	4.867017e-04	
744	3.950000e+00	4.872807e-04	
745	4.000000e+00	4.878440e-04	
746	4.050000e+00	4.883925e-04	
747	4.100000e+00	4.889271e-04	
748	4.150000e+00	4.894486e-04	
749	4.200000e+00	4.899576e-04	
750	4.250000e+00	4.904547e-04	

Index   v-sweep         -i(vds)         
--------------------------------------------------------------------------------
751	4.300000e+00	4.909406e-04	
752	4.350000e+00	4.914158e-04	
753	4.400000e+00	4.918808e-04	
754	4.450000e+00	4.923362e-04	
755	4.500000e+00	4.927823e-04	
756	4.550000e+00	4.932196e-04	
757	4.600000e+00	4.936485e-04	
758	4.650000e+00	4.940695e-04	
759	4.700000e+00	4.944827e-04	
760	4.750000e+00	4.948888e-04	
761	4.800000e+00	4.952879e-04	
762	4.850000e+00	4.956804e-04	
763	4.900000e+00	4.960668e-04	
764	4.950000e+00	4.964474e-04	
765	5.000000e+00	4.968226e-04	
766	5.050000e+00	4.971928e-04	
767	5.100000e+00	4.975584e-04	
768	5.150000e+00	4.979200e-04	
769	5.200000e+00	4.982779e-04	
770	5.250000e+00	4.986328e-04	
771	5.300000e+00	4.989853e-04	
772	5.350000e+00	4.993360e-04	
773	5.400000e+00	4.996857e-04	
774	5.450000e+00	5.000352e-04	
775	5.500000e+00	5.003854e-04	
776	5.550000e+00	5.007373e-04	
777	5.600000e+00	5.010918e-04	
778	5.650000e+00	5.014503e-04	
779	5.700000e+00	5.018141e-04	
780	5.750000e+00	5.021844e-04	
781	5.800000e+00	5.025629e-04	
782	5.850000e+00	5.029513e-04	
783	5.900000e+00	5.033513e-04	
784	5.950000e+00	5.037649e-04	
785	6.000000e+00	5.041942e-04	
786	6.050000e+00	5.046415e-04	
787	6.100000e+00	5.051092e-04	
788	6.150000e+00	5.055998e-04	
789	6.200000e+00	5.061161e-04	
790	6.250000e+00	5.066611e-04	
791	6.300000e+00	5.072377e-04	
792	6.350000e+00	5.078494e-04	
793	6.400000e+00	5.084995e-04	
794	6.450000e+00	5.091916e-04	
795	6.500000e+00	5.099296e-04	
796	6.550000e+00	5.107174e-04	
797	6.600000e+00	5.115591e-04	
Note: No ".plot", ".print", or ".fourier" lines; no simulations run
