
Note: Compatibility modes selected: hs

Warning: m=xx on .subckt line will override multiplier m hierarchy!


Circuit: ***************************

Doing analysis at TEMP = 25.000000 and TNOM = 25.000000


No. of Data Rows : 798
                          ***************************
                          DC transfer characteristic  Mon Jan  9 13:58:36  2023
--------------------------------------------------------------------------------
Index   v-sweep         -i(vds)         
--------------------------------------------------------------------------------
0	0.000000e+00	-7.06299e-31	
1	5.000000e-02	1.467952e-05	
2	1.000000e-01	2.534333e-05	
3	1.500000e-01	3.221543e-05	
4	2.000000e-01	3.588978e-05	
5	2.500000e-01	3.760217e-05	
6	3.000000e-01	3.851575e-05	
7	3.500000e-01	3.913097e-05	
8	4.000000e-01	3.960720e-05	
9	4.500000e-01	4.000303e-05	
10	5.000000e-01	4.034558e-05	
11	5.500000e-01	4.064974e-05	
12	6.000000e-01	4.092472e-05	
13	6.500000e-01	4.117667e-05	
14	7.000000e-01	4.140994e-05	
15	7.500000e-01	4.162773e-05	
16	8.000000e-01	4.183246e-05	
17	8.500000e-01	4.202603e-05	
18	9.000000e-01	4.220994e-05	
19	9.500000e-01	4.238541e-05	
20	1.000000e+00	4.255344e-05	
21	1.050000e+00	4.271487e-05	
22	1.100000e+00	4.287039e-05	
23	1.150000e+00	4.302060e-05	
24	1.200000e+00	4.316600e-05	
25	1.250000e+00	4.330703e-05	
26	1.300000e+00	4.344409e-05	
27	1.350000e+00	4.357749e-05	
28	1.400000e+00	4.370754e-05	
29	1.450000e+00	4.383449e-05	
30	1.500000e+00	4.395858e-05	
31	1.550000e+00	4.408001e-05	
32	1.600000e+00	4.419896e-05	
33	1.650000e+00	4.431561e-05	
34	1.700000e+00	4.443010e-05	
35	1.750000e+00	4.454257e-05	
36	1.800000e+00	4.465314e-05	
37	1.850000e+00	4.476193e-05	
38	1.900000e+00	4.486904e-05	
39	1.950000e+00	4.497456e-05	
40	2.000000e+00	4.507858e-05	
41	2.050000e+00	4.518118e-05	
42	2.100000e+00	4.528244e-05	
43	2.150000e+00	4.538242e-05	
44	2.200000e+00	4.548119e-05	
45	2.250000e+00	4.557881e-05	
46	2.300000e+00	4.567534e-05	
47	2.350000e+00	4.577082e-05	
48	2.400000e+00	4.586531e-05	
49	2.450000e+00	4.595886e-05	
50	2.500000e+00	4.605151e-05	
51	2.550000e+00	4.614331e-05	
52	2.600000e+00	4.623432e-05	
53	2.650000e+00	4.632456e-05	
54	2.700000e+00	4.641409e-05	

Index   v-sweep         -i(vds)         
--------------------------------------------------------------------------------
55	2.750000e+00	4.650297e-05	
56	2.800000e+00	4.659122e-05	
57	2.850000e+00	4.667892e-05	
58	2.900000e+00	4.676611e-05	
59	2.950000e+00	4.685286e-05	
60	3.000000e+00	4.693923e-05	
61	3.050000e+00	4.702528e-05	
62	3.100000e+00	4.711110e-05	
63	3.150000e+00	4.719677e-05	
64	3.200000e+00	4.728238e-05	
65	3.250000e+00	4.736802e-05	
66	3.300000e+00	4.745381e-05	
67	3.350000e+00	4.753987e-05	
68	3.400000e+00	4.762632e-05	
69	3.450000e+00	4.771331e-05	
70	3.500000e+00	4.780099e-05	
71	3.550000e+00	4.788953e-05	
72	3.600000e+00	4.797911e-05	
73	3.650000e+00	4.806992e-05	
74	3.700000e+00	4.816218e-05	
75	3.750000e+00	4.825611e-05	
76	3.800000e+00	4.835196e-05	
77	3.850000e+00	4.844998e-05	
78	3.900000e+00	4.855045e-05	
79	3.950000e+00	4.865367e-05	
80	4.000000e+00	4.875995e-05	
81	4.050000e+00	4.886963e-05	
82	4.100000e+00	4.898305e-05	
83	4.150000e+00	4.910058e-05	
84	4.200000e+00	4.922262e-05	
85	4.250000e+00	4.934958e-05	
86	4.300000e+00	4.948188e-05	
87	4.350000e+00	4.961998e-05	
88	4.400000e+00	4.976434e-05	
89	4.450000e+00	4.991546e-05	
90	4.500000e+00	5.007384e-05	
91	4.550000e+00	5.024002e-05	
92	4.600000e+00	5.041455e-05	
93	4.650000e+00	5.059799e-05	
94	4.700000e+00	5.079094e-05	
95	4.750000e+00	5.099401e-05	
96	4.800000e+00	5.120782e-05	
97	4.850000e+00	5.143302e-05	
98	4.900000e+00	5.167028e-05	
99	4.950000e+00	5.192027e-05	
100	5.000000e+00	5.218371e-05	
101	5.050000e+00	5.246132e-05	
102	5.100000e+00	5.275382e-05	
103	5.150000e+00	5.306198e-05	
104	5.200000e+00	5.338657e-05	
105	5.250000e+00	5.372836e-05	
106	5.300000e+00	5.408817e-05	
107	5.350000e+00	5.446680e-05	
108	5.400000e+00	5.486509e-05	
109	5.450000e+00	5.528389e-05	
110	5.500000e+00	5.572404e-05	
111	5.550000e+00	5.618644e-05	
112	5.600000e+00	5.667195e-05	

Index   v-sweep         -i(vds)         
--------------------------------------------------------------------------------
113	5.650000e+00	5.718147e-05	
114	5.700000e+00	5.771591e-05	
115	5.750000e+00	5.827618e-05	
116	5.800000e+00	5.886323e-05	
117	5.850000e+00	5.947797e-05	
118	5.900000e+00	6.012136e-05	
119	5.950000e+00	6.079436e-05	
120	6.000000e+00	6.149793e-05	
121	6.050000e+00	6.223303e-05	
122	6.100000e+00	6.300065e-05	
123	6.150000e+00	6.380178e-05	
124	6.200000e+00	6.463739e-05	
125	6.250000e+00	6.550850e-05	
126	6.300000e+00	6.641610e-05	
127	6.350000e+00	6.736119e-05	
128	6.400000e+00	6.834478e-05	
129	6.450000e+00	6.936790e-05	
130	6.500000e+00	7.043155e-05	
131	6.550000e+00	7.153675e-05	
132	6.600000e+00	7.268453e-05	
133	0.000000e+00	-4.51221e-30	
134	5.000000e-02	6.540237e-05	
135	1.000000e-01	1.262533e-04	
136	1.500000e-01	1.826442e-04	
137	2.000000e-01	2.346645e-04	
138	2.500000e-01	2.824020e-04	
139	3.000000e-01	3.259430e-04	
140	3.500000e-01	3.653722e-04	
141	4.000000e-01	4.007736e-04	
142	4.500000e-01	4.322311e-04	
143	5.000000e-01	4.598295e-04	
144	5.500000e-01	4.836586e-04	
145	6.000000e-01	5.038207e-04	
146	6.500000e-01	5.204507e-04	
147	7.000000e-01	5.337617e-04	
148	7.500000e-01	5.441154e-04	
149	8.000000e-01	5.520513e-04	
150	8.500000e-01	5.581827e-04	
151	9.000000e-01	5.630404e-04	
152	9.500000e-01	5.670073e-04	
153	1.000000e+00	5.703387e-04	
154	1.050000e+00	5.732026e-04	
155	1.100000e+00	5.757119e-04	
156	1.150000e+00	5.779445e-04	
157	1.200000e+00	5.799561e-04	
158	1.250000e+00	5.817872e-04	
159	1.300000e+00	5.834686e-04	
160	1.350000e+00	5.850238e-04	
161	1.400000e+00	5.864712e-04	
162	1.450000e+00	5.878257e-04	
163	1.500000e+00	5.890990e-04	
164	1.550000e+00	5.903011e-04	
165	1.600000e+00	5.914400e-04	
166	1.650000e+00	5.925225e-04	
167	1.700000e+00	5.935546e-04	
168	1.750000e+00	5.945410e-04	
169	1.800000e+00	5.954860e-04	
170	1.850000e+00	5.963934e-04	

Index   v-sweep         -i(vds)         
--------------------------------------------------------------------------------
171	1.900000e+00	5.972664e-04	
172	1.950000e+00	5.981077e-04	
173	2.000000e+00	5.989198e-04	
174	2.050000e+00	5.997051e-04	
175	2.100000e+00	6.004654e-04	
176	2.150000e+00	6.012025e-04	
177	2.200000e+00	6.019179e-04	
178	2.250000e+00	6.026132e-04	
179	2.300000e+00	6.032896e-04	
180	2.350000e+00	6.039482e-04	
181	2.400000e+00	6.045902e-04	
182	2.450000e+00	6.052165e-04	
183	2.500000e+00	6.058279e-04	
184	2.550000e+00	6.064254e-04	
185	2.600000e+00	6.070097e-04	
186	2.650000e+00	6.075814e-04	
187	2.700000e+00	6.081413e-04	
188	2.750000e+00	6.086899e-04	
189	2.800000e+00	6.092277e-04	
190	2.850000e+00	6.097554e-04	
191	2.900000e+00	6.102735e-04	
192	2.950000e+00	6.107824e-04	
193	3.000000e+00	6.112825e-04	
194	3.050000e+00	6.117745e-04	
195	3.100000e+00	6.122587e-04	
196	3.150000e+00	6.127356e-04	
197	3.200000e+00	6.132056e-04	
198	3.250000e+00	6.136694e-04	
199	3.300000e+00	6.141273e-04	
200	3.350000e+00	6.145800e-04	
201	3.400000e+00	6.150280e-04	
202	3.450000e+00	6.154721e-04	
203	3.500000e+00	6.159128e-04	
204	3.550000e+00	6.163510e-04	
205	3.600000e+00	6.167875e-04	
206	3.650000e+00	6.172233e-04	
207	3.700000e+00	6.176593e-04	
208	3.750000e+00	6.180967e-04	
209	3.800000e+00	6.185367e-04	
210	3.850000e+00	6.189808e-04	
211	3.900000e+00	6.194303e-04	
212	3.950000e+00	6.198870e-04	
213	4.000000e+00	6.203526e-04	
214	4.050000e+00	6.208291e-04	
215	4.100000e+00	6.213186e-04	
216	4.150000e+00	6.218233e-04	
217	4.200000e+00	6.223459e-04	
218	4.250000e+00	6.228888e-04	
219	4.300000e+00	6.234551e-04	
220	4.350000e+00	6.240477e-04	
221	4.400000e+00	6.246700e-04	
222	4.450000e+00	6.253253e-04	
223	4.500000e+00	6.260175e-04	
224	4.550000e+00	6.267505e-04	
225	4.600000e+00	6.275284e-04	
226	4.650000e+00	6.283555e-04	
227	4.700000e+00	6.292366e-04	
228	4.750000e+00	6.301765e-04	

Index   v-sweep         -i(vds)         
--------------------------------------------------------------------------------
229	4.800000e+00	6.311802e-04	
230	4.850000e+00	6.322531e-04	
231	4.900000e+00	6.334007e-04	
232	4.950000e+00	6.346288e-04	
233	5.000000e+00	6.359434e-04	
234	5.050000e+00	6.373508e-04	
235	5.100000e+00	6.388575e-04	
236	5.150000e+00	6.404701e-04	
237	5.200000e+00	6.421956e-04	
238	5.250000e+00	6.440411e-04	
239	5.300000e+00	6.460140e-04	
240	5.350000e+00	6.481218e-04	
241	5.400000e+00	6.503723e-04	
242	5.450000e+00	6.527736e-04	
243	5.500000e+00	6.553337e-04	
244	5.550000e+00	6.580610e-04	
245	5.600000e+00	6.609641e-04	
246	5.650000e+00	6.640517e-04	
247	5.700000e+00	6.673327e-04	
248	5.750000e+00	6.708161e-04	
249	5.800000e+00	6.745111e-04	
250	5.850000e+00	6.784271e-04	
251	5.900000e+00	6.825736e-04	
252	5.950000e+00	6.869603e-04	
253	6.000000e+00	6.915968e-04	
254	6.050000e+00	6.964931e-04	
255	6.100000e+00	7.016592e-04	
256	6.150000e+00	7.071052e-04	
257	6.200000e+00	7.128412e-04	
258	6.250000e+00	7.188776e-04	
259	6.300000e+00	7.252248e-04	
260	6.350000e+00	7.318931e-04	
261	6.400000e+00	7.388930e-04	
262	6.450000e+00	7.462353e-04	
263	6.500000e+00	7.539304e-04	
264	6.550000e+00	7.619891e-04	
265	6.600000e+00	7.704220e-04	
266	0.000000e+00	4.106983e-30	
267	5.000000e-02	1.031714e-04	
268	1.000000e-01	2.017719e-04	
269	1.500000e-01	2.958883e-04	
270	2.000000e-01	3.856057e-04	
271	2.500000e-01	4.710074e-04	
272	3.000000e-01	5.521748e-04	
273	3.500000e-01	6.291879e-04	
274	4.000000e-01	7.021247e-04	
275	4.500000e-01	7.710616e-04	
276	5.000000e-01	8.360734e-04	
277	5.500000e-01	8.972329e-04	
278	6.000000e-01	9.546114e-04	
279	6.500000e-01	1.008278e-03	
280	7.000000e-01	1.058300e-03	
281	7.500000e-01	1.104743e-03	
282	8.000000e-01	1.147668e-03	
283	8.500000e-01	1.187133e-03	
284	9.000000e-01	1.223191e-03	
285	9.500000e-01	1.255887e-03	
286	1.000000e+00	1.285253e-03	

Index   v-sweep         -i(vds)         
--------------------------------------------------------------------------------
287	1.050000e+00	1.311312e-03	
288	1.100000e+00	1.334078e-03	
289	1.150000e+00	1.353586e-03	
290	1.200000e+00	1.369961e-03	
291	1.250000e+00	1.383479e-03	
292	1.300000e+00	1.394567e-03	
293	1.350000e+00	1.403707e-03	
294	1.400000e+00	1.411340e-03	
295	1.450000e+00	1.417819e-03	
296	1.500000e+00	1.423409e-03	
297	1.550000e+00	1.428304e-03	
298	1.600000e+00	1.432649e-03	
299	1.650000e+00	1.436549e-03	
300	1.700000e+00	1.440085e-03	
301	1.750000e+00	1.443316e-03	
302	1.800000e+00	1.446291e-03	
303	1.850000e+00	1.449048e-03	
304	1.900000e+00	1.451616e-03	
305	1.950000e+00	1.454020e-03	
306	2.000000e+00	1.456280e-03	
307	2.050000e+00	1.458413e-03	
308	2.100000e+00	1.460432e-03	
309	2.150000e+00	1.462350e-03	
310	2.200000e+00	1.464176e-03	
311	2.250000e+00	1.465919e-03	
312	2.300000e+00	1.467588e-03	
313	2.350000e+00	1.469187e-03	
314	2.400000e+00	1.470724e-03	
315	2.450000e+00	1.472203e-03	
316	2.500000e+00	1.473628e-03	
317	2.550000e+00	1.475004e-03	
318	2.600000e+00	1.476335e-03	
319	2.650000e+00	1.477622e-03	
320	2.700000e+00	1.478870e-03	
321	2.750000e+00	1.480080e-03	
322	2.800000e+00	1.481255e-03	
323	2.850000e+00	1.482398e-03	
324	2.900000e+00	1.483510e-03	
325	2.950000e+00	1.484593e-03	
326	3.000000e+00	1.485649e-03	
327	3.050000e+00	1.486678e-03	
328	3.100000e+00	1.487684e-03	
329	3.150000e+00	1.488666e-03	
330	3.200000e+00	1.489626e-03	
331	3.250000e+00	1.490565e-03	
332	3.300000e+00	1.491484e-03	
333	3.350000e+00	1.492385e-03	
334	3.400000e+00	1.493268e-03	
335	3.450000e+00	1.494134e-03	
336	3.500000e+00	1.494984e-03	
337	3.550000e+00	1.495820e-03	
338	3.600000e+00	1.496641e-03	
339	3.650000e+00	1.497450e-03	
340	3.700000e+00	1.498247e-03	
341	3.750000e+00	1.499033e-03	
342	3.800000e+00	1.499810e-03	
343	3.850000e+00	1.500578e-03	
344	3.900000e+00	1.501340e-03	

Index   v-sweep         -i(vds)         
--------------------------------------------------------------------------------
345	3.950000e+00	1.502097e-03	
346	4.000000e+00	1.502851e-03	
347	4.050000e+00	1.503603e-03	
348	4.100000e+00	1.504357e-03	
349	4.150000e+00	1.505113e-03	
350	4.200000e+00	1.505876e-03	
351	4.250000e+00	1.506647e-03	
352	4.300000e+00	1.507430e-03	
353	4.350000e+00	1.508230e-03	
354	4.400000e+00	1.509048e-03	
355	4.450000e+00	1.509891e-03	
356	4.500000e+00	1.510762e-03	
357	4.550000e+00	1.511667e-03	
358	4.600000e+00	1.512611e-03	
359	4.650000e+00	1.513600e-03	
360	4.700000e+00	1.514640e-03	
361	4.750000e+00	1.515739e-03	
362	4.800000e+00	1.516903e-03	
363	4.850000e+00	1.518141e-03	
364	4.900000e+00	1.519461e-03	
365	4.950000e+00	1.520871e-03	
366	5.000000e+00	1.522382e-03	
367	5.050000e+00	1.524003e-03	
368	5.100000e+00	1.525745e-03	
369	5.150000e+00	1.527619e-03	
370	5.200000e+00	1.529636e-03	
371	5.250000e+00	1.531809e-03	
372	5.300000e+00	1.534151e-03	
373	5.350000e+00	1.536674e-03	
374	5.400000e+00	1.539392e-03	
375	5.450000e+00	1.542321e-03	
376	5.500000e+00	1.545474e-03	
377	5.550000e+00	1.548868e-03	
378	5.600000e+00	1.552518e-03	
379	5.650000e+00	1.556442e-03	
380	5.700000e+00	1.560655e-03	
381	5.750000e+00	1.565175e-03	
382	5.800000e+00	1.570021e-03	
383	5.850000e+00	1.575211e-03	
384	5.900000e+00	1.580763e-03	
385	5.950000e+00	1.586698e-03	
386	6.000000e+00	1.593035e-03	
387	6.050000e+00	1.599794e-03	
388	6.100000e+00	1.606996e-03	
389	6.150000e+00	1.614661e-03	
390	6.200000e+00	1.622812e-03	
391	6.250000e+00	1.631469e-03	
392	6.300000e+00	1.640655e-03	
393	6.350000e+00	1.650392e-03	
394	6.400000e+00	1.660702e-03	
395	6.450000e+00	1.671609e-03	
396	6.500000e+00	1.683135e-03	
397	6.550000e+00	1.695304e-03	
398	6.600000e+00	1.708138e-03	
399	0.000000e+00	7.588417e-29	
400	5.000000e-02	1.307733e-04	
401	1.000000e-01	2.571586e-04	
402	1.500000e-01	3.792314e-04	

Index   v-sweep         -i(vds)         
--------------------------------------------------------------------------------
403	2.000000e-01	4.970658e-04	
404	2.500000e-01	6.107346e-04	
405	3.000000e-01	7.203091e-04	
406	3.500000e-01	8.258596e-04	
407	4.000000e-01	9.274546e-04	
408	4.500000e-01	1.025162e-03	
409	5.000000e-01	1.119047e-03	
410	5.500000e-01	1.209175e-03	
411	6.000000e-01	1.295610e-03	
412	6.500000e-01	1.378414e-03	
413	7.000000e-01	1.457648e-03	
414	7.500000e-01	1.533370e-03	
415	8.000000e-01	1.605641e-03	
416	8.500000e-01	1.674516e-03	
417	9.000000e-01	1.740050e-03	
418	9.500000e-01	1.802299e-03	
419	1.000000e+00	1.861314e-03	
420	1.050000e+00	1.917145e-03	
421	1.100000e+00	1.969838e-03	
422	1.150000e+00	2.019438e-03	
423	1.200000e+00	2.065984e-03	
424	1.250000e+00	2.109505e-03	
425	1.300000e+00	2.150025e-03	
426	1.350000e+00	2.187548e-03	
427	1.400000e+00	2.222061e-03	
428	1.450000e+00	2.253520e-03	
429	1.500000e+00	2.281859e-03	
430	1.550000e+00	2.307004e-03	
431	1.600000e+00	2.328930e-03	
432	1.650000e+00	2.347735e-03	
433	1.700000e+00	2.363678e-03	
434	1.750000e+00	2.377146e-03	
435	1.800000e+00	2.388568e-03	
436	1.850000e+00	2.398343e-03	
437	1.900000e+00	2.406806e-03	
438	1.950000e+00	2.414219e-03	
439	2.000000e+00	2.420788e-03	
440	2.050000e+00	2.426670e-03	
441	2.100000e+00	2.431985e-03	
442	2.150000e+00	2.436827e-03	
443	2.200000e+00	2.441270e-03	
444	2.250000e+00	2.445374e-03	
445	2.300000e+00	2.449184e-03	
446	2.350000e+00	2.452740e-03	
447	2.400000e+00	2.456072e-03	
448	2.450000e+00	2.459208e-03	
449	2.500000e+00	2.462169e-03	
450	2.550000e+00	2.464974e-03	
451	2.600000e+00	2.467638e-03	
452	2.650000e+00	2.470176e-03	
453	2.700000e+00	2.472599e-03	
454	2.750000e+00	2.474916e-03	
455	2.800000e+00	2.477138e-03	
456	2.850000e+00	2.479272e-03	
457	2.900000e+00	2.481325e-03	
458	2.950000e+00	2.483303e-03	
459	3.000000e+00	2.485211e-03	
460	3.050000e+00	2.487055e-03	

Index   v-sweep         -i(vds)         
--------------------------------------------------------------------------------
461	3.100000e+00	2.488838e-03	
462	3.150000e+00	2.490566e-03	
463	3.200000e+00	2.492241e-03	
464	3.250000e+00	2.493867e-03	
465	3.300000e+00	2.495447e-03	
466	3.350000e+00	2.496983e-03	
467	3.400000e+00	2.498478e-03	
468	3.450000e+00	2.499934e-03	
469	3.500000e+00	2.501354e-03	
470	3.550000e+00	2.502739e-03	
471	3.600000e+00	2.504091e-03	
472	3.650000e+00	2.505412e-03	
473	3.700000e+00	2.506704e-03	
474	3.750000e+00	2.507967e-03	
475	3.800000e+00	2.509204e-03	
476	3.850000e+00	2.510417e-03	
477	3.900000e+00	2.511606e-03	
478	3.950000e+00	2.512772e-03	
479	4.000000e+00	2.513919e-03	
480	4.050000e+00	2.515046e-03	
481	4.100000e+00	2.516156e-03	
482	4.150000e+00	2.517251e-03	
483	4.200000e+00	2.518331e-03	
484	4.250000e+00	2.519400e-03	
485	4.300000e+00	2.520460e-03	
486	4.350000e+00	2.521513e-03	
487	4.400000e+00	2.522562e-03	
488	4.450000e+00	2.523610e-03	
489	4.500000e+00	2.524661e-03	
490	4.550000e+00	2.525717e-03	
491	4.600000e+00	2.526785e-03	
492	4.650000e+00	2.527868e-03	
493	4.700000e+00	2.528971e-03	
494	4.750000e+00	2.530100e-03	
495	4.800000e+00	2.531262e-03	
496	4.850000e+00	2.532463e-03	
497	4.900000e+00	2.533711e-03	
498	4.950000e+00	2.535015e-03	
499	5.000000e+00	2.536382e-03	
500	5.050000e+00	2.537823e-03	
501	5.100000e+00	2.539348e-03	
502	5.150000e+00	2.540968e-03	
503	5.200000e+00	2.542696e-03	
504	5.250000e+00	2.544543e-03	
505	5.300000e+00	2.546524e-03	
506	5.350000e+00	2.548654e-03	
507	5.400000e+00	2.550947e-03	
508	5.450000e+00	2.553420e-03	
509	5.500000e+00	2.556090e-03	
510	5.550000e+00	2.558976e-03	
511	5.600000e+00	2.562096e-03	
512	5.650000e+00	2.565470e-03	
513	5.700000e+00	2.569119e-03	
514	5.750000e+00	2.573066e-03	
515	5.800000e+00	2.577332e-03	
516	5.850000e+00	2.581941e-03	
517	5.900000e+00	2.586918e-03	
518	5.950000e+00	2.592288e-03	

Index   v-sweep         -i(vds)         
--------------------------------------------------------------------------------
519	6.000000e+00	2.598077e-03	
520	6.050000e+00	2.604313e-03	
521	6.100000e+00	2.611023e-03	
522	6.150000e+00	2.618235e-03	
523	6.200000e+00	2.625980e-03	
524	6.250000e+00	2.634288e-03	
525	6.300000e+00	2.643189e-03	
526	6.350000e+00	2.652715e-03	
527	6.400000e+00	2.662899e-03	
528	6.450000e+00	2.673773e-03	
529	6.500000e+00	2.685371e-03	
530	6.550000e+00	2.697726e-03	
531	6.600000e+00	2.710875e-03	
532	0.000000e+00	1.009968e-28	
533	5.000000e-02	1.499835e-04	
534	1.000000e-01	2.958898e-04	
535	1.500000e-01	4.377814e-04	
536	2.000000e-01	5.757198e-04	
537	2.500000e-01	7.097656e-04	
538	3.000000e-01	8.399783e-04	
539	3.500000e-01	9.664164e-04	
540	4.000000e-01	1.089138e-03	
541	4.500000e-01	1.208199e-03	
542	5.000000e-01	1.323656e-03	
543	5.500000e-01	1.435563e-03	
544	6.000000e-01	1.543974e-03	
545	6.500000e-01	1.648942e-03	
546	7.000000e-01	1.750519e-03	
547	7.500000e-01	1.848757e-03	
548	8.000000e-01	1.943704e-03	
549	8.500000e-01	2.035411e-03	
550	9.000000e-01	2.123925e-03	
551	9.500000e-01	2.209294e-03	
552	1.000000e+00	2.291565e-03	
553	1.050000e+00	2.370783e-03	
554	1.100000e+00	2.446992e-03	
555	1.150000e+00	2.520237e-03	
556	1.200000e+00	2.590559e-03	
557	1.250000e+00	2.658000e-03	
558	1.300000e+00	2.722601e-03	
559	1.350000e+00	2.784399e-03	
560	1.400000e+00	2.843430e-03	
561	1.450000e+00	2.899729e-03	
562	1.500000e+00	2.953325e-03	
563	1.550000e+00	3.004245e-03	
564	1.600000e+00	3.052508e-03	
565	1.650000e+00	3.098123e-03	
566	1.700000e+00	3.141087e-03	
567	1.750000e+00	3.181377e-03	
568	1.800000e+00	3.218948e-03	
569	1.850000e+00	3.253719e-03	
570	1.900000e+00	3.285583e-03	
571	1.950000e+00	3.314418e-03	
572	2.000000e+00	3.340132e-03	
573	2.050000e+00	3.362730e-03	
574	2.100000e+00	3.382353e-03	
575	2.150000e+00	3.399284e-03	
576	2.200000e+00	3.413885e-03	

Index   v-sweep         -i(vds)         
--------------------------------------------------------------------------------
577	2.250000e+00	3.426533e-03	
578	2.300000e+00	3.437571e-03	
579	2.350000e+00	3.447291e-03	
580	2.400000e+00	3.455931e-03	
581	2.450000e+00	3.463679e-03	
582	2.500000e+00	3.470685e-03	
583	2.550000e+00	3.477069e-03	
584	2.600000e+00	3.482924e-03	
585	2.650000e+00	3.488327e-03	
586	2.700000e+00	3.493341e-03	
587	2.750000e+00	3.498015e-03	
588	2.800000e+00	3.502391e-03	
589	2.850000e+00	3.506504e-03	
590	2.900000e+00	3.510384e-03	
591	2.950000e+00	3.514056e-03	
592	3.000000e+00	3.517539e-03	
593	3.050000e+00	3.520854e-03	
594	3.100000e+00	3.524015e-03	
595	3.150000e+00	3.527036e-03	
596	3.200000e+00	3.529929e-03	
597	3.250000e+00	3.532705e-03	
598	3.300000e+00	3.535373e-03	
599	3.350000e+00	3.537941e-03	
600	3.400000e+00	3.540416e-03	
601	3.450000e+00	3.542806e-03	
602	3.500000e+00	3.545116e-03	
603	3.550000e+00	3.547351e-03	
604	3.600000e+00	3.549517e-03	
605	3.650000e+00	3.551617e-03	
606	3.700000e+00	3.553656e-03	
607	3.750000e+00	3.555637e-03	
608	3.800000e+00	3.557563e-03	
609	3.850000e+00	3.559438e-03	
610	3.900000e+00	3.561265e-03	
611	3.950000e+00	3.563046e-03	
612	4.000000e+00	3.564783e-03	
613	4.050000e+00	3.566479e-03	
614	4.100000e+00	3.568136e-03	
615	4.150000e+00	3.569756e-03	
616	4.200000e+00	3.571342e-03	
617	4.250000e+00	3.572894e-03	
618	4.300000e+00	3.574415e-03	
619	4.350000e+00	3.575907e-03	
620	4.400000e+00	3.577373e-03	
621	4.450000e+00	3.578813e-03	
622	4.500000e+00	3.580230e-03	
623	4.550000e+00	3.581627e-03	
624	4.600000e+00	3.583007e-03	
625	4.650000e+00	3.584371e-03	
626	4.700000e+00	3.585723e-03	
627	4.750000e+00	3.587067e-03	
628	4.800000e+00	3.588406e-03	
629	4.850000e+00	3.589745e-03	
630	4.900000e+00	3.591088e-03	
631	4.950000e+00	3.592440e-03	
632	5.000000e+00	3.593808e-03	
633	5.050000e+00	3.595197e-03	
634	5.100000e+00	3.596616e-03	

Index   v-sweep         -i(vds)         
--------------------------------------------------------------------------------
635	5.150000e+00	3.598071e-03	
636	5.200000e+00	3.599572e-03	
637	5.250000e+00	3.601129e-03	
638	5.300000e+00	3.602751e-03	
639	5.350000e+00	3.604450e-03	
640	5.400000e+00	3.606238e-03	
641	5.450000e+00	3.608129e-03	
642	5.500000e+00	3.610138e-03	
643	5.550000e+00	3.612279e-03	
644	5.600000e+00	3.614570e-03	
645	5.650000e+00	3.617029e-03	
646	5.700000e+00	3.619674e-03	
647	5.750000e+00	3.622526e-03	
648	5.800000e+00	3.625606e-03	
649	5.850000e+00	3.628938e-03	
650	5.900000e+00	3.632544e-03	
651	5.950000e+00	3.636452e-03	
652	6.000000e+00	3.640686e-03	
653	6.050000e+00	3.645276e-03	
654	6.100000e+00	3.650250e-03	
655	6.150000e+00	3.655639e-03	
656	6.200000e+00	3.661475e-03	
657	6.250000e+00	3.667790e-03	
658	6.300000e+00	3.674618e-03	
659	6.350000e+00	3.681996e-03	
660	6.400000e+00	3.689960e-03	
661	6.450000e+00	3.698548e-03	
662	6.500000e+00	3.707798e-03	
663	6.550000e+00	3.717750e-03	
664	6.600000e+00	3.728446e-03	
665	0.000000e+00	-1.26646e-18	
666	5.000000e-02	1.625494e-04	
667	1.000000e-01	3.213924e-04	
668	1.500000e-01	4.765793e-04	
669	2.000000e-01	6.281598e-04	
670	2.500000e-01	7.761829e-04	
671	3.000000e-01	9.206969e-04	
672	3.500000e-01	1.061750e-03	
673	4.000000e-01	1.199388e-03	
674	4.500000e-01	1.333658e-03	
675	5.000000e-01	1.464605e-03	
676	5.500000e-01	1.592275e-03	
677	6.000000e-01	1.716712e-03	
678	6.500000e-01	1.837959e-03	
679	7.000000e-01	1.956060e-03	
680	7.500000e-01	2.071056e-03	
681	8.000000e-01	2.182989e-03	
682	8.500000e-01	2.291901e-03	
683	9.000000e-01	2.397830e-03	
684	9.500000e-01	2.500818e-03	
685	1.000000e+00	2.600904e-03	
686	1.050000e+00	2.698124e-03	
687	1.100000e+00	2.792518e-03	
688	1.150000e+00	2.884123e-03	
689	1.200000e+00	2.972975e-03	
690	1.250000e+00	3.059110e-03	
691	1.300000e+00	3.142564e-03	
692	1.350000e+00	3.223371e-03	

Index   v-sweep         -i(vds)         
--------------------------------------------------------------------------------
693	1.400000e+00	3.301565e-03	
694	1.450000e+00	3.377180e-03	
695	1.500000e+00	3.450248e-03	
696	1.550000e+00	3.520801e-03	
697	1.600000e+00	3.588871e-03	
698	1.650000e+00	3.654486e-03	
699	1.700000e+00	3.717675e-03	
700	1.750000e+00	3.778466e-03	
701	1.800000e+00	3.836882e-03	
702	1.850000e+00	3.892946e-03	
703	1.900000e+00	3.946676e-03	
704	1.950000e+00	3.998086e-03	
705	2.000000e+00	4.047181e-03	
706	2.050000e+00	4.093959e-03	
707	2.100000e+00	4.138403e-03	
708	2.150000e+00	4.180479e-03	
709	2.200000e+00	4.220126e-03	
710	2.250000e+00	4.257257e-03	
711	2.300000e+00	4.291753e-03	
712	2.350000e+00	4.323476e-03	
713	2.400000e+00	4.352301e-03	
714	2.450000e+00	4.378159e-03	
715	2.500000e+00	4.401089e-03	
716	2.550000e+00	4.421257e-03	
717	2.600000e+00	4.438929e-03	
718	2.650000e+00	4.454423e-03	
719	2.700000e+00	4.468064e-03	
720	2.750000e+00	4.480146e-03	
721	2.800000e+00	4.490926e-03	
722	2.850000e+00	4.500615e-03	
723	2.900000e+00	4.509388e-03	
724	2.950000e+00	4.517385e-03	
725	3.000000e+00	4.524720e-03	
726	3.050000e+00	4.531488e-03	
727	3.100000e+00	4.537765e-03	
728	3.150000e+00	4.543612e-03	
729	3.200000e+00	4.549084e-03	
730	3.250000e+00	4.554223e-03	
731	3.300000e+00	4.559067e-03	
732	3.350000e+00	4.563647e-03	
733	3.400000e+00	4.567989e-03	
734	3.450000e+00	4.572117e-03	
735	3.500000e+00	4.576051e-03	
736	3.550000e+00	4.579808e-03	
737	3.600000e+00	4.583404e-03	
738	3.650000e+00	4.586851e-03	
739	3.700000e+00	4.590161e-03	
740	3.750000e+00	4.593346e-03	
741	3.800000e+00	4.596413e-03	
742	3.850000e+00	4.599373e-03	
743	3.900000e+00	4.602231e-03	
744	3.950000e+00	4.604996e-03	
745	4.000000e+00	4.607673e-03	
746	4.050000e+00	4.610267e-03	
747	4.100000e+00	4.612784e-03	
748	4.150000e+00	4.615228e-03	
749	4.200000e+00	4.617604e-03	
750	4.250000e+00	4.619915e-03	

Index   v-sweep         -i(vds)         
--------------------------------------------------------------------------------
751	4.300000e+00	4.622165e-03	
752	4.350000e+00	4.624357e-03	
753	4.400000e+00	4.626495e-03	
754	4.450000e+00	4.628581e-03	
755	4.500000e+00	4.630618e-03	
756	4.550000e+00	4.632608e-03	
757	4.600000e+00	4.634555e-03	
758	4.650000e+00	4.636460e-03	
759	4.700000e+00	4.638326e-03	
760	4.750000e+00	4.640156e-03	
761	4.800000e+00	4.641951e-03	
762	4.850000e+00	4.643715e-03	
763	4.900000e+00	4.645449e-03	
764	4.950000e+00	4.647158e-03	
765	5.000000e+00	4.648845e-03	
766	5.050000e+00	4.650511e-03	
767	5.100000e+00	4.652162e-03	
768	5.150000e+00	4.653802e-03	
769	5.200000e+00	4.655435e-03	
770	5.250000e+00	4.657067e-03	
771	5.300000e+00	4.658703e-03	
772	5.350000e+00	4.660350e-03	
773	5.400000e+00	4.662015e-03	
774	5.450000e+00	4.663706e-03	
775	5.500000e+00	4.665432e-03	
776	5.550000e+00	4.667202e-03	
777	5.600000e+00	4.669029e-03	
778	5.650000e+00	4.670923e-03	
779	5.700000e+00	4.672897e-03	
780	5.750000e+00	4.674967e-03	
781	5.800000e+00	4.677146e-03	
782	5.850000e+00	4.679453e-03	
783	5.900000e+00	4.681906e-03	
784	5.950000e+00	4.684523e-03	
785	6.000000e+00	4.687326e-03	
786	6.050000e+00	4.690337e-03	
787	6.100000e+00	4.693581e-03	
788	6.150000e+00	4.697083e-03	
789	6.200000e+00	4.700870e-03	
790	6.250000e+00	4.704972e-03	
791	6.300000e+00	4.709418e-03	
792	6.350000e+00	4.714240e-03	
793	6.400000e+00	4.719473e-03	
794	6.450000e+00	4.725151e-03	
795	6.500000e+00	4.731313e-03	
796	6.550000e+00	4.737995e-03	
797	6.600000e+00	4.745239e-03	
Note: No ".plot", ".print", or ".fourier" lines; no simulations run
