
Note: Compatibility modes selected: hs

Warning: m=xx on .subckt line will override multiplier m hierarchy!


Circuit: ***************************

Doing analysis at TEMP = 125.000000 and TNOM = 125.000000


No. of Data Rows : 798
                          ***************************
                          DC transfer characteristic  Mon Jan  9 13:58:36  2023
--------------------------------------------------------------------------------
Index   v-sweep         -i(vds)         
--------------------------------------------------------------------------------
0	0.000000e+00	-1.19866e-23	
1	5.000000e-02	2.888201e-05	
2	1.000000e-01	5.214257e-05	
3	1.500000e-01	7.007734e-05	
4	2.000000e-01	8.299975e-05	
5	2.500000e-01	9.150259e-05	
6	3.000000e-01	9.678914e-05	
7	3.500000e-01	1.003647e-04	
8	4.000000e-01	1.031747e-04	
9	4.500000e-01	1.055944e-04	
10	5.000000e-01	1.077696e-04	
11	5.500000e-01	1.097702e-04	
12	6.000000e-01	1.116366e-04	
13	6.500000e-01	1.133958e-04	
14	7.000000e-01	1.150666e-04	
15	7.500000e-01	1.166634e-04	
16	8.000000e-01	1.181971e-04	
17	8.500000e-01	1.196765e-04	
18	9.000000e-01	1.211085e-04	
19	9.500000e-01	1.224990e-04	
20	1.000000e+00	1.238528e-04	
21	1.050000e+00	1.251738e-04	
22	1.100000e+00	1.264655e-04	
23	1.150000e+00	1.277307e-04	
24	1.200000e+00	1.289721e-04	
25	1.250000e+00	1.301918e-04	
26	1.300000e+00	1.313916e-04	
27	1.350000e+00	1.325734e-04	
28	1.400000e+00	1.337385e-04	
29	1.450000e+00	1.348883e-04	
30	1.500000e+00	1.360239e-04	
31	1.550000e+00	1.371464e-04	
32	1.600000e+00	1.382568e-04	
33	1.650000e+00	1.393558e-04	
34	1.700000e+00	1.404443e-04	
35	1.750000e+00	1.415229e-04	
36	1.800000e+00	1.425923e-04	
37	1.850000e+00	1.436531e-04	
38	1.900000e+00	1.447057e-04	
39	1.950000e+00	1.457507e-04	
40	2.000000e+00	1.467886e-04	
41	2.050000e+00	1.478196e-04	
42	2.100000e+00	1.488443e-04	
43	2.150000e+00	1.498629e-04	
44	2.200000e+00	1.508758e-04	
45	2.250000e+00	1.518833e-04	
46	2.300000e+00	1.528856e-04	
47	2.350000e+00	1.538831e-04	
48	2.400000e+00	1.548760e-04	
49	2.450000e+00	1.558645e-04	
50	2.500000e+00	1.568488e-04	
51	2.550000e+00	1.578292e-04	
52	2.600000e+00	1.588059e-04	
53	2.650000e+00	1.597790e-04	
54	2.700000e+00	1.607489e-04	

Index   v-sweep         -i(vds)         
--------------------------------------------------------------------------------
55	2.750000e+00	1.617156e-04	
56	2.800000e+00	1.626793e-04	
57	2.850000e+00	1.636404e-04	
58	2.900000e+00	1.645990e-04	
59	2.950000e+00	1.655552e-04	
60	3.000000e+00	1.665095e-04	
61	3.050000e+00	1.674619e-04	
62	3.100000e+00	1.684129e-04	
63	3.150000e+00	1.693626e-04	
64	3.200000e+00	1.703114e-04	
65	3.250000e+00	1.712596e-04	
66	3.300000e+00	1.722076e-04	
67	3.350000e+00	1.731559e-04	
68	3.400000e+00	1.741049e-04	
69	3.450000e+00	1.750550e-04	
70	3.500000e+00	1.760069e-04	
71	3.550000e+00	1.769610e-04	
72	3.600000e+00	1.779181e-04	
73	3.650000e+00	1.788789e-04	
74	3.700000e+00	1.798441e-04	
75	3.750000e+00	1.808145e-04	
76	3.800000e+00	1.817911e-04	
77	3.850000e+00	1.827747e-04	
78	3.900000e+00	1.837664e-04	
79	3.950000e+00	1.847674e-04	
80	4.000000e+00	1.857788e-04	
81	4.050000e+00	1.868020e-04	
82	4.100000e+00	1.878381e-04	
83	4.150000e+00	1.888888e-04	
84	4.200000e+00	1.899555e-04	
85	4.250000e+00	1.910398e-04	
86	4.300000e+00	1.921435e-04	
87	4.350000e+00	1.932684e-04	
88	4.400000e+00	1.944163e-04	
89	4.450000e+00	1.955894e-04	
90	4.500000e+00	1.967896e-04	
91	4.550000e+00	1.980193e-04	
92	4.600000e+00	1.992806e-04	
93	4.650000e+00	2.005761e-04	
94	4.700000e+00	2.019082e-04	
95	4.750000e+00	2.032796e-04	
96	4.800000e+00	2.046930e-04	
97	4.850000e+00	2.061511e-04	
98	4.900000e+00	2.076570e-04	
99	4.950000e+00	2.092136e-04	
100	5.000000e+00	2.108241e-04	
101	5.050000e+00	2.124917e-04	
102	5.100000e+00	2.142197e-04	
103	5.150000e+00	2.160117e-04	
104	5.200000e+00	2.178711e-04	
105	5.250000e+00	2.198016e-04	
106	5.300000e+00	2.218069e-04	
107	5.350000e+00	2.238909e-04	
108	5.400000e+00	2.260574e-04	
109	5.450000e+00	2.283105e-04	
110	5.500000e+00	2.306544e-04	
111	5.550000e+00	2.330932e-04	
112	5.600000e+00	2.356312e-04	

Index   v-sweep         -i(vds)         
--------------------------------------------------------------------------------
113	5.650000e+00	2.382729e-04	
114	5.700000e+00	2.410226e-04	
115	5.750000e+00	2.438850e-04	
116	5.800000e+00	2.468647e-04	
117	5.850000e+00	2.499664e-04	
118	5.900000e+00	2.531948e-04	
119	5.950000e+00	2.565550e-04	
120	6.000000e+00	2.600518e-04	
121	6.050000e+00	2.636902e-04	
122	6.100000e+00	2.674754e-04	
123	6.150000e+00	2.714125e-04	
124	6.200000e+00	2.755066e-04	
125	6.250000e+00	2.797632e-04	
126	6.300000e+00	2.841876e-04	
127	6.350000e+00	2.887851e-04	
128	6.400000e+00	2.935612e-04	
129	6.450000e+00	2.985215e-04	
130	6.500000e+00	3.036715e-04	
131	6.550000e+00	3.090168e-04	
132	6.600000e+00	3.145632e-04	
133	0.000000e+00	-7.88264e-24	
134	5.000000e-02	8.704840e-05	
135	1.000000e-01	1.680271e-04	
136	1.500000e-01	2.431727e-04	
137	2.000000e-01	3.126466e-04	
138	2.500000e-01	3.765886e-04	
139	3.000000e-01	4.351306e-04	
140	3.500000e-01	4.884019e-04	
141	4.000000e-01	5.365307e-04	
142	4.500000e-01	5.796465e-04	
143	5.000000e-01	6.178834e-04	
144	5.500000e-01	6.513866e-04	
145	6.000000e-01	6.803270e-04	
146	6.500000e-01	7.049281e-04	
147	7.000000e-01	7.255157e-04	
148	7.500000e-01	7.425723e-04	
149	8.000000e-01	7.567277e-04	
150	8.500000e-01	7.686402e-04	
151	9.000000e-01	7.788658e-04	
152	9.500000e-01	7.878171e-04	
153	1.000000e+00	7.957867e-04	
154	1.050000e+00	8.029824e-04	
155	1.100000e+00	8.095545e-04	
156	1.150000e+00	8.156144e-04	
157	1.200000e+00	8.212468e-04	
158	1.250000e+00	8.265172e-04	
159	1.300000e+00	8.314772e-04	
160	1.350000e+00	8.361685e-04	
161	1.400000e+00	8.406246e-04	
162	1.450000e+00	8.448735e-04	
163	1.500000e+00	8.489384e-04	
164	1.550000e+00	8.528389e-04	
165	1.600000e+00	8.565915e-04	
166	1.650000e+00	8.602106e-04	
167	1.700000e+00	8.637083e-04	
168	1.750000e+00	8.670955e-04	
169	1.800000e+00	8.703814e-04	
170	1.850000e+00	8.735742e-04	

Index   v-sweep         -i(vds)         
--------------------------------------------------------------------------------
171	1.900000e+00	8.766813e-04	
172	1.950000e+00	8.797091e-04	
173	2.000000e+00	8.826633e-04	
174	2.050000e+00	8.855492e-04	
175	2.100000e+00	8.883713e-04	
176	2.150000e+00	8.911338e-04	
177	2.200000e+00	8.938406e-04	
178	2.250000e+00	8.964951e-04	
179	2.300000e+00	8.991003e-04	
180	2.350000e+00	9.016593e-04	
181	2.400000e+00	9.041746e-04	
182	2.450000e+00	9.066486e-04	
183	2.500000e+00	9.090836e-04	
184	2.550000e+00	9.114816e-04	
185	2.600000e+00	9.138445e-04	
186	2.650000e+00	9.161740e-04	
187	2.700000e+00	9.184719e-04	
188	2.750000e+00	9.207396e-04	
189	2.800000e+00	9.229786e-04	
190	2.850000e+00	9.251902e-04	
191	2.900000e+00	9.273758e-04	
192	2.950000e+00	9.295364e-04	
193	3.000000e+00	9.316733e-04	
194	3.050000e+00	9.337877e-04	
195	3.100000e+00	9.358805e-04	
196	3.150000e+00	9.379530e-04	
197	3.200000e+00	9.400061e-04	
198	3.250000e+00	9.420410e-04	
199	3.300000e+00	9.440587e-04	
200	3.350000e+00	9.460605e-04	
201	3.400000e+00	9.480474e-04	
202	3.450000e+00	9.500207e-04	
203	3.500000e+00	9.519818e-04	
204	3.550000e+00	9.539321e-04	
205	3.600000e+00	9.558731e-04	
206	3.650000e+00	9.578064e-04	
207	3.700000e+00	9.597339e-04	
208	3.750000e+00	9.616574e-04	
209	3.800000e+00	9.635791e-04	
210	3.850000e+00	9.655013e-04	
211	3.900000e+00	9.674264e-04	
212	3.950000e+00	9.693572e-04	
213	4.000000e+00	9.712967e-04	
214	4.050000e+00	9.732480e-04	
215	4.100000e+00	9.752146e-04	
216	4.150000e+00	9.772003e-04	
217	4.200000e+00	9.792091e-04	
218	4.250000e+00	9.812453e-04	
219	4.300000e+00	9.833137e-04	
220	4.350000e+00	9.854191e-04	
221	4.400000e+00	9.875670e-04	
222	4.450000e+00	9.897630e-04	
223	4.500000e+00	9.920132e-04	
224	4.550000e+00	9.943240e-04	
225	4.600000e+00	9.967022e-04	
226	4.650000e+00	9.991550e-04	
227	4.700000e+00	1.001690e-03	
228	4.750000e+00	1.004315e-03	

Index   v-sweep         -i(vds)         
--------------------------------------------------------------------------------
229	4.800000e+00	1.007038e-03	
230	4.850000e+00	1.009869e-03	
231	4.900000e+00	1.012816e-03	
232	4.950000e+00	1.015888e-03	
233	5.000000e+00	1.019097e-03	
234	5.050000e+00	1.022452e-03	
235	5.100000e+00	1.025964e-03	
236	5.150000e+00	1.029643e-03	
237	5.200000e+00	1.033503e-03	
238	5.250000e+00	1.037554e-03	
239	5.300000e+00	1.041809e-03	
240	5.350000e+00	1.046280e-03	
241	5.400000e+00	1.050981e-03	
242	5.450000e+00	1.055926e-03	
243	5.500000e+00	1.061126e-03	
244	5.550000e+00	1.066598e-03	
245	5.600000e+00	1.072355e-03	
246	5.650000e+00	1.078413e-03	
247	5.700000e+00	1.084785e-03	
248	5.750000e+00	1.091488e-03	
249	5.800000e+00	1.098537e-03	
250	5.850000e+00	1.105949e-03	
251	5.900000e+00	1.113739e-03	
252	5.950000e+00	1.121925e-03	
253	6.000000e+00	1.130522e-03	
254	6.050000e+00	1.139548e-03	
255	6.100000e+00	1.149020e-03	
256	6.150000e+00	1.158956e-03	
257	6.200000e+00	1.169373e-03	
258	6.250000e+00	1.180288e-03	
259	6.300000e+00	1.191721e-03	
260	6.350000e+00	1.203689e-03	
261	6.400000e+00	1.216210e-03	
262	6.450000e+00	1.229303e-03	
263	6.500000e+00	1.242986e-03	
264	6.550000e+00	1.257279e-03	
265	6.600000e+00	1.272199e-03	
266	0.000000e+00	-7.44520e-20	
267	5.000000e-02	1.278898e-04	
268	1.000000e-01	2.498114e-04	
269	1.500000e-01	3.659798e-04	
270	2.000000e-01	4.765398e-04	
271	2.500000e-01	5.816153e-04	
272	3.000000e-01	6.813224e-04	
273	3.500000e-01	7.757735e-04	
274	4.000000e-01	8.650786e-04	
275	4.500000e-01	9.493450e-04	
276	5.000000e-01	1.028678e-03	
277	5.500000e-01	1.103181e-03	
278	6.000000e-01	1.172954e-03	
279	6.500000e-01	1.238098e-03	
280	7.000000e-01	1.298711e-03	
281	7.500000e-01	1.354888e-03	
282	8.000000e-01	1.406725e-03	
283	8.500000e-01	1.454315e-03	
284	9.000000e-01	1.497752e-03	
285	9.500000e-01	1.537129e-03	
286	1.000000e+00	1.572541e-03	

Index   v-sweep         -i(vds)         
--------------------------------------------------------------------------------
287	1.050000e+00	1.604093e-03	
288	1.100000e+00	1.631923e-03	
289	1.150000e+00	1.656241e-03	
290	1.200000e+00	1.677369e-03	
291	1.250000e+00	1.695732e-03	
292	1.300000e+00	1.711794e-03	
293	1.350000e+00	1.725978e-03	
294	1.400000e+00	1.738640e-03	
295	1.450000e+00	1.750063e-03	
296	1.500000e+00	1.760466e-03	
297	1.550000e+00	1.770020e-03	
298	1.600000e+00	1.778859e-03	
299	1.650000e+00	1.787088e-03	
300	1.700000e+00	1.794793e-03	
301	1.750000e+00	1.802043e-03	
302	1.800000e+00	1.808893e-03	
303	1.850000e+00	1.815391e-03	
304	1.900000e+00	1.821576e-03	
305	1.950000e+00	1.827480e-03	
306	2.000000e+00	1.833133e-03	
307	2.050000e+00	1.838557e-03	
308	2.100000e+00	1.843775e-03	
309	2.150000e+00	1.848803e-03	
310	2.200000e+00	1.853659e-03	
311	2.250000e+00	1.858356e-03	
312	2.300000e+00	1.862906e-03	
313	2.350000e+00	1.867320e-03	
314	2.400000e+00	1.871609e-03	
315	2.450000e+00	1.875781e-03	
316	2.500000e+00	1.879843e-03	
317	2.550000e+00	1.883804e-03	
318	2.600000e+00	1.887670e-03	
319	2.650000e+00	1.891445e-03	
320	2.700000e+00	1.895137e-03	
321	2.750000e+00	1.898749e-03	
322	2.800000e+00	1.902286e-03	
323	2.850000e+00	1.905753e-03	
324	2.900000e+00	1.909152e-03	
325	2.950000e+00	1.912488e-03	
326	3.000000e+00	1.915764e-03	
327	3.050000e+00	1.918983e-03	
328	3.100000e+00	1.922147e-03	
329	3.150000e+00	1.925260e-03	
330	3.200000e+00	1.928323e-03	
331	3.250000e+00	1.931339e-03	
332	3.300000e+00	1.934311e-03	
333	3.350000e+00	1.937239e-03	
334	3.400000e+00	1.940128e-03	
335	3.450000e+00	1.942977e-03	
336	3.500000e+00	1.945790e-03	
337	3.550000e+00	1.948568e-03	
338	3.600000e+00	1.951313e-03	
339	3.650000e+00	1.954027e-03	
340	3.700000e+00	1.956712e-03	
341	3.750000e+00	1.959371e-03	
342	3.800000e+00	1.962005e-03	
343	3.850000e+00	1.964617e-03	
344	3.900000e+00	1.967209e-03	

Index   v-sweep         -i(vds)         
--------------------------------------------------------------------------------
345	3.950000e+00	1.969785e-03	
346	4.000000e+00	1.972347e-03	
347	4.050000e+00	1.974898e-03	
348	4.100000e+00	1.977442e-03	
349	4.150000e+00	1.979983e-03	
350	4.200000e+00	1.982525e-03	
351	4.250000e+00	1.985073e-03	
352	4.300000e+00	1.987632e-03	
353	4.350000e+00	1.990206e-03	
354	4.400000e+00	1.992803e-03	
355	4.450000e+00	1.995428e-03	
356	4.500000e+00	1.998089e-03	
357	4.550000e+00	2.000793e-03	
358	4.600000e+00	2.003548e-03	
359	4.650000e+00	2.006363e-03	
360	4.700000e+00	2.009248e-03	
361	4.750000e+00	2.012212e-03	
362	4.800000e+00	2.015267e-03	
363	4.850000e+00	2.018423e-03	
364	4.900000e+00	2.021692e-03	
365	4.950000e+00	2.025088e-03	
366	5.000000e+00	2.028625e-03	
367	5.050000e+00	2.032316e-03	
368	5.100000e+00	2.036176e-03	
369	5.150000e+00	2.040222e-03	
370	5.200000e+00	2.044470e-03	
371	5.250000e+00	2.048937e-03	
372	5.300000e+00	2.053642e-03	
373	5.350000e+00	2.058602e-03	
374	5.400000e+00	2.063839e-03	
375	5.450000e+00	2.069372e-03	
376	5.500000e+00	2.075223e-03	
377	5.550000e+00	2.081413e-03	
378	5.600000e+00	2.087964e-03	
379	5.650000e+00	2.094901e-03	
380	5.700000e+00	2.102246e-03	
381	5.750000e+00	2.110025e-03	
382	5.800000e+00	2.118263e-03	
383	5.850000e+00	2.126986e-03	
384	5.900000e+00	2.136219e-03	
385	5.950000e+00	2.145992e-03	
386	6.000000e+00	2.156330e-03	
387	6.050000e+00	2.167262e-03	
388	6.100000e+00	2.178818e-03	
389	6.150000e+00	2.191026e-03	
390	6.200000e+00	2.203915e-03	
391	6.250000e+00	2.217517e-03	
392	6.300000e+00	2.231862e-03	
393	6.350000e+00	2.246980e-03	
394	6.400000e+00	2.262903e-03	
395	6.450000e+00	2.279662e-03	
396	6.500000e+00	2.297291e-03	
397	6.550000e+00	2.315820e-03	
398	6.600000e+00	2.335282e-03	
399	0.000000e+00	-3.79438e-19	
400	5.000000e-02	1.562780e-04	
401	1.000000e-01	3.069358e-04	
402	1.500000e-01	4.521633e-04	

Index   v-sweep         -i(vds)         
--------------------------------------------------------------------------------
403	2.000000e-01	5.920844e-04	
404	2.500000e-01	7.268028e-04	
405	3.000000e-01	8.564155e-04	
406	3.500000e-01	9.810164e-04	
407	4.000000e-01	1.100697e-03	
408	4.500000e-01	1.215548e-03	
409	5.000000e-01	1.325657e-03	
410	5.500000e-01	1.431111e-03	
411	6.000000e-01	1.531995e-03	
412	6.500000e-01	1.628392e-03	
413	7.000000e-01	1.720385e-03	
414	7.500000e-01	1.808052e-03	
415	8.000000e-01	1.891474e-03	
416	8.500000e-01	1.970728e-03	
417	9.000000e-01	2.045889e-03	
418	9.500000e-01	2.117031e-03	
419	1.000000e+00	2.184228e-03	
420	1.050000e+00	2.247550e-03	
421	1.100000e+00	2.307065e-03	
422	1.150000e+00	2.362837e-03	
423	1.200000e+00	2.414928e-03	
424	1.250000e+00	2.463388e-03	
425	1.300000e+00	2.508261e-03	
426	1.350000e+00	2.549572e-03	
427	1.400000e+00	2.587333e-03	
428	1.450000e+00	2.621551e-03	
429	1.500000e+00	2.652268e-03	
430	1.550000e+00	2.679617e-03	
431	1.600000e+00	2.703853e-03	
432	1.650000e+00	2.725335e-03	
433	1.700000e+00	2.744456e-03	
434	1.750000e+00	2.761593e-03	
435	1.800000e+00	2.777073e-03	
436	1.850000e+00	2.791164e-03	
437	1.900000e+00	2.804087e-03	
438	1.950000e+00	2.816019e-03	
439	2.000000e+00	2.827101e-03	
440	2.050000e+00	2.837451e-03	
441	2.100000e+00	2.847162e-03	
442	2.150000e+00	2.856313e-03	
443	2.200000e+00	2.864970e-03	
444	2.250000e+00	2.873186e-03	
445	2.300000e+00	2.881008e-03	
446	2.350000e+00	2.888477e-03	
447	2.400000e+00	2.895625e-03	
448	2.450000e+00	2.902482e-03	
449	2.500000e+00	2.909074e-03	
450	2.550000e+00	2.915423e-03	
451	2.600000e+00	2.921549e-03	
452	2.650000e+00	2.927469e-03	
453	2.700000e+00	2.933198e-03	
454	2.750000e+00	2.938752e-03	
455	2.800000e+00	2.944141e-03	
456	2.850000e+00	2.949377e-03	
457	2.900000e+00	2.954471e-03	
458	2.950000e+00	2.959430e-03	
459	3.000000e+00	2.964264e-03	
460	3.050000e+00	2.968980e-03	

Index   v-sweep         -i(vds)         
--------------------------------------------------------------------------------
461	3.100000e+00	2.973585e-03	
462	3.150000e+00	2.978085e-03	
463	3.200000e+00	2.982485e-03	
464	3.250000e+00	2.986792e-03	
465	3.300000e+00	2.991011e-03	
466	3.350000e+00	2.995145e-03	
467	3.400000e+00	2.999198e-03	
468	3.450000e+00	3.003176e-03	
469	3.500000e+00	3.007081e-03	
470	3.550000e+00	3.010918e-03	
471	3.600000e+00	3.014688e-03	
472	3.650000e+00	3.018396e-03	
473	3.700000e+00	3.022044e-03	
474	3.750000e+00	3.025635e-03	
475	3.800000e+00	3.029172e-03	
476	3.850000e+00	3.032658e-03	
477	3.900000e+00	3.036095e-03	
478	3.950000e+00	3.039487e-03	
479	4.000000e+00	3.042835e-03	
480	4.050000e+00	3.046143e-03	
481	4.100000e+00	3.049415e-03	
482	4.150000e+00	3.052652e-03	
483	4.200000e+00	3.055859e-03	
484	4.250000e+00	3.059039e-03	
485	4.300000e+00	3.062196e-03	
486	4.350000e+00	3.065335e-03	
487	4.400000e+00	3.068460e-03	
488	4.450000e+00	3.071577e-03	
489	4.500000e+00	3.074691e-03	
490	4.550000e+00	3.077808e-03	
491	4.600000e+00	3.080936e-03	
492	4.650000e+00	3.084081e-03	
493	4.700000e+00	3.087253e-03	
494	4.750000e+00	3.090459e-03	
495	4.800000e+00	3.093709e-03	
496	4.850000e+00	3.097014e-03	
497	4.900000e+00	3.100385e-03	
498	4.950000e+00	3.103834e-03	
499	5.000000e+00	3.107375e-03	
500	5.050000e+00	3.111021e-03	
501	5.100000e+00	3.114788e-03	
502	5.150000e+00	3.118691e-03	
503	5.200000e+00	3.122748e-03	
504	5.250000e+00	3.126976e-03	
505	5.300000e+00	3.131396e-03	
506	5.350000e+00	3.136027e-03	
507	5.400000e+00	3.140892e-03	
508	5.450000e+00	3.146012e-03	
509	5.500000e+00	3.151412e-03	
510	5.550000e+00	3.157115e-03	
511	5.600000e+00	3.163150e-03	
512	5.650000e+00	3.169542e-03	
513	5.700000e+00	3.176320e-03	
514	5.750000e+00	3.183513e-03	
515	5.800000e+00	3.191152e-03	
516	5.850000e+00	3.199268e-03	
517	5.900000e+00	3.207894e-03	
518	5.950000e+00	3.217065e-03	

Index   v-sweep         -i(vds)         
--------------------------------------------------------------------------------
519	6.000000e+00	3.226814e-03	
520	6.050000e+00	3.237177e-03	
521	6.100000e+00	3.248191e-03	
522	6.150000e+00	3.259894e-03	
523	6.200000e+00	3.272325e-03	
524	6.250000e+00	3.285521e-03	
525	6.300000e+00	3.299525e-03	
526	6.350000e+00	3.314377e-03	
527	6.400000e+00	3.330118e-03	
528	6.450000e+00	3.346792e-03	
529	6.500000e+00	3.364441e-03	
530	6.550000e+00	3.383109e-03	
531	6.600000e+00	3.402840e-03	
532	0.000000e+00	-5.23408e-19	
533	5.000000e-02	1.750642e-04	
534	1.000000e-01	3.449808e-04	
535	1.500000e-01	5.099173e-04	
536	2.000000e-01	6.699773e-04	
537	2.500000e-01	8.252452e-04	
538	3.000000e-01	9.757994e-04	
539	3.500000e-01	1.121716e-03	
540	4.000000e-01	1.263068e-03	
541	4.500000e-01	1.399930e-03	
542	5.000000e-01	1.532372e-03	
543	5.500000e-01	1.660466e-03	
544	6.000000e-01	1.784280e-03	
545	6.500000e-01	1.903884e-03	
546	7.000000e-01	2.019344e-03	
547	7.500000e-01	2.130726e-03	
548	8.000000e-01	2.238095e-03	
549	8.500000e-01	2.341515e-03	
550	9.000000e-01	2.441049e-03	
551	9.500000e-01	2.536758e-03	
552	1.000000e+00	2.628703e-03	
553	1.050000e+00	2.716944e-03	
554	1.100000e+00	2.801540e-03	
555	1.150000e+00	2.882548e-03	
556	1.200000e+00	2.960025e-03	
557	1.250000e+00	3.034026e-03	
558	1.300000e+00	3.104605e-03	
559	1.350000e+00	3.171814e-03	
560	1.400000e+00	3.235703e-03	
561	1.450000e+00	3.296318e-03	
562	1.500000e+00	3.353699e-03	
563	1.550000e+00	3.407883e-03	
564	1.600000e+00	3.458893e-03	
565	1.650000e+00	3.506736e-03	
566	1.700000e+00	3.551400e-03	
567	1.750000e+00	3.592850e-03	
568	1.800000e+00	3.631036e-03	
569	1.850000e+00	3.665923e-03	
570	1.900000e+00	3.697544e-03	
571	1.950000e+00	3.726037e-03	
572	2.000000e+00	3.751650e-03	
573	2.050000e+00	3.774702e-03	
574	2.100000e+00	3.795530e-03	
575	2.150000e+00	3.814449e-03	
576	2.200000e+00	3.831740e-03	

Index   v-sweep         -i(vds)         
--------------------------------------------------------------------------------
577	2.250000e+00	3.847638e-03	
578	2.300000e+00	3.862341e-03	
579	2.350000e+00	3.876011e-03	
580	2.400000e+00	3.888782e-03	
581	2.450000e+00	3.900768e-03	
582	2.500000e+00	3.912060e-03	
583	2.550000e+00	3.922739e-03	
584	2.600000e+00	3.932869e-03	
585	2.650000e+00	3.942507e-03	
586	2.700000e+00	3.951702e-03	
587	2.750000e+00	3.960496e-03	
588	2.800000e+00	3.968925e-03	
589	2.850000e+00	3.977021e-03	
590	2.900000e+00	3.984811e-03	
591	2.950000e+00	3.992320e-03	
592	3.000000e+00	3.999569e-03	
593	3.050000e+00	4.006578e-03	
594	3.100000e+00	4.013365e-03	
595	3.150000e+00	4.019944e-03	
596	3.200000e+00	4.026330e-03	
597	3.250000e+00	4.032535e-03	
598	3.300000e+00	4.038570e-03	
599	3.350000e+00	4.044447e-03	
600	3.400000e+00	4.050174e-03	
601	3.450000e+00	4.055760e-03	
602	3.500000e+00	4.061213e-03	
603	3.550000e+00	4.066541e-03	
604	3.600000e+00	4.071749e-03	
605	3.650000e+00	4.076845e-03	
606	3.700000e+00	4.081834e-03	
607	3.750000e+00	4.086721e-03	
608	3.800000e+00	4.091512e-03	
609	3.850000e+00	4.096210e-03	
610	3.900000e+00	4.100820e-03	
611	3.950000e+00	4.105347e-03	
612	4.000000e+00	4.109795e-03	
613	4.050000e+00	4.114166e-03	
614	4.100000e+00	4.118465e-03	
615	4.150000e+00	4.122696e-03	
616	4.200000e+00	4.126861e-03	
617	4.250000e+00	4.130964e-03	
618	4.300000e+00	4.135009e-03	
619	4.350000e+00	4.138999e-03	
620	4.400000e+00	4.142938e-03	
621	4.450000e+00	4.146830e-03	
622	4.500000e+00	4.150679e-03	
623	4.550000e+00	4.154489e-03	
624	4.600000e+00	4.158266e-03	
625	4.650000e+00	4.162014e-03	
626	4.700000e+00	4.165740e-03	
627	4.750000e+00	4.169448e-03	
628	4.800000e+00	4.173147e-03	
629	4.850000e+00	4.176843e-03	
630	4.900000e+00	4.180545e-03	
631	4.950000e+00	4.184262e-03	
632	5.000000e+00	4.188003e-03	
633	5.050000e+00	4.191779e-03	
634	5.100000e+00	4.195602e-03	

Index   v-sweep         -i(vds)         
--------------------------------------------------------------------------------
635	5.150000e+00	4.199485e-03	
636	5.200000e+00	4.203441e-03	
637	5.250000e+00	4.207485e-03	
638	5.300000e+00	4.211633e-03	
639	5.350000e+00	4.215904e-03	
640	5.400000e+00	4.220314e-03	
641	5.450000e+00	4.224885e-03	
642	5.500000e+00	4.229638e-03	
643	5.550000e+00	4.234595e-03	
644	5.600000e+00	4.239781e-03	
645	5.650000e+00	4.245221e-03	
646	5.700000e+00	4.250942e-03	
647	5.750000e+00	4.256973e-03	
648	5.800000e+00	4.263344e-03	
649	5.850000e+00	4.270086e-03	
650	5.900000e+00	4.277233e-03	
651	5.950000e+00	4.284820e-03	
652	6.000000e+00	4.292881e-03	
653	6.050000e+00	4.301455e-03	
654	6.100000e+00	4.310581e-03	
655	6.150000e+00	4.320300e-03	
656	6.200000e+00	4.330652e-03	
657	6.250000e+00	4.341682e-03	
658	6.300000e+00	4.353434e-03	
659	6.350000e+00	4.365955e-03	
660	6.400000e+00	4.379291e-03	
661	6.450000e+00	4.393491e-03	
662	6.500000e+00	4.408604e-03	
663	6.550000e+00	4.424682e-03	
664	6.600000e+00	4.441776e-03	
665	0.000000e+00	-1.62265e-18	
666	5.000000e-02	1.866502e-04	
667	1.000000e-01	3.686637e-04	
668	1.500000e-01	5.461894e-04	
669	2.000000e-01	7.193139e-04	
670	2.500000e-01	8.881053e-04	
671	3.000000e-01	1.052626e-03	
672	3.500000e-01	1.212936e-03	
673	4.000000e-01	1.369094e-03	
674	4.500000e-01	1.521158e-03	
675	5.000000e-01	1.669186e-03	
676	5.500000e-01	1.813234e-03	
677	6.000000e-01	1.953357e-03	
678	6.500000e-01	2.089610e-03	
679	7.000000e-01	2.222048e-03	
680	7.500000e-01	2.350724e-03	
681	8.000000e-01	2.475690e-03	
682	8.500000e-01	2.596998e-03	
683	9.000000e-01	2.714699e-03	
684	9.500000e-01	2.828843e-03	
685	1.000000e+00	2.939480e-03	
686	1.050000e+00	3.046658e-03	
687	1.100000e+00	3.150426e-03	
688	1.150000e+00	3.250831e-03	
689	1.200000e+00	3.347919e-03	
690	1.250000e+00	3.441738e-03	
691	1.300000e+00	3.532332e-03	
692	1.350000e+00	3.619746e-03	

Index   v-sweep         -i(vds)         
--------------------------------------------------------------------------------
693	1.400000e+00	3.704024e-03	
694	1.450000e+00	3.785209e-03	
695	1.500000e+00	3.863345e-03	
696	1.550000e+00	3.938472e-03	
697	1.600000e+00	4.010631e-03	
698	1.650000e+00	4.079862e-03	
699	1.700000e+00	4.146200e-03	
700	1.750000e+00	4.209682e-03	
701	1.800000e+00	4.270338e-03	
702	1.850000e+00	4.328195e-03	
703	1.900000e+00	4.383271e-03	
704	1.950000e+00	4.435575e-03	
705	2.000000e+00	4.485099e-03	
706	2.050000e+00	4.531816e-03	
707	2.100000e+00	4.575675e-03	
708	2.150000e+00	4.616608e-03	
709	2.200000e+00	4.654547e-03	
710	2.250000e+00	4.689462e-03	
711	2.300000e+00	4.721400e-03	
712	2.350000e+00	4.750504e-03	
713	2.400000e+00	4.776997e-03	
714	2.450000e+00	4.801151e-03	
715	2.500000e+00	4.823245e-03	
716	2.550000e+00	4.843540e-03	
717	2.600000e+00	4.862273e-03	
718	2.650000e+00	4.879646e-03	
719	2.700000e+00	4.895832e-03	
720	2.750000e+00	4.910977e-03	
721	2.800000e+00	4.925206e-03	
722	2.850000e+00	4.938623e-03	
723	2.900000e+00	4.951316e-03	
724	2.950000e+00	4.963362e-03	
725	3.000000e+00	4.974825e-03	
726	3.050000e+00	4.985761e-03	
727	3.100000e+00	4.996219e-03	
728	3.150000e+00	5.006242e-03	
729	3.200000e+00	5.015865e-03	
730	3.250000e+00	5.025123e-03	
731	3.300000e+00	5.034044e-03	
732	3.350000e+00	5.042653e-03	
733	3.400000e+00	5.050974e-03	
734	3.450000e+00	5.059026e-03	
735	3.500000e+00	5.066829e-03	
736	3.550000e+00	5.074399e-03	
737	3.600000e+00	5.081750e-03	
738	3.650000e+00	5.088897e-03	
739	3.700000e+00	5.095852e-03	
740	3.750000e+00	5.102627e-03	
741	3.800000e+00	5.109231e-03	
742	3.850000e+00	5.115674e-03	
743	3.900000e+00	5.121965e-03	
744	3.950000e+00	5.128112e-03	
745	4.000000e+00	5.134122e-03	
746	4.050000e+00	5.140002e-03	
747	4.100000e+00	5.145759e-03	
748	4.150000e+00	5.151399e-03	
749	4.200000e+00	5.156927e-03	
750	4.250000e+00	5.162348e-03	

Index   v-sweep         -i(vds)         
--------------------------------------------------------------------------------
751	4.300000e+00	5.167668e-03	
752	4.350000e+00	5.172891e-03	
753	4.400000e+00	5.178022e-03	
754	4.450000e+00	5.183064e-03	
755	4.500000e+00	5.188023e-03	
756	4.550000e+00	5.192902e-03	
757	4.600000e+00	5.197706e-03	
758	4.650000e+00	5.202438e-03	
759	4.700000e+00	5.207104e-03	
760	4.750000e+00	5.211707e-03	
761	4.800000e+00	5.216252e-03	
762	4.850000e+00	5.220744e-03	
763	4.900000e+00	5.225188e-03	
764	4.950000e+00	5.229591e-03	
765	5.000000e+00	5.233958e-03	
766	5.050000e+00	5.238296e-03	
767	5.100000e+00	5.242613e-03	
768	5.150000e+00	5.246916e-03	
769	5.200000e+00	5.251214e-03	
770	5.250000e+00	5.255519e-03	
771	5.300000e+00	5.259839e-03	
772	5.350000e+00	5.264187e-03	
773	5.400000e+00	5.268577e-03	
774	5.450000e+00	5.273021e-03	
775	5.500000e+00	5.277536e-03	
776	5.550000e+00	5.282138e-03	
777	5.600000e+00	5.286845e-03	
778	5.650000e+00	5.291677e-03	
779	5.700000e+00	5.296655e-03	
780	5.750000e+00	5.301802e-03	
781	5.800000e+00	5.307141e-03	
782	5.850000e+00	5.312700e-03	
783	5.900000e+00	5.318506e-03	
784	5.950000e+00	5.324588e-03	
785	6.000000e+00	5.330977e-03	
786	6.050000e+00	5.337707e-03	
787	6.100000e+00	5.344813e-03	
788	6.150000e+00	5.352332e-03	
789	6.200000e+00	5.360301e-03	
790	6.250000e+00	5.368762e-03	
791	6.300000e+00	5.377758e-03	
792	6.350000e+00	5.387331e-03	
793	6.400000e+00	5.397529e-03	
794	6.450000e+00	5.408400e-03	
795	6.500000e+00	5.419992e-03	
796	6.550000e+00	5.432358e-03	
797	6.600000e+00	5.445550e-03	
Note: No ".plot", ".print", or ".fourier" lines; no simulations run
