
Note: Compatibility modes selected: hs

Warning: m=xx on .subckt line will override multiplier m hierarchy!


Circuit: ***************************

Doing analysis at TEMP = -40.000000 and TNOM = -40.000000


No. of Data Rows : 798
                          ***************************
                          DC transfer characteristic  Mon Jan  9 13:58:36  2023
--------------------------------------------------------------------------------
Index   v-sweep         -i(vds)         
--------------------------------------------------------------------------------
0	0.000000e+00	-1.08582e-22	
1	5.000000e-02	3.154000e-07	
2	1.000000e-01	5.398010e-07	
3	1.500000e-01	6.773855e-07	
4	2.000000e-01	7.424535e-07	
5	2.500000e-01	7.656152e-07	
6	3.000000e-01	7.738637e-07	
7	3.500000e-01	7.776903e-07	
8	4.000000e-01	7.799989e-07	
9	4.500000e-01	7.816653e-07	
10	5.000000e-01	7.830094e-07	
11	5.500000e-01	7.841698e-07	
12	6.000000e-01	7.852153e-07	
13	6.500000e-01	7.861833e-07	
14	7.000000e-01	7.870962e-07	
15	7.500000e-01	7.879682e-07	
16	8.000000e-01	7.888087e-07	
17	8.500000e-01	7.896242e-07	
18	9.000000e-01	7.904195e-07	
19	9.500000e-01	7.911981e-07	
20	1.000000e+00	7.919627e-07	
21	1.050000e+00	7.927153e-07	
22	1.100000e+00	7.934576e-07	
23	1.150000e+00	7.941910e-07	
24	1.200000e+00	7.949165e-07	
25	1.250000e+00	7.956351e-07	
26	1.300000e+00	7.963474e-07	
27	1.350000e+00	7.970541e-07	
28	1.400000e+00	7.977558e-07	
29	1.450000e+00	7.984529e-07	
30	1.500000e+00	7.991458e-07	
31	1.550000e+00	7.998350e-07	
32	1.600000e+00	8.005206e-07	
33	1.650000e+00	8.012030e-07	
34	1.700000e+00	8.018824e-07	
35	1.750000e+00	8.025590e-07	
36	1.800000e+00	8.032331e-07	
37	1.850000e+00	8.039047e-07	
38	1.900000e+00	8.045741e-07	
39	1.950000e+00	8.052414e-07	
40	2.000000e+00	8.059067e-07	
41	2.050000e+00	8.065702e-07	
42	2.100000e+00	8.072319e-07	
43	2.150000e+00	8.078920e-07	
44	2.200000e+00	8.085506e-07	
45	2.250000e+00	8.092078e-07	
46	2.300000e+00	8.098637e-07	
47	2.350000e+00	8.105184e-07	
48	2.400000e+00	8.111720e-07	
49	2.450000e+00	8.118247e-07	
50	2.500000e+00	8.124767e-07	
51	2.550000e+00	8.131280e-07	
52	2.600000e+00	8.137790e-07	
53	2.650000e+00	8.144299e-07	
54	2.700000e+00	8.150810e-07	

Index   v-sweep         -i(vds)         
--------------------------------------------------------------------------------
55	2.750000e+00	8.157326e-07	
56	2.800000e+00	8.163851e-07	
57	2.850000e+00	8.170391e-07	
58	2.900000e+00	8.176950e-07	
59	2.950000e+00	8.183536e-07	
60	3.000000e+00	8.190156e-07	
61	3.050000e+00	8.196819e-07	
62	3.100000e+00	8.203534e-07	
63	3.150000e+00	8.210313e-07	
64	3.200000e+00	8.217169e-07	
65	3.250000e+00	8.224116e-07	
66	3.300000e+00	8.231171e-07	
67	3.350000e+00	8.238351e-07	
68	3.400000e+00	8.245676e-07	
69	3.450000e+00	8.253169e-07	
70	3.500000e+00	8.260853e-07	
71	3.550000e+00	8.268756e-07	
72	3.600000e+00	8.276907e-07	
73	3.650000e+00	8.285337e-07	
74	3.700000e+00	8.294080e-07	
75	3.750000e+00	8.303173e-07	
76	3.800000e+00	8.312656e-07	
77	3.850000e+00	8.322572e-07	
78	3.900000e+00	8.332967e-07	
79	3.950000e+00	8.343888e-07	
80	4.000000e+00	8.355388e-07	
81	4.050000e+00	8.367522e-07	
82	4.100000e+00	8.380348e-07	
83	4.150000e+00	8.393927e-07	
84	4.200000e+00	8.408323e-07	
85	4.250000e+00	8.423605e-07	
86	4.300000e+00	8.439844e-07	
87	4.350000e+00	8.457113e-07	
88	4.400000e+00	8.475492e-07	
89	4.450000e+00	8.495060e-07	
90	4.500000e+00	8.515902e-07	
91	4.550000e+00	8.538106e-07	
92	4.600000e+00	8.561763e-07	
93	4.650000e+00	8.586966e-07	
94	4.700000e+00	8.613812e-07	
95	4.750000e+00	8.642403e-07	
96	4.800000e+00	8.672840e-07	
97	4.850000e+00	8.705231e-07	
98	4.900000e+00	8.739684e-07	
99	4.950000e+00	8.776312e-07	
100	5.000000e+00	8.815231e-07	
101	5.050000e+00	8.856557e-07	
102	5.100000e+00	8.900410e-07	
103	5.150000e+00	8.946915e-07	
104	5.200000e+00	8.996197e-07	
105	5.250000e+00	9.048383e-07	
106	5.300000e+00	9.103604e-07	
107	5.350000e+00	9.161993e-07	
108	5.400000e+00	9.223685e-07	
109	5.450000e+00	9.288815e-07	
110	5.500000e+00	9.357524e-07	
111	5.550000e+00	9.429953e-07	
112	5.600000e+00	9.506243e-07	

Index   v-sweep         -i(vds)         
--------------------------------------------------------------------------------
113	5.650000e+00	9.586539e-07	
114	5.700000e+00	9.670988e-07	
115	5.750000e+00	9.759736e-07	
116	5.800000e+00	9.852934e-07	
117	5.850000e+00	9.950731e-07	
118	5.900000e+00	1.005328e-06	
119	5.950000e+00	1.016073e-06	
120	6.000000e+00	1.027324e-06	
121	6.050000e+00	1.039096e-06	
122	6.100000e+00	1.051406e-06	
123	6.150000e+00	1.064267e-06	
124	6.200000e+00	1.077697e-06	
125	6.250000e+00	1.091712e-06	
126	6.300000e+00	1.106326e-06	
127	6.350000e+00	1.121556e-06	
128	6.400000e+00	1.137418e-06	
129	6.450000e+00	1.153928e-06	
130	6.500000e+00	1.171102e-06	
131	6.550000e+00	1.188956e-06	
132	6.600000e+00	1.207506e-06	
133	0.000000e+00	-1.32601e-21	
134	5.000000e-02	1.744835e-06	
135	1.000000e-01	3.390923e-06	
136	1.500000e-01	4.938714e-06	
137	2.000000e-01	6.388659e-06	
138	2.500000e-01	7.741206e-06	
139	3.000000e-01	8.996807e-06	
140	3.500000e-01	1.015592e-05	
141	4.000000e-01	1.121899e-05	
142	4.500000e-01	1.218651e-05	
143	5.000000e-01	1.305897e-05	
144	5.500000e-01	1.383690e-05	
145	6.000000e-01	1.452092e-05	
146	6.500000e-01	1.511179e-05	
147	7.000000e-01	1.561060e-05	
148	7.500000e-01	1.601909e-05	
149	8.000000e-01	1.634039e-05	
150	8.500000e-01	1.658035e-05	
151	9.000000e-01	1.674929e-05	
152	9.500000e-01	1.686230e-05	
153	1.000000e+00	1.693634e-05	
154	1.050000e+00	1.698575e-05	
155	1.100000e+00	1.702025e-05	
156	1.150000e+00	1.704568e-05	
157	1.200000e+00	1.706542e-05	
158	1.250000e+00	1.708140e-05	
159	1.300000e+00	1.709483e-05	
160	1.350000e+00	1.710642e-05	
161	1.400000e+00	1.711665e-05	
162	1.450000e+00	1.712586e-05	
163	1.500000e+00	1.713426e-05	
164	1.550000e+00	1.714203e-05	
165	1.600000e+00	1.714927e-05	
166	1.650000e+00	1.715607e-05	
167	1.700000e+00	1.716252e-05	
168	1.750000e+00	1.716866e-05	
169	1.800000e+00	1.717453e-05	
170	1.850000e+00	1.718018e-05	

Index   v-sweep         -i(vds)         
--------------------------------------------------------------------------------
171	1.900000e+00	1.718562e-05	
172	1.950000e+00	1.719089e-05	
173	2.000000e+00	1.719600e-05	
174	2.050000e+00	1.720097e-05	
175	2.100000e+00	1.720582e-05	
176	2.150000e+00	1.721055e-05	
177	2.200000e+00	1.721519e-05	
178	2.250000e+00	1.721972e-05	
179	2.300000e+00	1.722417e-05	
180	2.350000e+00	1.722855e-05	
181	2.400000e+00	1.723285e-05	
182	2.450000e+00	1.723708e-05	
183	2.500000e+00	1.724125e-05	
184	2.550000e+00	1.724537e-05	
185	2.600000e+00	1.724943e-05	
186	2.650000e+00	1.725344e-05	
187	2.700000e+00	1.725741e-05	
188	2.750000e+00	1.726133e-05	
189	2.800000e+00	1.726521e-05	
190	2.850000e+00	1.726905e-05	
191	2.900000e+00	1.727285e-05	
192	2.950000e+00	1.727663e-05	
193	3.000000e+00	1.728037e-05	
194	3.050000e+00	1.728409e-05	
195	3.100000e+00	1.728778e-05	
196	3.150000e+00	1.729144e-05	
197	3.200000e+00	1.729509e-05	
198	3.250000e+00	1.729873e-05	
199	3.300000e+00	1.730235e-05	
200	3.350000e+00	1.730597e-05	
201	3.400000e+00	1.730959e-05	
202	3.450000e+00	1.731321e-05	
203	3.500000e+00	1.731686e-05	
204	3.550000e+00	1.732053e-05	
205	3.600000e+00	1.732424e-05	
206	3.650000e+00	1.732800e-05	
207	3.700000e+00	1.733182e-05	
208	3.750000e+00	1.733573e-05	
209	3.800000e+00	1.733975e-05	
210	3.850000e+00	1.734389e-05	
211	3.900000e+00	1.734819e-05	
212	3.950000e+00	1.735267e-05	
213	4.000000e+00	1.735737e-05	
214	4.050000e+00	1.736232e-05	
215	4.100000e+00	1.736756e-05	
216	4.150000e+00	1.737314e-05	
217	4.200000e+00	1.737911e-05	
218	4.250000e+00	1.738552e-05	
219	4.300000e+00	1.739244e-05	
220	4.350000e+00	1.739991e-05	
221	4.400000e+00	1.740802e-05	
222	4.450000e+00	1.741685e-05	
223	4.500000e+00	1.742646e-05	
224	4.550000e+00	1.743695e-05	
225	4.600000e+00	1.744840e-05	
226	4.650000e+00	1.746093e-05	
227	4.700000e+00	1.747463e-05	
228	4.750000e+00	1.748961e-05	

Index   v-sweep         -i(vds)         
--------------------------------------------------------------------------------
229	4.800000e+00	1.750599e-05	
230	4.850000e+00	1.752390e-05	
231	4.900000e+00	1.754346e-05	
232	4.950000e+00	1.756482e-05	
233	5.000000e+00	1.758811e-05	
234	5.050000e+00	1.761348e-05	
235	5.100000e+00	1.764110e-05	
236	5.150000e+00	1.767113e-05	
237	5.200000e+00	1.770372e-05	
238	5.250000e+00	1.773907e-05	
239	5.300000e+00	1.777735e-05	
240	5.350000e+00	1.781875e-05	
241	5.400000e+00	1.786346e-05	
242	5.450000e+00	1.791169e-05	
243	5.500000e+00	1.796364e-05	
244	5.550000e+00	1.801952e-05	
245	5.600000e+00	1.807955e-05	
246	5.650000e+00	1.814396e-05	
247	5.700000e+00	1.821297e-05	
248	5.750000e+00	1.828682e-05	
249	5.800000e+00	1.836573e-05	
250	5.850000e+00	1.844997e-05	
251	5.900000e+00	1.853978e-05	
252	5.950000e+00	1.863540e-05	
253	6.000000e+00	1.873710e-05	
254	6.050000e+00	1.884513e-05	
255	6.100000e+00	1.895977e-05	
256	6.150000e+00	1.908127e-05	
257	6.200000e+00	1.920992e-05	
258	6.250000e+00	1.934599e-05	
259	6.300000e+00	1.948975e-05	
260	6.350000e+00	1.964149e-05	
261	6.400000e+00	1.980149e-05	
262	6.450000e+00	1.997004e-05	
263	6.500000e+00	2.014743e-05	
264	6.550000e+00	2.033394e-05	
265	6.600000e+00	2.052988e-05	
266	0.000000e+00	1.529940e-36	
267	5.000000e-02	2.947860e-06	
268	1.000000e-01	5.801477e-06	
269	1.500000e-01	8.561308e-06	
270	2.000000e-01	1.122781e-05	
271	2.500000e-01	1.380144e-05	
272	3.000000e-01	1.628264e-05	
273	3.500000e-01	1.867186e-05	
274	4.000000e-01	2.096955e-05	
275	4.500000e-01	2.317615e-05	
276	5.000000e-01	2.529210e-05	
277	5.500000e-01	2.731783e-05	
278	6.000000e-01	2.925379e-05	
279	6.500000e-01	3.110039e-05	
280	7.000000e-01	3.285807e-05	
281	7.500000e-01	3.452726e-05	
282	8.000000e-01	3.610837e-05	
283	8.500000e-01	3.760181e-05	
284	9.000000e-01	3.900802e-05	
285	9.500000e-01	4.032738e-05	
286	1.000000e+00	4.156032e-05	

Index   v-sweep         -i(vds)         
--------------------------------------------------------------------------------
287	1.050000e+00	4.270722e-05	
288	1.100000e+00	4.376850e-05	
289	1.150000e+00	4.474455e-05	
290	1.200000e+00	4.563577e-05	
291	1.250000e+00	4.644260e-05	
292	1.300000e+00	4.716551e-05	
293	1.350000e+00	4.780508e-05	
294	1.400000e+00	4.836216e-05	
295	1.450000e+00	4.883806e-05	
296	1.500000e+00	4.923508e-05	
297	1.550000e+00	4.955723e-05	
298	1.600000e+00	4.981102e-05	
299	1.650000e+00	5.000585e-05	
300	1.700000e+00	5.015308e-05	
301	1.750000e+00	5.026420e-05	
302	1.800000e+00	5.034913e-05	
303	1.850000e+00	5.041542e-05	
304	1.900000e+00	5.046850e-05	
305	1.950000e+00	5.051207e-05	
306	2.000000e+00	5.054867e-05	
307	2.050000e+00	5.058008e-05	
308	2.100000e+00	5.060751e-05	
309	2.150000e+00	5.063183e-05	
310	2.200000e+00	5.065370e-05	
311	2.250000e+00	5.067357e-05	
312	2.300000e+00	5.069181e-05	
313	2.350000e+00	5.070869e-05	
314	2.400000e+00	5.072443e-05	
315	2.450000e+00	5.073919e-05	
316	2.500000e+00	5.075312e-05	
317	2.550000e+00	5.076632e-05	
318	2.600000e+00	5.077889e-05	
319	2.650000e+00	5.079091e-05	
320	2.700000e+00	5.080242e-05	
321	2.750000e+00	5.081350e-05	
322	2.800000e+00	5.082419e-05	
323	2.850000e+00	5.083451e-05	
324	2.900000e+00	5.084452e-05	
325	2.950000e+00	5.085423e-05	
326	3.000000e+00	5.086368e-05	
327	3.050000e+00	5.087288e-05	
328	3.100000e+00	5.088186e-05	
329	3.150000e+00	5.089063e-05	
330	3.200000e+00	5.089921e-05	
331	3.250000e+00	5.090761e-05	
332	3.300000e+00	5.091585e-05	
333	3.350000e+00	5.092394e-05	
334	3.400000e+00	5.093188e-05	
335	3.450000e+00	5.093969e-05	
336	3.500000e+00	5.094738e-05	
337	3.550000e+00	5.095495e-05	
338	3.600000e+00	5.096241e-05	
339	3.650000e+00	5.096977e-05	
340	3.700000e+00	5.097703e-05	
341	3.750000e+00	5.098422e-05	
342	3.800000e+00	5.099132e-05	
343	3.850000e+00	5.099836e-05	
344	3.900000e+00	5.100534e-05	

Index   v-sweep         -i(vds)         
--------------------------------------------------------------------------------
345	3.950000e+00	5.101228e-05	
346	4.000000e+00	5.101918e-05	
347	4.050000e+00	5.102606e-05	
348	4.100000e+00	5.103295e-05	
349	4.150000e+00	5.103985e-05	
350	4.200000e+00	5.104680e-05	
351	4.250000e+00	5.105383e-05	
352	4.300000e+00	5.106096e-05	
353	4.350000e+00	5.106824e-05	
354	4.400000e+00	5.107570e-05	
355	4.450000e+00	5.108341e-05	
356	4.500000e+00	5.109142e-05	
357	4.550000e+00	5.109980e-05	
358	4.600000e+00	5.110862e-05	
359	4.650000e+00	5.111796e-05	
360	4.700000e+00	5.112793e-05	
361	4.750000e+00	5.113863e-05	
362	4.800000e+00	5.115017e-05	
363	4.850000e+00	5.116269e-05	
364	4.900000e+00	5.117633e-05	
365	4.950000e+00	5.119125e-05	
366	5.000000e+00	5.120762e-05	
367	5.050000e+00	5.122562e-05	
368	5.100000e+00	5.124546e-05	
369	5.150000e+00	5.126735e-05	
370	5.200000e+00	5.129153e-05	
371	5.250000e+00	5.131825e-05	
372	5.300000e+00	5.134778e-05	
373	5.350000e+00	5.138041e-05	
374	5.400000e+00	5.141643e-05	
375	5.450000e+00	5.145618e-05	
376	5.500000e+00	5.150000e-05	
377	5.550000e+00	5.154823e-05	
378	5.600000e+00	5.160128e-05	
379	5.650000e+00	5.165952e-05	
380	5.700000e+00	5.172338e-05	
381	5.750000e+00	5.179330e-05	
382	5.800000e+00	5.186973e-05	
383	5.850000e+00	5.195314e-05	
384	5.900000e+00	5.204403e-05	
385	5.950000e+00	5.214291e-05	
386	6.000000e+00	5.225031e-05	
387	6.050000e+00	5.236677e-05	
388	6.100000e+00	5.249285e-05	
389	6.150000e+00	5.262915e-05	
390	6.200000e+00	5.277626e-05	
391	6.250000e+00	5.293480e-05	
392	6.300000e+00	5.310540e-05	
393	6.350000e+00	5.328870e-05	
394	6.400000e+00	5.348538e-05	
395	6.450000e+00	5.369611e-05	
396	6.500000e+00	5.392157e-05	
397	6.550000e+00	5.416249e-05	
398	6.600000e+00	5.441957e-05	
399	0.000000e+00	-9.88554e-38	
400	5.000000e-02	3.900728e-06	
401	1.000000e-01	7.713982e-06	
402	1.500000e-01	1.144018e-05	

Index   v-sweep         -i(vds)         
--------------------------------------------------------------------------------
403	2.000000e-01	1.507974e-05	
404	2.500000e-01	1.863306e-05	
405	3.000000e-01	2.210057e-05	
406	3.500000e-01	2.548267e-05	
407	4.000000e-01	2.877976e-05	
408	4.500000e-01	3.199224e-05	
409	5.000000e-01	3.512052e-05	
410	5.500000e-01	3.816500e-05	
411	6.000000e-01	4.112606e-05	
412	6.500000e-01	4.400411e-05	
413	7.000000e-01	4.679954e-05	
414	7.500000e-01	4.951272e-05	
415	8.000000e-01	5.214406e-05	
416	8.500000e-01	5.469392e-05	
417	9.000000e-01	5.716270e-05	
418	9.500000e-01	5.955076e-05	
419	1.000000e+00	6.185849e-05	
420	1.050000e+00	6.408626e-05	
421	1.100000e+00	6.623443e-05	
422	1.150000e+00	6.830337e-05	
423	1.200000e+00	7.029345e-05	
424	1.250000e+00	7.220501e-05	
425	1.300000e+00	7.403842e-05	
426	1.350000e+00	7.579403e-05	
427	1.400000e+00	7.747217e-05	
428	1.450000e+00	7.907318e-05	
429	1.500000e+00	8.059739e-05	
430	1.550000e+00	8.204514e-05	
431	1.600000e+00	8.341671e-05	
432	1.650000e+00	8.471242e-05	
433	1.700000e+00	8.593254e-05	
434	1.750000e+00	8.707735e-05	
435	1.800000e+00	8.814707e-05	
436	1.850000e+00	8.914194e-05	
437	1.900000e+00	9.006213e-05	
438	1.950000e+00	9.090781e-05	
439	2.000000e+00	9.167912e-05	
440	2.050000e+00	9.237624e-05	
441	2.100000e+00	9.299942e-05	
442	2.150000e+00	9.354918e-05	
443	2.200000e+00	9.402661e-05	
444	2.250000e+00	9.443379e-05	
445	2.300000e+00	9.477441e-05	
446	2.350000e+00	9.505417e-05	
447	2.400000e+00	9.528069e-05	
448	2.450000e+00	9.546275e-05	
449	2.500000e+00	9.560916e-05	
450	2.550000e+00	9.572780e-05	
451	2.600000e+00	9.582513e-05	
452	2.650000e+00	9.590619e-05	
453	2.700000e+00	9.597476e-05	
454	2.750000e+00	9.603366e-05	
455	2.800000e+00	9.608497e-05	
456	2.850000e+00	9.613025e-05	
457	2.900000e+00	9.617067e-05	
458	2.950000e+00	9.620714e-05	
459	3.000000e+00	9.624033e-05	
460	3.050000e+00	9.627079e-05	

Index   v-sweep         -i(vds)         
--------------------------------------------------------------------------------
461	3.100000e+00	9.629893e-05	
462	3.150000e+00	9.632511e-05	
463	3.200000e+00	9.634960e-05	
464	3.250000e+00	9.637261e-05	
465	3.300000e+00	9.639435e-05	
466	3.350000e+00	9.641495e-05	
467	3.400000e+00	9.643456e-05	
468	3.450000e+00	9.645327e-05	
469	3.500000e+00	9.647119e-05	
470	3.550000e+00	9.648840e-05	
471	3.600000e+00	9.650496e-05	
472	3.650000e+00	9.652093e-05	
473	3.700000e+00	9.653637e-05	
474	3.750000e+00	9.655132e-05	
475	3.800000e+00	9.656582e-05	
476	3.850000e+00	9.657991e-05	
477	3.900000e+00	9.659362e-05	
478	3.950000e+00	9.660698e-05	
479	4.000000e+00	9.662001e-05	
480	4.050000e+00	9.663274e-05	
481	4.100000e+00	9.664519e-05	
482	4.150000e+00	9.665738e-05	
483	4.200000e+00	9.666932e-05	
484	4.250000e+00	9.668103e-05	
485	4.300000e+00	9.669253e-05	
486	4.350000e+00	9.670383e-05	
487	4.400000e+00	9.671495e-05	
488	4.450000e+00	9.672590e-05	
489	4.500000e+00	9.673670e-05	
490	4.550000e+00	9.674736e-05	
491	4.600000e+00	9.675791e-05	
492	4.650000e+00	9.676836e-05	
493	4.700000e+00	9.677874e-05	
494	4.750000e+00	9.678907e-05	
495	4.800000e+00	9.679939e-05	
496	4.850000e+00	9.680974e-05	
497	4.900000e+00	9.682016e-05	
498	4.950000e+00	9.683070e-05	
499	5.000000e+00	9.684142e-05	
500	5.050000e+00	9.685239e-05	
501	5.100000e+00	9.686370e-05	
502	5.150000e+00	9.687542e-05	
503	5.200000e+00	9.688768e-05	
504	5.250000e+00	9.690059e-05	
505	5.300000e+00	9.691429e-05	
506	5.350000e+00	9.692893e-05	
507	5.400000e+00	9.694469e-05	
508	5.450000e+00	9.696176e-05	
509	5.500000e+00	9.698035e-05	
510	5.550000e+00	9.700072e-05	
511	5.600000e+00	9.702311e-05	
512	5.650000e+00	9.704781e-05	
513	5.700000e+00	9.707515e-05	
514	5.750000e+00	9.710546e-05	
515	5.800000e+00	9.713911e-05	
516	5.850000e+00	9.717651e-05	
517	5.900000e+00	9.721809e-05	
518	5.950000e+00	9.726432e-05	

Index   v-sweep         -i(vds)         
--------------------------------------------------------------------------------
519	6.000000e+00	9.731569e-05	
520	6.050000e+00	9.737272e-05	
521	6.100000e+00	9.743600e-05	
522	6.150000e+00	9.750610e-05	
523	6.200000e+00	9.758368e-05	
524	6.250000e+00	9.766939e-05	
525	6.300000e+00	9.776394e-05	
526	6.350000e+00	9.786807e-05	
527	6.400000e+00	9.798256e-05	
528	6.450000e+00	9.810822e-05	
529	6.500000e+00	9.824588e-05	
530	6.550000e+00	9.839645e-05	
531	6.600000e+00	9.856083e-05	
532	0.000000e+00	-2.34495e-21	
533	5.000000e-02	4.611357e-06	
534	1.000000e-01	9.143240e-06	
535	1.500000e-01	1.359601e-05	
536	2.000000e-01	1.797001e-05	
537	2.500000e-01	2.226560e-05	
538	3.000000e-01	2.648314e-05	
539	3.500000e-01	3.062296e-05	
540	4.000000e-01	3.468542e-05	
541	4.500000e-01	3.867086e-05	
542	5.000000e-01	4.257962e-05	
543	5.500000e-01	4.641205e-05	
544	6.000000e-01	5.016849e-05	
545	6.500000e-01	5.384926e-05	
546	7.000000e-01	5.745472e-05	
547	7.500000e-01	6.098519e-05	
548	8.000000e-01	6.444101e-05	
549	8.500000e-01	6.782250e-05	
550	9.000000e-01	7.112999e-05	
551	9.500000e-01	7.436381e-05	
552	1.000000e+00	7.752429e-05	
553	1.050000e+00	8.061175e-05	
554	1.100000e+00	8.362650e-05	
555	1.150000e+00	8.656887e-05	
556	1.200000e+00	8.943918e-05	
557	1.250000e+00	9.223773e-05	
558	1.300000e+00	9.496485e-05	
559	1.350000e+00	9.762083e-05	
560	1.400000e+00	1.002060e-04	
561	1.450000e+00	1.027207e-04	
562	1.500000e+00	1.051651e-04	
563	1.550000e+00	1.075396e-04	
564	1.600000e+00	1.098446e-04	
565	1.650000e+00	1.120802e-04	
566	1.700000e+00	1.142468e-04	
567	1.750000e+00	1.163447e-04	
568	1.800000e+00	1.183741e-04	
569	1.850000e+00	1.203354e-04	
570	1.900000e+00	1.222288e-04	
571	1.950000e+00	1.240546e-04	
572	2.000000e+00	1.258130e-04	
573	2.050000e+00	1.275044e-04	
574	2.100000e+00	1.291289e-04	
575	2.150000e+00	1.306869e-04	
576	2.200000e+00	1.321785e-04	

Index   v-sweep         -i(vds)         
--------------------------------------------------------------------------------
577	2.250000e+00	1.336039e-04	
578	2.300000e+00	1.349635e-04	
579	2.350000e+00	1.362573e-04	
580	2.400000e+00	1.374855e-04	
581	2.450000e+00	1.386483e-04	
582	2.500000e+00	1.397457e-04	
583	2.550000e+00	1.407778e-04	
584	2.600000e+00	1.417446e-04	
585	2.650000e+00	1.426460e-04	
586	2.700000e+00	1.434819e-04	
587	2.750000e+00	1.442520e-04	
588	2.800000e+00	1.449563e-04	
589	2.850000e+00	1.455944e-04	
590	2.900000e+00	1.461665e-04	
591	2.950000e+00	1.466730e-04	
592	3.000000e+00	1.471152e-04	
593	3.050000e+00	1.474958e-04	
594	3.100000e+00	1.478190e-04	
595	3.150000e+00	1.480905e-04	
596	3.200000e+00	1.483171e-04	
597	3.250000e+00	1.485060e-04	
598	3.300000e+00	1.486640e-04	
599	3.350000e+00	1.487970e-04	
600	3.400000e+00	1.489101e-04	
601	3.450000e+00	1.490073e-04	
602	3.500000e+00	1.490918e-04	
603	3.550000e+00	1.491660e-04	
604	3.600000e+00	1.492319e-04	
605	3.650000e+00	1.492908e-04	
606	3.700000e+00	1.493441e-04	
607	3.750000e+00	1.493926e-04	
608	3.800000e+00	1.494371e-04	
609	3.850000e+00	1.494781e-04	
610	3.900000e+00	1.495162e-04	
611	3.950000e+00	1.495518e-04	
612	4.000000e+00	1.495851e-04	
613	4.050000e+00	1.496165e-04	
614	4.100000e+00	1.496462e-04	
615	4.150000e+00	1.496743e-04	
616	4.200000e+00	1.497011e-04	
617	4.250000e+00	1.497266e-04	
618	4.300000e+00	1.497511e-04	
619	4.350000e+00	1.497745e-04	
620	4.400000e+00	1.497971e-04	
621	4.450000e+00	1.498188e-04	
622	4.500000e+00	1.498398e-04	
623	4.550000e+00	1.498600e-04	
624	4.600000e+00	1.498797e-04	
625	4.650000e+00	1.498987e-04	
626	4.700000e+00	1.499173e-04	
627	4.750000e+00	1.499353e-04	
628	4.800000e+00	1.499528e-04	
629	4.850000e+00	1.499699e-04	
630	4.900000e+00	1.499866e-04	
631	4.950000e+00	1.500029e-04	
632	5.000000e+00	1.500189e-04	
633	5.050000e+00	1.500345e-04	
634	5.100000e+00	1.500499e-04	

Index   v-sweep         -i(vds)         
--------------------------------------------------------------------------------
635	5.150000e+00	1.500649e-04	
636	5.200000e+00	1.500797e-04	
637	5.250000e+00	1.500943e-04	
638	5.300000e+00	1.501086e-04	
639	5.350000e+00	1.501228e-04	
640	5.400000e+00	1.501368e-04	
641	5.450000e+00	1.501508e-04	
642	5.500000e+00	1.501646e-04	
643	5.550000e+00	1.501785e-04	
644	5.600000e+00	1.501924e-04	
645	5.650000e+00	1.502065e-04	
646	5.700000e+00	1.502207e-04	
647	5.750000e+00	1.502352e-04	
648	5.800000e+00	1.502502e-04	
649	5.850000e+00	1.502657e-04	
650	5.900000e+00	1.502818e-04	
651	5.950000e+00	1.502988e-04	
652	6.000000e+00	1.503169e-04	
653	6.050000e+00	1.503362e-04	
654	6.100000e+00	1.503571e-04	
655	6.150000e+00	1.503797e-04	
656	6.200000e+00	1.504044e-04	
657	6.250000e+00	1.504315e-04	
658	6.300000e+00	1.504615e-04	
659	6.350000e+00	1.504946e-04	
660	6.400000e+00	1.505315e-04	
661	6.450000e+00	1.505724e-04	
662	6.500000e+00	1.506181e-04	
663	6.550000e+00	1.506691e-04	
664	6.600000e+00	1.507260e-04	
665	0.000000e+00	1.652934e-36	
666	5.000000e-02	5.108878e-06	
667	1.000000e-01	1.014671e-05	
668	1.500000e-01	1.511379e-05	
669	2.000000e-01	2.001041e-05	
670	2.500000e-01	2.483686e-05	
671	3.000000e-01	2.959343e-05	
672	3.500000e-01	3.428041e-05	
673	4.000000e-01	3.889808e-05	
674	4.500000e-01	4.344672e-05	
675	5.000000e-01	4.792663e-05	
676	5.500000e-01	5.233809e-05	
677	6.000000e-01	5.668137e-05	
678	6.500000e-01	6.095675e-05	
679	7.000000e-01	6.516451e-05	
680	7.500000e-01	6.930493e-05	
681	8.000000e-01	7.337829e-05	
682	8.500000e-01	7.738485e-05	
683	9.000000e-01	8.132490e-05	
684	9.500000e-01	8.519869e-05	
685	1.000000e+00	8.900651e-05	
686	1.050000e+00	9.274862e-05	
687	1.100000e+00	9.642528e-05	
688	1.150000e+00	1.000368e-04	
689	1.200000e+00	1.035833e-04	
690	1.250000e+00	1.070653e-04	
691	1.300000e+00	1.104828e-04	
692	1.350000e+00	1.138362e-04	

Index   v-sweep         -i(vds)         
--------------------------------------------------------------------------------
693	1.400000e+00	1.171257e-04	
694	1.450000e+00	1.203517e-04	
695	1.500000e+00	1.235142e-04	
696	1.550000e+00	1.266137e-04	
697	1.600000e+00	1.296503e-04	
698	1.650000e+00	1.326243e-04	
699	1.700000e+00	1.355360e-04	
700	1.750000e+00	1.383856e-04	
701	1.800000e+00	1.411733e-04	
702	1.850000e+00	1.438995e-04	
703	1.900000e+00	1.465642e-04	
704	1.950000e+00	1.491679e-04	
705	2.000000e+00	1.517107e-04	
706	2.050000e+00	1.541928e-04	
707	2.100000e+00	1.566146e-04	
708	2.150000e+00	1.589761e-04	
709	2.200000e+00	1.612778e-04	
710	2.250000e+00	1.635197e-04	
711	2.300000e+00	1.657022e-04	
712	2.350000e+00	1.678254e-04	
713	2.400000e+00	1.698897e-04	
714	2.450000e+00	1.718951e-04	
715	2.500000e+00	1.738419e-04	
716	2.550000e+00	1.757303e-04	
717	2.600000e+00	1.775606e-04	
718	2.650000e+00	1.793329e-04	
719	2.700000e+00	1.810474e-04	
720	2.750000e+00	1.827044e-04	
721	2.800000e+00	1.843040e-04	
722	2.850000e+00	1.858463e-04	
723	2.900000e+00	1.873316e-04	
724	2.950000e+00	1.887599e-04	
725	3.000000e+00	1.901315e-04	
726	3.050000e+00	1.914463e-04	
727	3.100000e+00	1.927046e-04	
728	3.150000e+00	1.939063e-04	
729	3.200000e+00	1.950514e-04	
730	3.250000e+00	1.961400e-04	
731	3.300000e+00	1.971719e-04	
732	3.350000e+00	1.981470e-04	
733	3.400000e+00	1.990650e-04	
734	3.450000e+00	1.999256e-04	
735	3.500000e+00	2.007285e-04	
736	3.550000e+00	2.014730e-04	
737	3.600000e+00	2.021587e-04	
738	3.650000e+00	2.027852e-04	
739	3.700000e+00	2.033521e-04	
740	3.750000e+00	2.038597e-04	
741	3.800000e+00	2.043091e-04	
742	3.850000e+00	2.047025e-04	
743	3.900000e+00	2.050434e-04	
744	3.950000e+00	2.053363e-04	
745	4.000000e+00	2.055870e-04	
746	4.050000e+00	2.058012e-04	
747	4.100000e+00	2.059846e-04	
748	4.150000e+00	2.061424e-04	
749	4.200000e+00	2.062790e-04	
750	4.250000e+00	2.063984e-04	

Index   v-sweep         -i(vds)         
--------------------------------------------------------------------------------
751	4.300000e+00	2.065034e-04	
752	4.350000e+00	2.065966e-04	
753	4.400000e+00	2.066799e-04	
754	4.450000e+00	2.067551e-04	
755	4.500000e+00	2.068234e-04	
756	4.550000e+00	2.068857e-04	
757	4.600000e+00	2.069431e-04	
758	4.650000e+00	2.069961e-04	
759	4.700000e+00	2.070454e-04	
760	4.750000e+00	2.070914e-04	
761	4.800000e+00	2.071346e-04	
762	4.850000e+00	2.071752e-04	
763	4.900000e+00	2.072136e-04	
764	4.950000e+00	2.072500e-04	
765	5.000000e+00	2.072846e-04	
766	5.050000e+00	2.073176e-04	
767	5.100000e+00	2.073491e-04	
768	5.150000e+00	2.073793e-04	
769	5.200000e+00	2.074083e-04	
770	5.250000e+00	2.074362e-04	
771	5.300000e+00	2.074631e-04	
772	5.350000e+00	2.074890e-04	
773	5.400000e+00	2.075142e-04	
774	5.450000e+00	2.075385e-04	
775	5.500000e+00	2.075621e-04	
776	5.550000e+00	2.075850e-04	
777	5.600000e+00	2.076073e-04	
778	5.650000e+00	2.076290e-04	
779	5.700000e+00	2.076501e-04	
780	5.750000e+00	2.076707e-04	
781	5.800000e+00	2.076909e-04	
782	5.850000e+00	2.077106e-04	
783	5.900000e+00	2.077299e-04	
784	5.950000e+00	2.077488e-04	
785	6.000000e+00	2.077674e-04	
786	6.050000e+00	2.077857e-04	
787	6.100000e+00	2.078037e-04	
788	6.150000e+00	2.078215e-04	
789	6.200000e+00	2.078391e-04	
790	6.250000e+00	2.078566e-04	
791	6.300000e+00	2.078740e-04	
792	6.350000e+00	2.078915e-04	
793	6.400000e+00	2.079091e-04	
794	6.450000e+00	2.079269e-04	
795	6.500000e+00	2.079450e-04	
796	6.550000e+00	2.079636e-04	
797	6.600000e+00	2.079828e-04	
Note: No ".plot", ".print", or ".fourier" lines; no simulations run
