
Note: Compatibility modes selected: hs

Warning: m=xx on .subckt line will override multiplier m hierarchy!


Circuit: ***************************

Doing analysis at TEMP = -40.000000 and TNOM = -40.000000


No. of Data Rows : 798
                          ***************************
                          DC transfer characteristic  Mon Jan  9 13:58:36  2023
--------------------------------------------------------------------------------
Index   v-sweep         -i(vds)         
--------------------------------------------------------------------------------
0	0.000000e+00	-6.72366e-22	
1	5.000000e-02	2.998702e-06	
2	1.000000e-01	5.066627e-06	
3	1.500000e-01	6.260449e-06	
4	2.000000e-01	6.771020e-06	
5	2.500000e-01	6.939790e-06	
6	3.000000e-01	7.001470e-06	
7	3.500000e-01	7.031950e-06	
8	4.000000e-01	7.051335e-06	
9	4.500000e-01	7.065846e-06	
10	5.000000e-01	7.077834e-06	
11	5.500000e-01	7.088352e-06	
12	6.000000e-01	7.097931e-06	
13	6.500000e-01	7.106869e-06	
14	7.000000e-01	7.115347e-06	
15	7.500000e-01	7.123479e-06	
16	8.000000e-01	7.131344e-06	
17	8.500000e-01	7.138994e-06	
18	9.000000e-01	7.146472e-06	
19	9.500000e-01	7.153805e-06	
20	1.000000e+00	7.161016e-06	
21	1.050000e+00	7.168124e-06	
22	1.100000e+00	7.175142e-06	
23	1.150000e+00	7.182082e-06	
24	1.200000e+00	7.188953e-06	
25	1.250000e+00	7.195763e-06	
26	1.300000e+00	7.202519e-06	
27	1.350000e+00	7.209225e-06	
28	1.400000e+00	7.215887e-06	
29	1.450000e+00	7.222508e-06	
30	1.500000e+00	7.229093e-06	
31	1.550000e+00	7.235644e-06	
32	1.600000e+00	7.242164e-06	
33	1.650000e+00	7.248656e-06	
34	1.700000e+00	7.255121e-06	
35	1.750000e+00	7.261561e-06	
36	1.800000e+00	7.267979e-06	
37	1.850000e+00	7.274375e-06	
38	1.900000e+00	7.280751e-06	
39	1.950000e+00	7.287109e-06	
40	2.000000e+00	7.293449e-06	
41	2.050000e+00	7.299773e-06	
42	2.100000e+00	7.306081e-06	
43	2.150000e+00	7.312375e-06	
44	2.200000e+00	7.318655e-06	
45	2.250000e+00	7.324923e-06	
46	2.300000e+00	7.331180e-06	
47	2.350000e+00	7.337426e-06	
48	2.400000e+00	7.343663e-06	
49	2.450000e+00	7.349892e-06	
50	2.500000e+00	7.356114e-06	
51	2.550000e+00	7.362332e-06	
52	2.600000e+00	7.368547e-06	
53	2.650000e+00	7.374761e-06	
54	2.700000e+00	7.380978e-06	

Index   v-sweep         -i(vds)         
--------------------------------------------------------------------------------
55	2.750000e+00	7.387201e-06	
56	2.800000e+00	7.393433e-06	
57	2.850000e+00	7.399680e-06	
58	2.900000e+00	7.405945e-06	
59	2.950000e+00	7.412237e-06	
60	3.000000e+00	7.418561e-06	
61	3.050000e+00	7.424926e-06	
62	3.100000e+00	7.431341e-06	
63	3.150000e+00	7.437817e-06	
64	3.200000e+00	7.444366e-06	
65	3.250000e+00	7.451001e-06	
66	3.300000e+00	7.457737e-06	
67	3.350000e+00	7.464591e-06	
68	3.400000e+00	7.471582e-06	
69	3.450000e+00	7.478730e-06	
70	3.500000e+00	7.486058e-06	
71	3.550000e+00	7.493590e-06	
72	3.600000e+00	7.501354e-06	
73	3.650000e+00	7.509378e-06	
74	3.700000e+00	7.517695e-06	
75	3.750000e+00	7.526338e-06	
76	3.800000e+00	7.535344e-06	
77	3.850000e+00	7.544753e-06	
78	3.900000e+00	7.554607e-06	
79	3.950000e+00	7.564950e-06	
80	4.000000e+00	7.575831e-06	
81	4.050000e+00	7.587299e-06	
82	4.100000e+00	7.599408e-06	
83	4.150000e+00	7.612215e-06	
84	4.200000e+00	7.625780e-06	
85	4.250000e+00	7.640163e-06	
86	4.300000e+00	7.655432e-06	
87	4.350000e+00	7.671653e-06	
88	4.400000e+00	7.688899e-06	
89	4.450000e+00	7.707244e-06	
90	4.500000e+00	7.726764e-06	
91	4.550000e+00	7.747541e-06	
92	4.600000e+00	7.769658e-06	
93	4.650000e+00	7.793200e-06	
94	4.700000e+00	7.818257e-06	
95	4.750000e+00	7.844920e-06	
96	4.800000e+00	7.873285e-06	
97	4.850000e+00	7.903447e-06	
98	4.900000e+00	7.935509e-06	
99	4.950000e+00	7.969571e-06	
100	5.000000e+00	8.005739e-06	
101	5.050000e+00	8.044121e-06	
102	5.100000e+00	8.084827e-06	
103	5.150000e+00	8.127970e-06	
104	5.200000e+00	8.173664e-06	
105	5.250000e+00	8.222026e-06	
106	5.300000e+00	8.273176e-06	
107	5.350000e+00	8.327234e-06	
108	5.400000e+00	8.384324e-06	
109	5.450000e+00	8.444571e-06	
110	5.500000e+00	8.508101e-06	
111	5.550000e+00	8.575044e-06	
112	5.600000e+00	8.645529e-06	

Index   v-sweep         -i(vds)         
--------------------------------------------------------------------------------
113	5.650000e+00	8.719689e-06	
114	5.700000e+00	8.797657e-06	
115	5.750000e+00	8.879568e-06	
116	5.800000e+00	8.965557e-06	
117	5.850000e+00	9.055762e-06	
118	5.900000e+00	9.150322e-06	
119	5.950000e+00	9.249376e-06	
120	6.000000e+00	9.353065e-06	
121	6.050000e+00	9.461530e-06	
122	6.100000e+00	9.574913e-06	
123	6.150000e+00	9.693358e-06	
124	6.200000e+00	9.817008e-06	
125	6.250000e+00	9.946008e-06	
126	6.300000e+00	1.008050e-05	
127	6.350000e+00	1.022064e-05	
128	6.400000e+00	1.036656e-05	
129	6.450000e+00	1.051841e-05	
130	6.500000e+00	1.067634e-05	
131	6.550000e+00	1.084049e-05	
132	6.600000e+00	1.101102e-05	
133	0.000000e+00	-7.68052e-37	
134	5.000000e-02	1.771523e-05	
135	1.000000e-01	3.441002e-05	
136	1.500000e-01	5.008900e-05	
137	2.000000e-01	6.475675e-05	
138	2.500000e-01	7.841790e-05	
139	3.000000e-01	9.107705e-05	
140	3.500000e-01	1.027389e-04	
141	4.000000e-01	1.134081e-04	
142	4.500000e-01	1.230897e-04	
143	5.000000e-01	1.317888e-04	
144	5.500000e-01	1.395109e-04	
145	6.000000e-01	1.462629e-04	
146	6.500000e-01	1.520533e-04	
147	7.000000e-01	1.568947e-04	
148	7.500000e-01	1.608084e-04	
149	8.000000e-01	1.638340e-04	
150	8.500000e-01	1.660454e-04	
151	9.000000e-01	1.675676e-04	
152	9.500000e-01	1.685699e-04	
153	1.000000e+00	1.692248e-04	
154	1.050000e+00	1.696658e-04	
155	1.100000e+00	1.699785e-04	
156	1.150000e+00	1.702127e-04	
157	1.200000e+00	1.703969e-04	
158	1.250000e+00	1.705480e-04	
159	1.300000e+00	1.706761e-04	
160	1.350000e+00	1.707875e-04	
161	1.400000e+00	1.708865e-04	
162	1.450000e+00	1.709761e-04	
163	1.500000e+00	1.710581e-04	
164	1.550000e+00	1.711342e-04	
165	1.600000e+00	1.712053e-04	
166	1.650000e+00	1.712724e-04	
167	1.700000e+00	1.713360e-04	
168	1.750000e+00	1.713967e-04	
169	1.800000e+00	1.714549e-04	
170	1.850000e+00	1.715108e-04	

Index   v-sweep         -i(vds)         
--------------------------------------------------------------------------------
171	1.900000e+00	1.715649e-04	
172	1.950000e+00	1.716172e-04	
173	2.000000e+00	1.716681e-04	
174	2.050000e+00	1.717176e-04	
175	2.100000e+00	1.717659e-04	
176	2.150000e+00	1.718131e-04	
177	2.200000e+00	1.718593e-04	
178	2.250000e+00	1.719045e-04	
179	2.300000e+00	1.719490e-04	
180	2.350000e+00	1.719927e-04	
181	2.400000e+00	1.720357e-04	
182	2.450000e+00	1.720780e-04	
183	2.500000e+00	1.721197e-04	
184	2.550000e+00	1.721609e-04	
185	2.600000e+00	1.722015e-04	
186	2.650000e+00	1.722417e-04	
187	2.700000e+00	1.722814e-04	
188	2.750000e+00	1.723207e-04	
189	2.800000e+00	1.723595e-04	
190	2.850000e+00	1.723980e-04	
191	2.900000e+00	1.724362e-04	
192	2.950000e+00	1.724740e-04	
193	3.000000e+00	1.725116e-04	
194	3.050000e+00	1.725488e-04	
195	3.100000e+00	1.725858e-04	
196	3.150000e+00	1.726227e-04	
197	3.200000e+00	1.726593e-04	
198	3.250000e+00	1.726958e-04	
199	3.300000e+00	1.727322e-04	
200	3.350000e+00	1.727686e-04	
201	3.400000e+00	1.728050e-04	
202	3.450000e+00	1.728415e-04	
203	3.500000e+00	1.728783e-04	
204	3.550000e+00	1.729153e-04	
205	3.600000e+00	1.729527e-04	
206	3.650000e+00	1.729907e-04	
207	3.700000e+00	1.730295e-04	
208	3.750000e+00	1.730691e-04	
209	3.800000e+00	1.731099e-04	
210	3.850000e+00	1.731520e-04	
211	3.900000e+00	1.731957e-04	
212	3.950000e+00	1.732414e-04	
213	4.000000e+00	1.732894e-04	
214	4.050000e+00	1.733400e-04	
215	4.100000e+00	1.733937e-04	
216	4.150000e+00	1.734509e-04	
217	4.200000e+00	1.735121e-04	
218	4.250000e+00	1.735780e-04	
219	4.300000e+00	1.736491e-04	
220	4.350000e+00	1.737261e-04	
221	4.400000e+00	1.738096e-04	
222	4.450000e+00	1.739005e-04	
223	4.500000e+00	1.739995e-04	
224	4.550000e+00	1.741076e-04	
225	4.600000e+00	1.742257e-04	
226	4.650000e+00	1.743549e-04	
227	4.700000e+00	1.744960e-04	
228	4.750000e+00	1.746504e-04	

Index   v-sweep         -i(vds)         
--------------------------------------------------------------------------------
229	4.800000e+00	1.748192e-04	
230	4.850000e+00	1.750036e-04	
231	4.900000e+00	1.752050e-04	
232	4.950000e+00	1.754248e-04	
233	5.000000e+00	1.756644e-04	
234	5.050000e+00	1.759253e-04	
235	5.100000e+00	1.762092e-04	
236	5.150000e+00	1.765176e-04	
237	5.200000e+00	1.768523e-04	
238	5.250000e+00	1.772150e-04	
239	5.300000e+00	1.776077e-04	
240	5.350000e+00	1.780321e-04	
241	5.400000e+00	1.784903e-04	
242	5.450000e+00	1.789843e-04	
243	5.500000e+00	1.795161e-04	
244	5.550000e+00	1.800879e-04	
245	5.600000e+00	1.807018e-04	
246	5.650000e+00	1.813602e-04	
247	5.700000e+00	1.820654e-04	
248	5.750000e+00	1.828195e-04	
249	5.800000e+00	1.836252e-04	
250	5.850000e+00	1.844848e-04	
251	5.900000e+00	1.854008e-04	
252	5.950000e+00	1.863757e-04	
253	6.000000e+00	1.874121e-04	
254	6.050000e+00	1.885127e-04	
255	6.100000e+00	1.896801e-04	
256	6.150000e+00	1.909169e-04	
257	6.200000e+00	1.922260e-04	
258	6.250000e+00	1.936101e-04	
259	6.300000e+00	1.950719e-04	
260	6.350000e+00	1.966143e-04	
261	6.400000e+00	1.982401e-04	
262	6.450000e+00	1.999522e-04	
263	6.500000e+00	2.017535e-04	
264	6.550000e+00	2.036470e-04	
265	6.600000e+00	2.056354e-04	
266	0.000000e+00	2.010803e-35	
267	5.000000e-02	3.005621e-05	
268	1.000000e-01	5.914031e-05	
269	1.500000e-01	8.725700e-05	
270	2.000000e-01	1.144110e-04	
271	2.500000e-01	1.406069e-04	
272	3.000000e-01	1.658495e-04	
273	3.500000e-01	1.901432e-04	
274	4.000000e-01	2.134927e-04	
275	4.500000e-01	2.359025e-04	
276	5.000000e-01	2.573771e-04	
277	5.500000e-01	2.779211e-04	
278	6.000000e-01	2.975388e-04	
279	6.500000e-01	3.162348e-04	
280	7.000000e-01	3.340134e-04	
281	7.500000e-01	3.508790e-04	
282	8.000000e-01	3.668359e-04	
283	8.500000e-01	3.818883e-04	
284	9.000000e-01	3.960406e-04	
285	9.500000e-01	4.092970e-04	
286	1.000000e+00	4.216615e-04	

Index   v-sweep         -i(vds)         
--------------------------------------------------------------------------------
287	1.050000e+00	4.331383e-04	
288	1.100000e+00	4.437315e-04	
289	1.150000e+00	4.534452e-04	
290	1.200000e+00	4.622836e-04	
291	1.250000e+00	4.702512e-04	
292	1.300000e+00	4.773531e-04	
293	1.350000e+00	4.835961e-04	
294	1.400000e+00	4.889901e-04	
295	1.450000e+00	4.935521e-04	
296	1.500000e+00	4.973119e-04	
297	1.550000e+00	5.003206e-04	
298	1.600000e+00	5.026590e-04	
299	1.650000e+00	5.044352e-04	
300	1.700000e+00	5.057711e-04	
301	1.750000e+00	5.067810e-04	
302	1.800000e+00	5.075576e-04	
303	1.850000e+00	5.081693e-04	
304	1.900000e+00	5.086636e-04	
305	1.950000e+00	5.090731e-04	
306	2.000000e+00	5.094201e-04	
307	2.050000e+00	5.097198e-04	
308	2.100000e+00	5.099833e-04	
309	2.150000e+00	5.102182e-04	
310	2.200000e+00	5.104303e-04	
311	2.250000e+00	5.106238e-04	
312	2.300000e+00	5.108021e-04	
313	2.350000e+00	5.109675e-04	
314	2.400000e+00	5.111221e-04	
315	2.450000e+00	5.112675e-04	
316	2.500000e+00	5.114050e-04	
317	2.550000e+00	5.115355e-04	
318	2.600000e+00	5.116599e-04	
319	2.650000e+00	5.117790e-04	
320	2.700000e+00	5.118933e-04	
321	2.750000e+00	5.120033e-04	
322	2.800000e+00	5.121096e-04	
323	2.850000e+00	5.122123e-04	
324	2.900000e+00	5.123120e-04	
325	2.950000e+00	5.124088e-04	
326	3.000000e+00	5.125031e-04	
327	3.050000e+00	5.125949e-04	
328	3.100000e+00	5.126846e-04	
329	3.150000e+00	5.127722e-04	
330	3.200000e+00	5.128580e-04	
331	3.250000e+00	5.129420e-04	
332	3.300000e+00	5.130245e-04	
333	3.350000e+00	5.131054e-04	
334	3.400000e+00	5.131849e-04	
335	3.450000e+00	5.132632e-04	
336	3.500000e+00	5.133402e-04	
337	3.550000e+00	5.134160e-04	
338	3.600000e+00	5.134908e-04	
339	3.650000e+00	5.135647e-04	
340	3.700000e+00	5.136376e-04	
341	3.750000e+00	5.137097e-04	
342	3.800000e+00	5.137810e-04	
343	3.850000e+00	5.138518e-04	
344	3.900000e+00	5.139220e-04	

Index   v-sweep         -i(vds)         
--------------------------------------------------------------------------------
345	3.950000e+00	5.139917e-04	
346	4.000000e+00	5.140613e-04	
347	4.050000e+00	5.141307e-04	
348	4.100000e+00	5.142002e-04	
349	4.150000e+00	5.142700e-04	
350	4.200000e+00	5.143403e-04	
351	4.250000e+00	5.144116e-04	
352	4.300000e+00	5.144841e-04	
353	4.350000e+00	5.145583e-04	
354	4.400000e+00	5.146345e-04	
355	4.450000e+00	5.147135e-04	
356	4.500000e+00	5.147958e-04	
357	4.550000e+00	5.148820e-04	
358	4.600000e+00	5.149731e-04	
359	4.650000e+00	5.150699e-04	
360	4.700000e+00	5.151734e-04	
361	4.750000e+00	5.152848e-04	
362	4.800000e+00	5.154052e-04	
363	4.850000e+00	5.155361e-04	
364	4.900000e+00	5.156789e-04	
365	4.950000e+00	5.158353e-04	
366	5.000000e+00	5.160071e-04	
367	5.050000e+00	5.161962e-04	
368	5.100000e+00	5.164048e-04	
369	5.150000e+00	5.166350e-04	
370	5.200000e+00	5.168894e-04	
371	5.250000e+00	5.171705e-04	
372	5.300000e+00	5.174811e-04	
373	5.350000e+00	5.178242e-04	
374	5.400000e+00	5.182029e-04	
375	5.450000e+00	5.186206e-04	
376	5.500000e+00	5.190807e-04	
377	5.550000e+00	5.195871e-04	
378	5.600000e+00	5.201436e-04	
379	5.650000e+00	5.207542e-04	
380	5.700000e+00	5.214234e-04	
381	5.750000e+00	5.221554e-04	
382	5.800000e+00	5.229551e-04	
383	5.850000e+00	5.238273e-04	
384	5.900000e+00	5.247770e-04	
385	5.950000e+00	5.258094e-04	
386	6.000000e+00	5.269299e-04	
387	6.050000e+00	5.281442e-04	
388	6.100000e+00	5.294580e-04	
389	6.150000e+00	5.308772e-04	
390	6.200000e+00	5.324080e-04	
391	6.250000e+00	5.340566e-04	
392	6.300000e+00	5.358295e-04	
393	6.350000e+00	5.377332e-04	
394	6.400000e+00	5.397745e-04	
395	6.450000e+00	5.419603e-04	
396	6.500000e+00	5.442977e-04	
397	6.550000e+00	5.467937e-04	
398	6.600000e+00	5.494557e-04	
399	0.000000e+00	-7.28784e-35	
400	5.000000e-02	3.978636e-05	
401	1.000000e-01	7.867215e-05	
402	1.500000e-01	1.166617e-04	

Index   v-sweep         -i(vds)         
--------------------------------------------------------------------------------
403	2.000000e-01	1.537591e-04	
404	2.500000e-01	1.899688e-04	
405	3.000000e-01	2.252950e-04	
406	3.500000e-01	2.597417e-04	
407	4.000000e-01	2.933133e-04	
408	4.500000e-01	3.260138e-04	
409	5.000000e-01	3.578474e-04	
410	5.500000e-01	3.888181e-04	
411	6.000000e-01	4.189301e-04	
412	6.500000e-01	4.481873e-04	
413	7.000000e-01	4.765939e-04	
414	7.500000e-01	5.041538e-04	
415	8.000000e-01	5.308709e-04	
416	8.500000e-01	5.567492e-04	
417	9.000000e-01	5.817927e-04	
418	9.500000e-01	6.060052e-04	
419	1.000000e+00	6.293905e-04	
420	1.050000e+00	6.519526e-04	
421	1.100000e+00	6.736951e-04	
422	1.150000e+00	6.946219e-04	
423	1.200000e+00	7.147367e-04	
424	1.250000e+00	7.340431e-04	
425	1.300000e+00	7.525448e-04	
426	1.350000e+00	7.702453e-04	
427	1.400000e+00	7.871482e-04	
428	1.450000e+00	8.032569e-04	
429	1.500000e+00	8.185747e-04	
430	1.550000e+00	8.331050e-04	
431	1.600000e+00	8.468508e-04	
432	1.650000e+00	8.598151e-04	
433	1.700000e+00	8.720007e-04	
434	1.750000e+00	8.834103e-04	
435	1.800000e+00	8.940460e-04	
436	1.850000e+00	9.039100e-04	
437	1.900000e+00	9.130040e-04	
438	1.950000e+00	9.213294e-04	
439	2.000000e+00	9.288875e-04	
440	2.050000e+00	9.356802e-04	
441	2.100000e+00	9.417111e-04	
442	2.150000e+00	9.469875e-04	
443	2.200000e+00	9.515250e-04	
444	2.250000e+00	9.553528e-04	
445	2.300000e+00	9.585195e-04	
446	2.350000e+00	9.610954e-04	
447	2.400000e+00	9.631674e-04	
448	2.450000e+00	9.648288e-04	
449	2.500000e+00	9.661669e-04	
450	2.550000e+00	9.672562e-04	
451	2.600000e+00	9.681556e-04	
452	2.650000e+00	9.689098e-04	
453	2.700000e+00	9.695525e-04	
454	2.750000e+00	9.701082e-04	
455	2.800000e+00	9.705953e-04	
456	2.850000e+00	9.710276e-04	
457	2.900000e+00	9.714155e-04	
458	2.950000e+00	9.717669e-04	
459	3.000000e+00	9.720881e-04	
460	3.050000e+00	9.723837e-04	

Index   v-sweep         -i(vds)         
--------------------------------------------------------------------------------
461	3.100000e+00	9.726578e-04	
462	3.150000e+00	9.729135e-04	
463	3.200000e+00	9.731531e-04	
464	3.250000e+00	9.733789e-04	
465	3.300000e+00	9.735925e-04	
466	3.350000e+00	9.737953e-04	
467	3.400000e+00	9.739886e-04	
468	3.450000e+00	9.741734e-04	
469	3.500000e+00	9.743506e-04	
470	3.550000e+00	9.745209e-04	
471	3.600000e+00	9.746849e-04	
472	3.650000e+00	9.748433e-04	
473	3.700000e+00	9.749966e-04	
474	3.750000e+00	9.751451e-04	
475	3.800000e+00	9.752892e-04	
476	3.850000e+00	9.754294e-04	
477	3.900000e+00	9.755659e-04	
478	3.950000e+00	9.756990e-04	
479	4.000000e+00	9.758288e-04	
480	4.050000e+00	9.759558e-04	
481	4.100000e+00	9.760800e-04	
482	4.150000e+00	9.762016e-04	
483	4.200000e+00	9.763208e-04	
484	4.250000e+00	9.764378e-04	
485	4.300000e+00	9.765528e-04	
486	4.350000e+00	9.766658e-04	
487	4.400000e+00	9.767770e-04	
488	4.450000e+00	9.768866e-04	
489	4.500000e+00	9.769948e-04	
490	4.550000e+00	9.771017e-04	
491	4.600000e+00	9.772075e-04	
492	4.650000e+00	9.773125e-04	
493	4.700000e+00	9.774169e-04	
494	4.750000e+00	9.775210e-04	
495	4.800000e+00	9.776252e-04	
496	4.850000e+00	9.777299e-04	
497	4.900000e+00	9.778355e-04	
498	4.950000e+00	9.779427e-04	
499	5.000000e+00	9.780521e-04	
500	5.050000e+00	9.781644e-04	
501	5.100000e+00	9.782805e-04	
502	5.150000e+00	9.784015e-04	
503	5.200000e+00	9.785285e-04	
504	5.250000e+00	9.786627e-04	
505	5.300000e+00	9.788058e-04	
506	5.350000e+00	9.789592e-04	
507	5.400000e+00	9.791250e-04	
508	5.450000e+00	9.793051e-04	
509	5.500000e+00	9.795019e-04	
510	5.550000e+00	9.797179e-04	
511	5.600000e+00	9.799559e-04	
512	5.650000e+00	9.802189e-04	
513	5.700000e+00	9.805103e-04	
514	5.750000e+00	9.808336e-04	
515	5.800000e+00	9.811929e-04	
516	5.850000e+00	9.815923e-04	
517	5.900000e+00	9.820363e-04	
518	5.950000e+00	9.825298e-04	

Index   v-sweep         -i(vds)         
--------------------------------------------------------------------------------
519	6.000000e+00	9.830781e-04	
520	6.050000e+00	9.836866e-04	
521	6.100000e+00	9.843613e-04	
522	6.150000e+00	9.851083e-04	
523	6.200000e+00	9.859342e-04	
524	6.250000e+00	9.868460e-04	
525	6.300000e+00	9.878511e-04	
526	6.350000e+00	9.889569e-04	
527	6.400000e+00	9.901717e-04	
528	6.450000e+00	9.915036e-04	
529	6.500000e+00	9.929616e-04	
530	6.550000e+00	9.945547e-04	
531	6.600000e+00	9.962922e-04	
532	0.000000e+00	-5.27266e-35	
533	5.000000e-02	4.700004e-05	
534	1.000000e-01	9.318344e-05	
535	1.500000e-01	1.385539e-04	
536	2.000000e-01	1.831149e-04	
537	2.500000e-01	2.268703e-04	
538	3.000000e-01	2.698235e-04	
539	3.500000e-01	3.119783e-04	
540	4.000000e-01	3.533380e-04	
541	4.500000e-01	3.939063e-04	
542	5.000000e-01	4.336868e-04	
543	5.500000e-01	4.726829e-04	
544	6.000000e-01	5.108981e-04	
545	6.500000e-01	5.483358e-04	
546	7.000000e-01	5.849996e-04	
547	7.500000e-01	6.208929e-04	
548	8.000000e-01	6.560191e-04	
549	8.500000e-01	6.903815e-04	
550	9.000000e-01	7.239837e-04	
551	9.500000e-01	7.568288e-04	
552	1.000000e+00	7.889203e-04	
553	1.050000e+00	8.202615e-04	
554	1.100000e+00	8.508556e-04	
555	1.150000e+00	8.807061e-04	
556	1.200000e+00	9.098160e-04	
557	1.250000e+00	9.381887e-04	
558	1.300000e+00	9.658274e-04	
559	1.350000e+00	9.927352e-04	
560	1.400000e+00	1.018915e-03	
561	1.450000e+00	1.044371e-03	
562	1.500000e+00	1.069105e-03	
563	1.550000e+00	1.093121e-03	
564	1.600000e+00	1.116422e-03	
565	1.650000e+00	1.139011e-03	
566	1.700000e+00	1.160890e-03	
567	1.750000e+00	1.182064e-03	
568	1.800000e+00	1.202534e-03	
569	1.850000e+00	1.222303e-03	
570	1.900000e+00	1.241375e-03	
571	1.950000e+00	1.259753e-03	
572	2.000000e+00	1.277438e-03	
573	2.050000e+00	1.294434e-03	
574	2.100000e+00	1.310743e-03	
575	2.150000e+00	1.326368e-03	
576	2.200000e+00	1.341311e-03	

Index   v-sweep         -i(vds)         
--------------------------------------------------------------------------------
577	2.250000e+00	1.355574e-03	
578	2.300000e+00	1.369159e-03	
579	2.350000e+00	1.382067e-03	
580	2.400000e+00	1.394301e-03	
581	2.450000e+00	1.405861e-03	
582	2.500000e+00	1.416748e-03	
583	2.550000e+00	1.426962e-03	
584	2.600000e+00	1.436503e-03	
585	2.650000e+00	1.445368e-03	
586	2.700000e+00	1.453557e-03	
587	2.750000e+00	1.461067e-03	
588	2.800000e+00	1.467895e-03	
589	2.850000e+00	1.474041e-03	
590	2.900000e+00	1.479506e-03	
591	2.950000e+00	1.484301e-03	
592	3.000000e+00	1.488446e-03	
593	3.050000e+00	1.491979e-03	
594	3.100000e+00	1.494954e-03	
595	3.150000e+00	1.497438e-03	
596	3.200000e+00	1.499505e-03	
597	3.250000e+00	1.501229e-03	
598	3.300000e+00	1.502674e-03	
599	3.350000e+00	1.503897e-03	
600	3.400000e+00	1.504943e-03	
601	3.450000e+00	1.505847e-03	
602	3.500000e+00	1.506638e-03	
603	3.550000e+00	1.507336e-03	
604	3.600000e+00	1.507958e-03	
605	3.650000e+00	1.508519e-03	
606	3.700000e+00	1.509028e-03	
607	3.750000e+00	1.509493e-03	
608	3.800000e+00	1.509921e-03	
609	3.850000e+00	1.510317e-03	
610	3.900000e+00	1.510686e-03	
611	3.950000e+00	1.511032e-03	
612	4.000000e+00	1.511356e-03	
613	4.050000e+00	1.511662e-03	
614	4.100000e+00	1.511952e-03	
615	4.150000e+00	1.512228e-03	
616	4.200000e+00	1.512490e-03	
617	4.250000e+00	1.512741e-03	
618	4.300000e+00	1.512982e-03	
619	4.350000e+00	1.513213e-03	
620	4.400000e+00	1.513435e-03	
621	4.450000e+00	1.513650e-03	
622	4.500000e+00	1.513857e-03	
623	4.550000e+00	1.514057e-03	
624	4.600000e+00	1.514252e-03	
625	4.650000e+00	1.514441e-03	
626	4.700000e+00	1.514624e-03	
627	4.750000e+00	1.514803e-03	
628	4.800000e+00	1.514977e-03	
629	4.850000e+00	1.515147e-03	
630	4.900000e+00	1.515313e-03	
631	4.950000e+00	1.515475e-03	
632	5.000000e+00	1.515634e-03	
633	5.050000e+00	1.515790e-03	
634	5.100000e+00	1.515942e-03	

Index   v-sweep         -i(vds)         
--------------------------------------------------------------------------------
635	5.150000e+00	1.516092e-03	
636	5.200000e+00	1.516240e-03	
637	5.250000e+00	1.516385e-03	
638	5.300000e+00	1.516529e-03	
639	5.350000e+00	1.516671e-03	
640	5.400000e+00	1.516812e-03	
641	5.450000e+00	1.516952e-03	
642	5.500000e+00	1.517091e-03	
643	5.550000e+00	1.517231e-03	
644	5.600000e+00	1.517372e-03	
645	5.650000e+00	1.517515e-03	
646	5.700000e+00	1.517660e-03	
647	5.750000e+00	1.517809e-03	
648	5.800000e+00	1.517963e-03	
649	5.850000e+00	1.518123e-03	
650	5.900000e+00	1.518291e-03	
651	5.950000e+00	1.518470e-03	
652	6.000000e+00	1.518660e-03	
653	6.050000e+00	1.518864e-03	
654	6.100000e+00	1.519085e-03	
655	6.150000e+00	1.519326e-03	
656	6.200000e+00	1.519591e-03	
657	6.250000e+00	1.519882e-03	
658	6.300000e+00	1.520204e-03	
659	6.350000e+00	1.520562e-03	
660	6.400000e+00	1.520960e-03	
661	6.450000e+00	1.521403e-03	
662	6.500000e+00	1.521897e-03	
663	6.550000e+00	1.522449e-03	
664	6.600000e+00	1.523065e-03	
665	0.000000e+00	-1.51487e-34	
666	5.000000e-02	5.200954e-05	
667	1.000000e-01	1.032905e-04	
668	1.500000e-01	1.538458e-04	
669	2.000000e-01	2.036784e-04	
670	2.500000e-01	2.527915e-04	
671	3.000000e-01	3.011878e-04	
672	3.500000e-01	3.488704e-04	
673	4.000000e-01	3.958422e-04	
674	4.500000e-01	4.421062e-04	
675	5.000000e-01	4.876652e-04	
676	5.500000e-01	5.325222e-04	
677	6.000000e-01	5.766799e-04	
678	6.500000e-01	6.201414e-04	
679	7.000000e-01	6.629094e-04	
680	7.500000e-01	7.049867e-04	
681	8.000000e-01	7.463763e-04	
682	8.500000e-01	7.870809e-04	
683	9.000000e-01	8.271033e-04	
684	9.500000e-01	8.664463e-04	
685	1.000000e+00	9.051127e-04	
686	1.050000e+00	9.431053e-04	
687	1.100000e+00	9.804266e-04	
688	1.150000e+00	1.017080e-03	
689	1.200000e+00	1.053067e-03	
690	1.250000e+00	1.088391e-03	
691	1.300000e+00	1.123055e-03	
692	1.350000e+00	1.157062e-03	

Index   v-sweep         -i(vds)         
--------------------------------------------------------------------------------
693	1.400000e+00	1.190413e-03	
694	1.450000e+00	1.223112e-03	
695	1.500000e+00	1.255162e-03	
696	1.550000e+00	1.286564e-03	
697	1.600000e+00	1.317322e-03	
698	1.650000e+00	1.347438e-03	
699	1.700000e+00	1.376915e-03	
700	1.750000e+00	1.405755e-03	
701	1.800000e+00	1.433961e-03	
702	1.850000e+00	1.461535e-03	
703	1.900000e+00	1.488480e-03	
704	1.950000e+00	1.514799e-03	
705	2.000000e+00	1.540493e-03	
706	2.050000e+00	1.565565e-03	
707	2.100000e+00	1.590018e-03	
708	2.150000e+00	1.613854e-03	
709	2.200000e+00	1.637076e-03	
710	2.250000e+00	1.659685e-03	
711	2.300000e+00	1.681685e-03	
712	2.350000e+00	1.703077e-03	
713	2.400000e+00	1.723864e-03	
714	2.450000e+00	1.744048e-03	
715	2.500000e+00	1.763631e-03	
716	2.550000e+00	1.782616e-03	
717	2.600000e+00	1.801004e-03	
718	2.650000e+00	1.818797e-03	
719	2.700000e+00	1.835998e-03	
720	2.750000e+00	1.852608e-03	
721	2.800000e+00	1.868629e-03	
722	2.850000e+00	1.884064e-03	
723	2.900000e+00	1.898912e-03	
724	2.950000e+00	1.913176e-03	
725	3.000000e+00	1.926857e-03	
726	3.050000e+00	1.939956e-03	
727	3.100000e+00	1.952473e-03	
728	3.150000e+00	1.964409e-03	
729	3.200000e+00	1.975763e-03	
730	3.250000e+00	1.986535e-03	
731	3.300000e+00	1.996722e-03	
732	3.350000e+00	2.006323e-03	
733	3.400000e+00	2.015335e-03	
734	3.450000e+00	2.023753e-03	
735	3.500000e+00	2.031572e-03	
736	3.550000e+00	2.038786e-03	
737	3.600000e+00	2.045390e-03	
738	3.650000e+00	2.051380e-03	
739	3.700000e+00	2.056758e-03	
740	3.750000e+00	2.061530e-03	
741	3.800000e+00	2.065716e-03	
742	3.850000e+00	2.069348e-03	
743	3.900000e+00	2.072473e-03	
744	3.950000e+00	2.075145e-03	
745	4.000000e+00	2.077425e-03	
746	4.050000e+00	2.079374e-03	
747	4.100000e+00	2.081046e-03	
748	4.150000e+00	2.082490e-03	
749	4.200000e+00	2.083747e-03	
750	4.250000e+00	2.084850e-03	

Index   v-sweep         -i(vds)         
--------------------------------------------------------------------------------
751	4.300000e+00	2.085826e-03	
752	4.350000e+00	2.086697e-03	
753	4.400000e+00	2.087480e-03	
754	4.450000e+00	2.088189e-03	
755	4.500000e+00	2.088836e-03	
756	4.550000e+00	2.089429e-03	
757	4.600000e+00	2.089977e-03	
758	4.650000e+00	2.090485e-03	
759	4.700000e+00	2.090959e-03	
760	4.750000e+00	2.091403e-03	
761	4.800000e+00	2.091820e-03	
762	4.850000e+00	2.092213e-03	
763	4.900000e+00	2.092586e-03	
764	4.950000e+00	2.092940e-03	
765	5.000000e+00	2.093277e-03	
766	5.050000e+00	2.093599e-03	
767	5.100000e+00	2.093908e-03	
768	5.150000e+00	2.094203e-03	
769	5.200000e+00	2.094488e-03	
770	5.250000e+00	2.094761e-03	
771	5.300000e+00	2.095026e-03	
772	5.350000e+00	2.095281e-03	
773	5.400000e+00	2.095528e-03	
774	5.450000e+00	2.095768e-03	
775	5.500000e+00	2.096001e-03	
776	5.550000e+00	2.096227e-03	
777	5.600000e+00	2.096447e-03	
778	5.650000e+00	2.096662e-03	
779	5.700000e+00	2.096871e-03	
780	5.750000e+00	2.097075e-03	
781	5.800000e+00	2.097275e-03	
782	5.850000e+00	2.097470e-03	
783	5.900000e+00	2.097662e-03	
784	5.950000e+00	2.097850e-03	
785	6.000000e+00	2.098035e-03	
786	6.050000e+00	2.098217e-03	
787	6.100000e+00	2.098397e-03	
788	6.150000e+00	2.098574e-03	
789	6.200000e+00	2.098751e-03	
790	6.250000e+00	2.098926e-03	
791	6.300000e+00	2.099102e-03	
792	6.350000e+00	2.099278e-03	
793	6.400000e+00	2.099457e-03	
794	6.450000e+00	2.099638e-03	
795	6.500000e+00	2.099824e-03	
796	6.550000e+00	2.100016e-03	
797	6.600000e+00	2.100216e-03	
Note: No ".plot", ".print", or ".fourier" lines; no simulations run
