
Note: Compatibility modes selected: hs

Warning: m=xx on .subckt line will override multiplier m hierarchy!


Circuit: ***************************

Doing analysis at TEMP = 125.000000 and TNOM = 125.000000


No. of Data Rows : 798
                          ***************************
                          DC transfer characteristic  Mon Jan  9 13:58:37  2023
--------------------------------------------------------------------------------
Index   v-sweep         -i(vds)         
--------------------------------------------------------------------------------
0	0.000000e+00	-5.25776e-24	
1	5.000000e-02	1.421971e-05	
2	1.000000e-01	2.564109e-05	
3	1.500000e-01	3.441220e-05	
4	2.000000e-01	4.069290e-05	
5	2.500000e-01	4.479143e-05	
6	3.000000e-01	4.732811e-05	
7	3.500000e-01	4.905217e-05	
8	4.000000e-01	5.041585e-05	
9	4.500000e-01	5.159489e-05	
10	5.000000e-01	5.265752e-05	
11	5.500000e-01	5.363661e-05	
12	6.000000e-01	5.455136e-05	
13	6.500000e-01	5.541450e-05	
14	7.000000e-01	5.623512e-05	
15	7.500000e-01	5.702002e-05	
16	8.000000e-01	5.777447e-05	
17	8.500000e-01	5.850266e-05	
18	9.000000e-01	5.920797e-05	
19	9.500000e-01	5.989317e-05	
20	1.000000e+00	6.056057e-05	
21	1.050000e+00	6.121210e-05	
22	1.100000e+00	6.184943e-05	
23	1.150000e+00	6.247395e-05	
24	1.200000e+00	6.308688e-05	
25	1.250000e+00	6.368928e-05	
26	1.300000e+00	6.428208e-05	
27	1.350000e+00	6.486608e-05	
28	1.400000e+00	6.544200e-05	
29	1.450000e+00	6.601048e-05	
30	1.500000e+00	6.657208e-05	
31	1.550000e+00	6.712732e-05	
32	1.600000e+00	6.767665e-05	
33	1.650000e+00	6.822049e-05	
34	1.700000e+00	6.875919e-05	
35	1.750000e+00	6.929311e-05	
36	1.800000e+00	6.982255e-05	
37	1.850000e+00	7.034779e-05	
38	1.900000e+00	7.086909e-05	
39	1.950000e+00	7.138668e-05	
40	2.000000e+00	7.190079e-05	
41	2.050000e+00	7.241160e-05	
42	2.100000e+00	7.291930e-05	
43	2.150000e+00	7.342407e-05	
44	2.200000e+00	7.392606e-05	
45	2.250000e+00	7.442542e-05	
46	2.300000e+00	7.492229e-05	
47	2.350000e+00	7.541680e-05	
48	2.400000e+00	7.590907e-05	
49	2.450000e+00	7.639921e-05	
50	2.500000e+00	7.688733e-05	
51	2.550000e+00	7.737354e-05	
52	2.600000e+00	7.785795e-05	
53	2.650000e+00	7.834064e-05	
54	2.700000e+00	7.882173e-05	

Index   v-sweep         -i(vds)         
--------------------------------------------------------------------------------
55	2.750000e+00	7.930129e-05	
56	2.800000e+00	7.977945e-05	
57	2.850000e+00	8.025629e-05	
58	2.900000e+00	8.073193e-05	
59	2.950000e+00	8.120646e-05	
60	3.000000e+00	8.168001e-05	
61	3.050000e+00	8.215271e-05	
62	3.100000e+00	8.262467e-05	
63	3.150000e+00	8.309606e-05	
64	3.200000e+00	8.356702e-05	
65	3.250000e+00	8.403773e-05	
66	3.300000e+00	8.450836e-05	
67	3.350000e+00	8.497914e-05	
68	3.400000e+00	8.545027e-05	
69	3.450000e+00	8.592200e-05	
70	3.500000e+00	8.639460e-05	
71	3.550000e+00	8.686837e-05	
72	3.600000e+00	8.734361e-05	
73	3.650000e+00	8.782068e-05	
74	3.700000e+00	8.829994e-05	
75	3.750000e+00	8.878182e-05	
76	3.800000e+00	8.926673e-05	
77	3.850000e+00	8.975517e-05	
78	3.900000e+00	9.024764e-05	
79	3.950000e+00	9.074469e-05	
80	4.000000e+00	9.124691e-05	
81	4.050000e+00	9.175491e-05	
82	4.100000e+00	9.226938e-05	
83	4.150000e+00	9.279103e-05	
84	4.200000e+00	9.332060e-05	
85	4.250000e+00	9.385891e-05	
86	4.300000e+00	9.440679e-05	
87	4.350000e+00	9.496515e-05	
88	4.400000e+00	9.553492e-05	
89	4.450000e+00	9.611709e-05	
90	4.500000e+00	9.671271e-05	
91	4.550000e+00	9.732285e-05	
92	4.600000e+00	9.794867e-05	
93	4.650000e+00	9.859135e-05	
94	4.700000e+00	9.925213e-05	
95	4.750000e+00	9.993230e-05	
96	4.800000e+00	1.006332e-04	
97	4.850000e+00	1.013562e-04	
98	4.900000e+00	1.021028e-04	
99	4.950000e+00	1.028745e-04	
100	5.000000e+00	1.036728e-04	
101	5.050000e+00	1.044993e-04	
102	5.100000e+00	1.053556e-04	
103	5.150000e+00	1.062435e-04	
104	5.200000e+00	1.071647e-04	
105	5.250000e+00	1.081210e-04	
106	5.300000e+00	1.091143e-04	
107	5.350000e+00	1.101464e-04	
108	5.400000e+00	1.112193e-04	
109	5.450000e+00	1.123349e-04	
110	5.500000e+00	1.134953e-04	
111	5.550000e+00	1.147026e-04	
112	5.600000e+00	1.159590e-04	

Index   v-sweep         -i(vds)         
--------------------------------------------------------------------------------
113	5.650000e+00	1.172664e-04	
114	5.700000e+00	1.186273e-04	
115	5.750000e+00	1.200438e-04	
116	5.800000e+00	1.215182e-04	
117	5.850000e+00	1.230528e-04	
118	5.900000e+00	1.246501e-04	
119	5.950000e+00	1.263124e-04	
120	6.000000e+00	1.280422e-04	
121	6.050000e+00	1.298419e-04	
122	6.100000e+00	1.317141e-04	
123	6.150000e+00	1.336613e-04	
124	6.200000e+00	1.356861e-04	
125	6.250000e+00	1.377911e-04	
126	6.300000e+00	1.399789e-04	
127	6.350000e+00	1.422523e-04	
128	6.400000e+00	1.446139e-04	
129	6.450000e+00	1.470665e-04	
130	6.500000e+00	1.496128e-04	
131	6.550000e+00	1.522555e-04	
132	6.600000e+00	1.549976e-04	
133	0.000000e+00	-5.03147e-24	
134	5.000000e-02	4.333409e-05	
135	1.000000e-01	8.364587e-05	
136	1.500000e-01	1.210529e-04	
137	2.000000e-01	1.556351e-04	
138	2.500000e-01	1.874615e-04	
139	3.000000e-01	2.165973e-04	
140	3.500000e-01	2.431066e-04	
141	4.000000e-01	2.670526e-04	
142	4.500000e-01	2.884997e-04	
143	5.000000e-01	3.075142e-04	
144	5.500000e-01	3.241686e-04	
145	6.000000e-01	3.385482e-04	
146	6.500000e-01	3.507655e-04	
147	7.000000e-01	3.609849e-04	
148	7.500000e-01	3.694499e-04	
149	8.000000e-01	3.764773e-04	
150	8.500000e-01	3.823957e-04	
151	9.000000e-01	3.874810e-04	
152	9.500000e-01	3.919370e-04	
153	1.000000e+00	3.959079e-04	
154	1.050000e+00	3.994960e-04	
155	1.100000e+00	4.027753e-04	
156	1.150000e+00	4.058009e-04	
157	1.200000e+00	4.086144e-04	
158	1.250000e+00	4.112483e-04	
159	1.300000e+00	4.137280e-04	
160	1.350000e+00	4.160741e-04	
161	1.400000e+00	4.183033e-04	
162	1.450000e+00	4.204294e-04	
163	1.500000e+00	4.224640e-04	
164	1.550000e+00	4.244167e-04	
165	1.600000e+00	4.262958e-04	
166	1.650000e+00	4.281083e-04	
167	1.700000e+00	4.298604e-04	
168	1.750000e+00	4.315574e-04	
169	1.800000e+00	4.332039e-04	
170	1.850000e+00	4.348040e-04	

Index   v-sweep         -i(vds)         
--------------------------------------------------------------------------------
171	1.900000e+00	4.363613e-04	
172	1.950000e+00	4.378791e-04	
173	2.000000e+00	4.393602e-04	
174	2.050000e+00	4.408071e-04	
175	2.100000e+00	4.422222e-04	
176	2.150000e+00	4.436076e-04	
177	2.200000e+00	4.449652e-04	
178	2.250000e+00	4.462966e-04	
179	2.300000e+00	4.476035e-04	
180	2.350000e+00	4.488873e-04	
181	2.400000e+00	4.501492e-04	
182	2.450000e+00	4.513906e-04	
183	2.500000e+00	4.526124e-04	
184	2.550000e+00	4.538157e-04	
185	2.600000e+00	4.550015e-04	
186	2.650000e+00	4.561707e-04	
187	2.700000e+00	4.573240e-04	
188	2.750000e+00	4.584623e-04	
189	2.800000e+00	4.595862e-04	
190	2.850000e+00	4.606964e-04	
191	2.900000e+00	4.617936e-04	
192	2.950000e+00	4.628784e-04	
193	3.000000e+00	4.639513e-04	
194	3.050000e+00	4.650129e-04	
195	3.100000e+00	4.660637e-04	
196	3.150000e+00	4.671044e-04	
197	3.200000e+00	4.681354e-04	
198	3.250000e+00	4.691573e-04	
199	3.300000e+00	4.701706e-04	
200	3.350000e+00	4.711759e-04	
201	3.400000e+00	4.721738e-04	
202	3.450000e+00	4.731649e-04	
203	3.500000e+00	4.741499e-04	
204	3.550000e+00	4.751295e-04	
205	3.600000e+00	4.761044e-04	
206	3.650000e+00	4.770754e-04	
207	3.700000e+00	4.780436e-04	
208	3.750000e+00	4.790097e-04	
209	3.800000e+00	4.799749e-04	
210	3.850000e+00	4.809403e-04	
211	3.900000e+00	4.819072e-04	
212	3.950000e+00	4.828769e-04	
213	4.000000e+00	4.838509e-04	
214	4.050000e+00	4.848308e-04	
215	4.100000e+00	4.858183e-04	
216	4.150000e+00	4.868153e-04	
217	4.200000e+00	4.878239e-04	
218	4.250000e+00	4.888460e-04	
219	4.300000e+00	4.898842e-04	
220	4.350000e+00	4.909409e-04	
221	4.400000e+00	4.920187e-04	
222	4.450000e+00	4.931205e-04	
223	4.500000e+00	4.942494e-04	
224	4.550000e+00	4.954084e-04	
225	4.600000e+00	4.966010e-04	
226	4.650000e+00	4.978308e-04	
227	4.700000e+00	4.991015e-04	
228	4.750000e+00	5.004171e-04	

Index   v-sweep         -i(vds)         
--------------------------------------------------------------------------------
229	4.800000e+00	5.017818e-04	
230	4.850000e+00	5.032000e-04	
231	4.900000e+00	5.046761e-04	
232	4.950000e+00	5.062151e-04	
233	5.000000e+00	5.078217e-04	
234	5.050000e+00	5.095013e-04	
235	5.100000e+00	5.112591e-04	
236	5.150000e+00	5.131008e-04	
237	5.200000e+00	5.150320e-04	
238	5.250000e+00	5.170587e-04	
239	5.300000e+00	5.191871e-04	
240	5.350000e+00	5.214236e-04	
241	5.400000e+00	5.237745e-04	
242	5.450000e+00	5.262466e-04	
243	5.500000e+00	5.288468e-04	
244	5.550000e+00	5.315821e-04	
245	5.600000e+00	5.344597e-04	
246	5.650000e+00	5.374870e-04	
247	5.700000e+00	5.406715e-04	
248	5.750000e+00	5.440210e-04	
249	5.800000e+00	5.475432e-04	
250	5.850000e+00	5.512461e-04	
251	5.900000e+00	5.551379e-04	
252	5.950000e+00	5.592267e-04	
253	6.000000e+00	5.635210e-04	
254	6.050000e+00	5.680292e-04	
255	6.100000e+00	5.727600e-04	
256	6.150000e+00	5.777219e-04	
257	6.200000e+00	5.829240e-04	
258	6.250000e+00	5.883749e-04	
259	6.300000e+00	5.940838e-04	
260	6.350000e+00	6.000597e-04	
261	6.400000e+00	6.063117e-04	
262	6.450000e+00	6.128490e-04	
263	6.500000e+00	6.196810e-04	
264	6.550000e+00	6.268169e-04	
265	6.600000e+00	6.342660e-04	
266	0.000000e+00	-3.17595e-20	
267	5.000000e-02	6.377762e-05	
268	1.000000e-01	1.245837e-04	
269	1.500000e-01	1.825252e-04	
270	2.000000e-01	2.376740e-04	
271	2.500000e-01	2.900912e-04	
272	3.000000e-01	3.398345e-04	
273	3.500000e-01	3.869594e-04	
274	4.000000e-01	4.315204e-04	
275	4.500000e-01	4.735705e-04	
276	5.000000e-01	5.131619e-04	
277	5.500000e-01	5.503456e-04	
278	6.000000e-01	5.851719e-04	
279	6.500000e-01	6.176899e-04	
280	7.000000e-01	6.479481e-04	
281	7.500000e-01	6.759944e-04	
282	8.000000e-01	7.018759e-04	
283	8.500000e-01	7.256395e-04	
284	9.000000e-01	7.473316e-04	
285	9.500000e-01	7.669990e-04	
286	1.000000e+00	7.846900e-04	

Index   v-sweep         -i(vds)         
--------------------------------------------------------------------------------
287	1.050000e+00	8.004584e-04	
288	1.100000e+00	8.143736e-04	
289	1.150000e+00	8.265410e-04	
290	1.200000e+00	8.371206e-04	
291	1.250000e+00	8.463230e-04	
292	1.300000e+00	8.543765e-04	
293	1.350000e+00	8.614926e-04	
294	1.400000e+00	8.678478e-04	
295	1.450000e+00	8.735829e-04	
296	1.500000e+00	8.788076e-04	
297	1.550000e+00	8.836070e-04	
298	1.600000e+00	8.880482e-04	
299	1.650000e+00	8.921840e-04	
300	1.700000e+00	8.960570e-04	
301	1.750000e+00	8.997016e-04	
302	1.800000e+00	9.031459e-04	
303	1.850000e+00	9.064135e-04	
304	1.900000e+00	9.095239e-04	
305	1.950000e+00	9.124936e-04	
306	2.000000e+00	9.153369e-04	
307	2.050000e+00	9.180657e-04	
308	2.100000e+00	9.206906e-04	
309	2.150000e+00	9.232207e-04	
310	2.200000e+00	9.256639e-04	
311	2.250000e+00	9.280273e-04	
312	2.300000e+00	9.303171e-04	
313	2.350000e+00	9.325388e-04	
314	2.400000e+00	9.346973e-04	
315	2.450000e+00	9.367971e-04	
316	2.500000e+00	9.388420e-04	
317	2.550000e+00	9.408358e-04	
318	2.600000e+00	9.427816e-04	
319	2.650000e+00	9.446823e-04	
320	2.700000e+00	9.465408e-04	
321	2.750000e+00	9.483594e-04	
322	2.800000e+00	9.501403e-04	
323	2.850000e+00	9.518857e-04	
324	2.900000e+00	9.535974e-04	
325	2.950000e+00	9.552773e-04	
326	3.000000e+00	9.569269e-04	
327	3.050000e+00	9.585477e-04	
328	3.100000e+00	9.601412e-04	
329	3.150000e+00	9.617086e-04	
330	3.200000e+00	9.632513e-04	
331	3.250000e+00	9.647703e-04	
332	3.300000e+00	9.662668e-04	
333	3.350000e+00	9.677419e-04	
334	3.400000e+00	9.691965e-04	
335	3.450000e+00	9.706316e-04	
336	3.500000e+00	9.720483e-04	
337	3.550000e+00	9.734475e-04	
338	3.600000e+00	9.748301e-04	
339	3.650000e+00	9.761972e-04	
340	3.700000e+00	9.775497e-04	
341	3.750000e+00	9.788888e-04	
342	3.800000e+00	9.802156e-04	
343	3.850000e+00	9.815311e-04	
344	3.900000e+00	9.828368e-04	

Index   v-sweep         -i(vds)         
--------------------------------------------------------------------------------
345	3.950000e+00	9.841340e-04	
346	4.000000e+00	9.854241e-04	
347	4.050000e+00	9.867089e-04	
348	4.100000e+00	9.879900e-04	
349	4.150000e+00	9.892694e-04	
350	4.200000e+00	9.905492e-04	
351	4.250000e+00	9.918316e-04	
352	4.300000e+00	9.931193e-04	
353	4.350000e+00	9.944149e-04	
354	4.400000e+00	9.957213e-04	
355	4.450000e+00	9.970419e-04	
356	4.500000e+00	9.983801e-04	
357	4.550000e+00	9.997396e-04	
358	4.600000e+00	1.001125e-03	
359	4.650000e+00	1.002539e-03	
360	4.700000e+00	1.003988e-03	
361	4.750000e+00	1.005477e-03	
362	4.800000e+00	1.007011e-03	
363	4.850000e+00	1.008595e-03	
364	4.900000e+00	1.010235e-03	
365	4.950000e+00	1.011939e-03	
366	5.000000e+00	1.013713e-03	
367	5.050000e+00	1.015563e-03	
368	5.100000e+00	1.017498e-03	
369	5.150000e+00	1.019525e-03	
370	5.200000e+00	1.021653e-03	
371	5.250000e+00	1.023890e-03	
372	5.300000e+00	1.026245e-03	
373	5.350000e+00	1.028728e-03	
374	5.400000e+00	1.031349e-03	
375	5.450000e+00	1.034117e-03	
376	5.500000e+00	1.037044e-03	
377	5.550000e+00	1.040140e-03	
378	5.600000e+00	1.043416e-03	
379	5.650000e+00	1.046885e-03	
380	5.700000e+00	1.050557e-03	
381	5.750000e+00	1.054446e-03	
382	5.800000e+00	1.058563e-03	
383	5.850000e+00	1.062923e-03	
384	5.900000e+00	1.067537e-03	
385	5.950000e+00	1.072420e-03	
386	6.000000e+00	1.077586e-03	
387	6.050000e+00	1.083048e-03	
388	6.100000e+00	1.088822e-03	
389	6.150000e+00	1.094921e-03	
390	6.200000e+00	1.101360e-03	
391	6.250000e+00	1.108155e-03	
392	6.300000e+00	1.115321e-03	
393	6.350000e+00	1.122873e-03	
394	6.400000e+00	1.130827e-03	
395	6.450000e+00	1.139199e-03	
396	6.500000e+00	1.148004e-03	
397	6.550000e+00	1.157260e-03	
398	6.600000e+00	1.166982e-03	
399	0.000000e+00	-7.83613e-20	
400	5.000000e-02	7.801176e-05	
401	1.000000e-01	1.532243e-04	
402	1.500000e-01	2.257323e-04	

Index   v-sweep         -i(vds)         
--------------------------------------------------------------------------------
403	2.000000e-01	2.955971e-04	
404	2.500000e-01	3.628703e-04	
405	3.000000e-01	4.275998e-04	
406	3.500000e-01	4.898323e-04	
407	4.000000e-01	5.496132e-04	
408	4.500000e-01	6.069870e-04	
409	5.000000e-01	6.619976e-04	
410	5.500000e-01	7.146879e-04	
411	6.000000e-01	7.650999e-04	
412	6.500000e-01	8.132750e-04	
413	7.000000e-01	8.592538e-04	
414	7.500000e-01	9.030759e-04	
415	8.000000e-01	9.447806e-04	
416	8.500000e-01	9.844062e-04	
417	9.000000e-01	1.021990e-03	
418	9.500000e-01	1.057570e-03	
419	1.000000e+00	1.091180e-03	
420	1.050000e+00	1.122858e-03	
421	1.100000e+00	1.152636e-03	
422	1.150000e+00	1.180546e-03	
423	1.200000e+00	1.206620e-03	
424	1.250000e+00	1.230884e-03	
425	1.300000e+00	1.253360e-03	
426	1.350000e+00	1.274061e-03	
427	1.400000e+00	1.292997e-03	
428	1.450000e+00	1.310172e-03	
429	1.500000e+00	1.325607e-03	
430	1.550000e+00	1.339365e-03	
431	1.600000e+00	1.351570e-03	
432	1.650000e+00	1.362395e-03	
433	1.700000e+00	1.372035e-03	
434	1.750000e+00	1.380676e-03	
435	1.800000e+00	1.388483e-03	
436	1.850000e+00	1.395590e-03	
437	1.900000e+00	1.402109e-03	
438	1.950000e+00	1.408127e-03	
439	2.000000e+00	1.413717e-03	
440	2.050000e+00	1.418937e-03	
441	2.100000e+00	1.423836e-03	
442	2.150000e+00	1.428452e-03	
443	2.200000e+00	1.432818e-03	
444	2.250000e+00	1.436963e-03	
445	2.300000e+00	1.440908e-03	
446	2.350000e+00	1.444675e-03	
447	2.400000e+00	1.448281e-03	
448	2.450000e+00	1.451740e-03	
449	2.500000e+00	1.455065e-03	
450	2.550000e+00	1.458268e-03	
451	2.600000e+00	1.461357e-03	
452	2.650000e+00	1.464344e-03	
453	2.700000e+00	1.467234e-03	
454	2.750000e+00	1.470035e-03	
455	2.800000e+00	1.472754e-03	
456	2.850000e+00	1.475395e-03	
457	2.900000e+00	1.477964e-03	
458	2.950000e+00	1.480466e-03	
459	3.000000e+00	1.482905e-03	
460	3.050000e+00	1.485283e-03	

Index   v-sweep         -i(vds)         
--------------------------------------------------------------------------------
461	3.100000e+00	1.487606e-03	
462	3.150000e+00	1.489876e-03	
463	3.200000e+00	1.492096e-03	
464	3.250000e+00	1.494269e-03	
465	3.300000e+00	1.496397e-03	
466	3.350000e+00	1.498483e-03	
467	3.400000e+00	1.500528e-03	
468	3.450000e+00	1.502534e-03	
469	3.500000e+00	1.504504e-03	
470	3.550000e+00	1.506440e-03	
471	3.600000e+00	1.508342e-03	
472	3.650000e+00	1.510212e-03	
473	3.700000e+00	1.512053e-03	
474	3.750000e+00	1.513864e-03	
475	3.800000e+00	1.515649e-03	
476	3.850000e+00	1.517407e-03	
477	3.900000e+00	1.519141e-03	
478	3.950000e+00	1.520852e-03	
479	4.000000e+00	1.522541e-03	
480	4.050000e+00	1.524210e-03	
481	4.100000e+00	1.525860e-03	
482	4.150000e+00	1.527492e-03	
483	4.200000e+00	1.529110e-03	
484	4.250000e+00	1.530713e-03	
485	4.300000e+00	1.532306e-03	
486	4.350000e+00	1.533888e-03	
487	4.400000e+00	1.535464e-03	
488	4.450000e+00	1.537035e-03	
489	4.500000e+00	1.538604e-03	
490	4.550000e+00	1.540174e-03	
491	4.600000e+00	1.541750e-03	
492	4.650000e+00	1.543334e-03	
493	4.700000e+00	1.544930e-03	
494	4.750000e+00	1.546544e-03	
495	4.800000e+00	1.548179e-03	
496	4.850000e+00	1.549841e-03	
497	4.900000e+00	1.551536e-03	
498	4.950000e+00	1.553269e-03	
499	5.000000e+00	1.555048e-03	
500	5.050000e+00	1.556879e-03	
501	5.100000e+00	1.558769e-03	
502	5.150000e+00	1.560727e-03	
503	5.200000e+00	1.562761e-03	
504	5.250000e+00	1.564881e-03	
505	5.300000e+00	1.567095e-03	
506	5.350000e+00	1.569415e-03	
507	5.400000e+00	1.571850e-03	
508	5.450000e+00	1.574413e-03	
509	5.500000e+00	1.577114e-03	
510	5.550000e+00	1.579967e-03	
511	5.600000e+00	1.582984e-03	
512	5.650000e+00	1.586179e-03	
513	5.700000e+00	1.589567e-03	
514	5.750000e+00	1.593161e-03	
515	5.800000e+00	1.596977e-03	
516	5.850000e+00	1.601031e-03	
517	5.900000e+00	1.605339e-03	
518	5.950000e+00	1.609918e-03	

Index   v-sweep         -i(vds)         
--------------------------------------------------------------------------------
519	6.000000e+00	1.614785e-03	
520	6.050000e+00	1.619959e-03	
521	6.100000e+00	1.625457e-03	
522	6.150000e+00	1.631298e-03	
523	6.200000e+00	1.637503e-03	
524	6.250000e+00	1.644089e-03	
525	6.300000e+00	1.651079e-03	
526	6.350000e+00	1.658491e-03	
527	6.400000e+00	1.666347e-03	
528	6.450000e+00	1.674668e-03	
529	6.500000e+00	1.683477e-03	
530	6.550000e+00	1.692793e-03	
531	6.600000e+00	1.702641e-03	
532	0.000000e+00	1.070786e-19	
533	5.000000e-02	8.745928e-05	
534	1.000000e-01	1.723534e-04	
535	1.500000e-01	2.547658e-04	
536	2.000000e-01	3.347481e-04	
537	2.500000e-01	4.123422e-04	
538	3.000000e-01	4.875869e-04	
539	3.500000e-01	5.605199e-04	
540	4.000000e-01	6.311779e-04	
541	4.500000e-01	6.995971e-04	
542	5.000000e-01	7.658130e-04	
543	5.500000e-01	8.298608e-04	
544	6.000000e-01	8.917748e-04	
545	6.500000e-01	9.515889e-04	
546	7.000000e-01	1.009336e-03	
547	7.500000e-01	1.065050e-03	
548	8.000000e-01	1.118762e-03	
549	8.500000e-01	1.170504e-03	
550	9.000000e-01	1.220307e-03	
551	9.500000e-01	1.268201e-03	
552	1.000000e+00	1.314218e-03	
553	1.050000e+00	1.358386e-03	
554	1.100000e+00	1.400735e-03	
555	1.150000e+00	1.441293e-03	
556	1.200000e+00	1.480088e-03	
557	1.250000e+00	1.517149e-03	
558	1.300000e+00	1.552501e-03	
559	1.350000e+00	1.586171e-03	
560	1.400000e+00	1.618183e-03	
561	1.450000e+00	1.648561e-03	
562	1.500000e+00	1.677326e-03	
563	1.550000e+00	1.704495e-03	
564	1.600000e+00	1.730082e-03	
565	1.650000e+00	1.754092e-03	
566	1.700000e+00	1.776521e-03	
567	1.750000e+00	1.797354e-03	
568	1.800000e+00	1.816567e-03	
569	1.850000e+00	1.834143e-03	
570	1.900000e+00	1.850096e-03	
571	1.950000e+00	1.864487e-03	
572	2.000000e+00	1.877435e-03	
573	2.050000e+00	1.889095e-03	
574	2.100000e+00	1.899631e-03	
575	2.150000e+00	1.909203e-03	
576	2.200000e+00	1.917951e-03	

Index   v-sweep         -i(vds)         
--------------------------------------------------------------------------------
577	2.250000e+00	1.925993e-03	
578	2.300000e+00	1.933430e-03	
579	2.350000e+00	1.940343e-03	
580	2.400000e+00	1.946801e-03	
581	2.450000e+00	1.952861e-03	
582	2.500000e+00	1.958570e-03	
583	2.550000e+00	1.963968e-03	
584	2.600000e+00	1.969089e-03	
585	2.650000e+00	1.973960e-03	
586	2.700000e+00	1.978608e-03	
587	2.750000e+00	1.983052e-03	
588	2.800000e+00	1.987311e-03	
589	2.850000e+00	1.991402e-03	
590	2.900000e+00	1.995338e-03	
591	2.950000e+00	1.999131e-03	
592	3.000000e+00	2.002794e-03	
593	3.050000e+00	2.006335e-03	
594	3.100000e+00	2.009764e-03	
595	3.150000e+00	2.013087e-03	
596	3.200000e+00	2.016313e-03	
597	3.250000e+00	2.019447e-03	
598	3.300000e+00	2.022496e-03	
599	3.350000e+00	2.025464e-03	
600	3.400000e+00	2.028357e-03	
601	3.450000e+00	2.031178e-03	
602	3.500000e+00	2.033933e-03	
603	3.550000e+00	2.036623e-03	
604	3.600000e+00	2.039254e-03	
605	3.650000e+00	2.041828e-03	
606	3.700000e+00	2.044347e-03	
607	3.750000e+00	2.046815e-03	
608	3.800000e+00	2.049235e-03	
609	3.850000e+00	2.051607e-03	
610	3.900000e+00	2.053936e-03	
611	3.950000e+00	2.056222e-03	
612	4.000000e+00	2.058468e-03	
613	4.050000e+00	2.060675e-03	
614	4.100000e+00	2.062846e-03	
615	4.150000e+00	2.064982e-03	
616	4.200000e+00	2.067085e-03	
617	4.250000e+00	2.069157e-03	
618	4.300000e+00	2.071199e-03	
619	4.350000e+00	2.073214e-03	
620	4.400000e+00	2.075202e-03	
621	4.450000e+00	2.077167e-03	
622	4.500000e+00	2.079110e-03	
623	4.550000e+00	2.081033e-03	
624	4.600000e+00	2.082939e-03	
625	4.650000e+00	2.084830e-03	
626	4.700000e+00	2.086709e-03	
627	4.750000e+00	2.088580e-03	
628	4.800000e+00	2.090445e-03	
629	4.850000e+00	2.092308e-03	
630	4.900000e+00	2.094173e-03	
631	4.950000e+00	2.096046e-03	
632	5.000000e+00	2.097930e-03	
633	5.050000e+00	2.099830e-03	
634	5.100000e+00	2.101754e-03	

Index   v-sweep         -i(vds)         
--------------------------------------------------------------------------------
635	5.150000e+00	2.103707e-03	
636	5.200000e+00	2.105695e-03	
637	5.250000e+00	2.107727e-03	
638	5.300000e+00	2.109810e-03	
639	5.350000e+00	2.111953e-03	
640	5.400000e+00	2.114166e-03	
641	5.450000e+00	2.116457e-03	
642	5.500000e+00	2.118838e-03	
643	5.550000e+00	2.121321e-03	
644	5.600000e+00	2.123916e-03	
645	5.650000e+00	2.126638e-03	
646	5.700000e+00	2.129499e-03	
647	5.750000e+00	2.132513e-03	
648	5.800000e+00	2.135696e-03	
649	5.850000e+00	2.139064e-03	
650	5.900000e+00	2.142632e-03	
651	5.950000e+00	2.146419e-03	
652	6.000000e+00	2.150442e-03	
653	6.050000e+00	2.154719e-03	
654	6.100000e+00	2.159271e-03	
655	6.150000e+00	2.164117e-03	
656	6.200000e+00	2.169279e-03	
657	6.250000e+00	2.174779e-03	
658	6.300000e+00	2.180637e-03	
659	6.350000e+00	2.186878e-03	
660	6.400000e+00	2.193525e-03	
661	6.450000e+00	2.200603e-03	
662	6.500000e+00	2.208136e-03	
663	6.550000e+00	2.216149e-03	
664	6.600000e+00	2.224669e-03	
665	0.000000e+00	-2.49455e-19	
666	5.000000e-02	9.331454e-05	
667	1.000000e-01	1.843171e-04	
668	1.500000e-01	2.730819e-04	
669	2.000000e-01	3.596521e-04	
670	2.500000e-01	4.440617e-04	
671	3.000000e-01	5.263415e-04	
672	3.500000e-01	6.065214e-04	
673	4.000000e-01	6.846306e-04	
674	4.500000e-01	7.606981e-04	
675	5.000000e-01	8.347521e-04	
676	5.500000e-01	9.068207e-04	
677	6.000000e-01	9.769316e-04	
678	6.500000e-01	1.045112e-03	
679	7.000000e-01	1.111389e-03	
680	7.500000e-01	1.175788e-03	
681	8.000000e-01	1.238337e-03	
682	8.500000e-01	1.299060e-03	
683	9.000000e-01	1.357983e-03	
684	9.500000e-01	1.415130e-03	
685	1.000000e+00	1.470527e-03	
686	1.050000e+00	1.524198e-03	
687	1.100000e+00	1.576166e-03	
688	1.150000e+00	1.626456e-03	
689	1.200000e+00	1.675089e-03	
690	1.250000e+00	1.722090e-03	
691	1.300000e+00	1.767480e-03	
692	1.350000e+00	1.811283e-03	

Index   v-sweep         -i(vds)         
--------------------------------------------------------------------------------
693	1.400000e+00	1.853519e-03	
694	1.450000e+00	1.894211e-03	
695	1.500000e+00	1.933380e-03	
696	1.550000e+00	1.971046e-03	
697	1.600000e+00	2.007229e-03	
698	1.650000e+00	2.041949e-03	
699	1.700000e+00	2.075226e-03	
700	1.750000e+00	2.107075e-03	
701	1.800000e+00	2.137514e-03	
702	1.850000e+00	2.166555e-03	
703	1.900000e+00	2.194209e-03	
704	1.950000e+00	2.220481e-03	
705	2.000000e+00	2.245370e-03	
706	2.050000e+00	2.268863e-03	
707	2.100000e+00	2.290938e-03	
708	2.150000e+00	2.311564e-03	
709	2.200000e+00	2.330706e-03	
710	2.250000e+00	2.348347e-03	
711	2.300000e+00	2.364506e-03	
712	2.350000e+00	2.379245e-03	
713	2.400000e+00	2.392671e-03	
714	2.450000e+00	2.404917e-03	
715	2.500000e+00	2.416118e-03	
716	2.550000e+00	2.426408e-03	
717	2.600000e+00	2.435903e-03	
718	2.650000e+00	2.444708e-03	
719	2.700000e+00	2.452910e-03	
720	2.750000e+00	2.460583e-03	
721	2.800000e+00	2.467791e-03	
722	2.850000e+00	2.474585e-03	
723	2.900000e+00	2.481012e-03	
724	2.950000e+00	2.487111e-03	
725	3.000000e+00	2.492913e-03	
726	3.050000e+00	2.498448e-03	
727	3.100000e+00	2.503740e-03	
728	3.150000e+00	2.508812e-03	
729	3.200000e+00	2.513681e-03	
730	3.250000e+00	2.518364e-03	
731	3.300000e+00	2.522877e-03	
732	3.350000e+00	2.527231e-03	
733	3.400000e+00	2.531439e-03	
734	3.450000e+00	2.535512e-03	
735	3.500000e+00	2.539458e-03	
736	3.550000e+00	2.543285e-03	
737	3.600000e+00	2.547002e-03	
738	3.650000e+00	2.550616e-03	
739	3.700000e+00	2.554132e-03	
740	3.750000e+00	2.557557e-03	
741	3.800000e+00	2.560896e-03	
742	3.850000e+00	2.564153e-03	
743	3.900000e+00	2.567333e-03	
744	3.950000e+00	2.570440e-03	
745	4.000000e+00	2.573477e-03	
746	4.050000e+00	2.576449e-03	
747	4.100000e+00	2.579359e-03	
748	4.150000e+00	2.582209e-03	
749	4.200000e+00	2.585003e-03	
750	4.250000e+00	2.587743e-03	

Index   v-sweep         -i(vds)         
--------------------------------------------------------------------------------
751	4.300000e+00	2.590431e-03	
752	4.350000e+00	2.593071e-03	
753	4.400000e+00	2.595663e-03	
754	4.450000e+00	2.598211e-03	
755	4.500000e+00	2.600716e-03	
756	4.550000e+00	2.603182e-03	
757	4.600000e+00	2.605609e-03	
758	4.650000e+00	2.607999e-03	
759	4.700000e+00	2.610356e-03	
760	4.750000e+00	2.612681e-03	
761	4.800000e+00	2.614976e-03	
762	4.850000e+00	2.617245e-03	
763	4.900000e+00	2.619489e-03	
764	4.950000e+00	2.621711e-03	
765	5.000000e+00	2.623916e-03	
766	5.050000e+00	2.626105e-03	
767	5.100000e+00	2.628282e-03	
768	5.150000e+00	2.630452e-03	
769	5.200000e+00	2.632620e-03	
770	5.250000e+00	2.634789e-03	
771	5.300000e+00	2.636965e-03	
772	5.350000e+00	2.639155e-03	
773	5.400000e+00	2.641364e-03	
774	5.450000e+00	2.643599e-03	
775	5.500000e+00	2.645869e-03	
776	5.550000e+00	2.648181e-03	
777	5.600000e+00	2.650544e-03	
778	5.650000e+00	2.652969e-03	
779	5.700000e+00	2.655465e-03	
780	5.750000e+00	2.658044e-03	
781	5.800000e+00	2.660718e-03	
782	5.850000e+00	2.663500e-03	
783	5.900000e+00	2.666404e-03	
784	5.950000e+00	2.669444e-03	
785	6.000000e+00	2.672636e-03	
786	6.050000e+00	2.675997e-03	
787	6.100000e+00	2.679543e-03	
788	6.150000e+00	2.683294e-03	
789	6.200000e+00	2.687268e-03	
790	6.250000e+00	2.691485e-03	
791	6.300000e+00	2.695968e-03	
792	6.350000e+00	2.700738e-03	
793	6.400000e+00	2.705817e-03	
794	6.450000e+00	2.711230e-03	
795	6.500000e+00	2.717002e-03	
796	6.550000e+00	2.723158e-03	
797	6.600000e+00	2.729724e-03	
Note: No ".plot", ".print", or ".fourier" lines; no simulations run
