
Note: Compatibility modes selected: hs

Warning: m=xx on .subckt line will override multiplier m hierarchy!


Circuit: ***************************

Doing analysis at TEMP = 125.000000 and TNOM = 125.000000


No. of Data Rows : 798
                          ***************************
                          DC transfer characteristic  Mon Jan  9 13:58:37  2023
--------------------------------------------------------------------------------
Index   v-sweep         -i(vds)         
--------------------------------------------------------------------------------
0	0.000000e+00	-3.71118e-26	
1	5.000000e-02	9.983892e-07	
2	1.000000e-01	1.856002e-06	
3	1.500000e-01	2.578262e-06	
4	2.000000e-01	3.168611e-06	
5	2.500000e-01	3.630977e-06	
6	3.000000e-01	3.972135e-06	
7	3.500000e-01	4.206463e-06	
8	4.000000e-01	4.361165e-06	
9	4.500000e-01	4.469207e-06	
10	5.000000e-01	4.553436e-06	
11	5.500000e-01	4.624646e-06	
12	6.000000e-01	4.687586e-06	
13	6.500000e-01	4.744623e-06	
14	7.000000e-01	4.797132e-06	
15	7.500000e-01	4.846011e-06	
16	8.000000e-01	4.891894e-06	
17	8.500000e-01	4.935253e-06	
18	9.000000e-01	4.976453e-06	
19	9.500000e-01	5.015782e-06	
20	1.000000e+00	5.053475e-06	
21	1.050000e+00	5.089722e-06	
22	1.100000e+00	5.124683e-06	
23	1.150000e+00	5.158494e-06	
24	1.200000e+00	5.191269e-06	
25	1.250000e+00	5.223106e-06	
26	1.300000e+00	5.254091e-06	
27	1.350000e+00	5.284297e-06	
28	1.400000e+00	5.313790e-06	
29	1.450000e+00	5.342627e-06	
30	1.500000e+00	5.370858e-06	
31	1.550000e+00	5.398530e-06	
32	1.600000e+00	5.425681e-06	
33	1.650000e+00	5.452348e-06	
34	1.700000e+00	5.478565e-06	
35	1.750000e+00	5.504359e-06	
36	1.800000e+00	5.529759e-06	
37	1.850000e+00	5.554789e-06	
38	1.900000e+00	5.579470e-06	
39	1.950000e+00	5.603823e-06	
40	2.000000e+00	5.627867e-06	
41	2.050000e+00	5.651618e-06	
42	2.100000e+00	5.675093e-06	
43	2.150000e+00	5.698306e-06	
44	2.200000e+00	5.721271e-06	
45	2.250000e+00	5.744000e-06	
46	2.300000e+00	5.766504e-06	
47	2.350000e+00	5.788795e-06	
48	2.400000e+00	5.810884e-06	
49	2.450000e+00	5.832778e-06	
50	2.500000e+00	5.854488e-06	
51	2.550000e+00	5.876022e-06	
52	2.600000e+00	5.897389e-06	
53	2.650000e+00	5.918595e-06	
54	2.700000e+00	5.939649e-06	

Index   v-sweep         -i(vds)         
--------------------------------------------------------------------------------
55	2.750000e+00	5.960559e-06	
56	2.800000e+00	5.981331e-06	
57	2.850000e+00	6.001972e-06	
58	2.900000e+00	6.022492e-06	
59	2.950000e+00	6.042896e-06	
60	3.000000e+00	6.063193e-06	
61	3.050000e+00	6.083391e-06	
62	3.100000e+00	6.103498e-06	
63	3.150000e+00	6.123524e-06	
64	3.200000e+00	6.143479e-06	
65	3.250000e+00	6.163373e-06	
66	3.300000e+00	6.183218e-06	
67	3.350000e+00	6.203025e-06	
68	3.400000e+00	6.222809e-06	
69	3.450000e+00	6.242585e-06	
70	3.500000e+00	6.262367e-06	
71	3.550000e+00	6.282174e-06	
72	3.600000e+00	6.302025e-06	
73	3.650000e+00	6.321939e-06	
74	3.700000e+00	6.341941e-06	
75	3.750000e+00	6.362052e-06	
76	3.800000e+00	6.382301e-06	
77	3.850000e+00	6.402715e-06	
78	3.900000e+00	6.423324e-06	
79	3.950000e+00	6.444162e-06	
80	4.000000e+00	6.465262e-06	
81	4.050000e+00	6.486663e-06	
82	4.100000e+00	6.508404e-06	
83	4.150000e+00	6.530529e-06	
84	4.200000e+00	6.553081e-06	
85	4.250000e+00	6.576109e-06	
86	4.300000e+00	6.599663e-06	
87	4.350000e+00	6.623797e-06	
88	4.400000e+00	6.648567e-06	
89	4.450000e+00	6.674031e-06	
90	4.500000e+00	6.700253e-06	
91	4.550000e+00	6.727297e-06	
92	4.600000e+00	6.755230e-06	
93	4.650000e+00	6.784124e-06	
94	4.700000e+00	6.814052e-06	
95	4.750000e+00	6.845092e-06	
96	4.800000e+00	6.877323e-06	
97	4.850000e+00	6.910828e-06	
98	4.900000e+00	6.945693e-06	
99	4.950000e+00	6.982006e-06	
100	5.000000e+00	7.019859e-06	
101	5.050000e+00	7.059346e-06	
102	5.100000e+00	7.100565e-06	
103	5.150000e+00	7.143616e-06	
104	5.200000e+00	7.188601e-06	
105	5.250000e+00	7.235628e-06	
106	5.300000e+00	7.284802e-06	
107	5.350000e+00	7.336237e-06	
108	5.400000e+00	7.390045e-06	
109	5.450000e+00	7.446343e-06	
110	5.500000e+00	7.505248e-06	
111	5.550000e+00	7.566883e-06	
112	5.600000e+00	7.631370e-06	

Index   v-sweep         -i(vds)         
--------------------------------------------------------------------------------
113	5.650000e+00	7.698834e-06	
114	5.700000e+00	7.769405e-06	
115	5.750000e+00	7.843211e-06	
116	5.800000e+00	7.920385e-06	
117	5.850000e+00	8.001061e-06	
118	5.900000e+00	8.085374e-06	
119	5.950000e+00	8.173463e-06	
120	6.000000e+00	8.265467e-06	
121	6.050000e+00	8.361528e-06	
122	6.100000e+00	8.461789e-06	
123	6.150000e+00	8.566393e-06	
124	6.200000e+00	8.675487e-06	
125	6.250000e+00	8.789220e-06	
126	6.300000e+00	8.907738e-06	
127	6.350000e+00	9.031193e-06	
128	6.400000e+00	9.159736e-06	
129	6.450000e+00	9.293519e-06	
130	6.500000e+00	9.432696e-06	
131	6.550000e+00	9.577421e-06	
132	6.600000e+00	9.727849e-06	
133	0.000000e+00	1.503545e-25	
134	5.000000e-02	2.498574e-06	
135	1.000000e-01	4.853935e-06	
136	1.500000e-01	7.071229e-06	
137	2.000000e-01	9.153314e-06	
138	2.500000e-01	1.110242e-05	
139	3.000000e-01	1.292061e-05	
140	3.500000e-01	1.460987e-05	
141	4.000000e-01	1.617218e-05	
142	4.500000e-01	1.760948e-05	
143	5.000000e-01	1.892377e-05	
144	5.500000e-01	2.011708e-05	
145	6.000000e-01	2.119151e-05	
146	6.500000e-01	2.214940e-05	
147	7.000000e-01	2.299344e-05	
148	7.500000e-01	2.372709e-05	
149	8.000000e-01	2.435525e-05	
150	8.500000e-01	2.488542e-05	
151	9.000000e-01	2.532881e-05	
152	9.500000e-01	2.570016e-05	
153	1.000000e+00	2.601513e-05	
154	1.050000e+00	2.628723e-05	
155	1.100000e+00	2.652664e-05	
156	1.150000e+00	2.674063e-05	
157	1.200000e+00	2.693437e-05	
158	1.250000e+00	2.711164e-05	
159	1.300000e+00	2.727524e-05	
160	1.350000e+00	2.742734e-05	
161	1.400000e+00	2.756960e-05	
162	1.450000e+00	2.770337e-05	
163	1.500000e+00	2.782974e-05	
164	1.550000e+00	2.794959e-05	
165	1.600000e+00	2.806366e-05	
166	1.650000e+00	2.817258e-05	
167	1.700000e+00	2.827687e-05	
168	1.750000e+00	2.837697e-05	
169	1.800000e+00	2.847329e-05	
170	1.850000e+00	2.856614e-05	

Index   v-sweep         -i(vds)         
--------------------------------------------------------------------------------
171	1.900000e+00	2.865583e-05	
172	1.950000e+00	2.874262e-05	
173	2.000000e+00	2.882673e-05	
174	2.050000e+00	2.890836e-05	
175	2.100000e+00	2.898769e-05	
176	2.150000e+00	2.906489e-05	
177	2.200000e+00	2.914011e-05	
178	2.250000e+00	2.921346e-05	
179	2.300000e+00	2.928507e-05	
180	2.350000e+00	2.935505e-05	
181	2.400000e+00	2.942350e-05	
182	2.450000e+00	2.949050e-05	
183	2.500000e+00	2.955613e-05	
184	2.550000e+00	2.962048e-05	
185	2.600000e+00	2.968361e-05	
186	2.650000e+00	2.974559e-05	
187	2.700000e+00	2.980646e-05	
188	2.750000e+00	2.986630e-05	
189	2.800000e+00	2.992514e-05	
190	2.850000e+00	2.998304e-05	
191	2.900000e+00	3.004005e-05	
192	2.950000e+00	3.009619e-05	
193	3.000000e+00	3.015152e-05	
194	3.050000e+00	3.020607e-05	
195	3.100000e+00	3.025987e-05	
196	3.150000e+00	3.031296e-05	
197	3.200000e+00	3.036537e-05	
198	3.250000e+00	3.041714e-05	
199	3.300000e+00	3.046829e-05	
200	3.350000e+00	3.051887e-05	
201	3.400000e+00	3.056889e-05	
202	3.450000e+00	3.061840e-05	
203	3.500000e+00	3.066743e-05	
204	3.550000e+00	3.071601e-05	
205	3.600000e+00	3.076419e-05	
206	3.650000e+00	3.081200e-05	
207	3.700000e+00	3.085948e-05	
208	3.750000e+00	3.090669e-05	
209	3.800000e+00	3.095368e-05	
210	3.850000e+00	3.100049e-05	
211	3.900000e+00	3.104720e-05	
212	3.950000e+00	3.109386e-05	
213	4.000000e+00	3.114055e-05	
214	4.050000e+00	3.118734e-05	
215	4.100000e+00	3.123433e-05	
216	4.150000e+00	3.128160e-05	
217	4.200000e+00	3.132925e-05	
218	4.250000e+00	3.137740e-05	
219	4.300000e+00	3.142616e-05	
220	4.350000e+00	3.147565e-05	
221	4.400000e+00	3.152602e-05	
222	4.450000e+00	3.157741e-05	
223	4.500000e+00	3.162998e-05	
224	4.550000e+00	3.168389e-05	
225	4.600000e+00	3.173933e-05	
226	4.650000e+00	3.179648e-05	
227	4.700000e+00	3.185555e-05	
228	4.750000e+00	3.191675e-05	

Index   v-sweep         -i(vds)         
--------------------------------------------------------------------------------
229	4.800000e+00	3.198030e-05	
230	4.850000e+00	3.204644e-05	
231	4.900000e+00	3.211542e-05	
232	4.950000e+00	3.218751e-05	
233	5.000000e+00	3.226297e-05	
234	5.050000e+00	3.234210e-05	
235	5.100000e+00	3.242519e-05	
236	5.150000e+00	3.251255e-05	
237	5.200000e+00	3.260452e-05	
238	5.250000e+00	3.270142e-05	
239	5.300000e+00	3.280361e-05	
240	5.350000e+00	3.291143e-05	
241	5.400000e+00	3.302528e-05	
242	5.450000e+00	3.314553e-05	
243	5.500000e+00	3.327257e-05	
244	5.550000e+00	3.340682e-05	
245	5.600000e+00	3.354869e-05	
246	5.650000e+00	3.369861e-05	
247	5.700000e+00	3.385702e-05	
248	5.750000e+00	3.402438e-05	
249	5.800000e+00	3.420113e-05	
250	5.850000e+00	3.438774e-05	
251	5.900000e+00	3.458471e-05	
252	5.950000e+00	3.479251e-05	
253	6.000000e+00	3.501164e-05	
254	6.050000e+00	3.524260e-05	
255	6.100000e+00	3.548591e-05	
256	6.150000e+00	3.574208e-05	
257	6.200000e+00	3.601165e-05	
258	6.250000e+00	3.629513e-05	
259	6.300000e+00	3.659308e-05	
260	6.350000e+00	3.690604e-05	
261	6.400000e+00	3.723456e-05	
262	6.450000e+00	3.757919e-05	
263	6.500000e+00	3.794050e-05	
264	6.550000e+00	3.831904e-05	
265	6.600000e+00	3.871540e-05	
266	0.000000e+00	-1.91418e-25	
267	5.000000e-02	3.606442e-06	
268	1.000000e-01	7.073799e-06	
269	1.500000e-01	1.040696e-05	
270	2.000000e-01	1.360863e-05	
271	2.500000e-01	1.668090e-05	
272	3.000000e-01	1.962565e-05	
273	3.500000e-01	2.244474e-05	
274	4.000000e-01	2.513994e-05	
275	4.500000e-01	2.771302e-05	
276	5.000000e-01	3.016571e-05	
277	5.500000e-01	3.249972e-05	
278	6.000000e-01	3.471674e-05	
279	6.500000e-01	3.681841e-05	
280	7.000000e-01	3.880639e-05	
281	7.500000e-01	4.068231e-05	
282	8.000000e-01	4.244776e-05	
283	8.500000e-01	4.410436e-05	
284	9.000000e-01	4.565371e-05	
285	9.500000e-01	4.709743e-05	
286	1.000000e+00	4.843714e-05	

Index   v-sweep         -i(vds)         
--------------------------------------------------------------------------------
287	1.050000e+00	4.967452e-05	
288	1.100000e+00	5.081131e-05	
289	1.150000e+00	5.184940e-05	
290	1.200000e+00	5.279094e-05	
291	1.250000e+00	5.363853e-05	
292	1.300000e+00	5.439563e-05	
293	1.350000e+00	5.506707e-05	
294	1.400000e+00	5.565962e-05	
295	1.450000e+00	5.618197e-05	
296	1.500000e+00	5.664393e-05	
297	1.550000e+00	5.705517e-05	
298	1.600000e+00	5.742430e-05	
299	1.650000e+00	5.775848e-05	
300	1.700000e+00	5.806353e-05	
301	1.750000e+00	5.834406e-05	
302	1.800000e+00	5.860376e-05	
303	1.850000e+00	5.884559e-05	
304	1.900000e+00	5.907196e-05	
305	1.950000e+00	5.928482e-05	
306	2.000000e+00	5.948580e-05	
307	2.050000e+00	5.967624e-05	
308	2.100000e+00	5.985729e-05	
309	2.150000e+00	6.002990e-05	
310	2.200000e+00	6.019492e-05	
311	2.250000e+00	6.035304e-05	
312	2.300000e+00	6.050488e-05	
313	2.350000e+00	6.065099e-05	
314	2.400000e+00	6.079183e-05	
315	2.450000e+00	6.092783e-05	
316	2.500000e+00	6.105935e-05	
317	2.550000e+00	6.118672e-05	
318	2.600000e+00	6.131024e-05	
319	2.650000e+00	6.143017e-05	
320	2.700000e+00	6.154674e-05	
321	2.750000e+00	6.166019e-05	
322	2.800000e+00	6.177069e-05	
323	2.850000e+00	6.187843e-05	
324	2.900000e+00	6.198357e-05	
325	2.950000e+00	6.208626e-05	
326	3.000000e+00	6.218663e-05	
327	3.050000e+00	6.228482e-05	
328	3.100000e+00	6.238092e-05	
329	3.150000e+00	6.247507e-05	
330	3.200000e+00	6.256734e-05	
331	3.250000e+00	6.265783e-05	
332	3.300000e+00	6.274663e-05	
333	3.350000e+00	6.283383e-05	
334	3.400000e+00	6.291948e-05	
335	3.450000e+00	6.300367e-05	
336	3.500000e+00	6.308646e-05	
337	3.550000e+00	6.316792e-05	
338	3.600000e+00	6.324810e-05	
339	3.650000e+00	6.332707e-05	
340	3.700000e+00	6.340489e-05	
341	3.750000e+00	6.348161e-05	
342	3.800000e+00	6.355729e-05	
343	3.850000e+00	6.363200e-05	
344	3.900000e+00	6.370579e-05	

Index   v-sweep         -i(vds)         
--------------------------------------------------------------------------------
345	3.950000e+00	6.377872e-05	
346	4.000000e+00	6.385087e-05	
347	4.050000e+00	6.392230e-05	
348	4.100000e+00	6.399309e-05	
349	4.150000e+00	6.406333e-05	
350	4.200000e+00	6.413309e-05	
351	4.250000e+00	6.420248e-05	
352	4.300000e+00	6.427161e-05	
353	4.350000e+00	6.434058e-05	
354	4.400000e+00	6.440953e-05	
355	4.450000e+00	6.447859e-05	
356	4.500000e+00	6.454792e-05	
357	4.550000e+00	6.461769e-05	
358	4.600000e+00	6.468806e-05	
359	4.650000e+00	6.475924e-05	
360	4.700000e+00	6.483144e-05	
361	4.750000e+00	6.490490e-05	
362	4.800000e+00	6.497985e-05	
363	4.850000e+00	6.505658e-05	
364	4.900000e+00	6.513536e-05	
365	4.950000e+00	6.521650e-05	
366	5.000000e+00	6.530035e-05	
367	5.050000e+00	6.538725e-05	
368	5.100000e+00	6.547757e-05	
369	5.150000e+00	6.557171e-05	
370	5.200000e+00	6.567010e-05	
371	5.250000e+00	6.577318e-05	
372	5.300000e+00	6.588142e-05	
373	5.350000e+00	6.599531e-05	
374	5.400000e+00	6.611537e-05	
375	5.450000e+00	6.624215e-05	
376	5.500000e+00	6.637620e-05	
377	5.550000e+00	6.651813e-05	
378	5.600000e+00	6.666855e-05	
379	5.650000e+00	6.682810e-05	
380	5.700000e+00	6.699743e-05	
381	5.750000e+00	6.717725e-05	
382	5.800000e+00	6.736826e-05	
383	5.850000e+00	6.757119e-05	
384	5.900000e+00	6.778680e-05	
385	5.950000e+00	6.801588e-05	
386	6.000000e+00	6.825921e-05	
387	6.050000e+00	6.851762e-05	
388	6.100000e+00	6.879195e-05	
389	6.150000e+00	6.908307e-05	
390	6.200000e+00	6.939185e-05	
391	6.250000e+00	6.971918e-05	
392	6.300000e+00	7.006600e-05	
393	6.350000e+00	7.043321e-05	
394	6.400000e+00	7.082179e-05	
395	6.450000e+00	7.123268e-05	
396	6.500000e+00	7.166686e-05	
397	6.550000e+00	7.212533e-05	
398	6.600000e+00	7.260909e-05	
399	0.000000e+00	3.454194e-25	
400	5.000000e-02	4.422320e-06	
401	1.000000e-01	8.713186e-06	
402	1.500000e-01	1.287715e-05	

Index   v-sweep         -i(vds)         
--------------------------------------------------------------------------------
403	2.000000e-01	1.691664e-05	
404	2.500000e-01	2.083349e-05	
405	3.000000e-01	2.462936e-05	
406	3.500000e-01	2.830585e-05	
407	4.000000e-01	3.186450e-05	
408	4.500000e-01	3.530687e-05	
409	5.000000e-01	3.863444e-05	
410	5.500000e-01	4.184871e-05	
411	6.000000e-01	4.495113e-05	
412	6.500000e-01	4.794314e-05	
413	7.000000e-01	5.082616e-05	
414	7.500000e-01	5.360158e-05	
415	8.000000e-01	5.627078e-05	
416	8.500000e-01	5.883510e-05	
417	9.000000e-01	6.129588e-05	
418	9.500000e-01	6.365446e-05	
419	1.000000e+00	6.591213e-05	
420	1.050000e+00	6.807020e-05	
421	1.100000e+00	7.012994e-05	
422	1.150000e+00	7.209263e-05	
423	1.200000e+00	7.395952e-05	
424	1.250000e+00	7.573188e-05	
425	1.300000e+00	7.741094e-05	
426	1.350000e+00	7.899793e-05	
427	1.400000e+00	8.049406e-05	
428	1.450000e+00	8.190053e-05	
429	1.500000e+00	8.321851e-05	
430	1.550000e+00	8.444912e-05	
431	1.600000e+00	8.559346e-05	
432	1.650000e+00	8.665256e-05	
433	1.700000e+00	8.762752e-05	
434	1.750000e+00	8.851964e-05	
435	1.800000e+00	8.933093e-05	
436	1.850000e+00	9.006471e-05	
437	1.900000e+00	9.072613e-05	
438	1.950000e+00	9.132197e-05	
439	2.000000e+00	9.185998e-05	
440	2.050000e+00	9.234790e-05	
441	2.100000e+00	9.279287e-05	
442	2.150000e+00	9.320108e-05	
443	2.200000e+00	9.357774e-05	
444	2.250000e+00	9.392721e-05	
445	2.300000e+00	9.425308e-05	
446	2.350000e+00	9.455835e-05	
447	2.400000e+00	9.484550e-05	
448	2.450000e+00	9.511662e-05	
449	2.500000e+00	9.537347e-05	
450	2.550000e+00	9.561753e-05	
451	2.600000e+00	9.585009e-05	
452	2.650000e+00	9.607225e-05	
453	2.700000e+00	9.628495e-05	
454	2.750000e+00	9.648903e-05	
455	2.800000e+00	9.668521e-05	
456	2.850000e+00	9.687414e-05	
457	2.900000e+00	9.705638e-05	
458	2.950000e+00	9.723242e-05	
459	3.000000e+00	9.740273e-05	
460	3.050000e+00	9.756770e-05	

Index   v-sweep         -i(vds)         
--------------------------------------------------------------------------------
461	3.100000e+00	9.772769e-05	
462	3.150000e+00	9.788303e-05	
463	3.200000e+00	9.803402e-05	
464	3.250000e+00	9.818093e-05	
465	3.300000e+00	9.832399e-05	
466	3.350000e+00	9.846344e-05	
467	3.400000e+00	9.859947e-05	
468	3.450000e+00	9.873228e-05	
469	3.500000e+00	9.886203e-05	
470	3.550000e+00	9.898889e-05	
471	3.600000e+00	9.911301e-05	
472	3.650000e+00	9.923452e-05	
473	3.700000e+00	9.935355e-05	
474	3.750000e+00	9.947021e-05	
475	3.800000e+00	9.958463e-05	
476	3.850000e+00	9.969690e-05	
477	3.900000e+00	9.980712e-05	
478	3.950000e+00	9.991538e-05	
479	4.000000e+00	1.000218e-04	
480	4.050000e+00	1.001264e-04	
481	4.100000e+00	1.002293e-04	
482	4.150000e+00	1.003307e-04	
483	4.200000e+00	1.004305e-04	
484	4.250000e+00	1.005288e-04	
485	4.300000e+00	1.006258e-04	
486	4.350000e+00	1.007216e-04	
487	4.400000e+00	1.008161e-04	
488	4.450000e+00	1.009096e-04	
489	4.500000e+00	1.010022e-04	
490	4.550000e+00	1.010938e-04	
491	4.600000e+00	1.011848e-04	
492	4.650000e+00	1.012751e-04	
493	4.700000e+00	1.013650e-04	
494	4.750000e+00	1.014547e-04	
495	4.800000e+00	1.015442e-04	
496	4.850000e+00	1.016338e-04	
497	4.900000e+00	1.017237e-04	
498	4.950000e+00	1.018142e-04	
499	5.000000e+00	1.019055e-04	
500	5.050000e+00	1.019979e-04	
501	5.100000e+00	1.020916e-04	
502	5.150000e+00	1.021871e-04	
503	5.200000e+00	1.022846e-04	
504	5.250000e+00	1.023847e-04	
505	5.300000e+00	1.024876e-04	
506	5.350000e+00	1.025938e-04	
507	5.400000e+00	1.027039e-04	
508	5.450000e+00	1.028183e-04	
509	5.500000e+00	1.029376e-04	
510	5.550000e+00	1.030624e-04	
511	5.600000e+00	1.031933e-04	
512	5.650000e+00	1.033310e-04	
513	5.700000e+00	1.034761e-04	
514	5.750000e+00	1.036294e-04	
515	5.800000e+00	1.037916e-04	
516	5.850000e+00	1.039636e-04	
517	5.900000e+00	1.041462e-04	
518	5.950000e+00	1.043403e-04	

Index   v-sweep         -i(vds)         
--------------------------------------------------------------------------------
519	6.000000e+00	1.045469e-04	
520	6.050000e+00	1.047667e-04	
521	6.100000e+00	1.050010e-04	
522	6.150000e+00	1.052506e-04	
523	6.200000e+00	1.055167e-04	
524	6.250000e+00	1.058003e-04	
525	6.300000e+00	1.061026e-04	
526	6.350000e+00	1.064248e-04	
527	6.400000e+00	1.067680e-04	
528	6.450000e+00	1.071336e-04	
529	6.500000e+00	1.075227e-04	
530	6.550000e+00	1.079366e-04	
531	6.600000e+00	1.083767e-04	
532	0.000000e+00	-4.47484e-20	
533	5.000000e-02	5.008083e-06	
534	1.000000e-01	9.894311e-06	
535	1.500000e-01	1.466290e-05	
536	2.000000e-01	1.931599e-05	
537	2.500000e-01	2.385517e-05	
538	3.000000e-01	2.828182e-05	
539	3.500000e-01	3.259729e-05	
540	4.000000e-01	3.680289e-05	
541	4.500000e-01	4.089989e-05	
542	5.000000e-01	4.488959e-05	
543	5.500000e-01	4.877322e-05	
544	6.000000e-01	5.255202e-05	
545	6.500000e-01	5.622721e-05	
546	7.000000e-01	5.979999e-05	
547	7.500000e-01	6.327152e-05	
548	8.000000e-01	6.664298e-05	
549	8.500000e-01	6.991550e-05	
550	9.000000e-01	7.309022e-05	
551	9.500000e-01	7.616825e-05	
552	1.000000e+00	7.915069e-05	
553	1.050000e+00	8.203862e-05	
554	1.100000e+00	8.483311e-05	
555	1.150000e+00	8.753522e-05	
556	1.200000e+00	9.014600e-05	
557	1.250000e+00	9.266650e-05	
558	1.300000e+00	9.509774e-05	
559	1.350000e+00	9.744074e-05	
560	1.400000e+00	9.969651e-05	
561	1.450000e+00	1.018661e-04	
562	1.500000e+00	1.039504e-04	
563	1.550000e+00	1.059505e-04	
564	1.600000e+00	1.078674e-04	
565	1.650000e+00	1.097019e-04	
566	1.700000e+00	1.114552e-04	
567	1.750000e+00	1.131280e-04	
568	1.800000e+00	1.147213e-04	
569	1.850000e+00	1.162359e-04	
570	1.900000e+00	1.176727e-04	
571	1.950000e+00	1.190323e-04	
572	2.000000e+00	1.203152e-04	
573	2.050000e+00	1.215220e-04	
574	2.100000e+00	1.226527e-04	
575	2.150000e+00	1.237073e-04	
576	2.200000e+00	1.246859e-04	

Index   v-sweep         -i(vds)         
--------------------------------------------------------------------------------
577	2.250000e+00	1.255889e-04	
578	2.300000e+00	1.264180e-04	
579	2.350000e+00	1.271762e-04	
580	2.400000e+00	1.278686e-04	
581	2.450000e+00	1.285012e-04	
582	2.500000e+00	1.290806e-04	
583	2.550000e+00	1.296132e-04	
584	2.600000e+00	1.301050e-04	
585	2.650000e+00	1.305610e-04	
586	2.700000e+00	1.309859e-04	
587	2.750000e+00	1.313833e-04	
588	2.800000e+00	1.317566e-04	
589	2.850000e+00	1.321084e-04	
590	2.900000e+00	1.324411e-04	
591	2.950000e+00	1.327567e-04	
592	3.000000e+00	1.330569e-04	
593	3.050000e+00	1.333432e-04	
594	3.100000e+00	1.336169e-04	
595	3.150000e+00	1.338790e-04	
596	3.200000e+00	1.341306e-04	
597	3.250000e+00	1.343725e-04	
598	3.300000e+00	1.346055e-04	
599	3.350000e+00	1.348302e-04	
600	3.400000e+00	1.350473e-04	
601	3.450000e+00	1.352573e-04	
602	3.500000e+00	1.354607e-04	
603	3.550000e+00	1.356579e-04	
604	3.600000e+00	1.358493e-04	
605	3.650000e+00	1.360353e-04	
606	3.700000e+00	1.362162e-04	
607	3.750000e+00	1.363923e-04	
608	3.800000e+00	1.365639e-04	
609	3.850000e+00	1.367312e-04	
610	3.900000e+00	1.368945e-04	
611	3.950000e+00	1.370540e-04	
612	4.000000e+00	1.372098e-04	
613	4.050000e+00	1.373622e-04	
614	4.100000e+00	1.375114e-04	
615	4.150000e+00	1.376574e-04	
616	4.200000e+00	1.378004e-04	
617	4.250000e+00	1.379406e-04	
618	4.300000e+00	1.380781e-04	
619	4.350000e+00	1.382131e-04	
620	4.400000e+00	1.383455e-04	
621	4.450000e+00	1.384756e-04	
622	4.500000e+00	1.386035e-04	
623	4.550000e+00	1.387293e-04	
624	4.600000e+00	1.388530e-04	
625	4.650000e+00	1.389748e-04	
626	4.700000e+00	1.390948e-04	
627	4.750000e+00	1.392132e-04	
628	4.800000e+00	1.393299e-04	
629	4.850000e+00	1.394452e-04	
630	4.900000e+00	1.395592e-04	
631	4.950000e+00	1.396719e-04	
632	5.000000e+00	1.397837e-04	
633	5.050000e+00	1.398946e-04	
634	5.100000e+00	1.400049e-04	

Index   v-sweep         -i(vds)         
--------------------------------------------------------------------------------
635	5.150000e+00	1.401146e-04	
636	5.200000e+00	1.402242e-04	
637	5.250000e+00	1.403337e-04	
638	5.300000e+00	1.404435e-04	
639	5.350000e+00	1.405539e-04	
640	5.400000e+00	1.406651e-04	
641	5.450000e+00	1.407776e-04	
642	5.500000e+00	1.408918e-04	
643	5.550000e+00	1.410080e-04	
644	5.600000e+00	1.411267e-04	
645	5.650000e+00	1.412484e-04	
646	5.700000e+00	1.413737e-04	
647	5.750000e+00	1.415031e-04	
648	5.800000e+00	1.416373e-04	
649	5.850000e+00	1.417768e-04	
650	5.900000e+00	1.419226e-04	
651	5.950000e+00	1.420752e-04	
652	6.000000e+00	1.422355e-04	
653	6.050000e+00	1.424044e-04	
654	6.100000e+00	1.425828e-04	
655	6.150000e+00	1.427716e-04	
656	6.200000e+00	1.429718e-04	
657	6.250000e+00	1.431845e-04	
658	6.300000e+00	1.434108e-04	
659	6.350000e+00	1.436519e-04	
660	6.400000e+00	1.439090e-04	
661	6.450000e+00	1.441833e-04	
662	6.500000e+00	1.444761e-04	
663	6.550000e+00	1.447889e-04	
664	6.600000e+00	1.451229e-04	
665	0.000000e+00	2.979130e-21	
666	5.000000e-02	5.414858e-06	
667	1.000000e-01	1.071818e-05	
668	1.500000e-01	1.591388e-05	
669	2.000000e-01	2.100387e-05	
670	2.500000e-01	2.598947e-05	
671	3.000000e-01	3.087184e-05	
672	3.500000e-01	3.565208e-05	
673	4.000000e-01	4.033128e-05	
674	4.500000e-01	4.491050e-05	
675	5.000000e-01	4.939078e-05	
676	5.500000e-01	5.377318e-05	
677	6.000000e-01	5.805871e-05	
678	6.500000e-01	6.224839e-05	
679	7.000000e-01	6.634321e-05	
680	7.500000e-01	7.034415e-05	
681	8.000000e-01	7.425219e-05	
682	8.500000e-01	7.806828e-05	
683	9.000000e-01	8.179336e-05	
684	9.500000e-01	8.542836e-05	
685	1.000000e+00	8.897421e-05	
686	1.050000e+00	9.243180e-05	
687	1.100000e+00	9.580203e-05	
688	1.150000e+00	9.908578e-05	
689	1.200000e+00	1.022839e-04	
690	1.250000e+00	1.053973e-04	
691	1.300000e+00	1.084268e-04	
692	1.350000e+00	1.113733e-04	

Index   v-sweep         -i(vds)         
--------------------------------------------------------------------------------
693	1.400000e+00	1.142375e-04	
694	1.450000e+00	1.170204e-04	
695	1.500000e+00	1.197227e-04	
696	1.550000e+00	1.223453e-04	
697	1.600000e+00	1.248890e-04	
698	1.650000e+00	1.273545e-04	
699	1.700000e+00	1.297427e-04	
700	1.750000e+00	1.320544e-04	
701	1.800000e+00	1.342903e-04	
702	1.850000e+00	1.364513e-04	
703	1.900000e+00	1.385382e-04	
704	1.950000e+00	1.405516e-04	
705	2.000000e+00	1.424924e-04	
706	2.050000e+00	1.443614e-04	
707	2.100000e+00	1.461591e-04	
708	2.150000e+00	1.478864e-04	
709	2.200000e+00	1.495440e-04	
710	2.250000e+00	1.511324e-04	
711	2.300000e+00	1.526522e-04	
712	2.350000e+00	1.541038e-04	
713	2.400000e+00	1.554877e-04	
714	2.450000e+00	1.568040e-04	
715	2.500000e+00	1.580525e-04	
716	2.550000e+00	1.592330e-04	
717	2.600000e+00	1.603447e-04	
718	2.650000e+00	1.613870e-04	
719	2.700000e+00	1.623595e-04	
720	2.750000e+00	1.632626e-04	
721	2.800000e+00	1.640982e-04	
722	2.850000e+00	1.648697e-04	
723	2.900000e+00	1.655816e-04	
724	2.950000e+00	1.662393e-04	
725	3.000000e+00	1.668483e-04	
726	3.050000e+00	1.674140e-04	
727	3.100000e+00	1.679413e-04	
728	3.150000e+00	1.684346e-04	
729	3.200000e+00	1.688976e-04	
730	3.250000e+00	1.693337e-04	
731	3.300000e+00	1.697457e-04	
732	3.350000e+00	1.701361e-04	
733	3.400000e+00	1.705070e-04	
734	3.450000e+00	1.708603e-04	
735	3.500000e+00	1.711977e-04	
736	3.550000e+00	1.715205e-04	
737	3.600000e+00	1.718299e-04	
738	3.650000e+00	1.721271e-04	
739	3.700000e+00	1.724130e-04	
740	3.750000e+00	1.726885e-04	
741	3.800000e+00	1.729544e-04	
742	3.850000e+00	1.732113e-04	
743	3.900000e+00	1.734598e-04	
744	3.950000e+00	1.737006e-04	
745	4.000000e+00	1.739341e-04	
746	4.050000e+00	1.741608e-04	
747	4.100000e+00	1.743811e-04	
748	4.150000e+00	1.745953e-04	
749	4.200000e+00	1.748039e-04	
750	4.250000e+00	1.750071e-04	

Index   v-sweep         -i(vds)         
--------------------------------------------------------------------------------
751	4.300000e+00	1.752052e-04	
752	4.350000e+00	1.753986e-04	
753	4.400000e+00	1.755873e-04	
754	4.450000e+00	1.757718e-04	
755	4.500000e+00	1.759522e-04	
756	4.550000e+00	1.761286e-04	
757	4.600000e+00	1.763013e-04	
758	4.650000e+00	1.764705e-04	
759	4.700000e+00	1.766363e-04	
760	4.750000e+00	1.767988e-04	
761	4.800000e+00	1.769583e-04	
762	4.850000e+00	1.771148e-04	
763	4.900000e+00	1.772685e-04	
764	4.950000e+00	1.774196e-04	
765	5.000000e+00	1.775681e-04	
766	5.050000e+00	1.777141e-04	
767	5.100000e+00	1.778579e-04	
768	5.150000e+00	1.779995e-04	
769	5.200000e+00	1.781390e-04	
770	5.250000e+00	1.782767e-04	
771	5.300000e+00	1.784127e-04	
772	5.350000e+00	1.785471e-04	
773	5.400000e+00	1.786801e-04	
774	5.450000e+00	1.788119e-04	
775	5.500000e+00	1.789428e-04	
776	5.550000e+00	1.790728e-04	
777	5.600000e+00	1.792024e-04	
778	5.650000e+00	1.793317e-04	
779	5.700000e+00	1.794612e-04	
780	5.750000e+00	1.795910e-04	
781	5.800000e+00	1.797217e-04	
782	5.850000e+00	1.798536e-04	
783	5.900000e+00	1.799871e-04	
784	5.950000e+00	1.801228e-04	
785	6.000000e+00	1.802611e-04	
786	6.050000e+00	1.804028e-04	
787	6.100000e+00	1.805483e-04	
788	6.150000e+00	1.806984e-04	
789	6.200000e+00	1.808538e-04	
790	6.250000e+00	1.810154e-04	
791	6.300000e+00	1.811839e-04	
792	6.350000e+00	1.813602e-04	
793	6.400000e+00	1.815453e-04	
794	6.450000e+00	1.817403e-04	
795	6.500000e+00	1.819463e-04	
796	6.550000e+00	1.821643e-04	
797	6.600000e+00	1.823956e-04	
Note: No ".plot", ".print", or ".fourier" lines; no simulations run
