
Note: Compatibility modes selected: hs

Warning: m=xx on .subckt line will override multiplier m hierarchy!


Circuit: ***************************

Doing analysis at TEMP = -40.000000 and TNOM = -40.000000


No. of Data Rows : 798
                          ***************************
                          DC transfer characteristic  Mon Jan  9 13:58:36  2023
--------------------------------------------------------------------------------
Index   v-sweep         -i(vds)         
--------------------------------------------------------------------------------
0	0.000000e+00	1.431722e-25	
1	5.000000e-02	5.518961e-08	
2	1.000000e-01	9.753775e-08	
3	1.500000e-01	1.272906e-07	
4	2.000000e-01	1.452287e-07	
5	2.500000e-01	1.536891e-07	
6	3.000000e-01	1.568469e-07	
7	3.500000e-01	1.580386e-07	
8	4.000000e-01	1.585986e-07	
9	4.500000e-01	1.589320e-07	
10	5.000000e-01	1.591692e-07	
11	5.500000e-01	1.593594e-07	
12	6.000000e-01	1.595238e-07	
13	6.500000e-01	1.596727e-07	
14	7.000000e-01	1.598117e-07	
15	7.500000e-01	1.599440e-07	
16	8.000000e-01	1.600716e-07	
17	8.500000e-01	1.601957e-07	
18	9.000000e-01	1.603171e-07	
19	9.500000e-01	1.604365e-07	
20	1.000000e+00	1.605543e-07	
21	1.050000e+00	1.606708e-07	
22	1.100000e+00	1.607861e-07	
23	1.150000e+00	1.609006e-07	
24	1.200000e+00	1.610142e-07	
25	1.250000e+00	1.611273e-07	
26	1.300000e+00	1.612397e-07	
27	1.350000e+00	1.613516e-07	
28	1.400000e+00	1.614631e-07	
29	1.450000e+00	1.615743e-07	
30	1.500000e+00	1.616850e-07	
31	1.550000e+00	1.617955e-07	
32	1.600000e+00	1.619057e-07	
33	1.650000e+00	1.620156e-07	
34	1.700000e+00	1.621253e-07	
35	1.750000e+00	1.622348e-07	
36	1.800000e+00	1.623440e-07	
37	1.850000e+00	1.624531e-07	
38	1.900000e+00	1.625621e-07	
39	1.950000e+00	1.626709e-07	
40	2.000000e+00	1.627795e-07	
41	2.050000e+00	1.628880e-07	
42	2.100000e+00	1.629964e-07	
43	2.150000e+00	1.631047e-07	
44	2.200000e+00	1.632129e-07	
45	2.250000e+00	1.633210e-07	
46	2.300000e+00	1.634290e-07	
47	2.350000e+00	1.635369e-07	
48	2.400000e+00	1.636448e-07	
49	2.450000e+00	1.637527e-07	
50	2.500000e+00	1.638605e-07	
51	2.550000e+00	1.639683e-07	
52	2.600000e+00	1.640762e-07	
53	2.650000e+00	1.641842e-07	
54	2.700000e+00	1.642923e-07	

Index   v-sweep         -i(vds)         
--------------------------------------------------------------------------------
55	2.750000e+00	1.644005e-07	
56	2.800000e+00	1.645090e-07	
57	2.850000e+00	1.646178e-07	
58	2.900000e+00	1.647271e-07	
59	2.950000e+00	1.648369e-07	
60	3.000000e+00	1.649473e-07	
61	3.050000e+00	1.650586e-07	
62	3.100000e+00	1.651708e-07	
63	3.150000e+00	1.652842e-07	
64	3.200000e+00	1.653990e-07	
65	3.250000e+00	1.655156e-07	
66	3.300000e+00	1.656340e-07	
67	3.350000e+00	1.657548e-07	
68	3.400000e+00	1.658782e-07	
69	3.450000e+00	1.660047e-07	
70	3.500000e+00	1.661347e-07	
71	3.550000e+00	1.662687e-07	
72	3.600000e+00	1.664073e-07	
73	3.650000e+00	1.665509e-07	
74	3.700000e+00	1.667004e-07	
75	3.750000e+00	1.668563e-07	
76	3.800000e+00	1.670194e-07	
77	3.850000e+00	1.671905e-07	
78	3.900000e+00	1.673705e-07	
79	3.950000e+00	1.675603e-07	
80	4.000000e+00	1.677609e-07	
81	4.050000e+00	1.679733e-07	
82	4.100000e+00	1.681986e-07	
83	4.150000e+00	1.684380e-07	
84	4.200000e+00	1.686928e-07	
85	4.250000e+00	1.689642e-07	
86	4.300000e+00	1.692536e-07	
87	4.350000e+00	1.695624e-07	
88	4.400000e+00	1.698922e-07	
89	4.450000e+00	1.702444e-07	
90	4.500000e+00	1.706208e-07	
91	4.550000e+00	1.710230e-07	
92	4.600000e+00	1.714528e-07	
93	4.650000e+00	1.719119e-07	
94	4.700000e+00	1.724024e-07	
95	4.750000e+00	1.729261e-07	
96	4.800000e+00	1.734850e-07	
97	4.850000e+00	1.740812e-07	
98	4.900000e+00	1.747169e-07	
99	4.950000e+00	1.753942e-07	
100	5.000000e+00	1.761153e-07	
101	5.050000e+00	1.768827e-07	
102	5.100000e+00	1.776985e-07	
103	5.150000e+00	1.785653e-07	
104	5.200000e+00	1.794855e-07	
105	5.250000e+00	1.804616e-07	
106	5.300000e+00	1.814961e-07	
107	5.350000e+00	1.825917e-07	
108	5.400000e+00	1.837510e-07	
109	5.450000e+00	1.849767e-07	
110	5.500000e+00	1.862715e-07	
111	5.550000e+00	1.876382e-07	
112	5.600000e+00	1.890796e-07	

Index   v-sweep         -i(vds)         
--------------------------------------------------------------------------------
113	5.650000e+00	1.905985e-07	
114	5.700000e+00	1.921978e-07	
115	5.750000e+00	1.938805e-07	
116	5.800000e+00	1.956494e-07	
117	5.850000e+00	1.975075e-07	
118	5.900000e+00	1.994578e-07	
119	5.950000e+00	2.015033e-07	
120	6.000000e+00	2.036470e-07	
121	6.050000e+00	2.058921e-07	
122	6.100000e+00	2.082416e-07	
123	6.150000e+00	2.106985e-07	
124	6.200000e+00	2.132660e-07	
125	6.250000e+00	2.159472e-07	
126	6.300000e+00	2.187453e-07	
127	6.350000e+00	2.216633e-07	
128	6.400000e+00	2.247044e-07	
129	6.450000e+00	2.278719e-07	
130	6.500000e+00	2.311688e-07	
131	6.550000e+00	2.345983e-07	
132	6.600000e+00	2.381636e-07	
133	0.000000e+00	3.808745e-22	
134	5.000000e-02	2.609310e-07	
135	1.000000e-01	5.083812e-07	
136	1.500000e-01	7.423811e-07	
137	2.000000e-01	9.629611e-07	
138	2.500000e-01	1.170152e-06	
139	3.000000e-01	1.363985e-06	
140	3.500000e-01	1.544491e-06	
141	4.000000e-01	1.711704e-06	
142	4.500000e-01	1.865657e-06	
143	5.000000e-01	2.006385e-06	
144	5.500000e-01	2.133929e-06	
145	6.000000e-01	2.248335e-06	
146	6.500000e-01	2.349658e-06	
147	7.000000e-01	2.437975e-06	
148	7.500000e-01	2.513399e-06	
149	8.000000e-01	2.576116e-06	
150	8.500000e-01	2.626455e-06	
151	9.000000e-01	2.665020e-06	
152	9.500000e-01	2.692894e-06	
153	1.000000e+00	2.711807e-06	
154	1.050000e+00	2.724012e-06	
155	1.100000e+00	2.731756e-06	
156	1.150000e+00	2.736781e-06	
157	1.200000e+00	2.740207e-06	
158	1.250000e+00	2.742685e-06	
159	1.300000e+00	2.744582e-06	
160	1.350000e+00	2.746108e-06	
161	1.400000e+00	2.747388e-06	
162	1.450000e+00	2.748497e-06	
163	1.500000e+00	2.749484e-06	
164	1.550000e+00	2.750381e-06	
165	1.600000e+00	2.751210e-06	
166	1.650000e+00	2.751985e-06	
167	1.700000e+00	2.752717e-06	
168	1.750000e+00	2.753416e-06	
169	1.800000e+00	2.754087e-06	
170	1.850000e+00	2.754735e-06	

Index   v-sweep         -i(vds)         
--------------------------------------------------------------------------------
171	1.900000e+00	2.755363e-06	
172	1.950000e+00	2.755974e-06	
173	2.000000e+00	2.756572e-06	
174	2.050000e+00	2.757157e-06	
175	2.100000e+00	2.757731e-06	
176	2.150000e+00	2.758295e-06	
177	2.200000e+00	2.758851e-06	
178	2.250000e+00	2.759400e-06	
179	2.300000e+00	2.759942e-06	
180	2.350000e+00	2.760478e-06	
181	2.400000e+00	2.761008e-06	
182	2.450000e+00	2.761534e-06	
183	2.500000e+00	2.762054e-06	
184	2.550000e+00	2.762571e-06	
185	2.600000e+00	2.763084e-06	
186	2.650000e+00	2.763593e-06	
187	2.700000e+00	2.764099e-06	
188	2.750000e+00	2.764603e-06	
189	2.800000e+00	2.765103e-06	
190	2.850000e+00	2.765601e-06	
191	2.900000e+00	2.766096e-06	
192	2.950000e+00	2.766589e-06	
193	3.000000e+00	2.767081e-06	
194	3.050000e+00	2.767570e-06	
195	3.100000e+00	2.768058e-06	
196	3.150000e+00	2.768545e-06	
197	3.200000e+00	2.769031e-06	
198	3.250000e+00	2.769516e-06	
199	3.300000e+00	2.770001e-06	
200	3.350000e+00	2.770486e-06	
201	3.400000e+00	2.770973e-06	
202	3.450000e+00	2.771461e-06	
203	3.500000e+00	2.771952e-06	
204	3.550000e+00	2.772446e-06	
205	3.600000e+00	2.772946e-06	
206	3.650000e+00	2.773453e-06	
207	3.700000e+00	2.773968e-06	
208	3.750000e+00	2.774494e-06	
209	3.800000e+00	2.775032e-06	
210	3.850000e+00	2.775588e-06	
211	3.900000e+00	2.776162e-06	
212	3.950000e+00	2.776759e-06	
213	4.000000e+00	2.777384e-06	
214	4.050000e+00	2.778042e-06	
215	4.100000e+00	2.778736e-06	
216	4.150000e+00	2.779475e-06	
217	4.200000e+00	2.780263e-06	
218	4.250000e+00	2.781109e-06	
219	4.300000e+00	2.782021e-06	
220	4.350000e+00	2.783007e-06	
221	4.400000e+00	2.784077e-06	
222	4.450000e+00	2.785242e-06	
223	4.500000e+00	2.786513e-06	
224	4.550000e+00	2.787902e-06	
225	4.600000e+00	2.789422e-06	
226	4.650000e+00	2.791088e-06	
227	4.700000e+00	2.792914e-06	
228	4.750000e+00	2.794916e-06	

Index   v-sweep         -i(vds)         
--------------------------------------------------------------------------------
229	4.800000e+00	2.797112e-06	
230	4.850000e+00	2.799520e-06	
231	4.900000e+00	2.802158e-06	
232	4.950000e+00	2.805046e-06	
233	5.000000e+00	2.808207e-06	
234	5.050000e+00	2.811661e-06	
235	5.100000e+00	2.815432e-06	
236	5.150000e+00	2.819545e-06	
237	5.200000e+00	2.824025e-06	
238	5.250000e+00	2.828898e-06	
239	5.300000e+00	2.834191e-06	
240	5.350000e+00	2.839933e-06	
241	5.400000e+00	2.846153e-06	
242	5.450000e+00	2.852883e-06	
243	5.500000e+00	2.860152e-06	
244	5.550000e+00	2.867993e-06	
245	5.600000e+00	2.876440e-06	
246	5.650000e+00	2.885527e-06	
247	5.700000e+00	2.895289e-06	
248	5.750000e+00	2.905762e-06	
249	5.800000e+00	2.916983e-06	
250	5.850000e+00	2.928989e-06	
251	5.900000e+00	2.941819e-06	
252	5.950000e+00	2.955511e-06	
253	6.000000e+00	2.970107e-06	
254	6.050000e+00	2.985647e-06	
255	6.100000e+00	3.002171e-06	
256	6.150000e+00	3.019722e-06	
257	6.200000e+00	3.038343e-06	
258	6.250000e+00	3.058077e-06	
259	6.300000e+00	3.078967e-06	
260	6.350000e+00	3.101058e-06	
261	6.400000e+00	3.124395e-06	
262	6.450000e+00	3.149023e-06	
263	6.500000e+00	3.174987e-06	
264	6.550000e+00	3.202334e-06	
265	6.600000e+00	3.231110e-06	
266	0.000000e+00	5.982094e-22	
267	5.000000e-02	4.386415e-07	
268	1.000000e-01	8.645968e-07	
269	1.500000e-01	1.277896e-06	
270	2.000000e-01	1.678571e-06	
271	2.500000e-01	2.066650e-06	
272	3.000000e-01	2.442164e-06	
273	3.500000e-01	2.805143e-06	
274	4.000000e-01	3.155617e-06	
275	4.500000e-01	3.493617e-06	
276	5.000000e-01	3.819171e-06	
277	5.500000e-01	4.132310e-06	
278	6.000000e-01	4.433063e-06	
279	6.500000e-01	4.721460e-06	
280	7.000000e-01	4.997530e-06	
281	7.500000e-01	5.261304e-06	
282	8.000000e-01	5.512809e-06	
283	8.500000e-01	5.752077e-06	
284	9.000000e-01	5.979136e-06	
285	9.500000e-01	6.194016e-06	
286	1.000000e+00	6.396746e-06	

Index   v-sweep         -i(vds)         
--------------------------------------------------------------------------------
287	1.050000e+00	6.587358e-06	
288	1.100000e+00	6.765880e-06	
289	1.150000e+00	6.932346e-06	
290	1.200000e+00	7.086787e-06	
291	1.250000e+00	7.229240e-06	
292	1.300000e+00	7.359742e-06	
293	1.350000e+00	7.478341e-06	
294	1.400000e+00	7.585091e-06	
295	1.450000e+00	7.680069e-06	
296	1.500000e+00	7.763383e-06	
297	1.550000e+00	7.835200e-06	
298	1.600000e+00	7.895788e-06	
299	1.650000e+00	7.945583e-06	
300	1.700000e+00	7.985281e-06	
301	1.750000e+00	8.015922e-06	
302	1.800000e+00	8.038891e-06	
303	1.850000e+00	8.055780e-06	
304	1.900000e+00	8.068144e-06	
305	1.950000e+00	8.077296e-06	
306	2.000000e+00	8.084224e-06	
307	2.050000e+00	8.089618e-06	
308	2.100000e+00	8.093946e-06	
309	2.150000e+00	8.097519e-06	
310	2.200000e+00	8.100545e-06	
311	2.250000e+00	8.103167e-06	
312	2.300000e+00	8.105483e-06	
313	2.350000e+00	8.107564e-06	
314	2.400000e+00	8.109459e-06	
315	2.450000e+00	8.111206e-06	
316	2.500000e+00	8.112833e-06	
317	2.550000e+00	8.114360e-06	
318	2.600000e+00	8.115805e-06	
319	2.650000e+00	8.117181e-06	
320	2.700000e+00	8.118498e-06	
321	2.750000e+00	8.119764e-06	
322	2.800000e+00	8.120985e-06	
323	2.850000e+00	8.122169e-06	
324	2.900000e+00	8.123319e-06	
325	2.950000e+00	8.124439e-06	
326	3.000000e+00	8.125532e-06	
327	3.050000e+00	8.126602e-06	
328	3.100000e+00	8.127650e-06	
329	3.150000e+00	8.128679e-06	
330	3.200000e+00	8.129691e-06	
331	3.250000e+00	8.130687e-06	
332	3.300000e+00	8.131669e-06	
333	3.350000e+00	8.132637e-06	
334	3.400000e+00	8.133593e-06	
335	3.450000e+00	8.134538e-06	
336	3.500000e+00	8.135472e-06	
337	3.550000e+00	8.136397e-06	
338	3.600000e+00	8.137313e-06	
339	3.650000e+00	8.138221e-06	
340	3.700000e+00	8.139122e-06	
341	3.750000e+00	8.140015e-06	
342	3.800000e+00	8.140903e-06	
343	3.850000e+00	8.141785e-06	
344	3.900000e+00	8.142662e-06	

Index   v-sweep         -i(vds)         
--------------------------------------------------------------------------------
345	3.950000e+00	8.143535e-06	
346	4.000000e+00	8.144406e-06	
347	4.050000e+00	8.145274e-06	
348	4.100000e+00	8.146143e-06	
349	4.150000e+00	8.147013e-06	
350	4.200000e+00	8.147886e-06	
351	4.250000e+00	8.148766e-06	
352	4.300000e+00	8.149654e-06	
353	4.350000e+00	8.150555e-06	
354	4.400000e+00	8.151473e-06	
355	4.450000e+00	8.152412e-06	
356	4.500000e+00	8.153379e-06	
357	4.550000e+00	8.154381e-06	
358	4.600000e+00	8.155424e-06	
359	4.650000e+00	8.156519e-06	
360	4.700000e+00	8.157674e-06	
361	4.750000e+00	8.158903e-06	
362	4.800000e+00	8.160218e-06	
363	4.850000e+00	8.161635e-06	
364	4.900000e+00	8.163169e-06	
365	4.950000e+00	8.164838e-06	
366	5.000000e+00	8.166665e-06	
367	5.050000e+00	8.168670e-06	
368	5.100000e+00	8.170878e-06	
369	5.150000e+00	8.173317e-06	
370	5.200000e+00	8.176016e-06	
371	5.250000e+00	8.179005e-06	
372	5.300000e+00	8.182321e-06	
373	5.350000e+00	8.185999e-06	
374	5.400000e+00	8.190080e-06	
375	5.450000e+00	8.194605e-06	
376	5.500000e+00	8.199620e-06	
377	5.550000e+00	8.205173e-06	
378	5.600000e+00	8.211316e-06	
379	5.650000e+00	8.218101e-06	
380	5.700000e+00	8.225587e-06	
381	5.750000e+00	8.233833e-06	
382	5.800000e+00	8.242903e-06	
383	5.850000e+00	8.252862e-06	
384	5.900000e+00	8.263780e-06	
385	5.950000e+00	8.275729e-06	
386	6.000000e+00	8.288784e-06	
387	6.050000e+00	8.303023e-06	
388	6.100000e+00	8.318528e-06	
389	6.150000e+00	8.335383e-06	
390	6.200000e+00	8.353674e-06	
391	6.250000e+00	8.373492e-06	
392	6.300000e+00	8.394930e-06	
393	6.350000e+00	8.418082e-06	
394	6.400000e+00	8.443048e-06	
395	6.450000e+00	8.469927e-06	
396	6.500000e+00	8.498824e-06	
397	6.550000e+00	8.529843e-06	
398	6.600000e+00	8.563094e-06	
399	0.000000e+00	-1.44725e-22	
400	5.000000e-02	5.824721e-07	
401	1.000000e-01	1.153319e-06	
402	1.500000e-01	1.712568e-06	

Index   v-sweep         -i(vds)         
--------------------------------------------------------------------------------
403	2.000000e-01	2.260247e-06	
404	2.500000e-01	2.796383e-06	
405	3.000000e-01	3.321003e-06	
406	3.500000e-01	3.834135e-06	
407	4.000000e-01	4.335806e-06	
408	4.500000e-01	4.826042e-06	
409	5.000000e-01	5.304871e-06	
410	5.500000e-01	5.772319e-06	
411	6.000000e-01	6.228414e-06	
412	6.500000e-01	6.673181e-06	
413	7.000000e-01	7.106648e-06	
414	7.500000e-01	7.528841e-06	
415	8.000000e-01	7.939786e-06	
416	8.500000e-01	8.339510e-06	
417	9.000000e-01	8.728039e-06	
418	9.500000e-01	9.105399e-06	
419	1.000000e+00	9.471616e-06	
420	1.050000e+00	9.826716e-06	
421	1.100000e+00	1.017072e-05	
422	1.150000e+00	1.050367e-05	
423	1.200000e+00	1.082557e-05	
424	1.250000e+00	1.113646e-05	
425	1.300000e+00	1.143636e-05	
426	1.350000e+00	1.172530e-05	
427	1.400000e+00	1.200330e-05	
428	1.450000e+00	1.227038e-05	
429	1.500000e+00	1.252658e-05	
430	1.550000e+00	1.277191e-05	
431	1.600000e+00	1.300640e-05	
432	1.650000e+00	1.323008e-05	
433	1.700000e+00	1.344297e-05	
434	1.750000e+00	1.364509e-05	
435	1.800000e+00	1.383646e-05	
436	1.850000e+00	1.401712e-05	
437	1.900000e+00	1.418708e-05	
438	1.950000e+00	1.434637e-05	
439	2.000000e+00	1.449502e-05	
440	2.050000e+00	1.463304e-05	
441	2.100000e+00	1.476048e-05	
442	2.150000e+00	1.487736e-05	
443	2.200000e+00	1.498373e-05	
444	2.250000e+00	1.507966e-05	
445	2.300000e+00	1.516522e-05	
446	2.350000e+00	1.524054e-05	
447	2.400000e+00	1.530585e-05	
448	2.450000e+00	1.536148e-05	
449	2.500000e+00	1.540791e-05	
450	2.550000e+00	1.544589e-05	
451	2.600000e+00	1.547636e-05	
452	2.650000e+00	1.550046e-05	
453	2.700000e+00	1.551940e-05	
454	2.750000e+00	1.553430e-05	
455	2.800000e+00	1.554613e-05	
456	2.850000e+00	1.555566e-05	
457	2.900000e+00	1.556347e-05	
458	2.950000e+00	1.556999e-05	
459	3.000000e+00	1.557553e-05	
460	3.050000e+00	1.558032e-05	

Index   v-sweep         -i(vds)         
--------------------------------------------------------------------------------
461	3.100000e+00	1.558454e-05	
462	3.150000e+00	1.558829e-05	
463	3.200000e+00	1.559167e-05	
464	3.250000e+00	1.559476e-05	
465	3.300000e+00	1.559760e-05	
466	3.350000e+00	1.560024e-05	
467	3.400000e+00	1.560271e-05	
468	3.450000e+00	1.560504e-05	
469	3.500000e+00	1.560724e-05	
470	3.550000e+00	1.560933e-05	
471	3.600000e+00	1.561133e-05	
472	3.650000e+00	1.561325e-05	
473	3.700000e+00	1.561510e-05	
474	3.750000e+00	1.561689e-05	
475	3.800000e+00	1.561862e-05	
476	3.850000e+00	1.562030e-05	
477	3.900000e+00	1.562194e-05	
478	3.950000e+00	1.562354e-05	
479	4.000000e+00	1.562509e-05	
480	4.050000e+00	1.562662e-05	
481	4.100000e+00	1.562811e-05	
482	4.150000e+00	1.562958e-05	
483	4.200000e+00	1.563102e-05	
484	4.250000e+00	1.563244e-05	
485	4.300000e+00	1.563384e-05	
486	4.350000e+00	1.563521e-05	
487	4.400000e+00	1.563657e-05	
488	4.450000e+00	1.563791e-05	
489	4.500000e+00	1.563923e-05	
490	4.550000e+00	1.564054e-05	
491	4.600000e+00	1.564184e-05	
492	4.650000e+00	1.564313e-05	
493	4.700000e+00	1.564440e-05	
494	4.750000e+00	1.564567e-05	
495	4.800000e+00	1.564693e-05	
496	4.850000e+00	1.564818e-05	
497	4.900000e+00	1.564943e-05	
498	4.950000e+00	1.565069e-05	
499	5.000000e+00	1.565195e-05	
500	5.050000e+00	1.565322e-05	
501	5.100000e+00	1.565450e-05	
502	5.150000e+00	1.565581e-05	
503	5.200000e+00	1.565715e-05	
504	5.250000e+00	1.565853e-05	
505	5.300000e+00	1.565995e-05	
506	5.350000e+00	1.566144e-05	
507	5.400000e+00	1.566301e-05	
508	5.450000e+00	1.566467e-05	
509	5.500000e+00	1.566645e-05	
510	5.550000e+00	1.566836e-05	
511	5.600000e+00	1.567043e-05	
512	5.650000e+00	1.567268e-05	
513	5.700000e+00	1.567516e-05	
514	5.750000e+00	1.567789e-05	
515	5.800000e+00	1.568091e-05	
516	5.850000e+00	1.568426e-05	
517	5.900000e+00	1.568799e-05	
518	5.950000e+00	1.569216e-05	

Index   v-sweep         -i(vds)         
--------------------------------------------------------------------------------
519	6.000000e+00	1.569680e-05	
520	6.050000e+00	1.570200e-05	
521	6.100000e+00	1.570780e-05	
522	6.150000e+00	1.571429e-05	
523	6.200000e+00	1.572153e-05	
524	6.250000e+00	1.572960e-05	
525	6.300000e+00	1.573860e-05	
526	6.350000e+00	1.574860e-05	
527	6.400000e+00	1.575972e-05	
528	6.450000e+00	1.577204e-05	
529	6.500000e+00	1.578568e-05	
530	6.550000e+00	1.580076e-05	
531	6.600000e+00	1.581738e-05	
532	0.000000e+00	-2.72081e-21	
533	5.000000e-02	6.921042e-07	
534	1.000000e-01	1.373753e-06	
535	1.500000e-01	2.044970e-06	
536	2.000000e-01	2.705779e-06	
537	2.500000e-01	3.356202e-06	
538	3.000000e-01	3.996263e-06	
539	3.500000e-01	4.625986e-06	
540	4.000000e-01	5.245393e-06	
541	4.500000e-01	5.854507e-06	
542	5.000000e-01	6.453351e-06	
543	5.500000e-01	7.041949e-06	
544	6.000000e-01	7.620323e-06	
545	6.500000e-01	8.188495e-06	
546	7.000000e-01	8.746489e-06	
547	7.500000e-01	9.294328e-06	
548	8.000000e-01	9.832033e-06	
549	8.500000e-01	1.035963e-05	
550	9.000000e-01	1.087713e-05	
551	9.500000e-01	1.138457e-05	
552	1.000000e+00	1.188197e-05	
553	1.050000e+00	1.236935e-05	
554	1.100000e+00	1.284672e-05	
555	1.150000e+00	1.331412e-05	
556	1.200000e+00	1.377157e-05	
557	1.250000e+00	1.421908e-05	
558	1.300000e+00	1.465668e-05	
559	1.350000e+00	1.508439e-05	
560	1.400000e+00	1.550223e-05	
561	1.450000e+00	1.591023e-05	
562	1.500000e+00	1.630840e-05	
563	1.550000e+00	1.669677e-05	
564	1.600000e+00	1.707535e-05	
565	1.650000e+00	1.744418e-05	
566	1.700000e+00	1.780327e-05	
567	1.750000e+00	1.815264e-05	
568	1.800000e+00	1.849231e-05	
569	1.850000e+00	1.882231e-05	
570	1.900000e+00	1.914265e-05	
571	1.950000e+00	1.945336e-05	
572	2.000000e+00	1.975445e-05	
573	2.050000e+00	2.004595e-05	
574	2.100000e+00	2.032787e-05	
575	2.150000e+00	2.060024e-05	
576	2.200000e+00	2.086307e-05	

Index   v-sweep         -i(vds)         
--------------------------------------------------------------------------------
577	2.250000e+00	2.111639e-05	
578	2.300000e+00	2.136022e-05	
579	2.350000e+00	2.159457e-05	
580	2.400000e+00	2.181946e-05	
581	2.450000e+00	2.203491e-05	
582	2.500000e+00	2.224094e-05	
583	2.550000e+00	2.243756e-05	
584	2.600000e+00	2.262480e-05	
585	2.650000e+00	2.280266e-05	
586	2.700000e+00	2.297117e-05	
587	2.750000e+00	2.313034e-05	
588	2.800000e+00	2.328018e-05	
589	2.850000e+00	2.342071e-05	
590	2.900000e+00	2.355194e-05	
591	2.950000e+00	2.367389e-05	
592	3.000000e+00	2.378659e-05	
593	3.050000e+00	2.389005e-05	
594	3.100000e+00	2.398431e-05	
595	3.150000e+00	2.406945e-05	
596	3.200000e+00	2.414555e-05	
597	3.250000e+00	2.421277e-05	
598	3.300000e+00	2.427136e-05	
599	3.350000e+00	2.432171e-05	
600	3.400000e+00	2.436433e-05	
601	3.450000e+00	2.439992e-05	
602	3.500000e+00	2.442933e-05	
603	3.550000e+00	2.445347e-05	
604	3.600000e+00	2.447326e-05	
605	3.650000e+00	2.448954e-05	
606	3.700000e+00	2.450304e-05	
607	3.750000e+00	2.451436e-05	
608	3.800000e+00	2.452395e-05	
609	3.850000e+00	2.453220e-05	
610	3.900000e+00	2.453937e-05	
611	3.950000e+00	2.454570e-05	
612	4.000000e+00	2.455133e-05	
613	4.050000e+00	2.455640e-05	
614	4.100000e+00	2.456101e-05	
615	4.150000e+00	2.456523e-05	
616	4.200000e+00	2.456914e-05	
617	4.250000e+00	2.457277e-05	
618	4.300000e+00	2.457617e-05	
619	4.350000e+00	2.457937e-05	
620	4.400000e+00	2.458239e-05	
621	4.450000e+00	2.458527e-05	
622	4.500000e+00	2.458801e-05	
623	4.550000e+00	2.459064e-05	
624	4.600000e+00	2.459316e-05	
625	4.650000e+00	2.459559e-05	
626	4.700000e+00	2.459794e-05	
627	4.750000e+00	2.460021e-05	
628	4.800000e+00	2.460242e-05	
629	4.850000e+00	2.460457e-05	
630	4.900000e+00	2.460665e-05	
631	4.950000e+00	2.460869e-05	
632	5.000000e+00	2.461069e-05	
633	5.050000e+00	2.461264e-05	
634	5.100000e+00	2.461455e-05	

Index   v-sweep         -i(vds)         
--------------------------------------------------------------------------------
635	5.150000e+00	2.461642e-05	
636	5.200000e+00	2.461826e-05	
637	5.250000e+00	2.462007e-05	
638	5.300000e+00	2.462186e-05	
639	5.350000e+00	2.462361e-05	
640	5.400000e+00	2.462534e-05	
641	5.450000e+00	2.462705e-05	
642	5.500000e+00	2.462874e-05	
643	5.550000e+00	2.463042e-05	
644	5.600000e+00	2.463208e-05	
645	5.650000e+00	2.463372e-05	
646	5.700000e+00	2.463536e-05	
647	5.750000e+00	2.463700e-05	
648	5.800000e+00	2.463863e-05	
649	5.850000e+00	2.464028e-05	
650	5.900000e+00	2.464194e-05	
651	5.950000e+00	2.464362e-05	
652	6.000000e+00	2.464534e-05	
653	6.050000e+00	2.464710e-05	
654	6.100000e+00	2.464892e-05	
655	6.150000e+00	2.465082e-05	
656	6.200000e+00	2.465282e-05	
657	6.250000e+00	2.465493e-05	
658	6.300000e+00	2.465720e-05	
659	6.350000e+00	2.465964e-05	
660	6.400000e+00	2.466228e-05	
661	6.450000e+00	2.466518e-05	
662	6.500000e+00	2.466837e-05	
663	6.550000e+00	2.467190e-05	
664	6.600000e+00	2.467582e-05	
665	0.000000e+00	1.875141e-21	
666	5.000000e-02	7.707870e-07	
667	1.000000e-01	1.532300e-06	
668	1.500000e-01	2.284557e-06	
669	2.000000e-01	3.027579e-06	
670	2.500000e-01	3.761384e-06	
671	3.000000e-01	4.485991e-06	
672	3.500000e-01	5.201420e-06	
673	4.000000e-01	5.907690e-06	
674	4.500000e-01	6.604818e-06	
675	5.000000e-01	7.292825e-06	
676	5.500000e-01	7.971729e-06	
677	6.000000e-01	8.641549e-06	
678	6.500000e-01	9.302303e-06	
679	7.000000e-01	9.954011e-06	
680	7.500000e-01	1.059669e-05	
681	8.000000e-01	1.123036e-05	
682	8.500000e-01	1.185504e-05	
683	9.000000e-01	1.247075e-05	
684	9.500000e-01	1.307750e-05	
685	1.000000e+00	1.367532e-05	
686	1.050000e+00	1.426422e-05	
687	1.100000e+00	1.484423e-05	
688	1.150000e+00	1.541535e-05	
689	1.200000e+00	1.597761e-05	
690	1.250000e+00	1.653102e-05	
691	1.300000e+00	1.707561e-05	
692	1.350000e+00	1.761140e-05	

Index   v-sweep         -i(vds)         
--------------------------------------------------------------------------------
693	1.400000e+00	1.813839e-05	
694	1.450000e+00	1.865661e-05	
695	1.500000e+00	1.916608e-05	
696	1.550000e+00	1.966681e-05	
697	1.600000e+00	2.015882e-05	
698	1.650000e+00	2.064213e-05	
699	1.700000e+00	2.111676e-05	
700	1.750000e+00	2.158272e-05	
701	1.800000e+00	2.204004e-05	
702	1.850000e+00	2.248873e-05	
703	1.900000e+00	2.292880e-05	
704	1.950000e+00	2.336028e-05	
705	2.000000e+00	2.378318e-05	
706	2.050000e+00	2.419752e-05	
707	2.100000e+00	2.460331e-05	
708	2.150000e+00	2.500059e-05	
709	2.200000e+00	2.538935e-05	
710	2.250000e+00	2.576962e-05	
711	2.300000e+00	2.614141e-05	
712	2.350000e+00	2.650475e-05	
713	2.400000e+00	2.685964e-05	
714	2.450000e+00	2.720612e-05	
715	2.500000e+00	2.754418e-05	
716	2.550000e+00	2.787385e-05	
717	2.600000e+00	2.819514e-05	
718	2.650000e+00	2.850808e-05	
719	2.700000e+00	2.881268e-05	
720	2.750000e+00	2.910894e-05	
721	2.800000e+00	2.939690e-05	
722	2.850000e+00	2.967656e-05	
723	2.900000e+00	2.994794e-05	
724	2.950000e+00	3.021106e-05	
725	3.000000e+00	3.046592e-05	
726	3.050000e+00	3.071255e-05	
727	3.100000e+00	3.095096e-05	
728	3.150000e+00	3.118117e-05	
729	3.200000e+00	3.140318e-05	
730	3.250000e+00	3.161701e-05	
731	3.300000e+00	3.182267e-05	
732	3.350000e+00	3.202018e-05	
733	3.400000e+00	3.220954e-05	
734	3.450000e+00	3.239077e-05	
735	3.500000e+00	3.256388e-05	
736	3.550000e+00	3.272887e-05	
737	3.600000e+00	3.288575e-05	
738	3.650000e+00	3.303453e-05	
739	3.700000e+00	3.317522e-05	
740	3.750000e+00	3.330781e-05	
741	3.800000e+00	3.343231e-05	
742	3.850000e+00	3.354872e-05	
743	3.900000e+00	3.365705e-05	
744	3.950000e+00	3.375730e-05	
745	4.000000e+00	3.384950e-05	
746	4.050000e+00	3.393368e-05	
747	4.100000e+00	3.400991e-05	
748	4.150000e+00	3.407828e-05	
749	4.200000e+00	3.413897e-05	
750	4.250000e+00	3.419226e-05	

Index   v-sweep         -i(vds)         
--------------------------------------------------------------------------------
751	4.300000e+00	3.423852e-05	
752	4.350000e+00	3.427826e-05	
753	4.400000e+00	3.431209e-05	
754	4.450000e+00	3.434073e-05	
755	4.500000e+00	3.436490e-05	
756	4.550000e+00	3.438531e-05	
757	4.600000e+00	3.440262e-05	
758	4.650000e+00	3.441740e-05	
759	4.700000e+00	3.443010e-05	
760	4.750000e+00	3.444114e-05	
761	4.800000e+00	3.445081e-05	
762	4.850000e+00	3.445936e-05	
763	4.900000e+00	3.446701e-05	
764	4.950000e+00	3.447389e-05	
765	5.000000e+00	3.448015e-05	
766	5.050000e+00	3.448587e-05	
767	5.100000e+00	3.449115e-05	
768	5.150000e+00	3.449604e-05	
769	5.200000e+00	3.450061e-05	
770	5.250000e+00	3.450489e-05	
771	5.300000e+00	3.450892e-05	
772	5.350000e+00	3.451274e-05	
773	5.400000e+00	3.451636e-05	
774	5.450000e+00	3.451982e-05	
775	5.500000e+00	3.452313e-05	
776	5.550000e+00	3.452630e-05	
777	5.600000e+00	3.452936e-05	
778	5.650000e+00	3.453231e-05	
779	5.700000e+00	3.453515e-05	
780	5.750000e+00	3.453791e-05	
781	5.800000e+00	3.454059e-05	
782	5.850000e+00	3.454320e-05	
783	5.900000e+00	3.454574e-05	
784	5.950000e+00	3.454821e-05	
785	6.000000e+00	3.455063e-05	
786	6.050000e+00	3.455300e-05	
787	6.100000e+00	3.455531e-05	
788	6.150000e+00	3.455758e-05	
789	6.200000e+00	3.455981e-05	
790	6.250000e+00	3.456201e-05	
791	6.300000e+00	3.456416e-05	
792	6.350000e+00	3.456629e-05	
793	6.400000e+00	3.456838e-05	
794	6.450000e+00	3.457045e-05	
795	6.500000e+00	3.457250e-05	
796	6.550000e+00	3.457453e-05	
797	6.600000e+00	3.457655e-05	
Note: No ".plot", ".print", or ".fourier" lines; no simulations run
