
Note: Compatibility modes selected: hs

Warning: m=xx on .subckt line will override multiplier m hierarchy!


Circuit: ***************************

Doing analysis at TEMP = 25.000000 and TNOM = 25.000000


No. of Data Rows : 798
                          ***************************
                          DC transfer characteristic  Mon Jan  9 13:58:36  2023
--------------------------------------------------------------------------------
Index   v-sweep         -i(vds)         
--------------------------------------------------------------------------------
0	0.000000e+00	-4.77742e-31	
1	5.000000e-02	2.190568e-06	
2	1.000000e-01	3.754584e-06	
3	1.500000e-01	4.739321e-06	
4	2.000000e-01	5.265232e-06	
5	2.500000e-01	5.541807e-06	
6	3.000000e-01	5.723094e-06	
7	3.500000e-01	5.865061e-06	
8	4.000000e-01	5.985789e-06	
9	4.500000e-01	6.092754e-06	
10	5.000000e-01	6.189865e-06	
11	5.500000e-01	6.279493e-06	
12	6.000000e-01	6.363220e-06	
13	6.500000e-01	6.442161e-06	
14	7.000000e-01	6.517140e-06	
15	7.500000e-01	6.588783e-06	
16	8.000000e-01	6.657580e-06	
17	8.500000e-01	6.723921e-06	
18	9.000000e-01	6.788119e-06	
19	9.500000e-01	6.850435e-06	
20	1.000000e+00	6.911084e-06	
21	1.050000e+00	6.970246e-06	
22	1.100000e+00	7.028076e-06	
23	1.150000e+00	7.084704e-06	
24	1.200000e+00	7.140245e-06	
25	1.250000e+00	7.194797e-06	
26	1.300000e+00	7.248445e-06	
27	1.350000e+00	7.301266e-06	
28	1.400000e+00	7.353327e-06	
29	1.450000e+00	7.404685e-06	
30	1.500000e+00	7.455396e-06	
31	1.550000e+00	7.505504e-06	
32	1.600000e+00	7.555054e-06	
33	1.650000e+00	7.604084e-06	
34	1.700000e+00	7.652628e-06	
35	1.750000e+00	7.700717e-06	
36	1.800000e+00	7.748381e-06	
37	1.850000e+00	7.795645e-06	
38	1.900000e+00	7.842534e-06	
39	1.950000e+00	7.889069e-06	
40	2.000000e+00	7.935271e-06	
41	2.050000e+00	7.981158e-06	
42	2.100000e+00	8.026748e-06	
43	2.150000e+00	8.072056e-06	
44	2.200000e+00	8.117098e-06	
45	2.250000e+00	8.161887e-06	
46	2.300000e+00	8.206436e-06	
47	2.350000e+00	8.250759e-06	
48	2.400000e+00	8.294865e-06	
49	2.450000e+00	8.338768e-06	
50	2.500000e+00	8.382476e-06	
51	2.550000e+00	8.426002e-06	
52	2.600000e+00	8.469355e-06	
53	2.650000e+00	8.512545e-06	
54	2.700000e+00	8.555583e-06	

Index   v-sweep         -i(vds)         
--------------------------------------------------------------------------------
55	2.750000e+00	8.598479e-06	
56	2.800000e+00	8.641245e-06	
57	2.850000e+00	8.683890e-06	
58	2.900000e+00	8.726428e-06	
59	2.950000e+00	8.768872e-06	
60	3.000000e+00	8.811234e-06	
61	3.050000e+00	8.853529e-06	
62	3.100000e+00	8.895774e-06	
63	3.150000e+00	8.937985e-06	
64	3.200000e+00	8.980182e-06	
65	3.250000e+00	9.022386e-06	
66	3.300000e+00	9.064619e-06	
67	3.350000e+00	9.106907e-06	
68	3.400000e+00	9.149275e-06	
69	3.450000e+00	9.191755e-06	
70	3.500000e+00	9.234377e-06	
71	3.550000e+00	9.277178e-06	
72	3.600000e+00	9.320196e-06	
73	3.650000e+00	9.363471e-06	
74	3.700000e+00	9.407048e-06	
75	3.750000e+00	9.450977e-06	
76	3.800000e+00	9.495307e-06	
77	3.850000e+00	9.540096e-06	
78	3.900000e+00	9.585402e-06	
79	3.950000e+00	9.631289e-06	
80	4.000000e+00	9.677825e-06	
81	4.050000e+00	9.725082e-06	
82	4.100000e+00	9.773137e-06	
83	4.150000e+00	9.822071e-06	
84	4.200000e+00	9.871969e-06	
85	4.250000e+00	9.922921e-06	
86	4.300000e+00	9.975023e-06	
87	4.350000e+00	1.002838e-05	
88	4.400000e+00	1.008308e-05	
89	4.450000e+00	1.013925e-05	
90	4.500000e+00	1.019700e-05	
91	4.550000e+00	1.025645e-05	
92	4.600000e+00	1.031773e-05	
93	4.650000e+00	1.038096e-05	
94	4.700000e+00	1.044628e-05	
95	4.750000e+00	1.051382e-05	
96	4.800000e+00	1.058374e-05	
97	4.850000e+00	1.065619e-05	
98	4.900000e+00	1.073131e-05	
99	4.950000e+00	1.080928e-05	
100	5.000000e+00	1.089025e-05	
101	5.050000e+00	1.097439e-05	
102	5.100000e+00	1.106189e-05	
103	5.150000e+00	1.115291e-05	
104	5.200000e+00	1.124765e-05	
105	5.250000e+00	1.134629e-05	
106	5.300000e+00	1.144903e-05	
107	5.350000e+00	1.155606e-05	
108	5.400000e+00	1.166759e-05	
109	5.450000e+00	1.178382e-05	
110	5.500000e+00	1.190497e-05	
111	5.550000e+00	1.203126e-05	
112	5.600000e+00	1.216289e-05	

Index   v-sweep         -i(vds)         
--------------------------------------------------------------------------------
113	5.650000e+00	1.230010e-05	
114	5.700000e+00	1.244311e-05	
115	5.750000e+00	1.259215e-05	
116	5.800000e+00	1.274747e-05	
117	5.850000e+00	1.290929e-05	
118	5.900000e+00	1.307786e-05	
119	5.950000e+00	1.325343e-05	
120	6.000000e+00	1.343624e-05	
121	6.050000e+00	1.362655e-05	
122	6.100000e+00	1.382461e-05	
123	6.150000e+00	1.403068e-05	
124	6.200000e+00	1.424502e-05	
125	6.250000e+00	1.446790e-05	
126	6.300000e+00	1.469958e-05	
127	6.350000e+00	1.494033e-05	
128	6.400000e+00	1.519042e-05	
129	6.450000e+00	1.545013e-05	
130	6.500000e+00	1.571973e-05	
131	6.550000e+00	1.599950e-05	
132	6.600000e+00	1.628972e-05	
133	0.000000e+00	-9.65772e-31	
134	5.000000e-02	9.345089e-06	
135	1.000000e-01	1.798752e-05	
136	1.500000e-01	2.594544e-05	
137	2.000000e-01	3.323657e-05	
138	2.500000e-01	3.987818e-05	
139	3.000000e-01	4.588717e-05	
140	3.500000e-01	5.128015e-05	
141	4.000000e-01	5.607353e-05	
142	4.500000e-01	6.028385e-05	
143	5.000000e-01	6.392824e-05	
144	5.500000e-01	6.702573e-05	
145	6.000000e-01	6.960033e-05	
146	6.500000e-01	7.168826e-05	
147	7.000000e-01	7.334817e-05	
148	7.500000e-01	7.466224e-05	
149	8.000000e-01	7.571785e-05	
150	8.500000e-01	7.658732e-05	
151	9.000000e-01	7.732237e-05	
152	9.500000e-01	7.795814e-05	
153	1.000000e+00	7.851852e-05	
154	1.050000e+00	7.902008e-05	
155	1.100000e+00	7.947466e-05	
156	1.150000e+00	7.989093e-05	
157	1.200000e+00	8.027541e-05	
158	1.250000e+00	8.063313e-05	
159	1.300000e+00	8.096801e-05	
160	1.350000e+00	8.128318e-05	
161	1.400000e+00	8.158119e-05	
162	1.450000e+00	8.186410e-05	
163	1.500000e+00	8.213366e-05	
164	1.550000e+00	8.239131e-05	
165	1.600000e+00	8.263828e-05	
166	1.650000e+00	8.287561e-05	
167	1.700000e+00	8.310421e-05	
168	1.750000e+00	8.332486e-05	
169	1.800000e+00	8.353824e-05	
170	1.850000e+00	8.374495e-05	

Index   v-sweep         -i(vds)         
--------------------------------------------------------------------------------
171	1.900000e+00	8.394552e-05	
172	1.950000e+00	8.414042e-05	
173	2.000000e+00	8.433006e-05	
174	2.050000e+00	8.451482e-05	
175	2.100000e+00	8.469503e-05	
176	2.150000e+00	8.487099e-05	
177	2.200000e+00	8.504297e-05	
178	2.250000e+00	8.521123e-05	
179	2.300000e+00	8.537599e-05	
180	2.350000e+00	8.553746e-05	
181	2.400000e+00	8.569581e-05	
182	2.450000e+00	8.585123e-05	
183	2.500000e+00	8.600388e-05	
184	2.550000e+00	8.615390e-05	
185	2.600000e+00	8.630143e-05	
186	2.650000e+00	8.644659e-05	
187	2.700000e+00	8.658950e-05	
188	2.750000e+00	8.673028e-05	
189	2.800000e+00	8.686902e-05	
190	2.850000e+00	8.700583e-05	
191	2.900000e+00	8.714080e-05	
192	2.950000e+00	8.727402e-05	
193	3.000000e+00	8.740559e-05	
194	3.050000e+00	8.753558e-05	
195	3.100000e+00	8.766409e-05	
196	3.150000e+00	8.779120e-05	
197	3.200000e+00	8.791700e-05	
198	3.250000e+00	8.804159e-05	
199	3.300000e+00	8.816506e-05	
200	3.350000e+00	8.828751e-05	
201	3.400000e+00	8.840905e-05	
202	3.450000e+00	8.852981e-05	
203	3.500000e+00	8.864990e-05	
204	3.550000e+00	8.876947e-05	
205	3.600000e+00	8.888866e-05	
206	3.650000e+00	8.900764e-05	
207	3.700000e+00	8.912658e-05	
208	3.750000e+00	8.924568e-05	
209	3.800000e+00	8.936516e-05	
210	3.850000e+00	8.948525e-05	
211	3.900000e+00	8.960620e-05	
212	3.950000e+00	8.972828e-05	
213	4.000000e+00	8.985179e-05	
214	4.050000e+00	8.997707e-05	
215	4.100000e+00	9.010445e-05	
216	4.150000e+00	9.023432e-05	
217	4.200000e+00	9.036709e-05	
218	4.250000e+00	9.050317e-05	
219	4.300000e+00	9.064305e-05	
220	4.350000e+00	9.078721e-05	
221	4.400000e+00	9.093619e-05	
222	4.450000e+00	9.109055e-05	
223	4.500000e+00	9.125087e-05	
224	4.550000e+00	9.141779e-05	
225	4.600000e+00	9.159196e-05	
226	4.650000e+00	9.177410e-05	
227	4.700000e+00	9.196492e-05	
228	4.750000e+00	9.216519e-05	

Index   v-sweep         -i(vds)         
--------------------------------------------------------------------------------
229	4.800000e+00	9.237572e-05	
230	4.850000e+00	9.259735e-05	
231	4.900000e+00	9.283094e-05	
232	4.950000e+00	9.307741e-05	
233	5.000000e+00	9.333770e-05	
234	5.050000e+00	9.361278e-05	
235	5.100000e+00	9.390368e-05	
236	5.150000e+00	9.421143e-05	
237	5.200000e+00	9.453711e-05	
238	5.250000e+00	9.488185e-05	
239	5.300000e+00	9.524677e-05	
240	5.350000e+00	9.563306e-05	
241	5.400000e+00	9.604194e-05	
242	5.450000e+00	9.647462e-05	
243	5.500000e+00	9.693238e-05	
244	5.550000e+00	9.741653e-05	
245	5.600000e+00	9.792836e-05	
246	5.650000e+00	9.846925e-05	
247	5.700000e+00	9.904056e-05	
248	5.750000e+00	9.964369e-05	
249	5.800000e+00	1.002801e-04	
250	5.850000e+00	1.009511e-04	
251	5.900000e+00	1.016583e-04	
252	5.950000e+00	1.024032e-04	
253	6.000000e+00	1.031872e-04	
254	6.050000e+00	1.040119e-04	
255	6.100000e+00	1.048788e-04	
256	6.150000e+00	1.057895e-04	
257	6.200000e+00	1.067455e-04	
258	6.250000e+00	1.077485e-04	
259	6.300000e+00	1.087999e-04	
260	6.350000e+00	1.099016e-04	
261	6.400000e+00	1.110549e-04	
262	6.450000e+00	1.122617e-04	
263	6.500000e+00	1.135235e-04	
264	6.550000e+00	1.148419e-04	
265	6.600000e+00	1.162187e-04	
266	0.000000e+00	-1.28409e-21	
267	5.000000e-02	1.443057e-05	
268	1.000000e-01	2.815434e-05	
269	1.500000e-01	4.118813e-05	
270	2.000000e-01	5.354838e-05	
271	2.500000e-01	6.525110e-05	
272	3.000000e-01	7.631188e-05	
273	3.500000e-01	8.674589e-05	
274	4.000000e-01	9.656787e-05	
275	4.500000e-01	1.057921e-04	
276	5.000000e-01	1.144326e-04	
277	5.500000e-01	1.225028e-04	
278	6.000000e-01	1.300157e-04	
279	6.500000e-01	1.369840e-04	
280	7.000000e-01	1.434197e-04	
281	7.500000e-01	1.493341e-04	
282	8.000000e-01	1.547375e-04	
283	8.500000e-01	1.596382e-04	
284	9.000000e-01	1.640423e-04	
285	9.500000e-01	1.679526e-04	
286	1.000000e+00	1.713697e-04	

Index   v-sweep         -i(vds)         
--------------------------------------------------------------------------------
287	1.050000e+00	1.742991e-04	
288	1.100000e+00	1.767647e-04	
289	1.150000e+00	1.788177e-04	
290	1.200000e+00	1.805283e-04	
291	1.250000e+00	1.819686e-04	
292	1.300000e+00	1.831994e-04	
293	1.350000e+00	1.842680e-04	
294	1.400000e+00	1.852094e-04	
295	1.450000e+00	1.860496e-04	
296	1.500000e+00	1.868080e-04	
297	1.550000e+00	1.874990e-04	
298	1.600000e+00	1.881340e-04	
299	1.650000e+00	1.887215e-04	
300	1.700000e+00	1.892685e-04	
301	1.750000e+00	1.897805e-04	
302	1.800000e+00	1.902620e-04	
303	1.850000e+00	1.907167e-04	
304	1.900000e+00	1.911477e-04	
305	1.950000e+00	1.915574e-04	
306	2.000000e+00	1.919482e-04	
307	2.050000e+00	1.923220e-04	
308	2.100000e+00	1.926802e-04	
309	2.150000e+00	1.930243e-04	
310	2.200000e+00	1.933556e-04	
311	2.250000e+00	1.936750e-04	
312	2.300000e+00	1.939836e-04	
313	2.350000e+00	1.942822e-04	
314	2.400000e+00	1.945714e-04	
315	2.450000e+00	1.948520e-04	
316	2.500000e+00	1.951246e-04	
317	2.550000e+00	1.953897e-04	
318	2.600000e+00	1.956478e-04	
319	2.650000e+00	1.958993e-04	
320	2.700000e+00	1.961446e-04	
321	2.750000e+00	1.963842e-04	
322	2.800000e+00	1.966182e-04	
323	2.850000e+00	1.968471e-04	
324	2.900000e+00	1.970711e-04	
325	2.950000e+00	1.972904e-04	
326	3.000000e+00	1.975054e-04	
327	3.050000e+00	1.977162e-04	
328	3.100000e+00	1.979231e-04	
329	3.150000e+00	1.981262e-04	
330	3.200000e+00	1.983257e-04	
331	3.250000e+00	1.985219e-04	
332	3.300000e+00	1.987148e-04	
333	3.350000e+00	1.989047e-04	
334	3.400000e+00	1.990917e-04	
335	3.450000e+00	1.992760e-04	
336	3.500000e+00	1.994577e-04	
337	3.550000e+00	1.996371e-04	
338	3.600000e+00	1.998142e-04	
339	3.650000e+00	1.999893e-04	
340	3.700000e+00	2.001626e-04	
341	3.750000e+00	2.003343e-04	
342	3.800000e+00	2.005046e-04	
343	3.850000e+00	2.006737e-04	
344	3.900000e+00	2.008420e-04	

Index   v-sweep         -i(vds)         
--------------------------------------------------------------------------------
345	3.950000e+00	2.010097e-04	
346	4.000000e+00	2.011771e-04	
347	4.050000e+00	2.013447e-04	
348	4.100000e+00	2.015128e-04	
349	4.150000e+00	2.016818e-04	
350	4.200000e+00	2.018523e-04	
351	4.250000e+00	2.020246e-04	
352	4.300000e+00	2.021995e-04	
353	4.350000e+00	2.023775e-04	
354	4.400000e+00	2.025592e-04	
355	4.450000e+00	2.027455e-04	
356	4.500000e+00	2.029371e-04	
357	4.550000e+00	2.031348e-04	
358	4.600000e+00	2.033395e-04	
359	4.650000e+00	2.035523e-04	
360	4.700000e+00	2.037741e-04	
361	4.750000e+00	2.040061e-04	
362	4.800000e+00	2.042495e-04	
363	4.850000e+00	2.045054e-04	
364	4.900000e+00	2.047752e-04	
365	4.950000e+00	2.050604e-04	
366	5.000000e+00	2.053623e-04	
367	5.050000e+00	2.056825e-04	
368	5.100000e+00	2.060228e-04	
369	5.150000e+00	2.063846e-04	
370	5.200000e+00	2.067699e-04	
371	5.250000e+00	2.071804e-04	
372	5.300000e+00	2.076181e-04	
373	5.350000e+00	2.080851e-04	
374	5.400000e+00	2.085832e-04	
375	5.450000e+00	2.091148e-04	
376	5.500000e+00	2.096820e-04	
377	5.550000e+00	2.102870e-04	
378	5.600000e+00	2.109324e-04	
379	5.650000e+00	2.116203e-04	
380	5.700000e+00	2.123535e-04	
381	5.750000e+00	2.131343e-04	
382	5.800000e+00	2.139654e-04	
383	5.850000e+00	2.148495e-04	
384	5.900000e+00	2.157893e-04	
385	5.950000e+00	2.167876e-04	
386	6.000000e+00	2.178472e-04	
387	6.050000e+00	2.189709e-04	
388	6.100000e+00	2.201618e-04	
389	6.150000e+00	2.214227e-04	
390	6.200000e+00	2.227568e-04	
391	6.250000e+00	2.241670e-04	
392	6.300000e+00	2.256565e-04	
393	6.350000e+00	2.272283e-04	
394	6.400000e+00	2.288857e-04	
395	6.450000e+00	2.306317e-04	
396	6.500000e+00	2.324697e-04	
397	6.550000e+00	2.344028e-04	
398	6.600000e+00	2.364343e-04	
399	0.000000e+00	-2.06247e-20	
400	5.000000e-02	1.809449e-05	
401	1.000000e-01	3.550904e-05	
402	1.500000e-01	5.225806e-05	

Index   v-sweep         -i(vds)         
--------------------------------------------------------------------------------
403	2.000000e-01	6.835568e-05	
404	2.500000e-01	8.381571e-05	
405	3.000000e-01	9.865165e-05	
406	3.500000e-01	1.128767e-04	
407	4.000000e-01	1.265037e-04	
408	4.500000e-01	1.395452e-04	
409	5.000000e-01	1.520134e-04	
410	5.500000e-01	1.639201e-04	
411	6.000000e-01	1.752771e-04	
412	6.500000e-01	1.860955e-04	
413	7.000000e-01	1.963862e-04	
414	7.500000e-01	2.061601e-04	
415	8.000000e-01	2.154274e-04	
416	8.500000e-01	2.241981e-04	
417	9.000000e-01	2.324819e-04	
418	9.500000e-01	2.402879e-04	
419	1.000000e+00	2.476247e-04	
420	1.050000e+00	2.544998e-04	
421	1.100000e+00	2.609193e-04	
422	1.150000e+00	2.668875e-04	
423	1.200000e+00	2.724050e-04	
424	1.250000e+00	2.774679e-04	
425	1.300000e+00	2.820665e-04	
426	1.350000e+00	2.861864e-04	
427	1.400000e+00	2.898158e-04	
428	1.450000e+00	2.929590e-04	
429	1.500000e+00	2.956473e-04	
430	1.550000e+00	2.979363e-04	
431	1.600000e+00	2.998924e-04	
432	1.650000e+00	3.015793e-04	
433	1.700000e+00	3.030507e-04	
434	1.750000e+00	3.043493e-04	
435	1.800000e+00	3.055081e-04	
436	1.850000e+00	3.065528e-04	
437	1.900000e+00	3.075030e-04	
438	1.950000e+00	3.083740e-04	
439	2.000000e+00	3.091779e-04	
440	2.050000e+00	3.099243e-04	
441	2.100000e+00	3.106210e-04	
442	2.150000e+00	3.112745e-04	
443	2.200000e+00	3.118898e-04	
444	2.250000e+00	3.124715e-04	
445	2.300000e+00	3.130231e-04	
446	2.350000e+00	3.135478e-04	
447	2.400000e+00	3.140483e-04	
448	2.450000e+00	3.145268e-04	
449	2.500000e+00	3.149854e-04	
450	2.550000e+00	3.154257e-04	
451	2.600000e+00	3.158494e-04	
452	2.650000e+00	3.162576e-04	
453	2.700000e+00	3.166517e-04	
454	2.750000e+00	3.170327e-04	
455	2.800000e+00	3.174015e-04	
456	2.850000e+00	3.177590e-04	
457	2.900000e+00	3.181059e-04	
458	2.950000e+00	3.184429e-04	
459	3.000000e+00	3.187707e-04	
460	3.050000e+00	3.190897e-04	

Index   v-sweep         -i(vds)         
--------------------------------------------------------------------------------
461	3.100000e+00	3.194006e-04	
462	3.150000e+00	3.197038e-04	
463	3.200000e+00	3.199997e-04	
464	3.250000e+00	3.202888e-04	
465	3.300000e+00	3.205713e-04	
466	3.350000e+00	3.208478e-04	
467	3.400000e+00	3.211183e-04	
468	3.450000e+00	3.213833e-04	
469	3.500000e+00	3.216431e-04	
470	3.550000e+00	3.218979e-04	
471	3.600000e+00	3.221479e-04	
472	3.650000e+00	3.223934e-04	
473	3.700000e+00	3.226347e-04	
474	3.750000e+00	3.228719e-04	
475	3.800000e+00	3.231054e-04	
476	3.850000e+00	3.233354e-04	
477	3.900000e+00	3.235620e-04	
478	3.950000e+00	3.237856e-04	
479	4.000000e+00	3.240065e-04	
480	4.050000e+00	3.242249e-04	
481	4.100000e+00	3.244412e-04	
482	4.150000e+00	3.246557e-04	
483	4.200000e+00	3.248689e-04	
484	4.250000e+00	3.250810e-04	
485	4.300000e+00	3.252926e-04	
486	4.350000e+00	3.255042e-04	
487	4.400000e+00	3.257164e-04	
488	4.450000e+00	3.259297e-04	
489	4.500000e+00	3.261449e-04	
490	4.550000e+00	3.263626e-04	
491	4.600000e+00	3.265838e-04	
492	4.650000e+00	3.268093e-04	
493	4.700000e+00	3.270401e-04	
494	4.750000e+00	3.272773e-04	
495	4.800000e+00	3.275219e-04	
496	4.850000e+00	3.277753e-04	
497	4.900000e+00	3.280388e-04	
498	4.950000e+00	3.283138e-04	
499	5.000000e+00	3.286019e-04	
500	5.050000e+00	3.289047e-04	
501	5.100000e+00	3.292240e-04	
502	5.150000e+00	3.295617e-04	
503	5.200000e+00	3.299198e-04	
504	5.250000e+00	3.303003e-04	
505	5.300000e+00	3.307054e-04	
506	5.350000e+00	3.311376e-04	
507	5.400000e+00	3.315993e-04	
508	5.450000e+00	3.320931e-04	
509	5.500000e+00	3.326216e-04	
510	5.550000e+00	3.331876e-04	
511	5.600000e+00	3.337942e-04	
512	5.650000e+00	3.344443e-04	
513	5.700000e+00	3.351411e-04	
514	5.750000e+00	3.358879e-04	
515	5.800000e+00	3.366881e-04	
516	5.850000e+00	3.375451e-04	
517	5.900000e+00	3.384627e-04	
518	5.950000e+00	3.394444e-04	

Index   v-sweep         -i(vds)         
--------------------------------------------------------------------------------
519	6.000000e+00	3.404942e-04	
520	6.050000e+00	3.416158e-04	
521	6.100000e+00	3.428135e-04	
522	6.150000e+00	3.440911e-04	
523	6.200000e+00	3.454529e-04	
524	6.250000e+00	3.469032e-04	
525	6.300000e+00	3.484464e-04	
526	6.350000e+00	3.500868e-04	
527	6.400000e+00	3.518289e-04	
528	6.450000e+00	3.536774e-04	
529	6.500000e+00	3.556367e-04	
530	6.550000e+00	3.577117e-04	
531	6.600000e+00	3.599070e-04	
532	0.000000e+00	2.231274e-21	
533	5.000000e-02	2.064092e-05	
534	1.000000e-01	4.064826e-05	
535	1.500000e-01	6.003387e-05	
536	2.000000e-01	7.880936e-05	
537	2.500000e-01	9.698617e-05	
538	3.000000e-01	1.145755e-04	
539	3.500000e-01	1.315883e-04	
540	4.000000e-01	1.480354e-04	
541	4.500000e-01	1.639272e-04	
542	5.000000e-01	1.792740e-04	
543	5.500000e-01	1.940859e-04	
544	6.000000e-01	2.083728e-04	
545	6.500000e-01	2.221441e-04	
546	7.000000e-01	2.354092e-04	
547	7.500000e-01	2.481773e-04	
548	8.000000e-01	2.604573e-04	
549	8.500000e-01	2.722579e-04	
550	9.000000e-01	2.835876e-04	
551	9.500000e-01	2.944548e-04	
552	1.000000e+00	3.048676e-04	
553	1.050000e+00	3.148338e-04	
554	1.100000e+00	3.243612e-04	
555	1.150000e+00	3.334570e-04	
556	1.200000e+00	3.421285e-04	
557	1.250000e+00	3.503821e-04	
558	1.300000e+00	3.582239e-04	
559	1.350000e+00	3.656589e-04	
560	1.400000e+00	3.726909e-04	
561	1.450000e+00	3.793217e-04	
562	1.500000e+00	3.855502e-04	
563	1.550000e+00	3.913709e-04	
564	1.600000e+00	3.967728e-04	
565	1.650000e+00	4.017384e-04	
566	1.700000e+00	4.062465e-04	
567	1.750000e+00	4.102790e-04	
568	1.800000e+00	4.138332e-04	
569	1.850000e+00	4.169309e-04	
570	1.900000e+00	4.196166e-04	
571	1.950000e+00	4.219479e-04	
572	2.000000e+00	4.239830e-04	
573	2.050000e+00	4.257745e-04	
574	2.100000e+00	4.273662e-04	
575	2.150000e+00	4.287935e-04	
576	2.200000e+00	4.300844e-04	

Index   v-sweep         -i(vds)         
--------------------------------------------------------------------------------
577	2.250000e+00	4.312611e-04	
578	2.300000e+00	4.323414e-04	
579	2.350000e+00	4.333393e-04	
580	2.400000e+00	4.342664e-04	
581	2.450000e+00	4.351320e-04	
582	2.500000e+00	4.359436e-04	
583	2.550000e+00	4.367078e-04	
584	2.600000e+00	4.374298e-04	
585	2.650000e+00	4.381143e-04	
586	2.700000e+00	4.387649e-04	
587	2.750000e+00	4.393851e-04	
588	2.800000e+00	4.399776e-04	
589	2.850000e+00	4.405450e-04	
590	2.900000e+00	4.410894e-04	
591	2.950000e+00	4.416128e-04	
592	3.000000e+00	4.421167e-04	
593	3.050000e+00	4.426027e-04	
594	3.100000e+00	4.430721e-04	
595	3.150000e+00	4.435260e-04	
596	3.200000e+00	4.439657e-04	
597	3.250000e+00	4.443919e-04	
598	3.300000e+00	4.448057e-04	
599	3.350000e+00	4.452077e-04	
600	3.400000e+00	4.455986e-04	
601	3.450000e+00	4.459792e-04	
602	3.500000e+00	4.463501e-04	
603	3.550000e+00	4.467117e-04	
604	3.600000e+00	4.470646e-04	
605	3.650000e+00	4.474093e-04	
606	3.700000e+00	4.477461e-04	
607	3.750000e+00	4.480756e-04	
608	3.800000e+00	4.483980e-04	
609	3.850000e+00	4.487137e-04	
610	3.900000e+00	4.490231e-04	
611	3.950000e+00	4.493264e-04	
612	4.000000e+00	4.496241e-04	
613	4.050000e+00	4.499164e-04	
614	4.100000e+00	4.502037e-04	
615	4.150000e+00	4.504861e-04	
616	4.200000e+00	4.507641e-04	
617	4.250000e+00	4.510380e-04	
618	4.300000e+00	4.513081e-04	
619	4.350000e+00	4.515749e-04	
620	4.400000e+00	4.518386e-04	
621	4.450000e+00	4.520998e-04	
622	4.500000e+00	4.523589e-04	
623	4.550000e+00	4.526165e-04	
624	4.600000e+00	4.528730e-04	
625	4.650000e+00	4.531292e-04	
626	4.700000e+00	4.533858e-04	
627	4.750000e+00	4.536435e-04	
628	4.800000e+00	4.539032e-04	
629	4.850000e+00	4.541658e-04	
630	4.900000e+00	4.544324e-04	
631	4.950000e+00	4.547041e-04	
632	5.000000e+00	4.549821e-04	
633	5.050000e+00	4.552679e-04	
634	5.100000e+00	4.555628e-04	

Index   v-sweep         -i(vds)         
--------------------------------------------------------------------------------
635	5.150000e+00	4.558686e-04	
636	5.200000e+00	4.561868e-04	
637	5.250000e+00	4.565195e-04	
638	5.300000e+00	4.568685e-04	
639	5.350000e+00	4.572361e-04	
640	5.400000e+00	4.576245e-04	
641	5.450000e+00	4.580362e-04	
642	5.500000e+00	4.584738e-04	
643	5.550000e+00	4.589401e-04	
644	5.600000e+00	4.594380e-04	
645	5.650000e+00	4.599705e-04	
646	5.700000e+00	4.605409e-04	
647	5.750000e+00	4.611526e-04	
648	5.800000e+00	4.618092e-04	
649	5.850000e+00	4.625145e-04	
650	5.900000e+00	4.632722e-04	
651	5.950000e+00	4.640865e-04	
652	6.000000e+00	4.649616e-04	
653	6.050000e+00	4.659018e-04	
654	6.100000e+00	4.669116e-04	
655	6.150000e+00	4.679958e-04	
656	6.200000e+00	4.691591e-04	
657	6.250000e+00	4.704065e-04	
658	6.300000e+00	4.717431e-04	
659	6.350000e+00	4.731741e-04	
660	6.400000e+00	4.747049e-04	
661	6.450000e+00	4.763409e-04	
662	6.500000e+00	4.780879e-04	
663	6.550000e+00	4.799514e-04	
664	6.600000e+00	4.819372e-04	
665	0.000000e+00	3.131259e-20	
666	5.000000e-02	2.232260e-05	
667	1.000000e-01	4.406695e-05	
668	1.500000e-01	6.524257e-05	
669	2.000000e-01	8.585882e-05	
670	2.500000e-01	1.059249e-04	
671	3.000000e-01	1.254500e-04	
672	3.500000e-01	1.444429e-04	
673	4.000000e-01	1.629125e-04	
674	4.500000e-01	1.808673e-04	
675	5.000000e-01	1.983158e-04	
676	5.500000e-01	2.152663e-04	
677	6.000000e-01	2.317269e-04	
678	6.500000e-01	2.477055e-04	
679	7.000000e-01	2.632099e-04	
680	7.500000e-01	2.782478e-04	
681	8.000000e-01	2.928266e-04	
682	8.500000e-01	3.069537e-04	
683	9.000000e-01	3.206360e-04	
684	9.500000e-01	3.338808e-04	
685	1.000000e+00	3.466948e-04	
686	1.050000e+00	3.590848e-04	
687	1.100000e+00	3.710574e-04	
688	1.150000e+00	3.826190e-04	
689	1.200000e+00	3.937761e-04	
690	1.250000e+00	4.045348e-04	
691	1.300000e+00	4.149012e-04	
692	1.350000e+00	4.248812e-04	

Index   v-sweep         -i(vds)         
--------------------------------------------------------------------------------
693	1.400000e+00	4.344807e-04	
694	1.450000e+00	4.437050e-04	
695	1.500000e+00	4.525595e-04	
696	1.550000e+00	4.610490e-04	
697	1.600000e+00	4.691778e-04	
698	1.650000e+00	4.769496e-04	
699	1.700000e+00	4.843668e-04	
700	1.750000e+00	4.914306e-04	
701	1.800000e+00	4.981397e-04	
702	1.850000e+00	5.044896e-04	
703	1.900000e+00	5.104717e-04	
704	1.950000e+00	5.160714e-04	
705	2.000000e+00	5.212688e-04	
706	2.050000e+00	5.260403e-04	
707	2.100000e+00	5.303656e-04	
708	2.150000e+00	5.342370e-04	
709	2.200000e+00	5.376672e-04	
710	2.250000e+00	5.406890e-04	
711	2.300000e+00	5.433492e-04	
712	2.350000e+00	5.456986e-04	
713	2.400000e+00	5.477858e-04	
714	2.450000e+00	5.496533e-04	
715	2.500000e+00	5.513369e-04	
716	2.550000e+00	5.528658e-04	
717	2.600000e+00	5.542637e-04	
718	2.650000e+00	5.555500e-04	
719	2.700000e+00	5.567403e-04	
720	2.750000e+00	5.578475e-04	
721	2.800000e+00	5.588822e-04	
722	2.850000e+00	5.598531e-04	
723	2.900000e+00	5.607677e-04	
724	2.950000e+00	5.616320e-04	
725	3.000000e+00	5.624515e-04	
726	3.050000e+00	5.632306e-04	
727	3.100000e+00	5.639731e-04	
728	3.150000e+00	5.646825e-04	
729	3.200000e+00	5.653616e-04	
730	3.250000e+00	5.660131e-04	
731	3.300000e+00	5.666391e-04	
732	3.350000e+00	5.672418e-04	
733	3.400000e+00	5.678228e-04	
734	3.450000e+00	5.683838e-04	
735	3.500000e+00	5.689261e-04	
736	3.550000e+00	5.694511e-04	
737	3.600000e+00	5.699599e-04	
738	3.650000e+00	5.704535e-04	
739	3.700000e+00	5.709329e-04	
740	3.750000e+00	5.713989e-04	
741	3.800000e+00	5.718523e-04	
742	3.850000e+00	5.722939e-04	
743	3.900000e+00	5.727243e-04	
744	3.950000e+00	5.731441e-04	
745	4.000000e+00	5.735539e-04	
746	4.050000e+00	5.739542e-04	
747	4.100000e+00	5.743455e-04	
748	4.150000e+00	5.747283e-04	
749	4.200000e+00	5.751029e-04	
750	4.250000e+00	5.754699e-04	

Index   v-sweep         -i(vds)         
--------------------------------------------------------------------------------
751	4.300000e+00	5.758295e-04	
752	4.350000e+00	5.761822e-04	
753	4.400000e+00	5.765283e-04	
754	4.450000e+00	5.768683e-04	
755	4.500000e+00	5.772025e-04	
756	4.550000e+00	5.775313e-04	
757	4.600000e+00	5.778552e-04	
758	4.650000e+00	5.781745e-04	
759	4.700000e+00	5.784897e-04	
760	4.750000e+00	5.788013e-04	
761	4.800000e+00	5.791099e-04	
762	4.850000e+00	5.794160e-04	
763	4.900000e+00	5.797204e-04	
764	4.950000e+00	5.800237e-04	
765	5.000000e+00	5.803267e-04	
766	5.050000e+00	5.806304e-04	
767	5.100000e+00	5.809357e-04	
768	5.150000e+00	5.812436e-04	
769	5.200000e+00	5.815555e-04	
770	5.250000e+00	5.818726e-04	
771	5.300000e+00	5.821964e-04	
772	5.350000e+00	5.825283e-04	
773	5.400000e+00	5.828703e-04	
774	5.450000e+00	5.832241e-04	
775	5.500000e+00	5.835917e-04	
776	5.550000e+00	5.839755e-04	
777	5.600000e+00	5.843776e-04	
778	5.650000e+00	5.848008e-04	
779	5.700000e+00	5.852477e-04	
780	5.750000e+00	5.857213e-04	
781	5.800000e+00	5.862246e-04	
782	5.850000e+00	5.867611e-04	
783	5.900000e+00	5.873341e-04	
784	5.950000e+00	5.879474e-04	
785	6.000000e+00	5.886050e-04	
786	6.050000e+00	5.893108e-04	
787	6.100000e+00	5.900694e-04	
788	6.150000e+00	5.908852e-04	
789	6.200000e+00	5.917629e-04	
790	6.250000e+00	5.927075e-04	
791	6.300000e+00	5.937241e-04	
792	6.350000e+00	5.948180e-04	
793	6.400000e+00	5.959949e-04	
794	6.450000e+00	5.972603e-04	
795	6.500000e+00	5.986202e-04	
796	6.550000e+00	6.000808e-04	
797	6.600000e+00	6.016481e-04	
Note: No ".plot", ".print", or ".fourier" lines; no simulations run
