
Note: Compatibility modes selected: hs

Warning: m=xx on .subckt line will override multiplier m hierarchy!


Circuit: ***************************

Doing analysis at TEMP = 25.000000 and TNOM = 25.000000


No. of Data Rows : 798
                          ***************************
                          DC transfer characteristic  Mon Jan  9 13:58:36  2023
--------------------------------------------------------------------------------
Index   v-sweep         -i(vds)         
--------------------------------------------------------------------------------
0	0.000000e+00	-2.14745e-30	
1	5.000000e-02	2.857490e-06	
2	1.000000e-01	4.936272e-06	
3	1.500000e-01	6.291999e-06	
4	2.000000e-01	7.063453e-06	
5	2.500000e-01	7.502608e-06	
6	3.000000e-01	7.809236e-06	
7	3.500000e-01	8.059760e-06	
8	4.000000e-01	8.279193e-06	
9	4.500000e-01	8.478028e-06	
10	5.000000e-01	8.661878e-06	
11	5.500000e-01	8.834231e-06	
12	6.000000e-01	8.997450e-06	
13	6.500000e-01	9.153230e-06	
14	7.000000e-01	9.302834e-06	
15	7.500000e-01	9.447232e-06	
16	8.000000e-01	9.587186e-06	
17	8.500000e-01	9.723304e-06	
18	9.000000e-01	9.856082e-06	
19	9.500000e-01	9.985928e-06	
20	1.000000e+00	1.011318e-05	
21	1.050000e+00	1.023813e-05	
22	1.100000e+00	1.036102e-05	
23	1.150000e+00	1.048205e-05	
24	1.200000e+00	1.060141e-05	
25	1.250000e+00	1.071925e-05	
26	1.300000e+00	1.083572e-05	
27	1.350000e+00	1.095092e-05	
28	1.400000e+00	1.106496e-05	
29	1.450000e+00	1.117795e-05	
30	1.500000e+00	1.128996e-05	
31	1.550000e+00	1.140107e-05	
32	1.600000e+00	1.151134e-05	
33	1.650000e+00	1.162083e-05	
34	1.700000e+00	1.172961e-05	
35	1.750000e+00	1.183772e-05	
36	1.800000e+00	1.194520e-05	
37	1.850000e+00	1.205210e-05	
38	1.900000e+00	1.215846e-05	
39	1.950000e+00	1.226430e-05	
40	2.000000e+00	1.236966e-05	
41	2.050000e+00	1.247458e-05	
42	2.100000e+00	1.257906e-05	
43	2.150000e+00	1.268315e-05	
44	2.200000e+00	1.278687e-05	
45	2.250000e+00	1.289023e-05	
46	2.300000e+00	1.299326e-05	
47	2.350000e+00	1.309597e-05	
48	2.400000e+00	1.319838e-05	
49	2.450000e+00	1.330052e-05	
50	2.500000e+00	1.340239e-05	
51	2.550000e+00	1.350402e-05	
52	2.600000e+00	1.360542e-05	
53	2.650000e+00	1.370660e-05	
54	2.700000e+00	1.380758e-05	

Index   v-sweep         -i(vds)         
--------------------------------------------------------------------------------
55	2.750000e+00	1.390838e-05	
56	2.800000e+00	1.400902e-05	
57	2.850000e+00	1.410951e-05	
58	2.900000e+00	1.420987e-05	
59	2.950000e+00	1.431011e-05	
60	3.000000e+00	1.441028e-05	
61	3.050000e+00	1.451038e-05	
62	3.100000e+00	1.461044e-05	
63	3.150000e+00	1.471049e-05	
64	3.200000e+00	1.481056e-05	
65	3.250000e+00	1.491069e-05	
66	3.300000e+00	1.501091e-05	
67	3.350000e+00	1.511127e-05	
68	3.400000e+00	1.521180e-05	
69	3.450000e+00	1.531256e-05	
70	3.500000e+00	1.541361e-05	
71	3.550000e+00	1.551500e-05	
72	3.600000e+00	1.561680e-05	
73	3.650000e+00	1.571907e-05	
74	3.700000e+00	1.582190e-05	
75	3.750000e+00	1.592537e-05	
76	3.800000e+00	1.602957e-05	
77	3.850000e+00	1.613459e-05	
78	3.900000e+00	1.624053e-05	
79	3.950000e+00	1.634752e-05	
80	4.000000e+00	1.645566e-05	
81	4.050000e+00	1.656509e-05	
82	4.100000e+00	1.667594e-05	
83	4.150000e+00	1.678835e-05	
84	4.200000e+00	1.690247e-05	
85	4.250000e+00	1.701848e-05	
86	4.300000e+00	1.713653e-05	
87	4.350000e+00	1.725680e-05	
88	4.400000e+00	1.737950e-05	
89	4.450000e+00	1.750481e-05	
90	4.500000e+00	1.763294e-05	
91	4.550000e+00	1.776412e-05	
92	4.600000e+00	1.789856e-05	
93	4.650000e+00	1.803651e-05	
94	4.700000e+00	1.817821e-05	
95	4.750000e+00	1.832393e-05	
96	4.800000e+00	1.847393e-05	
97	4.850000e+00	1.862848e-05	
98	4.900000e+00	1.878789e-05	
99	4.950000e+00	1.895243e-05	
100	5.000000e+00	1.912243e-05	
101	5.050000e+00	1.929821e-05	
102	5.100000e+00	1.948008e-05	
103	5.150000e+00	1.966839e-05	
104	5.200000e+00	1.986349e-05	
105	5.250000e+00	2.006573e-05	
106	5.300000e+00	2.027548e-05	
107	5.350000e+00	2.049312e-05	
108	5.400000e+00	2.071904e-05	
109	5.450000e+00	2.095363e-05	
110	5.500000e+00	2.119729e-05	
111	5.550000e+00	2.145045e-05	
112	5.600000e+00	2.171352e-05	

Index   v-sweep         -i(vds)         
--------------------------------------------------------------------------------
113	5.650000e+00	2.198694e-05	
114	5.700000e+00	2.227115e-05	
115	5.750000e+00	2.256660e-05	
116	5.800000e+00	2.287374e-05	
117	5.850000e+00	2.319304e-05	
118	5.900000e+00	2.352498e-05	
119	5.950000e+00	2.387003e-05	
120	6.000000e+00	2.422869e-05	
121	6.050000e+00	2.460145e-05	
122	6.100000e+00	2.498882e-05	
123	6.150000e+00	2.539131e-05	
124	6.200000e+00	2.580943e-05	
125	6.250000e+00	2.624371e-05	
126	6.300000e+00	2.669469e-05	
127	6.350000e+00	2.716289e-05	
128	6.400000e+00	2.764886e-05	
129	6.450000e+00	2.815316e-05	
130	6.500000e+00	2.867633e-05	
131	6.550000e+00	2.921893e-05	
132	6.600000e+00	2.978154e-05	
133	0.000000e+00	-9.76430e-31	
134	5.000000e-02	1.112895e-05	
135	1.000000e-01	2.141804e-05	
136	1.500000e-01	3.088896e-05	
137	2.000000e-01	3.956293e-05	
138	2.500000e-01	4.746068e-05	
139	3.000000e-01	5.460256e-05	
140	3.500000e-01	6.100867e-05	
141	4.000000e-01	6.669910e-05	
142	4.500000e-01	7.169440e-05	
143	5.000000e-01	7.601646e-05	
144	5.500000e-01	7.969063e-05	
145	6.000000e-01	8.275050e-05	
146	6.500000e-01	8.524746e-05	
147	7.000000e-01	8.726066e-05	
148	7.500000e-01	8.889070e-05	
149	8.000000e-01	9.023530e-05	
150	8.500000e-01	9.137143e-05	
151	9.000000e-01	9.235366e-05	
152	9.500000e-01	9.321957e-05	
153	1.000000e+00	9.399530e-05	
154	1.050000e+00	9.469940e-05	
155	1.100000e+00	9.534541e-05	
156	1.150000e+00	9.594347e-05	
157	1.200000e+00	9.650129e-05	
158	1.250000e+00	9.702493e-05	
159	1.300000e+00	9.751916e-05	
160	1.350000e+00	9.798784e-05	
161	1.400000e+00	9.843414e-05	
162	1.450000e+00	9.886067e-05	
163	1.500000e+00	9.926961e-05	
164	1.550000e+00	9.966280e-05	
165	1.600000e+00	1.000418e-04	
166	1.650000e+00	1.004080e-04	
167	1.700000e+00	1.007626e-04	
168	1.750000e+00	1.011065e-04	
169	1.800000e+00	1.014406e-04	
170	1.850000e+00	1.017658e-04	

Index   v-sweep         -i(vds)         
--------------------------------------------------------------------------------
171	1.900000e+00	1.020827e-04	
172	1.950000e+00	1.023919e-04	
173	2.000000e+00	1.026941e-04	
174	2.050000e+00	1.029896e-04	
175	2.100000e+00	1.032790e-04	
176	2.150000e+00	1.035626e-04	
177	2.200000e+00	1.038408e-04	
178	2.250000e+00	1.041140e-04	
179	2.300000e+00	1.043824e-04	
180	2.350000e+00	1.046462e-04	
181	2.400000e+00	1.049059e-04	
182	2.450000e+00	1.051616e-04	
183	2.500000e+00	1.054134e-04	
184	2.550000e+00	1.056617e-04	
185	2.600000e+00	1.059065e-04	
186	2.650000e+00	1.061482e-04	
187	2.700000e+00	1.063867e-04	
188	2.750000e+00	1.066223e-04	
189	2.800000e+00	1.068552e-04	
190	2.850000e+00	1.070854e-04	
191	2.900000e+00	1.073131e-04	
192	2.950000e+00	1.075383e-04	
193	3.000000e+00	1.077613e-04	
194	3.050000e+00	1.079822e-04	
195	3.100000e+00	1.082010e-04	
196	3.150000e+00	1.084178e-04	
197	3.200000e+00	1.086329e-04	
198	3.250000e+00	1.088463e-04	
199	3.300000e+00	1.090582e-04	
200	3.350000e+00	1.092686e-04	
201	3.400000e+00	1.094778e-04	
202	3.450000e+00	1.096859e-04	
203	3.500000e+00	1.098930e-04	
204	3.550000e+00	1.100994e-04	
205	3.600000e+00	1.103052e-04	
206	3.650000e+00	1.105107e-04	
207	3.700000e+00	1.107160e-04	
208	3.750000e+00	1.109215e-04	
209	3.800000e+00	1.111274e-04	
210	3.850000e+00	1.113341e-04	
211	3.900000e+00	1.115418e-04	
212	3.950000e+00	1.117509e-04	
213	4.000000e+00	1.119618e-04	
214	4.050000e+00	1.121750e-04	
215	4.100000e+00	1.123908e-04	
216	4.150000e+00	1.126098e-04	
217	4.200000e+00	1.128325e-04	
218	4.250000e+00	1.130594e-04	
219	4.300000e+00	1.132912e-04	
220	4.350000e+00	1.135285e-04	
221	4.400000e+00	1.137720e-04	
222	4.450000e+00	1.140224e-04	
223	4.500000e+00	1.142804e-04	
224	4.550000e+00	1.145470e-04	
225	4.600000e+00	1.148228e-04	
226	4.650000e+00	1.151089e-04	
227	4.700000e+00	1.154062e-04	
228	4.750000e+00	1.157157e-04	

Index   v-sweep         -i(vds)         
--------------------------------------------------------------------------------
229	4.800000e+00	1.160384e-04	
230	4.850000e+00	1.163753e-04	
231	4.900000e+00	1.167277e-04	
232	4.950000e+00	1.170967e-04	
233	5.000000e+00	1.174835e-04	
234	5.050000e+00	1.178894e-04	
235	5.100000e+00	1.183157e-04	
236	5.150000e+00	1.187637e-04	
237	5.200000e+00	1.192348e-04	
238	5.250000e+00	1.197306e-04	
239	5.300000e+00	1.202524e-04	
240	5.350000e+00	1.208018e-04	
241	5.400000e+00	1.213804e-04	
242	5.450000e+00	1.219897e-04	
243	5.500000e+00	1.226314e-04	
244	5.550000e+00	1.233072e-04	
245	5.600000e+00	1.240188e-04	
246	5.650000e+00	1.247680e-04	
247	5.700000e+00	1.255565e-04	
248	5.750000e+00	1.263861e-04	
249	5.800000e+00	1.272588e-04	
250	5.850000e+00	1.281763e-04	
251	5.900000e+00	1.291407e-04	
252	5.950000e+00	1.301538e-04	
253	6.000000e+00	1.312176e-04	
254	6.050000e+00	1.323341e-04	
255	6.100000e+00	1.335053e-04	
256	6.150000e+00	1.347332e-04	
257	6.200000e+00	1.360198e-04	
258	6.250000e+00	1.373674e-04	
259	6.300000e+00	1.387779e-04	
260	6.350000e+00	1.402534e-04	
261	6.400000e+00	1.417961e-04	
262	6.450000e+00	1.434080e-04	
263	6.500000e+00	1.450914e-04	
264	6.550000e+00	1.468484e-04	
265	6.600000e+00	1.486811e-04	
266	0.000000e+00	-2.03880e-20	
267	5.000000e-02	1.687042e-05	
268	1.000000e-01	3.290510e-05	
269	1.500000e-01	4.812387e-05	
270	2.000000e-01	6.254609e-05	
271	2.500000e-01	7.619064e-05	
272	3.000000e-01	8.907590e-05	
273	3.500000e-01	1.012197e-04	
274	4.000000e-01	1.126395e-04	
275	4.500000e-01	1.233520e-04	
276	5.000000e-01	1.333736e-04	
277	5.500000e-01	1.427201e-04	
278	6.000000e-01	1.514072e-04	
279	6.500000e-01	1.594495e-04	
280	7.000000e-01	1.668615e-04	
281	7.500000e-01	1.736564e-04	
282	8.000000e-01	1.798463e-04	
283	8.500000e-01	1.854404e-04	
284	9.000000e-01	1.904447e-04	
285	9.500000e-01	1.948615e-04	
286	1.000000e+00	1.986944e-04	

Index   v-sweep         -i(vds)         
--------------------------------------------------------------------------------
287	1.050000e+00	2.019628e-04	
288	1.100000e+00	2.047163e-04	
289	1.150000e+00	2.070324e-04	
290	1.200000e+00	2.089965e-04	
291	1.250000e+00	2.106851e-04	
292	1.300000e+00	2.121587e-04	
293	1.350000e+00	2.134631e-04	
294	1.400000e+00	2.146324e-04	
295	1.450000e+00	2.156921e-04	
296	1.500000e+00	2.166616e-04	
297	1.550000e+00	2.175557e-04	
298	1.600000e+00	2.183860e-04	
299	1.650000e+00	2.191618e-04	
300	1.700000e+00	2.198904e-04	
301	1.750000e+00	2.205778e-04	
302	1.800000e+00	2.212290e-04	
303	1.850000e+00	2.218482e-04	
304	1.900000e+00	2.224387e-04	
305	1.950000e+00	2.230036e-04	
306	2.000000e+00	2.235453e-04	
307	2.050000e+00	2.240660e-04	
308	2.100000e+00	2.245677e-04	
309	2.150000e+00	2.250519e-04	
310	2.200000e+00	2.255200e-04	
311	2.250000e+00	2.259735e-04	
312	2.300000e+00	2.264133e-04	
313	2.350000e+00	2.268405e-04	
314	2.400000e+00	2.272560e-04	
315	2.450000e+00	2.276605e-04	
316	2.500000e+00	2.280549e-04	
317	2.550000e+00	2.284398e-04	
318	2.600000e+00	2.288157e-04	
319	2.650000e+00	2.291832e-04	
320	2.700000e+00	2.295429e-04	
321	2.750000e+00	2.298951e-04	
322	2.800000e+00	2.302402e-04	
323	2.850000e+00	2.305787e-04	
324	2.900000e+00	2.309109e-04	
325	2.950000e+00	2.312372e-04	
326	3.000000e+00	2.315578e-04	
327	3.050000e+00	2.318730e-04	
328	3.100000e+00	2.321831e-04	
329	3.150000e+00	2.324883e-04	
330	3.200000e+00	2.327889e-04	
331	3.250000e+00	2.330851e-04	
332	3.300000e+00	2.333772e-04	
333	3.350000e+00	2.336652e-04	
334	3.400000e+00	2.339496e-04	
335	3.450000e+00	2.342304e-04	
336	3.500000e+00	2.345079e-04	
337	3.550000e+00	2.347822e-04	
338	3.600000e+00	2.350538e-04	
339	3.650000e+00	2.353227e-04	
340	3.700000e+00	2.355892e-04	
341	3.750000e+00	2.358537e-04	
342	3.800000e+00	2.361163e-04	
343	3.850000e+00	2.363775e-04	
344	3.900000e+00	2.366376e-04	

Index   v-sweep         -i(vds)         
--------------------------------------------------------------------------------
345	3.950000e+00	2.368970e-04	
346	4.000000e+00	2.371560e-04	
347	4.050000e+00	2.374152e-04	
348	4.100000e+00	2.376751e-04	
349	4.150000e+00	2.379362e-04	
350	4.200000e+00	2.381991e-04	
351	4.250000e+00	2.384645e-04	
352	4.300000e+00	2.387331e-04	
353	4.350000e+00	2.390057e-04	
354	4.400000e+00	2.392832e-04	
355	4.450000e+00	2.395664e-04	
356	4.500000e+00	2.398563e-04	
357	4.550000e+00	2.401540e-04	
358	4.600000e+00	2.404606e-04	
359	4.650000e+00	2.407774e-04	
360	4.700000e+00	2.411056e-04	
361	4.750000e+00	2.414466e-04	
362	4.800000e+00	2.418020e-04	
363	4.850000e+00	2.421731e-04	
364	4.900000e+00	2.425618e-04	
365	4.950000e+00	2.429696e-04	
366	5.000000e+00	2.433985e-04	
367	5.050000e+00	2.438503e-04	
368	5.100000e+00	2.443270e-04	
369	5.150000e+00	2.448307e-04	
370	5.200000e+00	2.453637e-04	
371	5.250000e+00	2.459280e-04	
372	5.300000e+00	2.465263e-04	
373	5.350000e+00	2.471607e-04	
374	5.400000e+00	2.478340e-04	
375	5.450000e+00	2.485487e-04	
376	5.500000e+00	2.493076e-04	
377	5.550000e+00	2.501133e-04	
378	5.600000e+00	2.509688e-04	
379	5.650000e+00	2.518771e-04	
380	5.700000e+00	2.528410e-04	
381	5.750000e+00	2.538639e-04	
382	5.800000e+00	2.549487e-04	
383	5.850000e+00	2.560988e-04	
384	5.900000e+00	2.573175e-04	
385	5.950000e+00	2.586081e-04	
386	6.000000e+00	2.599741e-04	
387	6.050000e+00	2.614189e-04	
388	6.100000e+00	2.629461e-04	
389	6.150000e+00	2.645593e-04	
390	6.200000e+00	2.662621e-04	
391	6.250000e+00	2.680582e-04	
392	6.300000e+00	2.699514e-04	
393	6.350000e+00	2.719453e-04	
394	6.400000e+00	2.740439e-04	
395	6.450000e+00	2.762510e-04	
396	6.500000e+00	2.785703e-04	
397	6.550000e+00	2.810058e-04	
398	6.600000e+00	2.835614e-04	
399	0.000000e+00	-5.67871e-20	
400	5.000000e-02	2.096371e-05	
401	1.000000e-01	4.112846e-05	
402	1.500000e-01	6.051102e-05	

Index   v-sweep         -i(vds)         
--------------------------------------------------------------------------------
403	2.000000e-01	7.912785e-05	
404	2.500000e-01	9.699505e-05	
405	3.000000e-01	1.141284e-04	
406	3.500000e-01	1.305432e-04	
407	4.000000e-01	1.462544e-04	
408	4.500000e-01	1.612766e-04	
409	5.000000e-01	1.756238e-04	
410	5.500000e-01	1.893099e-04	
411	6.000000e-01	2.023482e-04	
412	6.500000e-01	2.147516e-04	
413	7.000000e-01	2.265328e-04	
414	7.500000e-01	2.377041e-04	
415	8.000000e-01	2.482775e-04	
416	8.500000e-01	2.582646e-04	
417	9.000000e-01	2.676765e-04	
418	9.500000e-01	2.765240e-04	
419	1.000000e+00	2.848165e-04	
420	1.050000e+00	2.925624e-04	
421	1.100000e+00	2.997677e-04	
422	1.150000e+00	3.064347e-04	
423	1.200000e+00	3.125603e-04	
424	1.250000e+00	3.181342e-04	
425	1.300000e+00	3.231407e-04	
426	1.350000e+00	3.275666e-04	
427	1.400000e+00	3.314180e-04	
428	1.450000e+00	3.347333e-04	
429	1.500000e+00	3.375786e-04	
430	1.550000e+00	3.400317e-04	
431	1.600000e+00	3.421663e-04	
432	1.650000e+00	3.440444e-04	
433	1.700000e+00	3.457155e-04	
434	1.750000e+00	3.472181e-04	
435	1.800000e+00	3.485820e-04	
436	1.850000e+00	3.498303e-04	
437	1.900000e+00	3.509812e-04	
438	1.950000e+00	3.520490e-04	
439	2.000000e+00	3.530454e-04	
440	2.050000e+00	3.539798e-04	
441	2.100000e+00	3.548598e-04	
442	2.150000e+00	3.556918e-04	
443	2.200000e+00	3.564813e-04	
444	2.250000e+00	3.572327e-04	
445	2.300000e+00	3.579500e-04	
446	2.350000e+00	3.586363e-04	
447	2.400000e+00	3.592946e-04	
448	2.450000e+00	3.599273e-04	
449	2.500000e+00	3.605366e-04	
450	2.550000e+00	3.611245e-04	
451	2.600000e+00	3.616926e-04	
452	2.650000e+00	3.622424e-04	
453	2.700000e+00	3.627752e-04	
454	2.750000e+00	3.632923e-04	
455	2.800000e+00	3.637947e-04	
456	2.850000e+00	3.642834e-04	
457	2.900000e+00	3.647593e-04	
458	2.950000e+00	3.652231e-04	
459	3.000000e+00	3.656757e-04	
460	3.050000e+00	3.661175e-04	

Index   v-sweep         -i(vds)         
--------------------------------------------------------------------------------
461	3.100000e+00	3.665494e-04	
462	3.150000e+00	3.669717e-04	
463	3.200000e+00	3.673851e-04	
464	3.250000e+00	3.677900e-04	
465	3.300000e+00	3.681868e-04	
466	3.350000e+00	3.685760e-04	
467	3.400000e+00	3.689580e-04	
468	3.450000e+00	3.693330e-04	
469	3.500000e+00	3.697015e-04	
470	3.550000e+00	3.700637e-04	
471	3.600000e+00	3.704200e-04	
472	3.650000e+00	3.707707e-04	
473	3.700000e+00	3.711161e-04	
474	3.750000e+00	3.714565e-04	
475	3.800000e+00	3.717923e-04	
476	3.850000e+00	3.721236e-04	
477	3.900000e+00	3.724508e-04	
478	3.950000e+00	3.727744e-04	
479	4.000000e+00	3.730945e-04	
480	4.050000e+00	3.734117e-04	
481	4.100000e+00	3.737264e-04	
482	4.150000e+00	3.740390e-04	
483	4.200000e+00	3.743500e-04	
484	4.250000e+00	3.746600e-04	
485	4.300000e+00	3.749696e-04	
486	4.350000e+00	3.752794e-04	
487	4.400000e+00	3.755902e-04	
488	4.450000e+00	3.759028e-04	
489	4.500000e+00	3.762180e-04	
490	4.550000e+00	3.765369e-04	
491	4.600000e+00	3.768604e-04	
492	4.650000e+00	3.771898e-04	
493	4.700000e+00	3.775263e-04	
494	4.750000e+00	3.778711e-04	
495	4.800000e+00	3.782259e-04	
496	4.850000e+00	3.785921e-04	
497	4.900000e+00	3.789714e-04	
498	4.950000e+00	3.793656e-04	
499	5.000000e+00	3.797767e-04	
500	5.050000e+00	3.802068e-04	
501	5.100000e+00	3.806579e-04	
502	5.150000e+00	3.811325e-04	
503	5.200000e+00	3.816329e-04	
504	5.250000e+00	3.821619e-04	
505	5.300000e+00	3.827220e-04	
506	5.350000e+00	3.833162e-04	
507	5.400000e+00	3.839475e-04	
508	5.450000e+00	3.846190e-04	
509	5.500000e+00	3.853340e-04	
510	5.550000e+00	3.860958e-04	
511	5.600000e+00	3.869082e-04	
512	5.650000e+00	3.877747e-04	
513	5.700000e+00	3.886991e-04	
514	5.750000e+00	3.896854e-04	
515	5.800000e+00	3.907377e-04	
516	5.850000e+00	3.918602e-04	
517	5.900000e+00	3.930572e-04	
518	5.950000e+00	3.943331e-04	

Index   v-sweep         -i(vds)         
--------------------------------------------------------------------------------
519	6.000000e+00	3.956925e-04	
520	6.050000e+00	3.971400e-04	
521	6.100000e+00	3.986804e-04	
522	6.150000e+00	4.003186e-04	
523	6.200000e+00	4.020595e-04	
524	6.250000e+00	4.039082e-04	
525	6.300000e+00	4.058698e-04	
526	6.350000e+00	4.079495e-04	
527	6.400000e+00	4.101527e-04	
528	6.450000e+00	4.124847e-04	
529	6.500000e+00	4.149508e-04	
530	6.550000e+00	4.175566e-04	
531	6.600000e+00	4.203077e-04	
532	0.000000e+00	1.084255e-20	
533	5.000000e-02	2.378859e-05	
534	1.000000e-01	4.683549e-05	
535	1.500000e-01	6.915435e-05	
536	2.000000e-01	9.075862e-05	
537	2.500000e-01	1.116615e-04	
538	3.000000e-01	1.318759e-04	
539	3.500000e-01	1.514146e-04	
540	4.000000e-01	1.702900e-04	
541	4.500000e-01	1.885142e-04	
542	5.000000e-01	2.060991e-04	
543	5.500000e-01	2.230561e-04	
544	6.000000e-01	2.393966e-04	
545	6.500000e-01	2.551313e-04	
546	7.000000e-01	2.702711e-04	
547	7.500000e-01	2.848262e-04	
548	8.000000e-01	2.988068e-04	
549	8.500000e-01	3.122228e-04	
550	9.000000e-01	3.250838e-04	
551	9.500000e-01	3.373994e-04	
552	1.000000e+00	3.491789e-04	
553	1.050000e+00	3.604313e-04	
554	1.100000e+00	3.711655e-04	
555	1.150000e+00	3.813899e-04	
556	1.200000e+00	3.911127e-04	
557	1.250000e+00	4.003411e-04	
558	1.300000e+00	4.090817e-04	
559	1.350000e+00	4.173393e-04	
560	1.400000e+00	4.251162e-04	
561	1.450000e+00	4.324111e-04	
562	1.500000e+00	4.392173e-04	
563	1.550000e+00	4.455209e-04	
564	1.600000e+00	4.513008e-04	
565	1.650000e+00	4.565330e-04	
566	1.700000e+00	4.612025e-04	
567	1.750000e+00	4.653172e-04	
568	1.800000e+00	4.689144e-04	
569	1.850000e+00	4.720539e-04	
570	1.900000e+00	4.748041e-04	
571	1.950000e+00	4.772305e-04	
572	2.000000e+00	4.793896e-04	
573	2.050000e+00	4.813282e-04	
574	2.100000e+00	4.830837e-04	
575	2.150000e+00	4.846859e-04	
576	2.200000e+00	4.861586e-04	

Index   v-sweep         -i(vds)         
--------------------------------------------------------------------------------
577	2.250000e+00	4.875209e-04	
578	2.300000e+00	4.887880e-04	
579	2.350000e+00	4.899727e-04	
580	2.400000e+00	4.910851e-04	
581	2.450000e+00	4.921339e-04	
582	2.500000e+00	4.931263e-04	
583	2.550000e+00	4.940683e-04	
584	2.600000e+00	4.949651e-04	
585	2.650000e+00	4.958211e-04	
586	2.700000e+00	4.966402e-04	
587	2.750000e+00	4.974256e-04	
588	2.800000e+00	4.981803e-04	
589	2.850000e+00	4.989067e-04	
590	2.900000e+00	4.996072e-04	
591	2.950000e+00	5.002837e-04	
592	3.000000e+00	5.009380e-04	
593	3.050000e+00	5.015718e-04	
594	3.100000e+00	5.021863e-04	
595	3.150000e+00	5.027830e-04	
596	3.200000e+00	5.033629e-04	
597	3.250000e+00	5.039271e-04	
598	3.300000e+00	5.044766e-04	
599	3.350000e+00	5.050122e-04	
600	3.400000e+00	5.055348e-04	
601	3.450000e+00	5.060450e-04	
602	3.500000e+00	5.065436e-04	
603	3.550000e+00	5.070311e-04	
604	3.600000e+00	5.075083e-04	
605	3.650000e+00	5.079754e-04	
606	3.700000e+00	5.084332e-04	
607	3.750000e+00	5.088820e-04	
608	3.800000e+00	5.093224e-04	
609	3.850000e+00	5.097546e-04	
610	3.900000e+00	5.101792e-04	
611	3.950000e+00	5.105965e-04	
612	4.000000e+00	5.110069e-04	
613	4.050000e+00	5.114108e-04	
614	4.100000e+00	5.118087e-04	
615	4.150000e+00	5.122008e-04	
616	4.200000e+00	5.125876e-04	
617	4.250000e+00	5.129695e-04	
618	4.300000e+00	5.133471e-04	
619	4.350000e+00	5.137207e-04	
620	4.400000e+00	5.140910e-04	
621	4.450000e+00	5.144585e-04	
622	4.500000e+00	5.148239e-04	
623	4.550000e+00	5.151879e-04	
624	4.600000e+00	5.155512e-04	
625	4.650000e+00	5.159147e-04	
626	4.700000e+00	5.162793e-04	
627	4.750000e+00	5.166461e-04	
628	4.800000e+00	5.170163e-04	
629	4.850000e+00	5.173910e-04	
630	4.900000e+00	5.177716e-04	
631	4.950000e+00	5.181596e-04	
632	5.000000e+00	5.185567e-04	
633	5.050000e+00	5.189646e-04	
634	5.100000e+00	5.193851e-04	

Index   v-sweep         -i(vds)         
--------------------------------------------------------------------------------
635	5.150000e+00	5.198204e-04	
636	5.200000e+00	5.202726e-04	
637	5.250000e+00	5.207442e-04	
638	5.300000e+00	5.212376e-04	
639	5.350000e+00	5.217557e-04	
640	5.400000e+00	5.223011e-04	
641	5.450000e+00	5.228771e-04	
642	5.500000e+00	5.234869e-04	
643	5.550000e+00	5.241338e-04	
644	5.600000e+00	5.248215e-04	
645	5.650000e+00	5.255538e-04	
646	5.700000e+00	5.263347e-04	
647	5.750000e+00	5.271683e-04	
648	5.800000e+00	5.280591e-04	
649	5.850000e+00	5.290114e-04	
650	5.900000e+00	5.300301e-04	
651	5.950000e+00	5.311200e-04	
652	6.000000e+00	5.322862e-04	
653	6.050000e+00	5.335339e-04	
654	6.100000e+00	5.348687e-04	
655	6.150000e+00	5.362959e-04	
656	6.200000e+00	5.378215e-04	
657	6.250000e+00	5.394512e-04	
658	6.300000e+00	5.411911e-04	
659	6.350000e+00	5.430474e-04	
660	6.400000e+00	5.450265e-04	
661	6.450000e+00	5.471347e-04	
662	6.500000e+00	5.493787e-04	
663	6.550000e+00	5.517651e-04	
664	6.600000e+00	5.543007e-04	
665	0.000000e+00	-1.05890e-20	
666	5.000000e-02	2.564366e-05	
667	1.000000e-01	5.061173e-05	
668	1.500000e-01	7.491511e-05	
669	2.000000e-01	9.856457e-05	
670	2.500000e-01	1.215707e-04	
671	3.000000e-01	1.439440e-04	
672	3.500000e-01	1.656948e-04	
673	4.000000e-01	1.868330e-04	
674	4.500000e-01	2.073687e-04	
675	5.000000e-01	2.273116e-04	
676	5.500000e-01	2.466711e-04	
677	6.000000e-01	2.654565e-04	
678	6.500000e-01	2.836769e-04	
679	7.000000e-01	3.013411e-04	
680	7.500000e-01	3.184577e-04	
681	8.000000e-01	3.350352e-04	
682	8.500000e-01	3.510818e-04	
683	9.000000e-01	3.666055e-04	
684	9.500000e-01	3.816143e-04	
685	1.000000e+00	3.961158e-04	
686	1.050000e+00	4.101177e-04	
687	1.100000e+00	4.236275e-04	
688	1.150000e+00	4.366524e-04	
689	1.200000e+00	4.491998e-04	
690	1.250000e+00	4.612767e-04	
691	1.300000e+00	4.728902e-04	
692	1.350000e+00	4.840470e-04	

Index   v-sweep         -i(vds)         
--------------------------------------------------------------------------------
693	1.400000e+00	4.947538e-04	
694	1.450000e+00	5.050169e-04	
695	1.500000e+00	5.148421e-04	
696	1.550000e+00	5.242349e-04	
697	1.600000e+00	5.331994e-04	
698	1.650000e+00	5.417387e-04	
699	1.700000e+00	5.498535e-04	
700	1.750000e+00	5.575415e-04	
701	1.800000e+00	5.647957e-04	
702	1.850000e+00	5.716033e-04	
703	1.900000e+00	5.779443e-04	
704	1.950000e+00	5.837934e-04	
705	2.000000e+00	5.891264e-04	
706	2.050000e+00	5.939307e-04	
707	2.100000e+00	5.982156e-04	
708	2.150000e+00	6.020150e-04	
709	2.200000e+00	6.053799e-04	
710	2.250000e+00	6.083688e-04	
711	2.300000e+00	6.110382e-04	
712	2.350000e+00	6.134385e-04	
713	2.400000e+00	6.156123e-04	
714	2.450000e+00	6.175949e-04	
715	2.500000e+00	6.194148e-04	
716	2.550000e+00	6.210957e-04	
717	2.600000e+00	6.226565e-04	
718	2.650000e+00	6.241131e-04	
719	2.700000e+00	6.254784e-04	
720	2.750000e+00	6.267633e-04	
721	2.800000e+00	6.279769e-04	
722	2.850000e+00	6.291269e-04	
723	2.900000e+00	6.302198e-04	
724	2.950000e+00	6.312612e-04	
725	3.000000e+00	6.322561e-04	
726	3.050000e+00	6.332086e-04	
727	3.100000e+00	6.341223e-04	
728	3.150000e+00	6.350007e-04	
729	3.200000e+00	6.358463e-04	
730	3.250000e+00	6.366619e-04	
731	3.300000e+00	6.374497e-04	
732	3.350000e+00	6.382116e-04	
733	3.400000e+00	6.389495e-04	
734	3.450000e+00	6.396649e-04	
735	3.500000e+00	6.403594e-04	
736	3.550000e+00	6.410343e-04	
737	3.600000e+00	6.416907e-04	
738	3.650000e+00	6.423299e-04	
739	3.700000e+00	6.429527e-04	
740	3.750000e+00	6.435601e-04	
741	3.800000e+00	6.441530e-04	
742	3.850000e+00	6.447321e-04	
743	3.900000e+00	6.452982e-04	
744	3.950000e+00	6.458519e-04	
745	4.000000e+00	6.463939e-04	
746	4.050000e+00	6.469247e-04	
747	4.100000e+00	6.474450e-04	
748	4.150000e+00	6.479551e-04	
749	4.200000e+00	6.484557e-04	
750	4.250000e+00	6.489472e-04	

Index   v-sweep         -i(vds)         
--------------------------------------------------------------------------------
751	4.300000e+00	6.494301e-04	
752	4.350000e+00	6.499049e-04	
753	4.400000e+00	6.503720e-04	
754	4.450000e+00	6.508319e-04	
755	4.500000e+00	6.512851e-04	
756	4.550000e+00	6.517321e-04	
757	4.600000e+00	6.521735e-04	
758	4.650000e+00	6.526098e-04	
759	4.700000e+00	6.530418e-04	
760	4.750000e+00	6.534700e-04	
761	4.800000e+00	6.538953e-04	
762	4.850000e+00	6.543184e-04	
763	4.900000e+00	6.547403e-04	
764	4.950000e+00	6.551620e-04	
765	5.000000e+00	6.555846e-04	
766	5.050000e+00	6.560094e-04	
767	5.100000e+00	6.564376e-04	
768	5.150000e+00	6.568707e-04	
769	5.200000e+00	6.573104e-04	
770	5.250000e+00	6.577585e-04	
771	5.300000e+00	6.582169e-04	
772	5.350000e+00	6.586876e-04	
773	5.400000e+00	6.591730e-04	
774	5.450000e+00	6.596756e-04	
775	5.500000e+00	6.601979e-04	
776	5.550000e+00	6.607429e-04	
777	5.600000e+00	6.613136e-04	
778	5.650000e+00	6.619134e-04	
779	5.700000e+00	6.625456e-04	
780	5.750000e+00	6.632141e-04	
781	5.800000e+00	6.639227e-04	
782	5.850000e+00	6.646757e-04	
783	5.900000e+00	6.654774e-04	
784	5.950000e+00	6.663325e-04	
785	6.000000e+00	6.672458e-04	
786	6.050000e+00	6.682225e-04	
787	6.100000e+00	6.692678e-04	
788	6.150000e+00	6.703873e-04	
789	6.200000e+00	6.715868e-04	
790	6.250000e+00	6.728724e-04	
791	6.300000e+00	6.742501e-04	
792	6.350000e+00	6.757266e-04	
793	6.400000e+00	6.773083e-04	
794	6.450000e+00	6.790023e-04	
795	6.500000e+00	6.808155e-04	
796	6.550000e+00	6.827552e-04	
797	6.600000e+00	6.848287e-04	
Note: No ".plot", ".print", or ".fourier" lines; no simulations run
