
Note: Compatibility modes selected: hs

Warning: m=xx on .subckt line will override multiplier m hierarchy!


Circuit: ***************************

Doing analysis at TEMP = -40.000000 and TNOM = -40.000000


No. of Data Rows : 798
                          ***************************
                          DC transfer characteristic  Mon Jan  9 13:58:36  2023
--------------------------------------------------------------------------------
Index   v-sweep         -i(vds)         
--------------------------------------------------------------------------------
0	0.000000e+00	7.017856e-40	
1	5.000000e-02	5.140003e-07	
2	1.000000e-01	8.655315e-07	
3	1.500000e-01	1.068591e-06	
4	2.000000e-01	1.162616e-06	
5	2.500000e-01	1.205623e-06	
6	3.000000e-01	1.231002e-06	
7	3.500000e-01	1.249328e-06	
8	4.000000e-01	1.263992e-06	
9	4.500000e-01	1.276389e-06	
10	5.000000e-01	1.287227e-06	
11	5.500000e-01	1.296919e-06	
12	6.000000e-01	1.305729e-06	
13	6.500000e-01	1.313839e-06	
14	7.000000e-01	1.321377e-06	
15	7.500000e-01	1.328440e-06	
16	8.000000e-01	1.335101e-06	
17	8.500000e-01	1.341418e-06	
18	9.000000e-01	1.347438e-06	
19	9.500000e-01	1.353196e-06	
20	1.000000e+00	1.358725e-06	
21	1.050000e+00	1.364049e-06	
22	1.100000e+00	1.369190e-06	
23	1.150000e+00	1.374167e-06	
24	1.200000e+00	1.378995e-06	
25	1.250000e+00	1.383688e-06	
26	1.300000e+00	1.388258e-06	
27	1.350000e+00	1.392714e-06	
28	1.400000e+00	1.397067e-06	
29	1.450000e+00	1.401323e-06	
30	1.500000e+00	1.405491e-06	
31	1.550000e+00	1.409576e-06	
32	1.600000e+00	1.413584e-06	
33	1.650000e+00	1.417522e-06	
34	1.700000e+00	1.421392e-06	
35	1.750000e+00	1.425199e-06	
36	1.800000e+00	1.428948e-06	
37	1.850000e+00	1.432641e-06	
38	1.900000e+00	1.436283e-06	
39	1.950000e+00	1.439875e-06	
40	2.000000e+00	1.443421e-06	
41	2.050000e+00	1.446923e-06	
42	2.100000e+00	1.450383e-06	
43	2.150000e+00	1.453803e-06	
44	2.200000e+00	1.457186e-06	
45	2.250000e+00	1.460534e-06	
46	2.300000e+00	1.463848e-06	
47	2.350000e+00	1.467129e-06	
48	2.400000e+00	1.470380e-06	
49	2.450000e+00	1.473602e-06	
50	2.500000e+00	1.476796e-06	
51	2.550000e+00	1.479964e-06	
52	2.600000e+00	1.483108e-06	
53	2.650000e+00	1.486228e-06	
54	2.700000e+00	1.489327e-06	

Index   v-sweep         -i(vds)         
--------------------------------------------------------------------------------
55	2.750000e+00	1.492406e-06	
56	2.800000e+00	1.495466e-06	
57	2.850000e+00	1.498510e-06	
58	2.900000e+00	1.501538e-06	
59	2.950000e+00	1.504554e-06	
60	3.000000e+00	1.507560e-06	
61	3.050000e+00	1.510556e-06	
62	3.100000e+00	1.513548e-06	
63	3.150000e+00	1.516536e-06	
64	3.200000e+00	1.519524e-06	
65	3.250000e+00	1.522516e-06	
66	3.300000e+00	1.525514e-06	
67	3.350000e+00	1.528524e-06	
68	3.400000e+00	1.531549e-06	
69	3.450000e+00	1.534595e-06	
70	3.500000e+00	1.537666e-06	
71	3.550000e+00	1.540768e-06	
72	3.600000e+00	1.543907e-06	
73	3.650000e+00	1.547090e-06	
74	3.700000e+00	1.550324e-06	
75	3.750000e+00	1.553616e-06	
76	3.800000e+00	1.556974e-06	
77	3.850000e+00	1.560408e-06	
78	3.900000e+00	1.563926e-06	
79	3.950000e+00	1.567538e-06	
80	4.000000e+00	1.571255e-06	
81	4.050000e+00	1.575088e-06	
82	4.100000e+00	1.579049e-06	
83	4.150000e+00	1.583149e-06	
84	4.200000e+00	1.587402e-06	
85	4.250000e+00	1.591822e-06	
86	4.300000e+00	1.596422e-06	
87	4.350000e+00	1.601218e-06	
88	4.400000e+00	1.606225e-06	
89	4.450000e+00	1.611459e-06	
90	4.500000e+00	1.616938e-06	
91	4.550000e+00	1.622679e-06	
92	4.600000e+00	1.628700e-06	
93	4.650000e+00	1.635020e-06	
94	4.700000e+00	1.641658e-06	
95	4.750000e+00	1.648635e-06	
96	4.800000e+00	1.655971e-06	
97	4.850000e+00	1.663688e-06	
98	4.900000e+00	1.671807e-06	
99	4.950000e+00	1.680352e-06	
100	5.000000e+00	1.689345e-06	
101	5.050000e+00	1.698810e-06	
102	5.100000e+00	1.708771e-06	
103	5.150000e+00	1.719254e-06	
104	5.200000e+00	1.730284e-06	
105	5.250000e+00	1.741886e-06	
106	5.300000e+00	1.754086e-06	
107	5.350000e+00	1.766913e-06	
108	5.400000e+00	1.780393e-06	
109	5.450000e+00	1.794554e-06	
110	5.500000e+00	1.809424e-06	
111	5.550000e+00	1.825033e-06	
112	5.600000e+00	1.841408e-06	

Index   v-sweep         -i(vds)         
--------------------------------------------------------------------------------
113	5.650000e+00	1.858580e-06	
114	5.700000e+00	1.876578e-06	
115	5.750000e+00	1.895433e-06	
116	5.800000e+00	1.915176e-06	
117	5.850000e+00	1.935836e-06	
118	5.900000e+00	1.957446e-06	
119	5.950000e+00	1.980036e-06	
120	6.000000e+00	2.003639e-06	
121	6.050000e+00	2.028287e-06	
122	6.100000e+00	2.054011e-06	
123	6.150000e+00	2.080844e-06	
124	6.200000e+00	2.108820e-06	
125	6.250000e+00	2.137970e-06	
126	6.300000e+00	2.168328e-06	
127	6.350000e+00	2.199926e-06	
128	6.400000e+00	2.232799e-06	
129	6.450000e+00	2.266980e-06	
130	6.500000e+00	2.302502e-06	
131	6.550000e+00	2.339398e-06	
132	6.600000e+00	2.377703e-06	
133	0.000000e+00	-1.02890e-36	
134	5.000000e-02	2.545633e-06	
135	1.000000e-01	4.912263e-06	
136	1.500000e-01	7.103511e-06	
137	2.000000e-01	9.122921e-06	
138	2.500000e-01	1.097396e-05	
139	3.000000e-01	1.266001e-05	
140	3.500000e-01	1.418440e-05	
141	4.000000e-01	1.555039e-05	
142	4.500000e-01	1.676119e-05	
143	5.000000e-01	1.782001e-05	
144	5.500000e-01	1.873015e-05	
145	6.000000e-01	1.949527e-05	
146	6.500000e-01	2.012039e-05	
147	7.000000e-01	2.061432e-05	
148	7.500000e-01	2.099316e-05	
149	8.000000e-01	2.128056e-05	
150	8.500000e-01	2.150158e-05	
151	9.000000e-01	2.167649e-05	
152	9.500000e-01	2.181930e-05	
153	1.000000e+00	2.193924e-05	
154	1.050000e+00	2.204232e-05	
155	1.100000e+00	2.213261e-05	
156	1.150000e+00	2.221291e-05	
157	1.200000e+00	2.228523e-05	
158	1.250000e+00	2.235103e-05	
159	1.300000e+00	2.241143e-05	
160	1.350000e+00	2.246728e-05	
161	1.400000e+00	2.251923e-05	
162	1.450000e+00	2.256784e-05	
163	1.500000e+00	2.261353e-05	
164	1.550000e+00	2.265665e-05	
165	1.600000e+00	2.269750e-05	
166	1.650000e+00	2.273632e-05	
167	1.700000e+00	2.277333e-05	
168	1.750000e+00	2.280869e-05	
169	1.800000e+00	2.284258e-05	
170	1.850000e+00	2.287511e-05	

Index   v-sweep         -i(vds)         
--------------------------------------------------------------------------------
171	1.900000e+00	2.290641e-05	
172	1.950000e+00	2.293657e-05	
173	2.000000e+00	2.296569e-05	
174	2.050000e+00	2.299385e-05	
175	2.100000e+00	2.302111e-05	
176	2.150000e+00	2.304754e-05	
177	2.200000e+00	2.307320e-05	
178	2.250000e+00	2.309813e-05	
179	2.300000e+00	2.312239e-05	
180	2.350000e+00	2.314602e-05	
181	2.400000e+00	2.316905e-05	
182	2.450000e+00	2.319152e-05	
183	2.500000e+00	2.321346e-05	
184	2.550000e+00	2.323490e-05	
185	2.600000e+00	2.325587e-05	
186	2.650000e+00	2.327640e-05	
187	2.700000e+00	2.329650e-05	
188	2.750000e+00	2.331620e-05	
189	2.800000e+00	2.333551e-05	
190	2.850000e+00	2.335447e-05	
191	2.900000e+00	2.337308e-05	
192	2.950000e+00	2.339137e-05	
193	3.000000e+00	2.340935e-05	
194	3.050000e+00	2.342704e-05	
195	3.100000e+00	2.344445e-05	
196	3.150000e+00	2.346161e-05	
197	3.200000e+00	2.347853e-05	
198	3.250000e+00	2.349523e-05	
199	3.300000e+00	2.351174e-05	
200	3.350000e+00	2.352806e-05	
201	3.400000e+00	2.354423e-05	
202	3.450000e+00	2.356028e-05	
203	3.500000e+00	2.357622e-05	
204	3.550000e+00	2.359209e-05	
205	3.600000e+00	2.360792e-05	
206	3.650000e+00	2.362376e-05	
207	3.700000e+00	2.363963e-05	
208	3.750000e+00	2.365559e-05	
209	3.800000e+00	2.367168e-05	
210	3.850000e+00	2.368796e-05	
211	3.900000e+00	2.370449e-05	
212	3.950000e+00	2.372133e-05	
213	4.000000e+00	2.373855e-05	
214	4.050000e+00	2.375624e-05	
215	4.100000e+00	2.377447e-05	
216	4.150000e+00	2.379334e-05	
217	4.200000e+00	2.381293e-05	
218	4.250000e+00	2.383337e-05	
219	4.300000e+00	2.385476e-05	
220	4.350000e+00	2.387721e-05	
221	4.400000e+00	2.390087e-05	
222	4.450000e+00	2.392587e-05	
223	4.500000e+00	2.395234e-05	
224	4.550000e+00	2.398046e-05	
225	4.600000e+00	2.401037e-05	
226	4.650000e+00	2.404225e-05	
227	4.700000e+00	2.407628e-05	
228	4.750000e+00	2.411266e-05	

Index   v-sweep         -i(vds)         
--------------------------------------------------------------------------------
229	4.800000e+00	2.415157e-05	
230	4.850000e+00	2.419323e-05	
231	4.900000e+00	2.423784e-05	
232	4.950000e+00	2.428565e-05	
233	5.000000e+00	2.433687e-05	
234	5.050000e+00	2.439176e-05	
235	5.100000e+00	2.445056e-05	
236	5.150000e+00	2.451354e-05	
237	5.200000e+00	2.458096e-05	
238	5.250000e+00	2.465310e-05	
239	5.300000e+00	2.473024e-05	
240	5.350000e+00	2.481268e-05	
241	5.400000e+00	2.490072e-05	
242	5.450000e+00	2.499466e-05	
243	5.500000e+00	2.509482e-05	
244	5.550000e+00	2.520153e-05	
245	5.600000e+00	2.531511e-05	
246	5.650000e+00	2.543590e-05	
247	5.700000e+00	2.556424e-05	
248	5.750000e+00	2.570048e-05	
249	5.800000e+00	2.584498e-05	
250	5.850000e+00	2.599809e-05	
251	5.900000e+00	2.616019e-05	
252	5.950000e+00	2.633164e-05	
253	6.000000e+00	2.651281e-05	
254	6.050000e+00	2.670409e-05	
255	6.100000e+00	2.690587e-05	
256	6.150000e+00	2.711852e-05	
257	6.200000e+00	2.734244e-05	
258	6.250000e+00	2.757803e-05	
259	6.300000e+00	2.782569e-05	
260	6.350000e+00	2.808581e-05	
261	6.400000e+00	2.835880e-05	
262	6.450000e+00	2.864506e-05	
263	6.500000e+00	2.894500e-05	
264	6.550000e+00	2.925904e-05	
265	6.600000e+00	2.958757e-05	
266	0.000000e+00	-9.13954e-37	
267	5.000000e-02	4.064252e-06	
268	1.000000e-01	7.947112e-06	
269	1.500000e-01	1.165221e-05	
270	2.000000e-01	1.518308e-05	
271	2.500000e-01	1.854319e-05	
272	3.000000e-01	2.173593e-05	
273	3.500000e-01	2.476456e-05	
274	4.000000e-01	2.763229e-05	
275	4.500000e-01	3.034224e-05	
276	5.000000e-01	3.289743e-05	
277	5.500000e-01	3.530080e-05	
278	6.000000e-01	3.755520e-05	
279	6.500000e-01	3.966337e-05	
280	7.000000e-01	4.162797e-05	
281	7.500000e-01	4.345150e-05	
282	8.000000e-01	4.513629e-05	
283	8.500000e-01	4.668440e-05	
284	9.000000e-01	4.809750e-05	
285	9.500000e-01	4.937661e-05	
286	1.000000e+00	5.052193e-05	

Index   v-sweep         -i(vds)         
--------------------------------------------------------------------------------
287	1.050000e+00	5.153261e-05	
288	1.100000e+00	5.240741e-05	
289	1.150000e+00	5.314691e-05	
290	1.200000e+00	5.375752e-05	
291	1.250000e+00	5.425383e-05	
292	1.300000e+00	5.465619e-05	
293	1.350000e+00	5.498544e-05	
294	1.400000e+00	5.525921e-05	
295	1.450000e+00	5.549095e-05	
296	1.500000e+00	5.569054e-05	
297	1.550000e+00	5.586510e-05	
298	1.600000e+00	5.601985e-05	
299	1.650000e+00	5.615861e-05	
300	1.700000e+00	5.628427e-05	
301	1.750000e+00	5.639903e-05	
302	1.800000e+00	5.650462e-05	
303	1.850000e+00	5.660237e-05	
304	1.900000e+00	5.669337e-05	
305	1.950000e+00	5.677851e-05	
306	2.000000e+00	5.685850e-05	
307	2.050000e+00	5.693394e-05	
308	2.100000e+00	5.700533e-05	
309	2.150000e+00	5.707311e-05	
310	2.200000e+00	5.713763e-05	
311	2.250000e+00	5.719920e-05	
312	2.300000e+00	5.725810e-05	
313	2.350000e+00	5.731455e-05	
314	2.400000e+00	5.736877e-05	
315	2.450000e+00	5.742093e-05	
316	2.500000e+00	5.747119e-05	
317	2.550000e+00	5.751970e-05	
318	2.600000e+00	5.756659e-05	
319	2.650000e+00	5.761196e-05	
320	2.700000e+00	5.765591e-05	
321	2.750000e+00	5.769856e-05	
322	2.800000e+00	5.773996e-05	
323	2.850000e+00	5.778021e-05	
324	2.900000e+00	5.781937e-05	
325	2.950000e+00	5.785750e-05	
326	3.000000e+00	5.789466e-05	
327	3.050000e+00	5.793091e-05	
328	3.100000e+00	5.796630e-05	
329	3.150000e+00	5.800087e-05	
330	3.200000e+00	5.803466e-05	
331	3.250000e+00	5.806772e-05	
332	3.300000e+00	5.810008e-05	
333	3.350000e+00	5.813179e-05	
334	3.400000e+00	5.816287e-05	
335	3.450000e+00	5.819337e-05	
336	3.500000e+00	5.822332e-05	
337	3.550000e+00	5.825275e-05	
338	3.600000e+00	5.828171e-05	
339	3.650000e+00	5.831023e-05	
340	3.700000e+00	5.833835e-05	
341	3.750000e+00	5.836612e-05	
342	3.800000e+00	5.839359e-05	
343	3.850000e+00	5.842081e-05	
344	3.900000e+00	5.844784e-05	

Index   v-sweep         -i(vds)         
--------------------------------------------------------------------------------
345	3.950000e+00	5.847474e-05	
346	4.000000e+00	5.850159e-05	
347	4.050000e+00	5.852846e-05	
348	4.100000e+00	5.855544e-05	
349	4.150000e+00	5.858264e-05	
350	4.200000e+00	5.861015e-05	
351	4.250000e+00	5.863810e-05	
352	4.300000e+00	5.866662e-05	
353	4.350000e+00	5.869586e-05	
354	4.400000e+00	5.872596e-05	
355	4.450000e+00	5.875712e-05	
356	4.500000e+00	5.878951e-05	
357	4.550000e+00	5.882334e-05	
358	4.600000e+00	5.885884e-05	
359	4.650000e+00	5.889623e-05	
360	4.700000e+00	5.893579e-05	
361	4.750000e+00	5.897778e-05	
362	4.800000e+00	5.902251e-05	
363	4.850000e+00	5.907028e-05	
364	4.900000e+00	5.912144e-05	
365	4.950000e+00	5.917634e-05	
366	5.000000e+00	5.923535e-05	
367	5.050000e+00	5.929889e-05	
368	5.100000e+00	5.936736e-05	
369	5.150000e+00	5.944121e-05	
370	5.200000e+00	5.952091e-05	
371	5.250000e+00	5.960693e-05	
372	5.300000e+00	5.969979e-05	
373	5.350000e+00	5.980000e-05	
374	5.400000e+00	5.990813e-05	
375	5.450000e+00	6.002475e-05	
376	5.500000e+00	6.015043e-05	
377	5.550000e+00	6.028580e-05	
378	5.600000e+00	6.043150e-05	
379	5.650000e+00	6.058816e-05	
380	5.700000e+00	6.075646e-05	
381	5.750000e+00	6.093711e-05	
382	5.800000e+00	6.113079e-05	
383	5.850000e+00	6.133825e-05	
384	5.900000e+00	6.156023e-05	
385	5.950000e+00	6.179749e-05	
386	6.000000e+00	6.205081e-05	
387	6.050000e+00	6.232098e-05	
388	6.100000e+00	6.260882e-05	
389	6.150000e+00	6.291515e-05	
390	6.200000e+00	6.324079e-05	
391	6.250000e+00	6.358662e-05	
392	6.300000e+00	6.395348e-05	
393	6.350000e+00	6.434225e-05	
394	6.400000e+00	6.475381e-05	
395	6.450000e+00	6.518907e-05	
396	6.500000e+00	6.564891e-05	
397	6.550000e+00	6.613426e-05	
398	6.600000e+00	6.664603e-05	
399	0.000000e+00	2.476028e-36	
400	5.000000e-02	5.216114e-06	
401	1.000000e-01	1.025491e-05	
402	1.500000e-01	1.511969e-05	

Index   v-sweep         -i(vds)         
--------------------------------------------------------------------------------
403	2.000000e-01	1.981366e-05	
404	2.500000e-01	2.433998e-05	
405	3.000000e-01	2.870173e-05	
406	3.500000e-01	3.290191e-05	
407	4.000000e-01	3.694348e-05	
408	4.500000e-01	4.082927e-05	
409	5.000000e-01	4.456210e-05	
410	5.500000e-01	4.814465e-05	
411	6.000000e-01	5.157958e-05	
412	6.500000e-01	5.486944e-05	
413	7.000000e-01	5.801675e-05	
414	7.500000e-01	6.102393e-05	
415	8.000000e-01	6.389336e-05	
416	8.500000e-01	6.662733e-05	
417	9.000000e-01	6.922809e-05	
418	9.500000e-01	7.169780e-05	
419	1.000000e+00	7.403853e-05	
420	1.050000e+00	7.625224e-05	
421	1.100000e+00	7.834072e-05	
422	1.150000e+00	8.030557e-05	
423	1.200000e+00	8.214805e-05	
424	1.250000e+00	8.386894e-05	
425	1.300000e+00	8.546830e-05	
426	1.350000e+00	8.694519e-05	
427	1.400000e+00	8.829722e-05	
428	1.450000e+00	8.952043e-05	
429	1.500000e+00	9.060980e-05	
430	1.550000e+00	9.156136e-05	
431	1.600000e+00	9.237576e-05	
432	1.650000e+00	9.306135e-05	
433	1.700000e+00	9.363374e-05	
434	1.750000e+00	9.411208e-05	
435	1.800000e+00	9.451506e-05	
436	1.850000e+00	9.485858e-05	
437	1.900000e+00	9.515528e-05	
438	1.950000e+00	9.541484e-05	
439	2.000000e+00	9.564461e-05	
440	2.050000e+00	9.585018e-05	
441	2.100000e+00	9.603583e-05	
442	2.150000e+00	9.620486e-05	
443	2.200000e+00	9.635988e-05	
444	2.250000e+00	9.650296e-05	
445	2.300000e+00	9.663575e-05	
446	2.350000e+00	9.675960e-05	
447	2.400000e+00	9.687563e-05	
448	2.450000e+00	9.698476e-05	
449	2.500000e+00	9.708775e-05	
450	2.550000e+00	9.718527e-05	
451	2.600000e+00	9.727788e-05	
452	2.650000e+00	9.736604e-05	
453	2.700000e+00	9.745017e-05	
454	2.750000e+00	9.753063e-05	
455	2.800000e+00	9.760774e-05	
456	2.850000e+00	9.768177e-05	
457	2.900000e+00	9.775296e-05	
458	2.950000e+00	9.782154e-05	
459	3.000000e+00	9.788769e-05	
460	3.050000e+00	9.795159e-05	

Index   v-sweep         -i(vds)         
--------------------------------------------------------------------------------
461	3.100000e+00	9.801339e-05	
462	3.150000e+00	9.807323e-05	
463	3.200000e+00	9.813124e-05	
464	3.250000e+00	9.818754e-05	
465	3.300000e+00	9.824222e-05	
466	3.350000e+00	9.829539e-05	
467	3.400000e+00	9.834713e-05	
468	3.450000e+00	9.839752e-05	
469	3.500000e+00	9.844663e-05	
470	3.550000e+00	9.849454e-05	
471	3.600000e+00	9.854132e-05	
472	3.650000e+00	9.858701e-05	
473	3.700000e+00	9.863169e-05	
474	3.750000e+00	9.867540e-05	
475	3.800000e+00	9.871820e-05	
476	3.850000e+00	9.876015e-05	
477	3.900000e+00	9.880130e-05	
478	3.950000e+00	9.884170e-05	
479	4.000000e+00	9.888141e-05	
480	4.050000e+00	9.892050e-05	
481	4.100000e+00	9.895903e-05	
482	4.150000e+00	9.899706e-05	
483	4.200000e+00	9.903468e-05	
484	4.250000e+00	9.907197e-05	
485	4.300000e+00	9.910902e-05	
486	4.350000e+00	9.914594e-05	
487	4.400000e+00	9.918285e-05	
488	4.450000e+00	9.921986e-05	
489	4.500000e+00	9.925713e-05	
490	4.550000e+00	9.929482e-05	
491	4.600000e+00	9.933310e-05	
492	4.650000e+00	9.937216e-05	
493	4.700000e+00	9.941224e-05	
494	4.750000e+00	9.945355e-05	
495	4.800000e+00	9.949638e-05	
496	4.850000e+00	9.954100e-05	
497	4.900000e+00	9.958772e-05	
498	4.950000e+00	9.963689e-05	
499	5.000000e+00	9.968887e-05	
500	5.050000e+00	9.974407e-05	
501	5.100000e+00	9.980290e-05	
502	5.150000e+00	9.986584e-05	
503	5.200000e+00	9.993337e-05	
504	5.250000e+00	1.000060e-04	
505	5.300000e+00	1.000843e-04	
506	5.350000e+00	1.001689e-04	
507	5.400000e+00	1.002604e-04	
508	5.450000e+00	1.003595e-04	
509	5.500000e+00	1.004669e-04	
510	5.550000e+00	1.005832e-04	
511	5.600000e+00	1.007093e-04	
512	5.650000e+00	1.008460e-04	
513	5.700000e+00	1.009942e-04	
514	5.750000e+00	1.011546e-04	
515	5.800000e+00	1.013283e-04	
516	5.850000e+00	1.015162e-04	
517	5.900000e+00	1.017192e-04	
518	5.950000e+00	1.019384e-04	

Index   v-sweep         -i(vds)         
--------------------------------------------------------------------------------
519	6.000000e+00	1.021749e-04	
520	6.050000e+00	1.024297e-04	
521	6.100000e+00	1.027039e-04	
522	6.150000e+00	1.029987e-04	
523	6.200000e+00	1.033153e-04	
524	6.250000e+00	1.036549e-04	
525	6.300000e+00	1.040187e-04	
526	6.350000e+00	1.044080e-04	
527	6.400000e+00	1.048241e-04	
528	6.450000e+00	1.052683e-04	
529	6.500000e+00	1.057419e-04	
530	6.550000e+00	1.062463e-04	
531	6.600000e+00	1.067829e-04	
532	0.000000e+00	-1.88469e-36	
533	5.000000e-02	6.065982e-06	
534	1.000000e-01	1.196378e-05	
535	1.500000e-01	1.769622e-05	
536	2.000000e-01	2.326607e-05	
537	2.500000e-01	2.867607e-05	
538	3.000000e-01	3.392888e-05	
539	3.500000e-01	3.902712e-05	
540	4.000000e-01	4.397335e-05	
541	4.500000e-01	4.877007e-05	
542	5.000000e-01	5.341973e-05	
543	5.500000e-01	5.792471e-05	
544	6.000000e-01	6.228733e-05	
545	6.500000e-01	6.650986e-05	
546	7.000000e-01	7.059450e-05	
547	7.500000e-01	7.454341e-05	
548	8.000000e-01	7.835867e-05	
549	8.500000e-01	8.204234e-05	
550	9.000000e-01	8.559641e-05	
551	9.500000e-01	8.902284e-05	
552	1.000000e+00	9.232353e-05	
553	1.050000e+00	9.550036e-05	
554	1.100000e+00	9.855516e-05	
555	1.150000e+00	1.014897e-04	
556	1.200000e+00	1.043057e-04	
557	1.250000e+00	1.070049e-04	
558	1.300000e+00	1.095889e-04	
559	1.350000e+00	1.120592e-04	
560	1.400000e+00	1.144173e-04	
561	1.450000e+00	1.166644e-04	
562	1.500000e+00	1.188016e-04	
563	1.550000e+00	1.208296e-04	
564	1.600000e+00	1.227487e-04	
565	1.650000e+00	1.245586e-04	
566	1.700000e+00	1.262578e-04	
567	1.750000e+00	1.278438e-04	
568	1.800000e+00	1.293124e-04	
569	1.850000e+00	1.306577e-04	
570	1.900000e+00	1.318730e-04	
571	1.950000e+00	1.329525e-04	
572	2.000000e+00	1.338950e-04	
573	2.050000e+00	1.347059e-04	
574	2.100000e+00	1.353976e-04	
575	2.150000e+00	1.359865e-04	
576	2.200000e+00	1.364901e-04	

Index   v-sweep         -i(vds)         
--------------------------------------------------------------------------------
577	2.250000e+00	1.369242e-04	
578	2.300000e+00	1.373021e-04	
579	2.350000e+00	1.376345e-04	
580	2.400000e+00	1.379298e-04	
581	2.450000e+00	1.381945e-04	
582	2.500000e+00	1.384340e-04	
583	2.550000e+00	1.386521e-04	
584	2.600000e+00	1.388523e-04	
585	2.650000e+00	1.390369e-04	
586	2.700000e+00	1.392083e-04	
587	2.750000e+00	1.393680e-04	
588	2.800000e+00	1.395175e-04	
589	2.850000e+00	1.396581e-04	
590	2.900000e+00	1.397906e-04	
591	2.950000e+00	1.399160e-04	
592	3.000000e+00	1.400350e-04	
593	3.050000e+00	1.401481e-04	
594	3.100000e+00	1.402560e-04	
595	3.150000e+00	1.403591e-04	
596	3.200000e+00	1.404579e-04	
597	3.250000e+00	1.405526e-04	
598	3.300000e+00	1.406436e-04	
599	3.350000e+00	1.407311e-04	
600	3.400000e+00	1.408155e-04	
601	3.450000e+00	1.408970e-04	
602	3.500000e+00	1.409757e-04	
603	3.550000e+00	1.410519e-04	
604	3.600000e+00	1.411257e-04	
605	3.650000e+00	1.411972e-04	
606	3.700000e+00	1.412667e-04	
607	3.750000e+00	1.413341e-04	
608	3.800000e+00	1.413998e-04	
609	3.850000e+00	1.414636e-04	
610	3.900000e+00	1.415258e-04	
611	3.950000e+00	1.415864e-04	
612	4.000000e+00	1.416455e-04	
613	4.050000e+00	1.417033e-04	
614	4.100000e+00	1.417597e-04	
615	4.150000e+00	1.418148e-04	
616	4.200000e+00	1.418688e-04	
617	4.250000e+00	1.419217e-04	
618	4.300000e+00	1.419736e-04	
619	4.350000e+00	1.420244e-04	
620	4.400000e+00	1.420744e-04	
621	4.450000e+00	1.421237e-04	
622	4.500000e+00	1.421722e-04	
623	4.550000e+00	1.422201e-04	
624	4.600000e+00	1.422675e-04	
625	4.650000e+00	1.423145e-04	
626	4.700000e+00	1.423612e-04	
627	4.750000e+00	1.424079e-04	
628	4.800000e+00	1.424546e-04	
629	4.850000e+00	1.425015e-04	
630	4.900000e+00	1.425489e-04	
631	4.950000e+00	1.425970e-04	
632	5.000000e+00	1.426460e-04	
633	5.050000e+00	1.426962e-04	
634	5.100000e+00	1.427479e-04	

Index   v-sweep         -i(vds)         
--------------------------------------------------------------------------------
635	5.150000e+00	1.428015e-04	
636	5.200000e+00	1.428573e-04	
637	5.250000e+00	1.429158e-04	
638	5.300000e+00	1.429773e-04	
639	5.350000e+00	1.430425e-04	
640	5.400000e+00	1.431117e-04	
641	5.450000e+00	1.431856e-04	
642	5.500000e+00	1.432648e-04	
643	5.550000e+00	1.433500e-04	
644	5.600000e+00	1.434418e-04	
645	5.650000e+00	1.435410e-04	
646	5.700000e+00	1.436484e-04	
647	5.750000e+00	1.437649e-04	
648	5.800000e+00	1.438913e-04	
649	5.850000e+00	1.440287e-04	
650	5.900000e+00	1.441780e-04	
651	5.950000e+00	1.443402e-04	
652	6.000000e+00	1.445165e-04	
653	6.050000e+00	1.447081e-04	
654	6.100000e+00	1.449161e-04	
655	6.150000e+00	1.451418e-04	
656	6.200000e+00	1.453865e-04	
657	6.250000e+00	1.456516e-04	
658	6.300000e+00	1.459384e-04	
659	6.350000e+00	1.462485e-04	
660	6.400000e+00	1.465833e-04	
661	6.450000e+00	1.469443e-04	
662	6.500000e+00	1.473332e-04	
663	6.550000e+00	1.477516e-04	
664	6.600000e+00	1.482012e-04	
665	0.000000e+00	6.301460e-21	
666	5.000000e-02	6.670633e-06	
667	1.000000e-01	1.318514e-05	
668	1.500000e-01	1.954588e-05	
669	2.000000e-01	2.575517e-05	
670	2.500000e-01	3.181531e-05	
671	3.000000e-01	3.772854e-05	
672	3.500000e-01	4.349706e-05	
673	4.000000e-01	4.912304e-05	
674	4.500000e-01	5.460860e-05	
675	5.000000e-01	5.995583e-05	
676	5.500000e-01	6.516675e-05	
677	6.000000e-01	7.024336e-05	
678	6.500000e-01	7.518760e-05	
679	7.000000e-01	8.000137e-05	
680	7.500000e-01	8.468651e-05	
681	8.000000e-01	8.924484e-05	
682	8.500000e-01	9.367812e-05	
683	9.000000e-01	9.798807e-05	
684	9.500000e-01	1.021764e-04	
685	1.000000e+00	1.062447e-04	
686	1.050000e+00	1.101946e-04	
687	1.100000e+00	1.140277e-04	
688	1.150000e+00	1.177456e-04	
689	1.200000e+00	1.213497e-04	
690	1.250000e+00	1.248415e-04	
691	1.300000e+00	1.282226e-04	
692	1.350000e+00	1.314944e-04	

Index   v-sweep         -i(vds)         
--------------------------------------------------------------------------------
693	1.400000e+00	1.346582e-04	
694	1.450000e+00	1.377155e-04	
695	1.500000e+00	1.406677e-04	
696	1.550000e+00	1.435160e-04	
697	1.600000e+00	1.462618e-04	
698	1.650000e+00	1.489063e-04	
699	1.700000e+00	1.514506e-04	
700	1.750000e+00	1.538959e-04	
701	1.800000e+00	1.562429e-04	
702	1.850000e+00	1.584926e-04	
703	1.900000e+00	1.606452e-04	
704	1.950000e+00	1.627010e-04	
705	2.000000e+00	1.646595e-04	
706	2.050000e+00	1.665195e-04	
707	2.100000e+00	1.682788e-04	
708	2.150000e+00	1.699340e-04	
709	2.200000e+00	1.714800e-04	
710	2.250000e+00	1.729101e-04	
711	2.300000e+00	1.742171e-04	
712	2.350000e+00	1.753946e-04	
713	2.400000e+00	1.764396e-04	
714	2.450000e+00	1.773552e-04	
715	2.500000e+00	1.781501e-04	
716	2.550000e+00	1.788380e-04	
717	2.600000e+00	1.794340e-04	
718	2.650000e+00	1.799531e-04	
719	2.700000e+00	1.804085e-04	
720	2.750000e+00	1.808113e-04	
721	2.800000e+00	1.811706e-04	
722	2.850000e+00	1.814937e-04	
723	2.900000e+00	1.817864e-04	
724	2.950000e+00	1.820535e-04	
725	3.000000e+00	1.822987e-04	
726	3.050000e+00	1.825250e-04	
727	3.100000e+00	1.827351e-04	
728	3.150000e+00	1.829309e-04	
729	3.200000e+00	1.831143e-04	
730	3.250000e+00	1.832865e-04	
731	3.300000e+00	1.834489e-04	
732	3.350000e+00	1.836025e-04	
733	3.400000e+00	1.837482e-04	
734	3.450000e+00	1.838867e-04	
735	3.500000e+00	1.840187e-04	
736	3.550000e+00	1.841448e-04	
737	3.600000e+00	1.842655e-04	
738	3.650000e+00	1.843812e-04	
739	3.700000e+00	1.844923e-04	
740	3.750000e+00	1.845992e-04	
741	3.800000e+00	1.847021e-04	
742	3.850000e+00	1.848015e-04	
743	3.900000e+00	1.848974e-04	
744	3.950000e+00	1.849902e-04	
745	4.000000e+00	1.850800e-04	
746	4.050000e+00	1.851671e-04	
747	4.100000e+00	1.852516e-04	
748	4.150000e+00	1.853336e-04	
749	4.200000e+00	1.854133e-04	
750	4.250000e+00	1.854908e-04	

Index   v-sweep         -i(vds)         
--------------------------------------------------------------------------------
751	4.300000e+00	1.855663e-04	
752	4.350000e+00	1.856399e-04	
753	4.400000e+00	1.857116e-04	
754	4.450000e+00	1.857816e-04	
755	4.500000e+00	1.858500e-04	
756	4.550000e+00	1.859168e-04	
757	4.600000e+00	1.859822e-04	
758	4.650000e+00	1.860462e-04	
759	4.700000e+00	1.861089e-04	
760	4.750000e+00	1.861705e-04	
761	4.800000e+00	1.862310e-04	
762	4.850000e+00	1.862905e-04	
763	4.900000e+00	1.863491e-04	
764	4.950000e+00	1.864071e-04	
765	5.000000e+00	1.864644e-04	
766	5.050000e+00	1.865212e-04	
767	5.100000e+00	1.865778e-04	
768	5.150000e+00	1.866343e-04	
769	5.200000e+00	1.866909e-04	
770	5.250000e+00	1.867479e-04	
771	5.300000e+00	1.868055e-04	
772	5.350000e+00	1.868640e-04	
773	5.400000e+00	1.869237e-04	
774	5.450000e+00	1.869851e-04	
775	5.500000e+00	1.870484e-04	
776	5.550000e+00	1.871142e-04	
777	5.600000e+00	1.871829e-04	
778	5.650000e+00	1.872551e-04	
779	5.700000e+00	1.873313e-04	
780	5.750000e+00	1.874122e-04	
781	5.800000e+00	1.874984e-04	
782	5.850000e+00	1.875908e-04	
783	5.900000e+00	1.876900e-04	
784	5.950000e+00	1.877970e-04	
785	6.000000e+00	1.879127e-04	
786	6.050000e+00	1.880380e-04	
787	6.100000e+00	1.881740e-04	
788	6.150000e+00	1.883219e-04	
789	6.200000e+00	1.884826e-04	
790	6.250000e+00	1.886576e-04	
791	6.300000e+00	1.888481e-04	
792	6.350000e+00	1.890555e-04	
793	6.400000e+00	1.892813e-04	
794	6.450000e+00	1.895268e-04	
795	6.500000e+00	1.897937e-04	
796	6.550000e+00	1.900837e-04	
797	6.600000e+00	1.903983e-04	
Note: No ".plot", ".print", or ".fourier" lines; no simulations run
