
Note: Compatibility modes selected: hs

Warning: m=xx on .subckt line will override multiplier m hierarchy!


Circuit: ***************************

Doing analysis at TEMP = 125.000000 and TNOM = 125.000000


No. of Data Rows : 798
                          ***************************
                          DC transfer characteristic  Mon Jan  9 13:58:36  2023
--------------------------------------------------------------------------------
Index   v-sweep         -i(vds)         
--------------------------------------------------------------------------------
0	0.000000e+00	-2.82569e-27	
1	5.000000e-02	3.058061e-06	
2	1.000000e-01	5.543332e-06	
3	1.500000e-01	7.569835e-06	
4	2.000000e-01	9.170157e-06	
5	2.500000e-01	1.036016e-05	
6	3.000000e-01	1.116230e-05	
7	3.500000e-01	1.162825e-05	
8	4.000000e-01	1.185734e-05	
9	4.500000e-01	1.196269e-05	
10	5.000000e-01	1.201586e-05	
11	5.500000e-01	1.204743e-05	
12	6.000000e-01	1.206913e-05	
13	6.500000e-01	1.208574e-05	
14	7.000000e-01	1.209941e-05	
15	7.500000e-01	1.211125e-05	
16	8.000000e-01	1.212186e-05	
17	8.500000e-01	1.213160e-05	
18	9.000000e-01	1.214069e-05	
19	9.500000e-01	1.214929e-05	
20	1.000000e+00	1.215749e-05	
21	1.050000e+00	1.216538e-05	
22	1.100000e+00	1.217301e-05	
23	1.150000e+00	1.218042e-05	
24	1.200000e+00	1.218764e-05	
25	1.250000e+00	1.219471e-05	
26	1.300000e+00	1.220164e-05	
27	1.350000e+00	1.220844e-05	
28	1.400000e+00	1.221514e-05	
29	1.450000e+00	1.222174e-05	
30	1.500000e+00	1.222826e-05	
31	1.550000e+00	1.223469e-05	
32	1.600000e+00	1.224106e-05	
33	1.650000e+00	1.224737e-05	
34	1.700000e+00	1.225361e-05	
35	1.750000e+00	1.225980e-05	
36	1.800000e+00	1.226594e-05	
37	1.850000e+00	1.227204e-05	
38	1.900000e+00	1.227809e-05	
39	1.950000e+00	1.228411e-05	
40	2.000000e+00	1.229008e-05	
41	2.050000e+00	1.229602e-05	
42	2.100000e+00	1.230193e-05	
43	2.150000e+00	1.230781e-05	
44	2.200000e+00	1.231366e-05	
45	2.250000e+00	1.231949e-05	
46	2.300000e+00	1.232529e-05	
47	2.350000e+00	1.233106e-05	
48	2.400000e+00	1.233682e-05	
49	2.450000e+00	1.234255e-05	
50	2.500000e+00	1.234827e-05	
51	2.550000e+00	1.235397e-05	
52	2.600000e+00	1.235965e-05	
53	2.650000e+00	1.236532e-05	
54	2.700000e+00	1.237098e-05	

Index   v-sweep         -i(vds)         
--------------------------------------------------------------------------------
55	2.750000e+00	1.237664e-05	
56	2.800000e+00	1.238229e-05	
57	2.850000e+00	1.238794e-05	
58	2.900000e+00	1.239360e-05	
59	2.950000e+00	1.239927e-05	
60	3.000000e+00	1.240496e-05	
61	3.050000e+00	1.241068e-05	
62	3.100000e+00	1.241643e-05	
63	3.150000e+00	1.242222e-05	
64	3.200000e+00	1.242808e-05	
65	3.250000e+00	1.243400e-05	
66	3.300000e+00	1.244002e-05	
67	3.350000e+00	1.244614e-05	
68	3.400000e+00	1.245239e-05	
69	3.450000e+00	1.245879e-05	
70	3.500000e+00	1.246537e-05	
71	3.550000e+00	1.247214e-05	
72	3.600000e+00	1.247916e-05	
73	3.650000e+00	1.248645e-05	
74	3.700000e+00	1.249404e-05	
75	3.750000e+00	1.250198e-05	
76	3.800000e+00	1.251032e-05	
77	3.850000e+00	1.251910e-05	
78	3.900000e+00	1.252838e-05	
79	3.950000e+00	1.253821e-05	
80	4.000000e+00	1.254865e-05	
81	4.050000e+00	1.255978e-05	
82	4.100000e+00	1.257165e-05	
83	4.150000e+00	1.258435e-05	
84	4.200000e+00	1.259795e-05	
85	4.250000e+00	1.261254e-05	
86	4.300000e+00	1.262819e-05	
87	4.350000e+00	1.264502e-05	
88	4.400000e+00	1.266310e-05	
89	4.450000e+00	1.268255e-05	
90	4.500000e+00	1.270347e-05	
91	4.550000e+00	1.272597e-05	
92	4.600000e+00	1.275018e-05	
93	4.650000e+00	1.277620e-05	
94	4.700000e+00	1.280416e-05	
95	4.750000e+00	1.283420e-05	
96	4.800000e+00	1.286645e-05	
97	4.850000e+00	1.290105e-05	
98	4.900000e+00	1.293813e-05	
99	4.950000e+00	1.297786e-05	
100	5.000000e+00	1.302038e-05	
101	5.050000e+00	1.306584e-05	
102	5.100000e+00	1.311441e-05	
103	5.150000e+00	1.316625e-05	
104	5.200000e+00	1.322154e-05	
105	5.250000e+00	1.328043e-05	
106	5.300000e+00	1.334311e-05	
107	5.350000e+00	1.340976e-05	
108	5.400000e+00	1.348056e-05	
109	5.450000e+00	1.355569e-05	
110	5.500000e+00	1.363534e-05	
111	5.550000e+00	1.371971e-05	
112	5.600000e+00	1.380899e-05	

Index   v-sweep         -i(vds)         
--------------------------------------------------------------------------------
113	5.650000e+00	1.390337e-05	
114	5.700000e+00	1.400306e-05	
115	5.750000e+00	1.410827e-05	
116	5.800000e+00	1.421918e-05	
117	5.850000e+00	1.433602e-05	
118	5.900000e+00	1.445899e-05	
119	5.950000e+00	1.458829e-05	
120	6.000000e+00	1.472416e-05	
121	6.050000e+00	1.486679e-05	
122	6.100000e+00	1.501640e-05	
123	6.150000e+00	1.517322e-05	
124	6.200000e+00	1.533746e-05	
125	6.250000e+00	1.550934e-05	
126	6.300000e+00	1.568908e-05	
127	6.350000e+00	1.587690e-05	
128	6.400000e+00	1.607303e-05	
129	6.450000e+00	1.627769e-05	
130	6.500000e+00	1.649109e-05	
131	6.550000e+00	1.671347e-05	
132	6.600000e+00	1.694505e-05	
133	0.000000e+00	-2.29739e-27	
134	5.000000e-02	9.416064e-06	
135	1.000000e-01	1.824249e-05	
136	1.500000e-01	2.659137e-05	
137	2.000000e-01	3.449259e-05	
138	2.500000e-01	4.195526e-05	
139	3.000000e-01	4.898323e-05	
140	3.500000e-01	5.557901e-05	
141	4.000000e-01	6.174481e-05	
142	4.500000e-01	6.748273e-05	
143	5.000000e-01	7.279490e-05	
144	5.500000e-01	7.768348e-05	
145	6.000000e-01	8.215069e-05	
146	6.500000e-01	8.619889e-05	
147	7.000000e-01	8.983064e-05	
148	7.500000e-01	9.304889e-05	
149	8.000000e-01	9.585726e-05	
150	8.500000e-01	9.826070e-05	
151	9.000000e-01	1.002666e-04	
152	9.500000e-01	1.018873e-04	
153	1.000000e+00	1.031439e-04	
154	1.050000e+00	1.040724e-04	
155	1.100000e+00	1.047270e-04	
156	1.150000e+00	1.051747e-04	
157	1.200000e+00	1.054808e-04	
158	1.250000e+00	1.056960e-04	
159	1.300000e+00	1.058540e-04	
160	1.350000e+00	1.059756e-04	
161	1.400000e+00	1.060732e-04	
162	1.450000e+00	1.061545e-04	
163	1.500000e+00	1.062242e-04	
164	1.550000e+00	1.062854e-04	
165	1.600000e+00	1.063400e-04	
166	1.650000e+00	1.063897e-04	
167	1.700000e+00	1.064354e-04	
168	1.750000e+00	1.064779e-04	
169	1.800000e+00	1.065177e-04	
170	1.850000e+00	1.065553e-04	

Index   v-sweep         -i(vds)         
--------------------------------------------------------------------------------
171	1.900000e+00	1.065909e-04	
172	1.950000e+00	1.066250e-04	
173	2.000000e+00	1.066576e-04	
174	2.050000e+00	1.066891e-04	
175	2.100000e+00	1.067194e-04	
176	2.150000e+00	1.067488e-04	
177	2.200000e+00	1.067773e-04	
178	2.250000e+00	1.068051e-04	
179	2.300000e+00	1.068321e-04	
180	2.350000e+00	1.068586e-04	
181	2.400000e+00	1.068844e-04	
182	2.450000e+00	1.069098e-04	
183	2.500000e+00	1.069346e-04	
184	2.550000e+00	1.069590e-04	
185	2.600000e+00	1.069830e-04	
186	2.650000e+00	1.070066e-04	
187	2.700000e+00	1.070299e-04	
188	2.750000e+00	1.070528e-04	
189	2.800000e+00	1.070755e-04	
190	2.850000e+00	1.070978e-04	
191	2.900000e+00	1.071199e-04	
192	2.950000e+00	1.071417e-04	
193	3.000000e+00	1.071633e-04	
194	3.050000e+00	1.071847e-04	
195	3.100000e+00	1.072058e-04	
196	3.150000e+00	1.072268e-04	
197	3.200000e+00	1.072476e-04	
198	3.250000e+00	1.072682e-04	
199	3.300000e+00	1.072887e-04	
200	3.350000e+00	1.073091e-04	
201	3.400000e+00	1.073293e-04	
202	3.450000e+00	1.073495e-04	
203	3.500000e+00	1.073697e-04	
204	3.550000e+00	1.073898e-04	
205	3.600000e+00	1.074100e-04	
206	3.650000e+00	1.074302e-04	
207	3.700000e+00	1.074506e-04	
208	3.750000e+00	1.074712e-04	
209	3.800000e+00	1.074920e-04	
210	3.850000e+00	1.075132e-04	
211	3.900000e+00	1.075349e-04	
212	3.950000e+00	1.075572e-04	
213	4.000000e+00	1.075802e-04	
214	4.050000e+00	1.076040e-04	
215	4.100000e+00	1.076289e-04	
216	4.150000e+00	1.076550e-04	
217	4.200000e+00	1.076826e-04	
218	4.250000e+00	1.077118e-04	
219	4.300000e+00	1.077430e-04	
220	4.350000e+00	1.077765e-04	
221	4.400000e+00	1.078125e-04	
222	4.450000e+00	1.078514e-04	
223	4.500000e+00	1.078935e-04	
224	4.550000e+00	1.079394e-04	
225	4.600000e+00	1.079895e-04	
226	4.650000e+00	1.080441e-04	
227	4.700000e+00	1.081039e-04	
228	4.750000e+00	1.081694e-04	

Index   v-sweep         -i(vds)         
--------------------------------------------------------------------------------
229	4.800000e+00	1.082412e-04	
230	4.850000e+00	1.083199e-04	
231	4.900000e+00	1.084062e-04	
232	4.950000e+00	1.085007e-04	
233	5.000000e+00	1.086043e-04	
234	5.050000e+00	1.087177e-04	
235	5.100000e+00	1.088417e-04	
236	5.150000e+00	1.089773e-04	
237	5.200000e+00	1.091252e-04	
238	5.250000e+00	1.092865e-04	
239	5.300000e+00	1.094622e-04	
240	5.350000e+00	1.096532e-04	
241	5.400000e+00	1.098606e-04	
242	5.450000e+00	1.100856e-04	
243	5.500000e+00	1.103293e-04	
244	5.550000e+00	1.105928e-04	
245	5.600000e+00	1.108774e-04	
246	5.650000e+00	1.111844e-04	
247	5.700000e+00	1.115149e-04	
248	5.750000e+00	1.118705e-04	
249	5.800000e+00	1.122523e-04	
250	5.850000e+00	1.126619e-04	
251	5.900000e+00	1.131006e-04	
252	5.950000e+00	1.135699e-04	
253	6.000000e+00	1.140712e-04	
254	6.050000e+00	1.146062e-04	
255	6.100000e+00	1.151763e-04	
256	6.150000e+00	1.157832e-04	
257	6.200000e+00	1.164283e-04	
258	6.250000e+00	1.171134e-04	
259	6.300000e+00	1.178401e-04	
260	6.350000e+00	1.186101e-04	
261	6.400000e+00	1.194250e-04	
262	6.450000e+00	1.202866e-04	
263	6.500000e+00	1.211965e-04	
264	6.550000e+00	1.221566e-04	
265	6.600000e+00	1.231686e-04	
266	0.000000e+00	6.211019e-25	
267	5.000000e-02	1.466182e-05	
268	1.000000e-01	2.875852e-05	
269	1.500000e-01	4.240130e-05	
270	2.000000e-01	5.561980e-05	
271	2.500000e-01	6.842293e-05	
272	3.000000e-01	8.081437e-05	
273	3.500000e-01	9.279644e-05	
274	4.000000e-01	1.043711e-04	
275	4.500000e-01	1.155402e-04	
276	5.000000e-01	1.263057e-04	
277	5.500000e-01	1.366693e-04	
278	6.000000e-01	1.466329e-04	
279	6.500000e-01	1.561983e-04	
280	7.000000e-01	1.653672e-04	
281	7.500000e-01	1.741415e-04	
282	8.000000e-01	1.825230e-04	
283	8.500000e-01	1.905134e-04	
284	9.000000e-01	1.981146e-04	
285	9.500000e-01	2.053282e-04	
286	1.000000e+00	2.121560e-04	

Index   v-sweep         -i(vds)         
--------------------------------------------------------------------------------
287	1.050000e+00	2.185998e-04	
288	1.100000e+00	2.246613e-04	
289	1.150000e+00	2.303423e-04	
290	1.200000e+00	2.356445e-04	
291	1.250000e+00	2.405699e-04	
292	1.300000e+00	2.451201e-04	
293	1.350000e+00	2.492972e-04	
294	1.400000e+00	2.531033e-04	
295	1.450000e+00	2.565408e-04	
296	1.500000e+00	2.596124e-04	
297	1.550000e+00	2.623221e-04	
298	1.600000e+00	2.646753e-04	
299	1.650000e+00	2.666803e-04	
300	1.700000e+00	2.683505e-04	
301	1.750000e+00	2.697070e-04	
302	1.800000e+00	2.707811e-04	
303	1.850000e+00	2.716141e-04	
304	1.900000e+00	2.722531e-04	
305	1.950000e+00	2.727441e-04	
306	2.000000e+00	2.731266e-04	
307	2.050000e+00	2.734305e-04	
308	2.100000e+00	2.736779e-04	
309	2.150000e+00	2.738839e-04	
310	2.200000e+00	2.740592e-04	
311	2.250000e+00	2.742112e-04	
312	2.300000e+00	2.743453e-04	
313	2.350000e+00	2.744652e-04	
314	2.400000e+00	2.745738e-04	
315	2.450000e+00	2.746731e-04	
316	2.500000e+00	2.747648e-04	
317	2.550000e+00	2.748500e-04	
318	2.600000e+00	2.749299e-04	
319	2.650000e+00	2.750051e-04	
320	2.700000e+00	2.750763e-04	
321	2.750000e+00	2.751439e-04	
322	2.800000e+00	2.752086e-04	
323	2.850000e+00	2.752705e-04	
324	2.900000e+00	2.753299e-04	
325	2.950000e+00	2.753872e-04	
326	3.000000e+00	2.754426e-04	
327	3.050000e+00	2.754962e-04	
328	3.100000e+00	2.755482e-04	
329	3.150000e+00	2.755987e-04	
330	3.200000e+00	2.756479e-04	
331	3.250000e+00	2.756959e-04	
332	3.300000e+00	2.757427e-04	
333	3.350000e+00	2.757885e-04	
334	3.400000e+00	2.758334e-04	
335	3.450000e+00	2.758773e-04	
336	3.500000e+00	2.759204e-04	
337	3.550000e+00	2.759627e-04	
338	3.600000e+00	2.760043e-04	
339	3.650000e+00	2.760452e-04	
340	3.700000e+00	2.760854e-04	
341	3.750000e+00	2.761251e-04	
342	3.800000e+00	2.761642e-04	
343	3.850000e+00	2.762028e-04	
344	3.900000e+00	2.762409e-04	

Index   v-sweep         -i(vds)         
--------------------------------------------------------------------------------
345	3.950000e+00	2.762786e-04	
346	4.000000e+00	2.763158e-04	
347	4.050000e+00	2.763528e-04	
348	4.100000e+00	2.763894e-04	
349	4.150000e+00	2.764258e-04	
350	4.200000e+00	2.764621e-04	
351	4.250000e+00	2.764983e-04	
352	4.300000e+00	2.765344e-04	
353	4.350000e+00	2.765708e-04	
354	4.400000e+00	2.766074e-04	
355	4.450000e+00	2.766444e-04	
356	4.500000e+00	2.766820e-04	
357	4.550000e+00	2.767205e-04	
358	4.600000e+00	2.767600e-04	
359	4.650000e+00	2.768008e-04	
360	4.700000e+00	2.768434e-04	
361	4.750000e+00	2.768879e-04	
362	4.800000e+00	2.769349e-04	
363	4.850000e+00	2.769848e-04	
364	4.900000e+00	2.770381e-04	
365	4.950000e+00	2.770955e-04	
366	5.000000e+00	2.771575e-04	
367	5.050000e+00	2.772249e-04	
368	5.100000e+00	2.772984e-04	
369	5.150000e+00	2.773789e-04	
370	5.200000e+00	2.774674e-04	
371	5.250000e+00	2.775648e-04	
372	5.300000e+00	2.776723e-04	
373	5.350000e+00	2.777910e-04	
374	5.400000e+00	2.779223e-04	
375	5.450000e+00	2.780674e-04	
376	5.500000e+00	2.782279e-04	
377	5.550000e+00	2.784054e-04	
378	5.600000e+00	2.786014e-04	
379	5.650000e+00	2.788178e-04	
380	5.700000e+00	2.790563e-04	
381	5.750000e+00	2.793190e-04	
382	5.800000e+00	2.796080e-04	
383	5.850000e+00	2.799253e-04	
384	5.900000e+00	2.802732e-04	
385	5.950000e+00	2.806542e-04	
386	6.000000e+00	2.810707e-04	
387	6.050000e+00	2.815253e-04	
388	6.100000e+00	2.820207e-04	
389	6.150000e+00	2.825595e-04	
390	6.200000e+00	2.831448e-04	
391	6.250000e+00	2.837794e-04	
392	6.300000e+00	2.844665e-04	
393	6.350000e+00	2.852092e-04	
394	6.400000e+00	2.860108e-04	
395	6.450000e+00	2.868746e-04	
396	6.500000e+00	2.878041e-04	
397	6.550000e+00	2.888027e-04	
398	6.600000e+00	2.898741e-04	
399	0.000000e+00	-1.43896e-24	
400	5.000000e-02	1.879221e-05	
401	1.000000e-01	3.705328e-05	
402	1.500000e-01	5.489358e-05	

Index   v-sweep         -i(vds)         
--------------------------------------------------------------------------------
403	2.000000e-01	7.234244e-05	
404	2.500000e-01	8.940853e-05	
405	3.000000e-01	1.060953e-04	
406	3.500000e-01	1.224047e-04	
407	4.000000e-01	1.383385e-04	
408	4.500000e-01	1.538984e-04	
409	5.000000e-01	1.690860e-04	
410	5.500000e-01	1.839028e-04	
411	6.000000e-01	1.983504e-04	
412	6.500000e-01	2.124304e-04	
413	7.000000e-01	2.261443e-04	
414	7.500000e-01	2.394937e-04	
415	8.000000e-01	2.524800e-04	
416	8.500000e-01	2.651050e-04	
417	9.000000e-01	2.773700e-04	
418	9.500000e-01	2.892766e-04	
419	1.000000e+00	3.008262e-04	
420	1.050000e+00	3.120205e-04	
421	1.100000e+00	3.228608e-04	
422	1.150000e+00	3.333487e-04	
423	1.200000e+00	3.434856e-04	
424	1.250000e+00	3.532730e-04	
425	1.300000e+00	3.627123e-04	
426	1.350000e+00	3.718050e-04	
427	1.400000e+00	3.805525e-04	
428	1.450000e+00	3.889563e-04	
429	1.500000e+00	3.970177e-04	
430	1.550000e+00	4.047382e-04	
431	1.600000e+00	4.121191e-04	
432	1.650000e+00	4.191618e-04	
433	1.700000e+00	4.258677e-04	
434	1.750000e+00	4.322381e-04	
435	1.800000e+00	4.382743e-04	
436	1.850000e+00	4.439778e-04	
437	1.900000e+00	4.493497e-04	
438	1.950000e+00	4.543913e-04	
439	2.000000e+00	4.591039e-04	
440	2.050000e+00	4.634888e-04	
441	2.100000e+00	4.675472e-04	
442	2.150000e+00	4.712806e-04	
443	2.200000e+00	4.746903e-04	
444	2.250000e+00	4.777783e-04	
445	2.300000e+00	4.805472e-04	
446	2.350000e+00	4.830006e-04	
447	2.400000e+00	4.851448e-04	
448	2.450000e+00	4.869894e-04	
449	2.500000e+00	4.885498e-04	
450	2.550000e+00	4.898483e-04	
451	2.600000e+00	4.909142e-04	
452	2.650000e+00	4.917820e-04	
453	2.700000e+00	4.924875e-04	
454	2.750000e+00	4.930640e-04	
455	2.800000e+00	4.935400e-04	
456	2.850000e+00	4.939383e-04	
457	2.900000e+00	4.942766e-04	
458	2.950000e+00	4.945680e-04	
459	3.000000e+00	4.948227e-04	
460	3.050000e+00	4.950480e-04	

Index   v-sweep         -i(vds)         
--------------------------------------------------------------------------------
461	3.100000e+00	4.952497e-04	
462	3.150000e+00	4.954321e-04	
463	3.200000e+00	4.955985e-04	
464	3.250000e+00	4.957515e-04	
465	3.300000e+00	4.958933e-04	
466	3.350000e+00	4.960254e-04	
467	3.400000e+00	4.961492e-04	
468	3.450000e+00	4.962658e-04	
469	3.500000e+00	4.963760e-04	
470	3.550000e+00	4.964808e-04	
471	3.600000e+00	4.965806e-04	
472	3.650000e+00	4.966760e-04	
473	3.700000e+00	4.967675e-04	
474	3.750000e+00	4.968554e-04	
475	3.800000e+00	4.969402e-04	
476	3.850000e+00	4.970220e-04	
477	3.900000e+00	4.971012e-04	
478	3.950000e+00	4.971779e-04	
479	4.000000e+00	4.972524e-04	
480	4.050000e+00	4.973249e-04	
481	4.100000e+00	4.973954e-04	
482	4.150000e+00	4.974642e-04	
483	4.200000e+00	4.975314e-04	
484	4.250000e+00	4.975970e-04	
485	4.300000e+00	4.976613e-04	
486	4.350000e+00	4.977242e-04	
487	4.400000e+00	4.977858e-04	
488	4.450000e+00	4.978463e-04	
489	4.500000e+00	4.979058e-04	
490	4.550000e+00	4.979642e-04	
491	4.600000e+00	4.980217e-04	
492	4.650000e+00	4.980783e-04	
493	4.700000e+00	4.981341e-04	
494	4.750000e+00	4.981893e-04	
495	4.800000e+00	4.982438e-04	
496	4.850000e+00	4.982978e-04	
497	4.900000e+00	4.983513e-04	
498	4.950000e+00	4.984046e-04	
499	5.000000e+00	4.984578e-04	
500	5.050000e+00	4.985111e-04	
501	5.100000e+00	4.985646e-04	
502	5.150000e+00	4.986186e-04	
503	5.200000e+00	4.986734e-04	
504	5.250000e+00	4.987293e-04	
505	5.300000e+00	4.987867e-04	
506	5.350000e+00	4.988461e-04	
507	5.400000e+00	4.989080e-04	
508	5.450000e+00	4.989729e-04	
509	5.500000e+00	4.990416e-04	
510	5.550000e+00	4.991147e-04	
511	5.600000e+00	4.991931e-04	
512	5.650000e+00	4.992778e-04	
513	5.700000e+00	4.993697e-04	
514	5.750000e+00	4.994702e-04	
515	5.800000e+00	4.995805e-04	
516	5.850000e+00	4.997019e-04	
517	5.900000e+00	4.998361e-04	
518	5.950000e+00	4.999848e-04	

Index   v-sweep         -i(vds)         
--------------------------------------------------------------------------------
519	6.000000e+00	5.001497e-04	
520	6.050000e+00	5.003329e-04	
521	6.100000e+00	5.005365e-04	
522	6.150000e+00	5.007629e-04	
523	6.200000e+00	5.010144e-04	
524	6.250000e+00	5.012939e-04	
525	6.300000e+00	5.016040e-04	
526	6.350000e+00	5.019477e-04	
527	6.400000e+00	5.023284e-04	
528	6.450000e+00	5.027492e-04	
529	6.500000e+00	5.032138e-04	
530	6.550000e+00	5.037258e-04	
531	6.600000e+00	5.042893e-04	
532	0.000000e+00	-3.15127e-24	
533	5.000000e-02	2.189099e-05	
534	1.000000e-01	4.328832e-05	
535	1.500000e-01	6.430170e-05	
536	2.000000e-01	8.496012e-05	
537	2.500000e-01	1.052720e-04	
538	3.000000e-01	1.252404e-04	
539	3.500000e-01	1.448672e-04	
540	4.000000e-01	1.641539e-04	
541	4.500000e-01	1.831018e-04	
542	5.000000e-01	2.017122e-04	
543	5.500000e-01	2.199865e-04	
544	6.000000e-01	2.379259e-04	
545	6.500000e-01	2.555319e-04	
546	7.000000e-01	2.728056e-04	
547	7.500000e-01	2.897484e-04	
548	8.000000e-01	3.063616e-04	
549	8.500000e-01	3.226465e-04	
550	9.000000e-01	3.386042e-04	
551	9.500000e-01	3.542362e-04	
552	1.000000e+00	3.695437e-04	
553	1.050000e+00	3.845278e-04	
554	1.100000e+00	3.991899e-04	
555	1.150000e+00	4.135313e-04	
556	1.200000e+00	4.275531e-04	
557	1.250000e+00	4.412566e-04	
558	1.300000e+00	4.546430e-04	
559	1.350000e+00	4.677136e-04	
560	1.400000e+00	4.804695e-04	
561	1.450000e+00	4.929119e-04	
562	1.500000e+00	5.050421e-04	
563	1.550000e+00	5.168613e-04	
564	1.600000e+00	5.283705e-04	
565	1.650000e+00	5.395711e-04	
566	1.700000e+00	5.504642e-04	
567	1.750000e+00	5.610509e-04	
568	1.800000e+00	5.713325e-04	
569	1.850000e+00	5.813100e-04	
570	1.900000e+00	5.909846e-04	
571	1.950000e+00	6.003575e-04	
572	2.000000e+00	6.094297e-04	
573	2.050000e+00	6.182023e-04	
574	2.100000e+00	6.266766e-04	
575	2.150000e+00	6.348535e-04	
576	2.200000e+00	6.427342e-04	

Index   v-sweep         -i(vds)         
--------------------------------------------------------------------------------
577	2.250000e+00	6.503197e-04	
578	2.300000e+00	6.576110e-04	
579	2.350000e+00	6.646093e-04	
580	2.400000e+00	6.713154e-04	
581	2.450000e+00	6.777304e-04	
582	2.500000e+00	6.838552e-04	
583	2.550000e+00	6.896908e-04	
584	2.600000e+00	6.952380e-04	
585	2.650000e+00	7.004976e-04	
586	2.700000e+00	7.054704e-04	
587	2.750000e+00	7.101571e-04	
588	2.800000e+00	7.145583e-04	
589	2.850000e+00	7.186746e-04	
590	2.900000e+00	7.225065e-04	
591	2.950000e+00	7.260544e-04	
592	3.000000e+00	7.293188e-04	
593	3.050000e+00	7.323006e-04	
594	3.100000e+00	7.350011e-04	
595	3.150000e+00	7.374229e-04	
596	3.200000e+00	7.395706e-04	
597	3.250000e+00	7.414523e-04	
598	3.300000e+00	7.430804e-04	
599	3.350000e+00	7.444730e-04	
600	3.400000e+00	7.456534e-04	
601	3.450000e+00	7.466484e-04	
602	3.500000e+00	7.474863e-04	
603	3.550000e+00	7.481941e-04	
604	3.600000e+00	7.487960e-04	
605	3.650000e+00	7.493124e-04	
606	3.700000e+00	7.497597e-04	
607	3.750000e+00	7.501514e-04	
608	3.800000e+00	7.504978e-04	
609	3.850000e+00	7.508071e-04	
610	3.900000e+00	7.510858e-04	
611	3.950000e+00	7.513390e-04	
612	4.000000e+00	7.515708e-04	
613	4.050000e+00	7.517843e-04	
614	4.100000e+00	7.519823e-04	
615	4.150000e+00	7.521669e-04	
616	4.200000e+00	7.523398e-04	
617	4.250000e+00	7.525025e-04	
618	4.300000e+00	7.526562e-04	
619	4.350000e+00	7.528020e-04	
620	4.400000e+00	7.529406e-04	
621	4.450000e+00	7.530730e-04	
622	4.500000e+00	7.531996e-04	
623	4.550000e+00	7.533211e-04	
624	4.600000e+00	7.534379e-04	
625	4.650000e+00	7.535504e-04	
626	4.700000e+00	7.536591e-04	
627	4.750000e+00	7.537642e-04	
628	4.800000e+00	7.538660e-04	
629	4.850000e+00	7.539648e-04	
630	4.900000e+00	7.540607e-04	
631	4.950000e+00	7.541541e-04	
632	5.000000e+00	7.542451e-04	
633	5.050000e+00	7.543338e-04	
634	5.100000e+00	7.544204e-04	

Index   v-sweep         -i(vds)         
--------------------------------------------------------------------------------
635	5.150000e+00	7.545051e-04	
636	5.200000e+00	7.545879e-04	
637	5.250000e+00	7.546691e-04	
638	5.300000e+00	7.547486e-04	
639	5.350000e+00	7.548267e-04	
640	5.400000e+00	7.549033e-04	
641	5.450000e+00	7.549788e-04	
642	5.500000e+00	7.550530e-04	
643	5.550000e+00	7.551263e-04	
644	5.600000e+00	7.551987e-04	
645	5.650000e+00	7.552704e-04	
646	5.700000e+00	7.553415e-04	
647	5.750000e+00	7.554123e-04	
648	5.800000e+00	7.554831e-04	
649	5.850000e+00	7.555541e-04	
650	5.900000e+00	7.556256e-04	
651	5.950000e+00	7.556981e-04	
652	6.000000e+00	7.557720e-04	
653	6.050000e+00	7.558479e-04	
654	6.100000e+00	7.559263e-04	
655	6.150000e+00	7.560080e-04	
656	6.200000e+00	7.560939e-04	
657	6.250000e+00	7.561848e-04	
658	6.300000e+00	7.562819e-04	
659	6.350000e+00	7.563863e-04	
660	6.400000e+00	7.564993e-04	
661	6.450000e+00	7.566226e-04	
662	6.500000e+00	7.567576e-04	
663	6.550000e+00	7.569064e-04	
664	6.600000e+00	7.570709e-04	
665	0.000000e+00	-8.80847e-25	
666	5.000000e-02	2.410173e-05	
667	1.000000e-01	4.774757e-05	
668	1.500000e-01	7.104666e-05	
669	2.000000e-01	9.402771e-05	
670	2.500000e-01	1.166989e-04	
671	3.000000e-01	1.390631e-04	
672	3.500000e-01	1.611218e-04	
673	4.000000e-01	1.828763e-04	
674	4.500000e-01	2.043277e-04	
675	5.000000e-01	2.254771e-04	
676	5.500000e-01	2.463256e-04	
677	6.000000e-01	2.668742e-04	
678	6.500000e-01	2.871240e-04	
679	7.000000e-01	3.070761e-04	
680	7.500000e-01	3.267315e-04	
681	8.000000e-01	3.460914e-04	
682	8.500000e-01	3.651566e-04	
683	9.000000e-01	3.839284e-04	
684	9.500000e-01	4.024076e-04	
685	1.000000e+00	4.205955e-04	
686	1.050000e+00	4.384929e-04	
687	1.100000e+00	4.561010e-04	
688	1.150000e+00	4.734207e-04	
689	1.200000e+00	4.904530e-04	
690	1.250000e+00	5.071991e-04	
691	1.300000e+00	5.236598e-04	
692	1.350000e+00	5.398362e-04	

Index   v-sweep         -i(vds)         
--------------------------------------------------------------------------------
693	1.400000e+00	5.557293e-04	
694	1.450000e+00	5.713401e-04	
695	1.500000e+00	5.866696e-04	
696	1.550000e+00	6.017187e-04	
697	1.600000e+00	6.164885e-04	
698	1.650000e+00	6.309799e-04	
699	1.700000e+00	6.451939e-04	
700	1.750000e+00	6.591315e-04	
701	1.800000e+00	6.727936e-04	
702	1.850000e+00	6.861812e-04	
703	1.900000e+00	6.992953e-04	
704	1.950000e+00	7.121367e-04	
705	2.000000e+00	7.247065e-04	
706	2.050000e+00	7.370055e-04	
707	2.100000e+00	7.490348e-04	
708	2.150000e+00	7.607952e-04	
709	2.200000e+00	7.722877e-04	
710	2.250000e+00	7.835132e-04	
711	2.300000e+00	7.944726e-04	
712	2.350000e+00	8.051668e-04	
713	2.400000e+00	8.155967e-04	
714	2.450000e+00	8.257632e-04	
715	2.500000e+00	8.356672e-04	
716	2.550000e+00	8.453096e-04	
717	2.600000e+00	8.546913e-04	
718	2.650000e+00	8.638131e-04	
719	2.700000e+00	8.726759e-04	
720	2.750000e+00	8.812806e-04	
721	2.800000e+00	8.896279e-04	
722	2.850000e+00	8.977187e-04	
723	2.900000e+00	9.055539e-04	
724	2.950000e+00	9.131342e-04	
725	3.000000e+00	9.204604e-04	
726	3.050000e+00	9.275333e-04	
727	3.100000e+00	9.343536e-04	
728	3.150000e+00	9.409220e-04	
729	3.200000e+00	9.472393e-04	
730	3.250000e+00	9.533060e-04	
731	3.300000e+00	9.591227e-04	
732	3.350000e+00	9.646901e-04	
733	3.400000e+00	9.700086e-04	
734	3.450000e+00	9.750786e-04	
735	3.500000e+00	9.799004e-04	
736	3.550000e+00	9.844742e-04	
737	3.600000e+00	9.888002e-04	
738	3.650000e+00	9.928782e-04	
739	3.700000e+00	9.967080e-04	
740	3.750000e+00	1.000289e-03	
741	3.800000e+00	1.003622e-03	
742	3.850000e+00	1.006705e-03	
743	3.900000e+00	1.009538e-03	
744	3.950000e+00	1.012123e-03	
745	4.000000e+00	1.014460e-03	
746	4.050000e+00	1.016554e-03	
747	4.100000e+00	1.018412e-03	
748	4.150000e+00	1.020044e-03	
749	4.200000e+00	1.021467e-03	
750	4.250000e+00	1.022698e-03	

Index   v-sweep         -i(vds)         
--------------------------------------------------------------------------------
751	4.300000e+00	1.023762e-03	
752	4.350000e+00	1.024679e-03	
753	4.400000e+00	1.025472e-03	
754	4.450000e+00	1.026162e-03	
755	4.500000e+00	1.026765e-03	
756	4.550000e+00	1.027296e-03	
757	4.600000e+00	1.027768e-03	
758	4.650000e+00	1.028190e-03	
759	4.700000e+00	1.028571e-03	
760	4.750000e+00	1.028916e-03	
761	4.800000e+00	1.029232e-03	
762	4.850000e+00	1.029523e-03	
763	4.900000e+00	1.029792e-03	
764	4.950000e+00	1.030042e-03	
765	5.000000e+00	1.030275e-03	
766	5.050000e+00	1.030494e-03	
767	5.100000e+00	1.030701e-03	
768	5.150000e+00	1.030896e-03	
769	5.200000e+00	1.031081e-03	
770	5.250000e+00	1.031257e-03	
771	5.300000e+00	1.031425e-03	
772	5.350000e+00	1.031586e-03	
773	5.400000e+00	1.031740e-03	
774	5.450000e+00	1.031888e-03	
775	5.500000e+00	1.032031e-03	
776	5.550000e+00	1.032168e-03	
777	5.600000e+00	1.032301e-03	
778	5.650000e+00	1.032430e-03	
779	5.700000e+00	1.032554e-03	
780	5.750000e+00	1.032675e-03	
781	5.800000e+00	1.032793e-03	
782	5.850000e+00	1.032907e-03	
783	5.900000e+00	1.033019e-03	
784	5.950000e+00	1.033128e-03	
785	6.000000e+00	1.033234e-03	
786	6.050000e+00	1.033337e-03	
787	6.100000e+00	1.033439e-03	
788	6.150000e+00	1.033538e-03	
789	6.200000e+00	1.033636e-03	
790	6.250000e+00	1.033731e-03	
791	6.300000e+00	1.033825e-03	
792	6.350000e+00	1.033918e-03	
793	6.400000e+00	1.034009e-03	
794	6.450000e+00	1.034099e-03	
795	6.500000e+00	1.034189e-03	
796	6.550000e+00	1.034278e-03	
797	6.600000e+00	1.034366e-03	
Note: No ".plot", ".print", or ".fourier" lines; no simulations run
