
Note: Compatibility modes selected: hs

Warning: m=xx on .subckt line will override multiplier m hierarchy!


Circuit: ***************************

Doing analysis at TEMP = 125.000000 and TNOM = 125.000000


No. of Data Rows : 798
                          ***************************
                          DC transfer characteristic  Mon Jan  9 13:58:37  2023
--------------------------------------------------------------------------------
Index   v-sweep         -i(vds)         
--------------------------------------------------------------------------------
0	0.000000e+00	-2.43950e-23	
1	5.000000e-02	1.681618e-07	
2	1.000000e-01	3.011102e-07	
3	1.500000e-01	4.100517e-07	
4	2.000000e-01	4.979250e-07	
5	2.500000e-01	5.657043e-07	
6	3.000000e-01	6.141824e-07	
7	3.500000e-01	6.449478e-07	
8	4.000000e-01	6.615024e-07	
9	4.500000e-01	6.692119e-07	
10	5.000000e-01	6.727540e-07	
11	5.500000e-01	6.745844e-07	
12	6.000000e-01	6.756925e-07	
13	6.500000e-01	6.764644e-07	
14	7.000000e-01	6.770623e-07	
15	7.500000e-01	6.775616e-07	
16	8.000000e-01	6.780007e-07	
17	8.500000e-01	6.784005e-07	
18	9.000000e-01	6.787735e-07	
19	9.500000e-01	6.791274e-07	
20	1.000000e+00	6.794671e-07	
21	1.050000e+00	6.797961e-07	
22	1.100000e+00	6.801167e-07	
23	1.150000e+00	6.804306e-07	
24	1.200000e+00	6.807390e-07	
25	1.250000e+00	6.810430e-07	
26	1.300000e+00	6.813432e-07	
27	1.350000e+00	6.816402e-07	
28	1.400000e+00	6.819345e-07	
29	1.450000e+00	6.822265e-07	
30	1.500000e+00	6.825163e-07	
31	1.550000e+00	6.828044e-07	
32	1.600000e+00	6.830908e-07	
33	1.650000e+00	6.833758e-07	
34	1.700000e+00	6.836596e-07	
35	1.750000e+00	6.839421e-07	
36	1.800000e+00	6.842236e-07	
37	1.850000e+00	6.845042e-07	
38	1.900000e+00	6.847838e-07	
39	1.950000e+00	6.850627e-07	
40	2.000000e+00	6.853408e-07	
41	2.050000e+00	6.856182e-07	
42	2.100000e+00	6.858950e-07	
43	2.150000e+00	6.861712e-07	
44	2.200000e+00	6.864469e-07	
45	2.250000e+00	6.867220e-07	
46	2.300000e+00	6.869967e-07	
47	2.350000e+00	6.872710e-07	
48	2.400000e+00	6.875449e-07	
49	2.450000e+00	6.878184e-07	
50	2.500000e+00	6.880917e-07	
51	2.550000e+00	6.883647e-07	
52	2.600000e+00	6.886376e-07	
53	2.650000e+00	6.889104e-07	
54	2.700000e+00	6.891832e-07	

Index   v-sweep         -i(vds)         
--------------------------------------------------------------------------------
55	2.750000e+00	6.894562e-07	
56	2.800000e+00	6.897294e-07	
57	2.850000e+00	6.900032e-07	
58	2.900000e+00	6.902777e-07	
59	2.950000e+00	6.905531e-07	
60	3.000000e+00	6.908298e-07	
61	3.050000e+00	6.911082e-07	
62	3.100000e+00	6.913887e-07	
63	3.150000e+00	6.916719e-07	
64	3.200000e+00	6.919583e-07	
65	3.250000e+00	6.922486e-07	
66	3.300000e+00	6.925437e-07	
67	3.350000e+00	6.928445e-07	
68	3.400000e+00	6.931519e-07	
69	3.450000e+00	6.934672e-07	
70	3.500000e+00	6.937917e-07	
71	3.550000e+00	6.941268e-07	
72	3.600000e+00	6.944741e-07	
73	3.650000e+00	6.948355e-07	
74	3.700000e+00	6.952129e-07	
75	3.750000e+00	6.956084e-07	
76	3.800000e+00	6.960244e-07	
77	3.850000e+00	6.964635e-07	
78	3.900000e+00	6.969284e-07	
79	3.950000e+00	6.974220e-07	
80	4.000000e+00	6.979476e-07	
81	4.050000e+00	6.985087e-07	
82	4.100000e+00	6.991088e-07	
83	4.150000e+00	6.997519e-07	
84	4.200000e+00	7.004422e-07	
85	4.250000e+00	7.011840e-07	
86	4.300000e+00	7.019820e-07	
87	4.350000e+00	7.028411e-07	
88	4.400000e+00	7.037665e-07	
89	4.450000e+00	7.047635e-07	
90	4.500000e+00	7.058379e-07	
91	4.550000e+00	7.069957e-07	
92	4.600000e+00	7.082429e-07	
93	4.650000e+00	7.095860e-07	
94	4.700000e+00	7.110319e-07	
95	4.750000e+00	7.125873e-07	
96	4.800000e+00	7.142595e-07	
97	4.850000e+00	7.160559e-07	
98	4.900000e+00	7.179844e-07	
99	4.950000e+00	7.200527e-07	
100	5.000000e+00	7.222691e-07	
101	5.050000e+00	7.246419e-07	
102	5.100000e+00	7.271798e-07	
103	5.150000e+00	7.298917e-07	
104	5.200000e+00	7.327865e-07	
105	5.250000e+00	7.358736e-07	
106	5.300000e+00	7.391625e-07	
107	5.350000e+00	7.426627e-07	
108	5.400000e+00	7.463841e-07	
109	5.450000e+00	7.503369e-07	
110	5.500000e+00	7.545311e-07	
111	5.550000e+00	7.589772e-07	
112	5.600000e+00	7.636857e-07	

Index   v-sweep         -i(vds)         
--------------------------------------------------------------------------------
113	5.650000e+00	7.686672e-07	
114	5.700000e+00	7.739328e-07	
115	5.750000e+00	7.794932e-07	
116	5.800000e+00	7.853596e-07	
117	5.850000e+00	7.915433e-07	
118	5.900000e+00	7.980555e-07	
119	5.950000e+00	8.049078e-07	
120	6.000000e+00	8.121117e-07	
121	6.050000e+00	8.196788e-07	
122	6.100000e+00	8.276208e-07	
123	6.150000e+00	8.359497e-07	
124	6.200000e+00	8.446772e-07	
125	6.250000e+00	8.538153e-07	
126	6.300000e+00	8.633761e-07	
127	6.350000e+00	8.733715e-07	
128	6.400000e+00	8.838137e-07	
129	6.450000e+00	8.947148e-07	
130	6.500000e+00	9.060869e-07	
131	6.550000e+00	9.179424e-07	
132	6.600000e+00	9.302933e-07	
133	0.000000e+00	3.537611e-22	
134	5.000000e-02	4.813883e-07	
135	1.000000e-01	9.271704e-07	
136	1.500000e-01	1.348473e-06	
137	2.000000e-01	1.748137e-06	
138	2.500000e-01	2.126922e-06	
139	3.000000e-01	2.485057e-06	
140	3.500000e-01	2.822644e-06	
141	4.000000e-01	3.139748e-06	
142	4.500000e-01	3.436430e-06	
143	5.000000e-01	3.712747e-06	
144	5.500000e-01	3.968759e-06	
145	6.000000e-01	4.204528e-06	
146	6.500000e-01	4.420121e-06	
147	7.000000e-01	4.615612e-06	
148	7.500000e-01	4.791084e-06	
149	8.000000e-01	4.946645e-06	
150	8.500000e-01	5.082434e-06	
151	9.000000e-01	5.198660e-06	
152	9.500000e-01	5.295650e-06	
153	1.000000e+00	5.373962e-06	
154	1.050000e+00	5.434571e-06	
155	1.100000e+00	5.479123e-06	
156	1.150000e+00	5.510133e-06	
157	1.200000e+00	5.530798e-06	
158	1.250000e+00	5.544347e-06	
159	1.300000e+00	5.553375e-06	
160	1.350000e+00	5.559640e-06	
161	1.400000e+00	5.564216e-06	
162	1.450000e+00	5.567735e-06	
163	1.500000e+00	5.570569e-06	
164	1.550000e+00	5.572942e-06	
165	1.600000e+00	5.574994e-06	
166	1.650000e+00	5.576814e-06	
167	1.700000e+00	5.578463e-06	
168	1.750000e+00	5.579981e-06	
169	1.800000e+00	5.581397e-06	
170	1.850000e+00	5.582733e-06	

Index   v-sweep         -i(vds)         
--------------------------------------------------------------------------------
171	1.900000e+00	5.584004e-06	
172	1.950000e+00	5.585221e-06	
173	2.000000e+00	5.586393e-06	
174	2.050000e+00	5.587528e-06	
175	2.100000e+00	5.588631e-06	
176	2.150000e+00	5.589707e-06	
177	2.200000e+00	5.590758e-06	
178	2.250000e+00	5.591789e-06	
179	2.300000e+00	5.592802e-06	
180	2.350000e+00	5.593798e-06	
181	2.400000e+00	5.594780e-06	
182	2.450000e+00	5.595748e-06	
183	2.500000e+00	5.596705e-06	
184	2.550000e+00	5.597651e-06	
185	2.600000e+00	5.598588e-06	
186	2.650000e+00	5.599516e-06	
187	2.700000e+00	5.600436e-06	
188	2.750000e+00	5.601348e-06	
189	2.800000e+00	5.602254e-06	
190	2.850000e+00	5.603153e-06	
191	2.900000e+00	5.604046e-06	
192	2.950000e+00	5.604934e-06	
193	3.000000e+00	5.605817e-06	
194	3.050000e+00	5.606696e-06	
195	3.100000e+00	5.607570e-06	
196	3.150000e+00	5.608440e-06	
197	3.200000e+00	5.609307e-06	
198	3.250000e+00	5.610171e-06	
199	3.300000e+00	5.611032e-06	
200	3.350000e+00	5.611892e-06	
201	3.400000e+00	5.612751e-06	
202	3.450000e+00	5.613609e-06	
203	3.500000e+00	5.614468e-06	
204	3.550000e+00	5.615329e-06	
205	3.600000e+00	5.616194e-06	
206	3.650000e+00	5.617064e-06	
207	3.700000e+00	5.617942e-06	
208	3.750000e+00	5.618830e-06	
209	3.800000e+00	5.619732e-06	
210	3.850000e+00	5.620650e-06	
211	3.900000e+00	5.621590e-06	
212	3.950000e+00	5.622557e-06	
213	4.000000e+00	5.623556e-06	
214	4.050000e+00	5.624593e-06	
215	4.100000e+00	5.625677e-06	
216	4.150000e+00	5.626816e-06	
217	4.200000e+00	5.628020e-06	
218	4.250000e+00	5.629299e-06	
219	4.300000e+00	5.630665e-06	
220	4.350000e+00	5.632132e-06	
221	4.400000e+00	5.633714e-06	
222	4.450000e+00	5.635428e-06	
223	4.500000e+00	5.637292e-06	
224	4.550000e+00	5.639324e-06	
225	4.600000e+00	5.641546e-06	
226	4.650000e+00	5.643981e-06	
227	4.700000e+00	5.646652e-06	
228	4.750000e+00	5.649587e-06	

Index   v-sweep         -i(vds)         
--------------------------------------------------------------------------------
229	4.800000e+00	5.652814e-06	
230	4.850000e+00	5.656363e-06	
231	4.900000e+00	5.660266e-06	
232	4.950000e+00	5.664558e-06	
233	5.000000e+00	5.669274e-06	
234	5.050000e+00	5.674453e-06	
235	5.100000e+00	5.680135e-06	
236	5.150000e+00	5.686363e-06	
237	5.200000e+00	5.693181e-06	
238	5.250000e+00	5.700637e-06	
239	5.300000e+00	5.708778e-06	
240	5.350000e+00	5.717656e-06	
241	5.400000e+00	5.727324e-06	
242	5.450000e+00	5.737836e-06	
243	5.500000e+00	5.749250e-06	
244	5.550000e+00	5.761625e-06	
245	5.600000e+00	5.775022e-06	
246	5.650000e+00	5.789504e-06	
247	5.700000e+00	5.805137e-06	
248	5.750000e+00	5.821986e-06	
249	5.800000e+00	5.840120e-06	
250	5.850000e+00	5.859612e-06	
251	5.900000e+00	5.880531e-06	
252	5.950000e+00	5.902953e-06	
253	6.000000e+00	5.926954e-06	
254	6.050000e+00	5.952610e-06	
255	6.100000e+00	5.980000e-06	
256	6.150000e+00	6.009205e-06	
257	6.200000e+00	6.040307e-06	
258	6.250000e+00	6.073388e-06	
259	6.300000e+00	6.108533e-06	
260	6.350000e+00	6.145828e-06	
261	6.400000e+00	6.185360e-06	
262	6.450000e+00	6.227216e-06	
263	6.500000e+00	6.271485e-06	
264	6.550000e+00	6.318259e-06	
265	6.600000e+00	6.367626e-06	
266	0.000000e+00	1.291316e-26	
267	5.000000e-02	7.437857e-07	
268	1.000000e-01	1.453393e-06	
269	1.500000e-01	2.139911e-06	
270	2.000000e-01	2.806172e-06	
271	2.500000e-01	3.452927e-06	
272	3.000000e-01	4.080403e-06	
273	3.500000e-01	4.688693e-06	
274	4.000000e-01	5.277856e-06	
275	4.500000e-01	5.847943e-06	
276	5.000000e-01	6.399004e-06	
277	5.500000e-01	6.931087e-06	
278	6.000000e-01	7.444240e-06	
279	6.500000e-01	7.938511e-06	
280	7.000000e-01	8.413947e-06	
281	7.500000e-01	8.870597e-06	
282	8.000000e-01	9.308507e-06	
283	8.500000e-01	9.727726e-06	
284	9.000000e-01	1.012830e-05	
285	9.500000e-01	1.051028e-05	
286	1.000000e+00	1.087371e-05	

Index   v-sweep         -i(vds)         
--------------------------------------------------------------------------------
287	1.050000e+00	1.121864e-05	
288	1.100000e+00	1.154511e-05	
289	1.150000e+00	1.185319e-05	
290	1.200000e+00	1.214290e-05	
291	1.250000e+00	1.241432e-05	
292	1.300000e+00	1.266748e-05	
293	1.350000e+00	1.290245e-05	
294	1.400000e+00	1.311928e-05	
295	1.450000e+00	1.331805e-05	
296	1.500000e+00	1.349882e-05	
297	1.550000e+00	1.366171e-05	
298	1.600000e+00	1.380684e-05	
299	1.650000e+00	1.393439e-05	
300	1.700000e+00	1.404465e-05	
301	1.750000e+00	1.413803e-05	
302	1.800000e+00	1.421522e-05	
303	1.850000e+00	1.427725e-05	
304	1.900000e+00	1.432564e-05	
305	1.950000e+00	1.436237e-05	
306	2.000000e+00	1.438973e-05	
307	2.050000e+00	1.440999e-05	
308	2.100000e+00	1.442513e-05	
309	2.150000e+00	1.443666e-05	
310	2.200000e+00	1.444568e-05	
311	2.250000e+00	1.445293e-05	
312	2.300000e+00	1.445892e-05	
313	2.350000e+00	1.446399e-05	
314	2.400000e+00	1.446839e-05	
315	2.450000e+00	1.447227e-05	
316	2.500000e+00	1.447576e-05	
317	2.550000e+00	1.447894e-05	
318	2.600000e+00	1.448186e-05	
319	2.650000e+00	1.448459e-05	
320	2.700000e+00	1.448714e-05	
321	2.750000e+00	1.448956e-05	
322	2.800000e+00	1.449186e-05	
323	2.850000e+00	1.449407e-05	
324	2.900000e+00	1.449618e-05	
325	2.950000e+00	1.449823e-05	
326	3.000000e+00	1.450020e-05	
327	3.050000e+00	1.450213e-05	
328	3.100000e+00	1.450400e-05	
329	3.150000e+00	1.450582e-05	
330	3.200000e+00	1.450761e-05	
331	3.250000e+00	1.450936e-05	
332	3.300000e+00	1.451108e-05	
333	3.350000e+00	1.451277e-05	
334	3.400000e+00	1.451443e-05	
335	3.450000e+00	1.451606e-05	
336	3.500000e+00	1.451768e-05	
337	3.550000e+00	1.451927e-05	
338	3.600000e+00	1.452085e-05	
339	3.650000e+00	1.452241e-05	
340	3.700000e+00	1.452395e-05	
341	3.750000e+00	1.452547e-05	
342	3.800000e+00	1.452699e-05	
343	3.850000e+00	1.452849e-05	
344	3.900000e+00	1.452997e-05	

Index   v-sweep         -i(vds)         
--------------------------------------------------------------------------------
345	3.950000e+00	1.453145e-05	
346	4.000000e+00	1.453292e-05	
347	4.050000e+00	1.453438e-05	
348	4.100000e+00	1.453583e-05	
349	4.150000e+00	1.453728e-05	
350	4.200000e+00	1.453873e-05	
351	4.250000e+00	1.454017e-05	
352	4.300000e+00	1.454162e-05	
353	4.350000e+00	1.454307e-05	
354	4.400000e+00	1.454454e-05	
355	4.450000e+00	1.454602e-05	
356	4.500000e+00	1.454752e-05	
357	4.550000e+00	1.454905e-05	
358	4.600000e+00	1.455062e-05	
359	4.650000e+00	1.455224e-05	
360	4.700000e+00	1.455391e-05	
361	4.750000e+00	1.455566e-05	
362	4.800000e+00	1.455750e-05	
363	4.850000e+00	1.455945e-05	
364	4.900000e+00	1.456152e-05	
365	4.950000e+00	1.456375e-05	
366	5.000000e+00	1.456615e-05	
367	5.050000e+00	1.456876e-05	
368	5.100000e+00	1.457160e-05	
369	5.150000e+00	1.457472e-05	
370	5.200000e+00	1.457816e-05	
371	5.250000e+00	1.458195e-05	
372	5.300000e+00	1.458614e-05	
373	5.350000e+00	1.459079e-05	
374	5.400000e+00	1.459596e-05	
375	5.450000e+00	1.460169e-05	
376	5.500000e+00	1.460807e-05	
377	5.550000e+00	1.461515e-05	
378	5.600000e+00	1.462301e-05	
379	5.650000e+00	1.463174e-05	
380	5.700000e+00	1.464141e-05	
381	5.750000e+00	1.465212e-05	
382	5.800000e+00	1.466397e-05	
383	5.850000e+00	1.467705e-05	
384	5.900000e+00	1.469147e-05	
385	5.950000e+00	1.470734e-05	
386	6.000000e+00	1.472479e-05	
387	6.050000e+00	1.474392e-05	
388	6.100000e+00	1.476488e-05	
389	6.150000e+00	1.478778e-05	
390	6.200000e+00	1.481278e-05	
391	6.250000e+00	1.484002e-05	
392	6.300000e+00	1.486964e-05	
393	6.350000e+00	1.490180e-05	
394	6.400000e+00	1.493666e-05	
395	6.450000e+00	1.497439e-05	
396	6.500000e+00	1.501514e-05	
397	6.550000e+00	1.505911e-05	
398	6.600000e+00	1.510646e-05	
399	0.000000e+00	-8.35861e-26	
400	5.000000e-02	9.535008e-07	
401	1.000000e-01	1.874603e-06	
402	1.500000e-01	2.774360e-06	

Index   v-sweep         -i(vds)         
--------------------------------------------------------------------------------
403	2.000000e-01	3.655597e-06	
404	2.500000e-01	4.519058e-06	
405	3.000000e-01	5.364961e-06	
406	3.500000e-01	6.193394e-06	
407	4.000000e-01	7.004409e-06	
408	4.500000e-01	7.798050e-06	
409	5.000000e-01	8.574359e-06	
410	5.500000e-01	9.333377e-06	
411	6.000000e-01	1.007515e-05	
412	6.500000e-01	1.079971e-05	
413	7.000000e-01	1.150710e-05	
414	7.500000e-01	1.219736e-05	
415	8.000000e-01	1.287054e-05	
416	8.500000e-01	1.352668e-05	
417	9.000000e-01	1.416580e-05	
418	9.500000e-01	1.478796e-05	
419	1.000000e+00	1.539320e-05	
420	1.050000e+00	1.598155e-05	
421	1.100000e+00	1.655305e-05	
422	1.150000e+00	1.710774e-05	
423	1.200000e+00	1.764567e-05	
424	1.250000e+00	1.816687e-05	
425	1.300000e+00	1.867138e-05	
426	1.350000e+00	1.915924e-05	
427	1.400000e+00	1.963049e-05	
428	1.450000e+00	2.008517e-05	
429	1.500000e+00	2.052332e-05	
430	1.550000e+00	2.094497e-05	
431	1.600000e+00	2.135016e-05	
432	1.650000e+00	2.173894e-05	
433	1.700000e+00	2.211133e-05	
434	1.750000e+00	2.246739e-05	
435	1.800000e+00	2.280714e-05	
436	1.850000e+00	2.313062e-05	
437	1.900000e+00	2.343788e-05	
438	1.950000e+00	2.372894e-05	
439	2.000000e+00	2.400386e-05	
440	2.050000e+00	2.426267e-05	
441	2.100000e+00	2.450541e-05	
442	2.150000e+00	2.473212e-05	
443	2.200000e+00	2.494285e-05	
444	2.250000e+00	2.513765e-05	
445	2.300000e+00	2.531659e-05	
446	2.350000e+00	2.547973e-05	
447	2.400000e+00	2.562720e-05	
448	2.450000e+00	2.575912e-05	
449	2.500000e+00	2.587571e-05	
450	2.550000e+00	2.597729e-05	
451	2.600000e+00	2.606433e-05	
452	2.650000e+00	2.613756e-05	
453	2.700000e+00	2.619796e-05	
454	2.750000e+00	2.624689e-05	
455	2.800000e+00	2.628594e-05	
456	2.850000e+00	2.631684e-05	
457	2.900000e+00	2.634127e-05	
458	2.950000e+00	2.636072e-05	
459	3.000000e+00	2.637640e-05	
460	3.050000e+00	2.638924e-05	

Index   v-sweep         -i(vds)         
--------------------------------------------------------------------------------
461	3.100000e+00	2.639995e-05	
462	3.150000e+00	2.640904e-05	
463	3.200000e+00	2.641689e-05	
464	3.250000e+00	2.642377e-05	
465	3.300000e+00	2.642990e-05	
466	3.350000e+00	2.643541e-05	
467	3.400000e+00	2.644044e-05	
468	3.450000e+00	2.644507e-05	
469	3.500000e+00	2.644936e-05	
470	3.550000e+00	2.645337e-05	
471	3.600000e+00	2.645715e-05	
472	3.650000e+00	2.646073e-05	
473	3.700000e+00	2.646413e-05	
474	3.750000e+00	2.646738e-05	
475	3.800000e+00	2.647050e-05	
476	3.850000e+00	2.647351e-05	
477	3.900000e+00	2.647641e-05	
478	3.950000e+00	2.647922e-05	
479	4.000000e+00	2.648195e-05	
480	4.050000e+00	2.648461e-05	
481	4.100000e+00	2.648720e-05	
482	4.150000e+00	2.648974e-05	
483	4.200000e+00	2.649221e-05	
484	4.250000e+00	2.649464e-05	
485	4.300000e+00	2.649703e-05	
486	4.350000e+00	2.649937e-05	
487	4.400000e+00	2.650167e-05	
488	4.450000e+00	2.650394e-05	
489	4.500000e+00	2.650617e-05	
490	4.550000e+00	2.650838e-05	
491	4.600000e+00	2.651056e-05	
492	4.650000e+00	2.651271e-05	
493	4.700000e+00	2.651484e-05	
494	4.750000e+00	2.651694e-05	
495	4.800000e+00	2.651903e-05	
496	4.850000e+00	2.652110e-05	
497	4.900000e+00	2.652315e-05	
498	4.950000e+00	2.652520e-05	
499	5.000000e+00	2.652723e-05	
500	5.050000e+00	2.652927e-05	
501	5.100000e+00	2.653130e-05	
502	5.150000e+00	2.653335e-05	
503	5.200000e+00	2.653540e-05	
504	5.250000e+00	2.653748e-05	
505	5.300000e+00	2.653960e-05	
506	5.350000e+00	2.654176e-05	
507	5.400000e+00	2.654399e-05	
508	5.450000e+00	2.654629e-05	
509	5.500000e+00	2.654870e-05	
510	5.550000e+00	2.655122e-05	
511	5.600000e+00	2.655390e-05	
512	5.650000e+00	2.655676e-05	
513	5.700000e+00	2.655983e-05	
514	5.750000e+00	2.656317e-05	
515	5.800000e+00	2.656680e-05	
516	5.850000e+00	2.657079e-05	
517	5.900000e+00	2.657519e-05	
518	5.950000e+00	2.658006e-05	

Index   v-sweep         -i(vds)         
--------------------------------------------------------------------------------
519	6.000000e+00	2.658547e-05	
520	6.050000e+00	2.659150e-05	
521	6.100000e+00	2.659823e-05	
522	6.150000e+00	2.660575e-05	
523	6.200000e+00	2.661416e-05	
524	6.250000e+00	2.662357e-05	
525	6.300000e+00	2.663409e-05	
526	6.350000e+00	2.664585e-05	
527	6.400000e+00	2.665898e-05	
528	6.450000e+00	2.667362e-05	
529	6.500000e+00	2.668993e-05	
530	6.550000e+00	2.670806e-05	
531	6.600000e+00	2.672818e-05	
532	0.000000e+00	1.108302e-20	
533	5.000000e-02	1.113527e-06	
534	1.000000e-01	2.196517e-06	
535	1.500000e-01	3.259998e-06	
536	2.000000e-01	4.306784e-06	
537	2.500000e-01	5.337612e-06	
538	3.000000e-01	6.352695e-06	
539	3.500000e-01	7.352112e-06	
540	4.000000e-01	8.335908e-06	
541	4.500000e-01	9.304121e-06	
542	5.000000e-01	1.025679e-05	
543	5.500000e-01	1.119394e-05	
544	6.000000e-01	1.211561e-05	
545	6.500000e-01	1.302183e-05	
546	7.000000e-01	1.391265e-05	
547	7.500000e-01	1.478808e-05	
548	8.000000e-01	1.564817e-05	
549	8.500000e-01	1.649295e-05	
550	9.000000e-01	1.732245e-05	
551	9.500000e-01	1.813671e-05	
552	1.000000e+00	1.893575e-05	
553	1.050000e+00	1.971962e-05	
554	1.100000e+00	2.048834e-05	
555	1.150000e+00	2.124195e-05	
556	1.200000e+00	2.198049e-05	
557	1.250000e+00	2.270397e-05	
558	1.300000e+00	2.341244e-05	
559	1.350000e+00	2.410593e-05	
560	1.400000e+00	2.478448e-05	
561	1.450000e+00	2.544810e-05	
562	1.500000e+00	2.609684e-05	
563	1.550000e+00	2.673073e-05	
564	1.600000e+00	2.734980e-05	
565	1.650000e+00	2.795409e-05	
566	1.700000e+00	2.854361e-05	
567	1.750000e+00	2.911842e-05	
568	1.800000e+00	2.967853e-05	
569	1.850000e+00	3.022397e-05	
570	1.900000e+00	3.075479e-05	
571	1.950000e+00	3.127101e-05	
572	2.000000e+00	3.177267e-05	
573	2.050000e+00	3.225978e-05	
574	2.100000e+00	3.273239e-05	
575	2.150000e+00	3.319053e-05	
576	2.200000e+00	3.363422e-05	

Index   v-sweep         -i(vds)         
--------------------------------------------------------------------------------
577	2.250000e+00	3.406349e-05	
578	2.300000e+00	3.447838e-05	
579	2.350000e+00	3.487892e-05	
580	2.400000e+00	3.526513e-05	
581	2.450000e+00	3.563704e-05	
582	2.500000e+00	3.599469e-05	
583	2.550000e+00	3.633810e-05	
584	2.600000e+00	3.666731e-05	
585	2.650000e+00	3.698233e-05	
586	2.700000e+00	3.728320e-05	
587	2.750000e+00	3.756994e-05	
588	2.800000e+00	3.784259e-05	
589	2.850000e+00	3.810116e-05	
590	2.900000e+00	3.834569e-05	
591	2.950000e+00	3.857621e-05	
592	3.000000e+00	3.879273e-05	
593	3.050000e+00	3.899531e-05	
594	3.100000e+00	3.918395e-05	
595	3.150000e+00	3.935872e-05	
596	3.200000e+00	3.951965e-05	
597	3.250000e+00	3.966682e-05	
598	3.300000e+00	3.980033e-05	
599	3.350000e+00	3.992031e-05	
600	3.400000e+00	4.002701e-05	
601	3.450000e+00	4.012073e-05	
602	3.500000e+00	4.020197e-05	
603	3.550000e+00	4.027142e-05	
604	3.600000e+00	4.032998e-05	
605	3.650000e+00	4.037879e-05	
606	3.700000e+00	4.041913e-05	
607	3.750000e+00	4.045235e-05	
608	3.800000e+00	4.047971e-05	
609	3.850000e+00	4.050239e-05	
610	3.900000e+00	4.052135e-05	
611	3.950000e+00	4.053738e-05	
612	4.000000e+00	4.055109e-05	
613	4.050000e+00	4.056299e-05	
614	4.100000e+00	4.057342e-05	
615	4.150000e+00	4.058268e-05	
616	4.200000e+00	4.059099e-05	
617	4.250000e+00	4.059853e-05	
618	4.300000e+00	4.060542e-05	
619	4.350000e+00	4.061177e-05	
620	4.400000e+00	4.061767e-05	
621	4.450000e+00	4.062318e-05	
622	4.500000e+00	4.062836e-05	
623	4.550000e+00	4.063326e-05	
624	4.600000e+00	4.063791e-05	
625	4.650000e+00	4.064234e-05	
626	4.700000e+00	4.064658e-05	
627	4.750000e+00	4.065065e-05	
628	4.800000e+00	4.065457e-05	
629	4.850000e+00	4.065836e-05	
630	4.900000e+00	4.066202e-05	
631	4.950000e+00	4.066557e-05	
632	5.000000e+00	4.066903e-05	
633	5.050000e+00	4.067240e-05	
634	5.100000e+00	4.067568e-05	

Index   v-sweep         -i(vds)         
--------------------------------------------------------------------------------
635	5.150000e+00	4.067889e-05	
636	5.200000e+00	4.068203e-05	
637	5.250000e+00	4.068511e-05	
638	5.300000e+00	4.068813e-05	
639	5.350000e+00	4.069109e-05	
640	5.400000e+00	4.069401e-05	
641	5.450000e+00	4.069688e-05	
642	5.500000e+00	4.069970e-05	
643	5.550000e+00	4.070249e-05	
644	5.600000e+00	4.070524e-05	
645	5.650000e+00	4.070796e-05	
646	5.700000e+00	4.071065e-05	
647	5.750000e+00	4.071331e-05	
648	5.800000e+00	4.071596e-05	
649	5.850000e+00	4.071859e-05	
650	5.900000e+00	4.072121e-05	
651	5.950000e+00	4.072383e-05	
652	6.000000e+00	4.072646e-05	
653	6.050000e+00	4.072910e-05	
654	6.100000e+00	4.073178e-05	
655	6.150000e+00	4.073450e-05	
656	6.200000e+00	4.073729e-05	
657	6.250000e+00	4.074016e-05	
658	6.300000e+00	4.074314e-05	
659	6.350000e+00	4.074627e-05	
660	6.400000e+00	4.074957e-05	
661	6.450000e+00	4.075308e-05	
662	6.500000e+00	4.075686e-05	
663	6.550000e+00	4.076094e-05	
664	6.600000e+00	4.076540e-05	
665	0.000000e+00	-4.04888e-26	
666	5.000000e-02	1.230048e-06	
667	1.000000e-01	2.431375e-06	
668	1.500000e-01	3.614987e-06	
669	2.000000e-01	4.783690e-06	
670	2.500000e-01	5.938216e-06	
671	3.000000e-01	7.078770e-06	
672	3.500000e-01	8.205425e-06	
673	4.000000e-01	9.318220e-06	
674	4.500000e-01	1.041719e-05	
675	5.000000e-01	1.150235e-05	
676	5.500000e-01	1.257375e-05	
677	6.000000e-01	1.363140e-05	
678	6.500000e-01	1.467533e-05	
679	7.000000e-01	1.570557e-05	
680	7.500000e-01	1.672215e-05	
681	8.000000e-01	1.772510e-05	
682	8.500000e-01	1.871443e-05	
683	9.000000e-01	1.969019e-05	
684	9.500000e-01	2.065240e-05	
685	1.000000e+00	2.160108e-05	
686	1.050000e+00	2.253626e-05	
687	1.100000e+00	2.345796e-05	
688	1.150000e+00	2.436623e-05	
689	1.200000e+00	2.526107e-05	
690	1.250000e+00	2.614253e-05	
691	1.300000e+00	2.701061e-05	
692	1.350000e+00	2.786536e-05	

Index   v-sweep         -i(vds)         
--------------------------------------------------------------------------------
693	1.400000e+00	2.870680e-05	
694	1.450000e+00	2.953496e-05	
695	1.500000e+00	3.034985e-05	
696	1.550000e+00	3.115151e-05	
697	1.600000e+00	3.193997e-05	
698	1.650000e+00	3.271524e-05	
699	1.700000e+00	3.347737e-05	
700	1.750000e+00	3.422636e-05	
701	1.800000e+00	3.496225e-05	
702	1.850000e+00	3.568507e-05	
703	1.900000e+00	3.639483e-05	
704	1.950000e+00	3.709158e-05	
705	2.000000e+00	3.777532e-05	
706	2.050000e+00	3.844609e-05	
707	2.100000e+00	3.910391e-05	
708	2.150000e+00	3.974881e-05	
709	2.200000e+00	4.038081e-05	
710	2.250000e+00	4.099994e-05	
711	2.300000e+00	4.160623e-05	
712	2.350000e+00	4.219969e-05	
713	2.400000e+00	4.278035e-05	
714	2.450000e+00	4.334825e-05	
715	2.500000e+00	4.390340e-05	
716	2.550000e+00	4.444582e-05	
717	2.600000e+00	4.497555e-05	
718	2.650000e+00	4.549260e-05	
719	2.700000e+00	4.599701e-05	
720	2.750000e+00	4.648879e-05	
721	2.800000e+00	4.696797e-05	
722	2.850000e+00	4.743458e-05	
723	2.900000e+00	4.788863e-05	
724	2.950000e+00	4.833015e-05	
725	3.000000e+00	4.875917e-05	
726	3.050000e+00	4.917571e-05	
727	3.100000e+00	4.957978e-05	
728	3.150000e+00	4.997142e-05	
729	3.200000e+00	5.035064e-05	
730	3.250000e+00	5.071748e-05	
731	3.300000e+00	5.107194e-05	
732	3.350000e+00	5.141405e-05	
733	3.400000e+00	5.174383e-05	
734	3.450000e+00	5.206131e-05	
735	3.500000e+00	5.236650e-05	
736	3.550000e+00	5.265942e-05	
737	3.600000e+00	5.294009e-05	
738	3.650000e+00	5.320854e-05	
739	3.700000e+00	5.346476e-05	
740	3.750000e+00	5.370879e-05	
741	3.800000e+00	5.394063e-05	
742	3.850000e+00	5.416031e-05	
743	3.900000e+00	5.436783e-05	
744	3.950000e+00	5.456322e-05	
745	4.000000e+00	5.474648e-05	
746	4.050000e+00	5.491764e-05	
747	4.100000e+00	5.507672e-05	
748	4.150000e+00	5.522375e-05	
749	4.200000e+00	5.535880e-05	
750	4.250000e+00	5.548195e-05	

Index   v-sweep         -i(vds)         
--------------------------------------------------------------------------------
751	4.300000e+00	5.559332e-05	
752	4.350000e+00	5.569313e-05	
753	4.400000e+00	5.578168e-05	
754	4.450000e+00	5.585942e-05	
755	4.500000e+00	5.592694e-05	
756	4.550000e+00	5.598502e-05	
757	4.600000e+00	5.603457e-05	
758	4.650000e+00	5.607663e-05	
759	4.700000e+00	5.611224e-05	
760	4.750000e+00	5.614243e-05	
761	4.800000e+00	5.616812e-05	
762	4.850000e+00	5.619014e-05	
763	4.900000e+00	5.620915e-05	
764	4.950000e+00	5.622571e-05	
765	5.000000e+00	5.624028e-05	
766	5.050000e+00	5.625322e-05	
767	5.100000e+00	5.626481e-05	
768	5.150000e+00	5.627529e-05	
769	5.200000e+00	5.628483e-05	
770	5.250000e+00	5.629359e-05	
771	5.300000e+00	5.630168e-05	
772	5.350000e+00	5.630921e-05	
773	5.400000e+00	5.631625e-05	
774	5.450000e+00	5.632286e-05	
775	5.500000e+00	5.632910e-05	
776	5.550000e+00	5.633502e-05	
777	5.600000e+00	5.634066e-05	
778	5.650000e+00	5.634604e-05	
779	5.700000e+00	5.635120e-05	
780	5.750000e+00	5.635616e-05	
781	5.800000e+00	5.636094e-05	
782	5.850000e+00	5.636555e-05	
783	5.900000e+00	5.637002e-05	
784	5.950000e+00	5.637436e-05	
785	6.000000e+00	5.637857e-05	
786	6.050000e+00	5.638267e-05	
787	6.100000e+00	5.638666e-05	
788	6.150000e+00	5.639057e-05	
789	6.200000e+00	5.639438e-05	
790	6.250000e+00	5.639812e-05	
791	6.300000e+00	5.640178e-05	
792	6.350000e+00	5.640537e-05	
793	6.400000e+00	5.640890e-05	
794	6.450000e+00	5.641238e-05	
795	6.500000e+00	5.641579e-05	
796	6.550000e+00	5.641916e-05	
797	6.600000e+00	5.642249e-05	
Note: No ".plot", ".print", or ".fourier" lines; no simulations run
