
Note: Compatibility modes selected: hs

Warning: m=xx on .subckt line will override multiplier m hierarchy!


Circuit: ***************************

Doing analysis at TEMP = 125.000000 and TNOM = 125.000000


No. of Data Rows : 798
                          ***************************
                          DC transfer characteristic  Mon Jan  9 13:58:37  2023
--------------------------------------------------------------------------------
Index   v-sweep         -i(vds)         
--------------------------------------------------------------------------------
0	0.000000e+00	-1.03980e-26	
1	5.000000e-02	1.526914e-06	
2	1.000000e-01	2.769409e-06	
3	1.500000e-01	3.744366e-06	
4	2.000000e-01	4.463263e-06	
5	2.500000e-01	4.944125e-06	
6	3.000000e-01	5.227369e-06	
7	3.500000e-01	5.383506e-06	
8	4.000000e-01	5.478751e-06	
9	4.500000e-01	5.547095e-06	
10	5.000000e-01	5.601750e-06	
11	5.500000e-01	5.648121e-06	
12	6.000000e-01	5.688822e-06	
13	6.500000e-01	5.725331e-06	
14	7.000000e-01	5.758578e-06	
15	7.500000e-01	5.789198e-06	
16	8.000000e-01	5.817650e-06	
17	8.500000e-01	5.844276e-06	
18	9.000000e-01	5.869343e-06	
19	9.500000e-01	5.893060e-06	
20	1.000000e+00	5.915598e-06	
21	1.050000e+00	5.937094e-06	
22	1.100000e+00	5.957665e-06	
23	1.150000e+00	5.977408e-06	
24	1.200000e+00	5.996406e-06	
25	1.250000e+00	6.014729e-06	
26	1.300000e+00	6.032438e-06	
27	1.350000e+00	6.049587e-06	
28	1.400000e+00	6.066221e-06	
29	1.450000e+00	6.082383e-06	
30	1.500000e+00	6.098108e-06	
31	1.550000e+00	6.113428e-06	
32	1.600000e+00	6.128372e-06	
33	1.650000e+00	6.142966e-06	
34	1.700000e+00	6.157234e-06	
35	1.750000e+00	6.171196e-06	
36	1.800000e+00	6.184872e-06	
37	1.850000e+00	6.198278e-06	
38	1.900000e+00	6.211431e-06	
39	1.950000e+00	6.224346e-06	
40	2.000000e+00	6.237034e-06	
41	2.050000e+00	6.249510e-06	
42	2.100000e+00	6.261783e-06	
43	2.150000e+00	6.273864e-06	
44	2.200000e+00	6.285764e-06	
45	2.250000e+00	6.297491e-06	
46	2.300000e+00	6.309053e-06	
47	2.350000e+00	6.320458e-06	
48	2.400000e+00	6.331715e-06	
49	2.450000e+00	6.342829e-06	
50	2.500000e+00	6.353807e-06	
51	2.550000e+00	6.364657e-06	
52	2.600000e+00	6.375384e-06	
53	2.650000e+00	6.385994e-06	
54	2.700000e+00	6.396494e-06	

Index   v-sweep         -i(vds)         
--------------------------------------------------------------------------------
55	2.750000e+00	6.406890e-06	
56	2.800000e+00	6.417188e-06	
57	2.850000e+00	6.427394e-06	
58	2.900000e+00	6.437515e-06	
59	2.950000e+00	6.447559e-06	
60	3.000000e+00	6.457533e-06	
61	3.050000e+00	6.467445e-06	
62	3.100000e+00	6.477304e-06	
63	3.150000e+00	6.487119e-06	
64	3.200000e+00	6.496901e-06	
65	3.250000e+00	6.506661e-06	
66	3.300000e+00	6.516411e-06	
67	3.350000e+00	6.526165e-06	
68	3.400000e+00	6.535938e-06	
69	3.450000e+00	6.545747e-06	
70	3.500000e+00	6.555608e-06	
71	3.550000e+00	6.565541e-06	
72	3.600000e+00	6.575568e-06	
73	3.650000e+00	6.585710e-06	
74	3.700000e+00	6.595993e-06	
75	3.750000e+00	6.606443e-06	
76	3.800000e+00	6.617089e-06	
77	3.850000e+00	6.627962e-06	
78	3.900000e+00	6.639094e-06	
79	3.950000e+00	6.650521e-06	
80	4.000000e+00	6.662281e-06	
81	4.050000e+00	6.674414e-06	
82	4.100000e+00	6.686962e-06	
83	4.150000e+00	6.699971e-06	
84	4.200000e+00	6.713487e-06	
85	4.250000e+00	6.727561e-06	
86	4.300000e+00	6.742246e-06	
87	4.350000e+00	6.757597e-06	
88	4.400000e+00	6.773672e-06	
89	4.450000e+00	6.790533e-06	
90	4.500000e+00	6.808241e-06	
91	4.550000e+00	6.826865e-06	
92	4.600000e+00	6.846471e-06	
93	4.650000e+00	6.867132e-06	
94	4.700000e+00	6.888921e-06	
95	4.750000e+00	6.911916e-06	
96	4.800000e+00	6.936194e-06	
97	4.850000e+00	6.961839e-06	
98	4.900000e+00	6.988935e-06	
99	4.950000e+00	7.017568e-06	
100	5.000000e+00	7.047826e-06	
101	5.050000e+00	7.079803e-06	
102	5.100000e+00	7.113592e-06	
103	5.150000e+00	7.149289e-06	
104	5.200000e+00	7.186992e-06	
105	5.250000e+00	7.226803e-06	
106	5.300000e+00	7.268823e-06	
107	5.350000e+00	7.313157e-06	
108	5.400000e+00	7.359913e-06	
109	5.450000e+00	7.409198e-06	
110	5.500000e+00	7.461124e-06	
111	5.550000e+00	7.515802e-06	
112	5.600000e+00	7.573347e-06	

Index   v-sweep         -i(vds)         
--------------------------------------------------------------------------------
113	5.650000e+00	7.633873e-06	
114	5.700000e+00	7.697499e-06	
115	5.750000e+00	7.764341e-06	
116	5.800000e+00	7.834522e-06	
117	5.850000e+00	7.908161e-06	
118	5.900000e+00	7.985381e-06	
119	5.950000e+00	8.066306e-06	
120	6.000000e+00	8.151061e-06	
121	6.050000e+00	8.239772e-06	
122	6.100000e+00	8.332565e-06	
123	6.150000e+00	8.429568e-06	
124	6.200000e+00	8.530910e-06	
125	6.250000e+00	8.636720e-06	
126	6.300000e+00	8.747127e-06	
127	6.350000e+00	8.862262e-06	
128	6.400000e+00	8.982257e-06	
129	6.450000e+00	9.107242e-06	
130	6.500000e+00	9.237350e-06	
131	6.550000e+00	9.372713e-06	
132	6.600000e+00	9.513463e-06	
133	0.000000e+00	-8.63261e-25	
134	5.000000e-02	4.914268e-06	
135	1.000000e-01	9.518952e-06	
136	1.500000e-01	1.382932e-05	
137	2.000000e-01	1.785279e-05	
138	2.500000e-01	2.159470e-05	
139	3.000000e-01	2.505979e-05	
140	3.500000e-01	2.825260e-05	
141	4.000000e-01	3.117760e-05	
142	4.500000e-01	3.383925e-05	
143	5.000000e-01	3.624199e-05	
144	5.500000e-01	3.839040e-05	
145	6.000000e-01	4.028928e-05	
146	6.500000e-01	4.194398e-05	
147	7.000000e-01	4.336099e-05	
148	7.500000e-01	4.454917e-05	
149	8.000000e-01	4.552211e-05	
150	8.500000e-01	4.630142e-05	
151	9.000000e-01	4.691833e-05	
152	9.500000e-01	4.740950e-05	
153	1.000000e+00	4.780870e-05	
154	1.050000e+00	4.814173e-05	
155	1.100000e+00	4.842645e-05	
156	1.150000e+00	4.867491e-05	
157	1.200000e+00	4.889535e-05	
158	1.250000e+00	4.909355e-05	
159	1.300000e+00	4.927372e-05	
160	1.350000e+00	4.943897e-05	
161	1.400000e+00	4.959168e-05	
162	1.450000e+00	4.973371e-05	
163	1.500000e+00	4.986653e-05	
164	1.550000e+00	4.999134e-05	
165	1.600000e+00	5.010910e-05	
166	1.650000e+00	5.022062e-05	
167	1.700000e+00	5.032657e-05	
168	1.750000e+00	5.042754e-05	
169	1.800000e+00	5.052400e-05	
170	1.850000e+00	5.061637e-05	

Index   v-sweep         -i(vds)         
--------------------------------------------------------------------------------
171	1.900000e+00	5.070503e-05	
172	1.950000e+00	5.079029e-05	
173	2.000000e+00	5.087242e-05	
174	2.050000e+00	5.095167e-05	
175	2.100000e+00	5.102827e-05	
176	2.150000e+00	5.110239e-05	
177	2.200000e+00	5.117423e-05	
178	2.250000e+00	5.124393e-05	
179	2.300000e+00	5.131163e-05	
180	2.350000e+00	5.137746e-05	
181	2.400000e+00	5.144154e-05	
182	2.450000e+00	5.150398e-05	
183	2.500000e+00	5.156486e-05	
184	2.550000e+00	5.162427e-05	
185	2.600000e+00	5.168230e-05	
186	2.650000e+00	5.173902e-05	
187	2.700000e+00	5.179451e-05	
188	2.750000e+00	5.184881e-05	
189	2.800000e+00	5.190199e-05	
190	2.850000e+00	5.195412e-05	
191	2.900000e+00	5.200523e-05	
192	2.950000e+00	5.205538e-05	
193	3.000000e+00	5.210461e-05	
194	3.050000e+00	5.215297e-05	
195	3.100000e+00	5.220050e-05	
196	3.150000e+00	5.224724e-05	
197	3.200000e+00	5.229324e-05	
198	3.250000e+00	5.233853e-05	
199	3.300000e+00	5.238316e-05	
200	3.350000e+00	5.242717e-05	
201	3.400000e+00	5.247060e-05	
202	3.450000e+00	5.251350e-05	
203	3.500000e+00	5.255593e-05	
204	3.550000e+00	5.259793e-05	
205	3.600000e+00	5.263957e-05	
206	3.650000e+00	5.268090e-05	
207	3.700000e+00	5.272200e-05	
208	3.750000e+00	5.276295e-05	
209	3.800000e+00	5.280383e-05	
210	3.850000e+00	5.284472e-05	
211	3.900000e+00	5.288575e-05	
212	3.950000e+00	5.292701e-05	
213	4.000000e+00	5.296862e-05	
214	4.050000e+00	5.301073e-05	
215	4.100000e+00	5.305349e-05	
216	4.150000e+00	5.309704e-05	
217	4.200000e+00	5.314157e-05	
218	4.250000e+00	5.318726e-05	
219	4.300000e+00	5.323433e-05	
220	4.350000e+00	5.328298e-05	
221	4.400000e+00	5.333346e-05	
222	4.450000e+00	5.338602e-05	
223	4.500000e+00	5.344092e-05	
224	4.550000e+00	5.349847e-05	
225	4.600000e+00	5.355897e-05	
226	4.650000e+00	5.362275e-05	
227	4.700000e+00	5.369015e-05	
228	4.750000e+00	5.376154e-05	

Index   v-sweep         -i(vds)         
--------------------------------------------------------------------------------
229	4.800000e+00	5.383730e-05	
230	4.850000e+00	5.391785e-05	
231	4.900000e+00	5.400360e-05	
232	4.950000e+00	5.409500e-05	
233	5.000000e+00	5.419252e-05	
234	5.050000e+00	5.429664e-05	
235	5.100000e+00	5.440787e-05	
236	5.150000e+00	5.452674e-05	
237	5.200000e+00	5.465378e-05	
238	5.250000e+00	5.478958e-05	
239	5.300000e+00	5.493470e-05	
240	5.350000e+00	5.508976e-05	
241	5.400000e+00	5.525538e-05	
242	5.450000e+00	5.543219e-05	
243	5.500000e+00	5.562086e-05	
244	5.550000e+00	5.582207e-05	
245	5.600000e+00	5.603649e-05	
246	5.650000e+00	5.626486e-05	
247	5.700000e+00	5.650788e-05	
248	5.750000e+00	5.676630e-05	
249	5.800000e+00	5.704089e-05	
250	5.850000e+00	5.733240e-05	
251	5.900000e+00	5.764163e-05	
252	5.950000e+00	5.796938e-05	
253	6.000000e+00	5.831644e-05	
254	6.050000e+00	5.868366e-05	
255	6.100000e+00	5.907185e-05	
256	6.150000e+00	5.948188e-05	
257	6.200000e+00	5.991458e-05	
258	6.250000e+00	6.037083e-05	
259	6.300000e+00	6.085151e-05	
260	6.350000e+00	6.135749e-05	
261	6.400000e+00	6.188966e-05	
262	6.450000e+00	6.244892e-05	
263	6.500000e+00	6.303617e-05	
264	6.550000e+00	6.365233e-05	
265	6.600000e+00	6.429830e-05	
266	0.000000e+00	-1.21339e-24	
267	5.000000e-02	7.471927e-06	
268	1.000000e-01	1.463812e-05	
269	1.500000e-01	2.151318e-05	
270	2.000000e-01	2.810415e-05	
271	2.500000e-01	3.441602e-05	
272	3.000000e-01	4.045320e-05	
273	3.500000e-01	4.621986e-05	
274	4.000000e-01	5.172008e-05	
275	4.500000e-01	5.695788e-05	
276	5.000000e-01	6.193718e-05	
277	5.500000e-01	6.666186e-05	
278	6.000000e-01	7.113571e-05	
279	6.500000e-01	7.536248e-05	
280	7.000000e-01	7.934587e-05	
281	7.500000e-01	8.308948e-05	
282	8.000000e-01	8.659689e-05	
283	8.500000e-01	8.987162e-05	
284	9.000000e-01	9.291713e-05	
285	9.500000e-01	9.573686e-05	
286	1.000000e+00	9.833418e-05	

Index   v-sweep         -i(vds)         
--------------------------------------------------------------------------------
287	1.050000e+00	1.007125e-04	
288	1.100000e+00	1.028751e-04	
289	1.150000e+00	1.048257e-04	
290	1.200000e+00	1.065680e-04	
291	1.250000e+00	1.081067e-04	
292	1.300000e+00	1.094486e-04	
293	1.350000e+00	1.106042e-04	
294	1.400000e+00	1.115895e-04	
295	1.450000e+00	1.124264e-04	
296	1.500000e+00	1.131395e-04	
297	1.550000e+00	1.137526e-04	
298	1.600000e+00	1.142860e-04	
299	1.650000e+00	1.147558e-04	
300	1.700000e+00	1.151745e-04	
301	1.750000e+00	1.155516e-04	
302	1.800000e+00	1.158943e-04	
303	1.850000e+00	1.162082e-04	
304	1.900000e+00	1.164978e-04	
305	1.950000e+00	1.167666e-04	
306	2.000000e+00	1.170175e-04	
307	2.050000e+00	1.172526e-04	
308	2.100000e+00	1.174739e-04	
309	2.150000e+00	1.176829e-04	
310	2.200000e+00	1.178811e-04	
311	2.250000e+00	1.180694e-04	
312	2.300000e+00	1.182490e-04	
313	2.350000e+00	1.184205e-04	
314	2.400000e+00	1.185848e-04	
315	2.450000e+00	1.187423e-04	
316	2.500000e+00	1.188938e-04	
317	2.550000e+00	1.190396e-04	
318	2.600000e+00	1.191803e-04	
319	2.650000e+00	1.193161e-04	
320	2.700000e+00	1.194474e-04	
321	2.750000e+00	1.195746e-04	
322	2.800000e+00	1.196979e-04	
323	2.850000e+00	1.198175e-04	
324	2.900000e+00	1.199337e-04	
325	2.950000e+00	1.200468e-04	
326	3.000000e+00	1.201567e-04	
327	3.050000e+00	1.202639e-04	
328	3.100000e+00	1.203683e-04	
329	3.150000e+00	1.204702e-04	
330	3.200000e+00	1.205697e-04	
331	3.250000e+00	1.206669e-04	
332	3.300000e+00	1.207620e-04	
333	3.350000e+00	1.208549e-04	
334	3.400000e+00	1.209459e-04	
335	3.450000e+00	1.210351e-04	
336	3.500000e+00	1.211224e-04	
337	3.550000e+00	1.212081e-04	
338	3.600000e+00	1.212922e-04	
339	3.650000e+00	1.213748e-04	
340	3.700000e+00	1.214559e-04	
341	3.750000e+00	1.215357e-04	
342	3.800000e+00	1.216142e-04	
343	3.850000e+00	1.216916e-04	
344	3.900000e+00	1.217678e-04	

Index   v-sweep         -i(vds)         
--------------------------------------------------------------------------------
345	3.950000e+00	1.218431e-04	
346	4.000000e+00	1.219175e-04	
347	4.050000e+00	1.219912e-04	
348	4.100000e+00	1.220643e-04	
349	4.150000e+00	1.221368e-04	
350	4.200000e+00	1.222091e-04	
351	4.250000e+00	1.222811e-04	
352	4.300000e+00	1.223532e-04	
353	4.350000e+00	1.224256e-04	
354	4.400000e+00	1.224984e-04	
355	4.450000e+00	1.225720e-04	
356	4.500000e+00	1.226465e-04	
357	4.550000e+00	1.227224e-04	
358	4.600000e+00	1.227999e-04	
359	4.650000e+00	1.228794e-04	
360	4.700000e+00	1.229614e-04	
361	4.750000e+00	1.230462e-04	
362	4.800000e+00	1.231343e-04	
363	4.850000e+00	1.232263e-04	
364	4.900000e+00	1.233226e-04	
365	4.950000e+00	1.234238e-04	
366	5.000000e+00	1.235306e-04	
367	5.050000e+00	1.236436e-04	
368	5.100000e+00	1.237636e-04	
369	5.150000e+00	1.238913e-04	
370	5.200000e+00	1.240274e-04	
371	5.250000e+00	1.241729e-04	
372	5.300000e+00	1.243286e-04	
373	5.350000e+00	1.244954e-04	
374	5.400000e+00	1.246743e-04	
375	5.450000e+00	1.248663e-04	
376	5.500000e+00	1.250725e-04	
377	5.550000e+00	1.252941e-04	
378	5.600000e+00	1.255320e-04	
379	5.650000e+00	1.257877e-04	
380	5.700000e+00	1.260622e-04	
381	5.750000e+00	1.263569e-04	
382	5.800000e+00	1.266731e-04	
383	5.850000e+00	1.270122e-04	
384	5.900000e+00	1.273757e-04	
385	5.950000e+00	1.277648e-04	
386	6.000000e+00	1.281813e-04	
387	6.050000e+00	1.286265e-04	
388	6.100000e+00	1.291021e-04	
389	6.150000e+00	1.296096e-04	
390	6.200000e+00	1.301508e-04	
391	6.250000e+00	1.307272e-04	
392	6.300000e+00	1.313406e-04	
393	6.350000e+00	1.319927e-04	
394	6.400000e+00	1.326853e-04	
395	6.450000e+00	1.334202e-04	
396	6.500000e+00	1.341992e-04	
397	6.550000e+00	1.350241e-04	
398	6.600000e+00	1.358969e-04	
399	0.000000e+00	-4.54521e-25	
400	5.000000e-02	9.354699e-06	
401	1.000000e-01	1.841877e-05	
402	1.500000e-01	2.720598e-05	

Index   v-sweep         -i(vds)         
--------------------------------------------------------------------------------
403	2.000000e-01	3.572275e-05	
404	2.500000e-01	4.397348e-05	
405	3.000000e-01	5.196201e-05	
406	3.500000e-01	5.969198e-05	
407	4.000000e-01	6.716692e-05	
408	4.500000e-01	7.439033e-05	
409	5.000000e-01	8.136562e-05	
410	5.500000e-01	8.809617e-05	
411	6.000000e-01	9.458529e-05	
412	6.500000e-01	1.008363e-04	
413	7.000000e-01	1.068523e-04	
414	7.500000e-01	1.126366e-04	
415	8.000000e-01	1.181922e-04	
416	8.500000e-01	1.235222e-04	
417	9.000000e-01	1.286297e-04	
418	9.500000e-01	1.335176e-04	
419	1.000000e+00	1.381888e-04	
420	1.050000e+00	1.426463e-04	
421	1.100000e+00	1.468928e-04	
422	1.150000e+00	1.509311e-04	
423	1.200000e+00	1.547639e-04	
424	1.250000e+00	1.583938e-04	
425	1.300000e+00	1.618236e-04	
426	1.350000e+00	1.650555e-04	
427	1.400000e+00	1.680921e-04	
428	1.450000e+00	1.709356e-04	
429	1.500000e+00	1.735880e-04	
430	1.550000e+00	1.760510e-04	
431	1.600000e+00	1.783262e-04	
432	1.650000e+00	1.804146e-04	
433	1.700000e+00	1.823169e-04	
434	1.750000e+00	1.840342e-04	
435	1.800000e+00	1.855686e-04	
436	1.850000e+00	1.869260e-04	
437	1.900000e+00	1.881174e-04	
438	1.950000e+00	1.891589e-04	
439	2.000000e+00	1.900703e-04	
440	2.050000e+00	1.908717e-04	
441	2.100000e+00	1.915815e-04	
442	2.150000e+00	1.922156e-04	
443	2.200000e+00	1.927867e-04	
444	2.250000e+00	1.933052e-04	
445	2.300000e+00	1.937794e-04	
446	2.350000e+00	1.942160e-04	
447	2.400000e+00	1.946203e-04	
448	2.450000e+00	1.949966e-04	
449	2.500000e+00	1.953485e-04	
450	2.550000e+00	1.956790e-04	
451	2.600000e+00	1.959905e-04	
452	2.650000e+00	1.962852e-04	
453	2.700000e+00	1.965646e-04	
454	2.750000e+00	1.968305e-04	
455	2.800000e+00	1.970840e-04	
456	2.850000e+00	1.973263e-04	
457	2.900000e+00	1.975583e-04	
458	2.950000e+00	1.977809e-04	
459	3.000000e+00	1.979950e-04	
460	3.050000e+00	1.982010e-04	

Index   v-sweep         -i(vds)         
--------------------------------------------------------------------------------
461	3.100000e+00	1.983997e-04	
462	3.150000e+00	1.985915e-04	
463	3.200000e+00	1.987770e-04	
464	3.250000e+00	1.989566e-04	
465	3.300000e+00	1.991306e-04	
466	3.350000e+00	1.992994e-04	
467	3.400000e+00	1.994633e-04	
468	3.450000e+00	1.996226e-04	
469	3.500000e+00	1.997776e-04	
470	3.550000e+00	1.999286e-04	
471	3.600000e+00	2.000757e-04	
472	3.650000e+00	2.002191e-04	
473	3.700000e+00	2.003591e-04	
474	3.750000e+00	2.004957e-04	
475	3.800000e+00	2.006293e-04	
476	3.850000e+00	2.007599e-04	
477	3.900000e+00	2.008877e-04	
478	3.950000e+00	2.010129e-04	
479	4.000000e+00	2.011354e-04	
480	4.050000e+00	2.012556e-04	
481	4.100000e+00	2.013735e-04	
482	4.150000e+00	2.014892e-04	
483	4.200000e+00	2.016029e-04	
484	4.250000e+00	2.017147e-04	
485	4.300000e+00	2.018247e-04	
486	4.350000e+00	2.019332e-04	
487	4.400000e+00	2.020401e-04	
488	4.450000e+00	2.021457e-04	
489	4.500000e+00	2.022502e-04	
490	4.550000e+00	2.023538e-04	
491	4.600000e+00	2.024567e-04	
492	4.650000e+00	2.025590e-04	
493	4.700000e+00	2.026612e-04	
494	4.750000e+00	2.027635e-04	
495	4.800000e+00	2.028661e-04	
496	4.850000e+00	2.029696e-04	
497	4.900000e+00	2.030742e-04	
498	4.950000e+00	2.031803e-04	
499	5.000000e+00	2.032886e-04	
500	5.050000e+00	2.033995e-04	
501	5.100000e+00	2.035136e-04	
502	5.150000e+00	2.036315e-04	
503	5.200000e+00	2.037539e-04	
504	5.250000e+00	2.038815e-04	
505	5.300000e+00	2.040151e-04	
506	5.350000e+00	2.041557e-04	
507	5.400000e+00	2.043041e-04	
508	5.450000e+00	2.044613e-04	
509	5.500000e+00	2.046285e-04	
510	5.550000e+00	2.048066e-04	
511	5.600000e+00	2.049969e-04	
512	5.650000e+00	2.052007e-04	
513	5.700000e+00	2.054193e-04	
514	5.750000e+00	2.056542e-04	
515	5.800000e+00	2.059068e-04	
516	5.850000e+00	2.061787e-04	
517	5.900000e+00	2.064716e-04	
518	5.950000e+00	2.067870e-04	

Index   v-sweep         -i(vds)         
--------------------------------------------------------------------------------
519	6.000000e+00	2.071270e-04	
520	6.050000e+00	2.074932e-04	
521	6.100000e+00	2.078876e-04	
522	6.150000e+00	2.083123e-04	
523	6.200000e+00	2.087693e-04	
524	6.250000e+00	2.092607e-04	
525	6.300000e+00	2.097888e-04	
526	6.350000e+00	2.103558e-04	
527	6.400000e+00	2.109642e-04	
528	6.450000e+00	2.116162e-04	
529	6.500000e+00	2.123144e-04	
530	6.550000e+00	2.130613e-04	
531	6.600000e+00	2.138595e-04	
532	0.000000e+00	-4.31432e-25	
533	5.000000e-02	1.068019e-05	
534	1.000000e-01	2.109111e-05	
535	1.500000e-01	3.124569e-05	
536	2.000000e-01	4.114969e-05	
537	2.500000e-01	5.080690e-05	
538	3.000000e-01	6.022053e-05	
539	3.500000e-01	6.939361e-05	
540	4.000000e-01	7.832911e-05	
541	4.500000e-01	8.702994e-05	
542	5.000000e-01	9.549895e-05	
543	5.500000e-01	1.037390e-04	
544	6.000000e-01	1.117528e-04	
545	6.500000e-01	1.195432e-04	
546	7.000000e-01	1.271129e-04	
547	7.500000e-01	1.344645e-04	
548	8.000000e-01	1.416007e-04	
549	8.500000e-01	1.485241e-04	
550	9.000000e-01	1.552373e-04	
551	9.500000e-01	1.617427e-04	
552	1.000000e+00	1.680428e-04	
553	1.050000e+00	1.741403e-04	
554	1.100000e+00	1.800373e-04	
555	1.150000e+00	1.857364e-04	
556	1.200000e+00	1.912399e-04	
557	1.250000e+00	1.965501e-04	
558	1.300000e+00	2.016694e-04	
559	1.350000e+00	2.065998e-04	
560	1.400000e+00	2.113438e-04	
561	1.450000e+00	2.159033e-04	
562	1.500000e+00	2.202807e-04	
563	1.550000e+00	2.244779e-04	
564	1.600000e+00	2.284970e-04	
565	1.650000e+00	2.323399e-04	
566	1.700000e+00	2.360086e-04	
567	1.750000e+00	2.395049e-04	
568	1.800000e+00	2.428304e-04	
569	1.850000e+00	2.459868e-04	
570	1.900000e+00	2.489752e-04	
571	1.950000e+00	2.517968e-04	
572	2.000000e+00	2.544522e-04	
573	2.050000e+00	2.569413e-04	
574	2.100000e+00	2.592636e-04	
575	2.150000e+00	2.614178e-04	
576	2.200000e+00	2.634018e-04	

Index   v-sweep         -i(vds)         
--------------------------------------------------------------------------------
577	2.250000e+00	2.652142e-04	
578	2.300000e+00	2.668551e-04	
579	2.350000e+00	2.683286e-04	
580	2.400000e+00	2.696436e-04	
581	2.450000e+00	2.708140e-04	
582	2.500000e+00	2.718563e-04	
583	2.550000e+00	2.727877e-04	
584	2.600000e+00	2.736246e-04	
585	2.650000e+00	2.743810e-04	
586	2.700000e+00	2.750693e-04	
587	2.750000e+00	2.756994e-04	
588	2.800000e+00	2.762796e-04	
589	2.850000e+00	2.768168e-04	
590	2.900000e+00	2.773166e-04	
591	2.950000e+00	2.777838e-04	
592	3.000000e+00	2.782221e-04	
593	3.050000e+00	2.786350e-04	
594	3.100000e+00	2.790251e-04	
595	3.150000e+00	2.793948e-04	
596	3.200000e+00	2.797461e-04	
597	3.250000e+00	2.800809e-04	
598	3.300000e+00	2.804005e-04	
599	3.350000e+00	2.807063e-04	
600	3.400000e+00	2.809996e-04	
601	3.450000e+00	2.812812e-04	
602	3.500000e+00	2.815521e-04	
603	3.550000e+00	2.818131e-04	
604	3.600000e+00	2.820649e-04	
605	3.650000e+00	2.823081e-04	
606	3.700000e+00	2.825434e-04	
607	3.750000e+00	2.827713e-04	
608	3.800000e+00	2.829922e-04	
609	3.850000e+00	2.832065e-04	
610	3.900000e+00	2.834147e-04	
611	3.950000e+00	2.836172e-04	
612	4.000000e+00	2.838141e-04	
613	4.050000e+00	2.840059e-04	
614	4.100000e+00	2.841928e-04	
615	4.150000e+00	2.843751e-04	
616	4.200000e+00	2.845530e-04	
617	4.250000e+00	2.847267e-04	
618	4.300000e+00	2.848965e-04	
619	4.350000e+00	2.850625e-04	
620	4.400000e+00	2.852249e-04	
621	4.450000e+00	2.853840e-04	
622	4.500000e+00	2.855398e-04	
623	4.550000e+00	2.856926e-04	
624	4.600000e+00	2.858424e-04	
625	4.650000e+00	2.859896e-04	
626	4.700000e+00	2.861342e-04	
627	4.750000e+00	2.862765e-04	
628	4.800000e+00	2.864165e-04	
629	4.850000e+00	2.865546e-04	
630	4.900000e+00	2.866910e-04	
631	4.950000e+00	2.868258e-04	
632	5.000000e+00	2.869593e-04	
633	5.050000e+00	2.870919e-04	
634	5.100000e+00	2.872239e-04	

Index   v-sweep         -i(vds)         
--------------------------------------------------------------------------------
635	5.150000e+00	2.873555e-04	
636	5.200000e+00	2.874872e-04	
637	5.250000e+00	2.876195e-04	
638	5.300000e+00	2.877527e-04	
639	5.350000e+00	2.878875e-04	
640	5.400000e+00	2.880245e-04	
641	5.450000e+00	2.881642e-04	
642	5.500000e+00	2.883074e-04	
643	5.550000e+00	2.884549e-04	
644	5.600000e+00	2.886075e-04	
645	5.650000e+00	2.887662e-04	
646	5.700000e+00	2.889320e-04	
647	5.750000e+00	2.891059e-04	
648	5.800000e+00	2.892892e-04	
649	5.850000e+00	2.894831e-04	
650	5.900000e+00	2.896890e-04	
651	5.950000e+00	2.899083e-04	
652	6.000000e+00	2.901426e-04	
653	6.050000e+00	2.903935e-04	
654	6.100000e+00	2.906628e-04	
655	6.150000e+00	2.909523e-04	
656	6.200000e+00	2.912640e-04	
657	6.250000e+00	2.916000e-04	
658	6.300000e+00	2.919623e-04	
659	6.350000e+00	2.923533e-04	
660	6.400000e+00	2.927753e-04	
661	6.450000e+00	2.932308e-04	
662	6.500000e+00	2.937224e-04	
663	6.550000e+00	2.942527e-04	
664	6.600000e+00	2.948245e-04	
665	0.000000e+00	6.144608e-25	
666	5.000000e-02	1.156453e-05	
667	1.000000e-01	2.288366e-05	
668	1.500000e-01	3.396964e-05	
669	2.000000e-01	4.482762e-05	
670	2.500000e-01	5.546078e-05	
671	3.000000e-01	6.587179e-05	
672	3.500000e-01	7.606312e-05	
673	4.000000e-01	8.603719e-05	
674	4.500000e-01	9.579638e-05	
675	5.000000e-01	1.053430e-04	
676	5.500000e-01	1.146794e-04	
677	6.000000e-01	1.238079e-04	
678	6.500000e-01	1.327307e-04	
679	7.000000e-01	1.414501e-04	
680	7.500000e-01	1.499682e-04	
681	8.000000e-01	1.582872e-04	
682	8.500000e-01	1.664093e-04	
683	9.000000e-01	1.743366e-04	
684	9.500000e-01	1.820713e-04	
685	1.000000e+00	1.896153e-04	
686	1.050000e+00	1.969707e-04	
687	1.100000e+00	2.041396e-04	
688	1.150000e+00	2.111239e-04	
689	1.200000e+00	2.179257e-04	
690	1.250000e+00	2.245468e-04	
691	1.300000e+00	2.309891e-04	
692	1.350000e+00	2.372547e-04	

Index   v-sweep         -i(vds)         
--------------------------------------------------------------------------------
693	1.400000e+00	2.433453e-04	
694	1.450000e+00	2.492628e-04	
695	1.500000e+00	2.550091e-04	
696	1.550000e+00	2.605859e-04	
697	1.600000e+00	2.659950e-04	
698	1.650000e+00	2.712382e-04	
699	1.700000e+00	2.763172e-04	
700	1.750000e+00	2.812336e-04	
701	1.800000e+00	2.859893e-04	
702	1.850000e+00	2.905858e-04	
703	1.900000e+00	2.950247e-04	
704	1.950000e+00	2.993076e-04	
705	2.000000e+00	3.034360e-04	
706	2.050000e+00	3.074115e-04	
707	2.100000e+00	3.112354e-04	
708	2.150000e+00	3.149092e-04	
709	2.200000e+00	3.184340e-04	
710	2.250000e+00	3.218109e-04	
711	2.300000e+00	3.250410e-04	
712	2.350000e+00	3.281249e-04	
713	2.400000e+00	3.310632e-04	
714	2.450000e+00	3.338557e-04	
715	2.500000e+00	3.365018e-04	
716	2.550000e+00	3.390003e-04	
717	2.600000e+00	3.413490e-04	
718	2.650000e+00	3.435450e-04	
719	2.700000e+00	3.455848e-04	
720	2.750000e+00	3.474656e-04	
721	2.800000e+00	3.491868e-04	
722	2.850000e+00	3.507510e-04	
723	2.900000e+00	3.521657e-04	
724	2.950000e+00	3.534420e-04	
725	3.000000e+00	3.545939e-04	
726	3.050000e+00	3.556359e-04	
727	3.100000e+00	3.565823e-04	
728	3.150000e+00	3.574457e-04	
729	3.200000e+00	3.582376e-04	
730	3.250000e+00	3.589675e-04	
731	3.300000e+00	3.596434e-04	
732	3.350000e+00	3.602723e-04	
733	3.400000e+00	3.608598e-04	
734	3.450000e+00	3.614109e-04	
735	3.500000e+00	3.619295e-04	
736	3.550000e+00	3.624193e-04	
737	3.600000e+00	3.628831e-04	
738	3.650000e+00	3.633236e-04	
739	3.700000e+00	3.637429e-04	
740	3.750000e+00	3.641431e-04	
741	3.800000e+00	3.645256e-04	
742	3.850000e+00	3.648922e-04	
743	3.900000e+00	3.652439e-04	
744	3.950000e+00	3.655821e-04	
745	4.000000e+00	3.659077e-04	
746	4.050000e+00	3.662216e-04	
747	4.100000e+00	3.665247e-04	
748	4.150000e+00	3.668177e-04	
749	4.200000e+00	3.671012e-04	
750	4.250000e+00	3.673759e-04	

Index   v-sweep         -i(vds)         
--------------------------------------------------------------------------------
751	4.300000e+00	3.676423e-04	
752	4.350000e+00	3.679010e-04	
753	4.400000e+00	3.681523e-04	
754	4.450000e+00	3.683967e-04	
755	4.500000e+00	3.686345e-04	
756	4.550000e+00	3.688662e-04	
757	4.600000e+00	3.690920e-04	
758	4.650000e+00	3.693123e-04	
759	4.700000e+00	3.695274e-04	
760	4.750000e+00	3.697374e-04	
761	4.800000e+00	3.699427e-04	
762	4.850000e+00	3.701434e-04	
763	4.900000e+00	3.703399e-04	
764	4.950000e+00	3.705323e-04	
765	5.000000e+00	3.707208e-04	
766	5.050000e+00	3.709056e-04	
767	5.100000e+00	3.710870e-04	
768	5.150000e+00	3.712652e-04	
769	5.200000e+00	3.714403e-04	
770	5.250000e+00	3.716126e-04	
771	5.300000e+00	3.717824e-04	
772	5.350000e+00	3.719499e-04	
773	5.400000e+00	3.721153e-04	
774	5.450000e+00	3.722791e-04	
775	5.500000e+00	3.724415e-04	
776	5.550000e+00	3.726030e-04	
777	5.600000e+00	3.727639e-04	
778	5.650000e+00	3.729247e-04	
779	5.700000e+00	3.730859e-04	
780	5.750000e+00	3.732482e-04	
781	5.800000e+00	3.734122e-04	
782	5.850000e+00	3.735786e-04	
783	5.900000e+00	3.737481e-04	
784	5.950000e+00	3.739216e-04	
785	6.000000e+00	3.741002e-04	
786	6.050000e+00	3.742848e-04	
787	6.100000e+00	3.744766e-04	
788	6.150000e+00	3.746768e-04	
789	6.200000e+00	3.748868e-04	
790	6.250000e+00	3.751080e-04	
791	6.300000e+00	3.753419e-04	
792	6.350000e+00	3.755903e-04	
793	6.400000e+00	3.758550e-04	
794	6.450000e+00	3.761379e-04	
795	6.500000e+00	3.764410e-04	
796	6.550000e+00	3.767665e-04	
797	6.600000e+00	3.771168e-04	
Note: No ".plot", ".print", or ".fourier" lines; no simulations run
