
Note: Compatibility modes selected: hs

Warning: m=xx on .subckt line will override multiplier m hierarchy!


Circuit: ***************************

Doing analysis at TEMP = -40.000000 and TNOM = -40.000000


No. of Data Rows : 798
                          ***************************
                          DC transfer characteristic  Mon Jan  9 13:58:36  2023
--------------------------------------------------------------------------------
Index   v-sweep         -i(vds)         
--------------------------------------------------------------------------------
0	0.000000e+00	-1.17825e-36	
1	5.000000e-02	1.103756e-06	
2	1.000000e-01	1.938103e-06	
3	1.500000e-01	2.517052e-06	
4	2.000000e-01	2.871907e-06	
5	2.500000e-01	3.070973e-06	
6	3.000000e-01	3.193224e-06	
7	3.500000e-01	3.281696e-06	
8	4.000000e-01	3.352768e-06	
9	4.500000e-01	3.413231e-06	
10	5.000000e-01	3.466485e-06	
11	5.500000e-01	3.514493e-06	
12	6.000000e-01	3.558503e-06	
13	6.500000e-01	3.599362e-06	
14	7.000000e-01	3.637673e-06	
15	7.500000e-01	3.673878e-06	
16	8.000000e-01	3.708318e-06	
17	8.500000e-01	3.741255e-06	
18	9.000000e-01	3.772897e-06	
19	9.500000e-01	3.803413e-06	
20	1.000000e+00	3.832941e-06	
21	1.050000e+00	3.861596e-06	
22	1.100000e+00	3.889473e-06	
23	1.150000e+00	3.916654e-06	
24	1.200000e+00	3.943208e-06	
25	1.250000e+00	3.969194e-06	
26	1.300000e+00	3.994665e-06	
27	1.350000e+00	4.019665e-06	
28	1.400000e+00	4.044233e-06	
29	1.450000e+00	4.068406e-06	
30	1.500000e+00	4.092213e-06	
31	1.550000e+00	4.115682e-06	
32	1.600000e+00	4.138838e-06	
33	1.650000e+00	4.161703e-06	
34	1.700000e+00	4.184297e-06	
35	1.750000e+00	4.206638e-06	
36	1.800000e+00	4.228741e-06	
37	1.850000e+00	4.250623e-06	
38	1.900000e+00	4.272297e-06	
39	1.950000e+00	4.293774e-06	
40	2.000000e+00	4.315066e-06	
41	2.050000e+00	4.336185e-06	
42	2.100000e+00	4.357138e-06	
43	2.150000e+00	4.377937e-06	
44	2.200000e+00	4.398587e-06	
45	2.250000e+00	4.419098e-06	
46	2.300000e+00	4.439477e-06	
47	2.350000e+00	4.459730e-06	
48	2.400000e+00	4.479864e-06	
49	2.450000e+00	4.499884e-06	
50	2.500000e+00	4.519798e-06	
51	2.550000e+00	4.539610e-06	
52	2.600000e+00	4.559325e-06	
53	2.650000e+00	4.578950e-06	
54	2.700000e+00	4.598490e-06	

Index   v-sweep         -i(vds)         
--------------------------------------------------------------------------------
55	2.750000e+00	4.617951e-06	
56	2.800000e+00	4.637337e-06	
57	2.850000e+00	4.656655e-06	
58	2.900000e+00	4.675912e-06	
59	2.950000e+00	4.695113e-06	
60	3.000000e+00	4.714267e-06	
61	3.050000e+00	4.733379e-06	
62	3.100000e+00	4.752459e-06	
63	3.150000e+00	4.771515e-06	
64	3.200000e+00	4.790556e-06	
65	3.250000e+00	4.809595e-06	
66	3.300000e+00	4.828641e-06	
67	3.350000e+00	4.847707e-06	
68	3.400000e+00	4.866808e-06	
69	3.450000e+00	4.885957e-06	
70	3.500000e+00	4.905173e-06	
71	3.550000e+00	4.924471e-06	
72	3.600000e+00	4.943871e-06	
73	3.650000e+00	4.963395e-06	
74	3.700000e+00	4.983064e-06	
75	3.750000e+00	5.002904e-06	
76	3.800000e+00	5.022939e-06	
77	3.850000e+00	5.043199e-06	
78	3.900000e+00	5.063713e-06	
79	3.950000e+00	5.084513e-06	
80	4.000000e+00	5.105633e-06	
81	4.050000e+00	5.127110e-06	
82	4.100000e+00	5.148983e-06	
83	4.150000e+00	5.171292e-06	
84	4.200000e+00	5.194080e-06	
85	4.250000e+00	5.217393e-06	
86	4.300000e+00	5.241279e-06	
87	4.350000e+00	5.265788e-06	
88	4.400000e+00	5.290973e-06	
89	4.450000e+00	5.316889e-06	
90	4.500000e+00	5.343594e-06	
91	4.550000e+00	5.371149e-06	
92	4.600000e+00	5.399616e-06	
93	4.650000e+00	5.429061e-06	
94	4.700000e+00	5.459550e-06	
95	4.750000e+00	5.491156e-06	
96	4.800000e+00	5.523950e-06	
97	4.850000e+00	5.558007e-06	
98	4.900000e+00	5.593406e-06	
99	4.950000e+00	5.630228e-06	
100	5.000000e+00	5.668554e-06	
101	5.050000e+00	5.708469e-06	
102	5.100000e+00	5.750062e-06	
103	5.150000e+00	5.793422e-06	
104	5.200000e+00	5.838641e-06	
105	5.250000e+00	5.885814e-06	
106	5.300000e+00	5.935037e-06	
107	5.350000e+00	5.986409e-06	
108	5.400000e+00	6.040032e-06	
109	5.450000e+00	6.096007e-06	
110	5.500000e+00	6.154442e-06	
111	5.550000e+00	6.215442e-06	
112	5.600000e+00	6.279117e-06	

Index   v-sweep         -i(vds)         
--------------------------------------------------------------------------------
113	5.650000e+00	6.345578e-06	
114	5.700000e+00	6.414938e-06	
115	5.750000e+00	6.487311e-06	
116	5.800000e+00	6.562815e-06	
117	5.850000e+00	6.641566e-06	
118	5.900000e+00	6.723686e-06	
119	5.950000e+00	6.809296e-06	
120	6.000000e+00	6.898517e-06	
121	6.050000e+00	6.991476e-06	
122	6.100000e+00	7.088297e-06	
123	6.150000e+00	7.189108e-06	
124	6.200000e+00	7.294037e-06	
125	6.250000e+00	7.403214e-06	
126	6.300000e+00	7.516770e-06	
127	6.350000e+00	7.634837e-06	
128	6.400000e+00	7.757547e-06	
129	6.450000e+00	7.885036e-06	
130	6.500000e+00	8.017438e-06	
131	6.550000e+00	8.154889e-06	
132	6.600000e+00	8.297525e-06	
133	0.000000e+00	1.194314e-36	
134	5.000000e-02	3.851139e-06	
135	1.000000e-01	7.419184e-06	
136	1.500000e-01	1.071200e-05	
137	2.000000e-01	1.373720e-05	
138	2.500000e-01	1.650212e-05	
139	3.000000e-01	1.901386e-05	
140	3.500000e-01	2.127925e-05	
141	4.000000e-01	2.330484e-05	
142	4.500000e-01	2.509694e-05	
143	5.000000e-01	2.666146e-05	
144	5.500000e-01	2.800390e-05	
145	6.000000e-01	2.912965e-05	
146	6.500000e-01	3.004651e-05	
147	7.000000e-01	3.077123e-05	
148	7.500000e-01	3.133486e-05	
149	8.000000e-01	3.177634e-05	
150	8.500000e-01	3.213049e-05	
151	9.000000e-01	3.242282e-05	
152	9.500000e-01	3.267057e-05	
153	1.000000e+00	3.288527e-05	
154	1.050000e+00	3.307474e-05	
155	1.100000e+00	3.324445e-05	
156	1.150000e+00	3.339832e-05	
157	1.200000e+00	3.353925e-05	
158	1.250000e+00	3.366942e-05	
159	1.300000e+00	3.379051e-05	
160	1.350000e+00	3.390386e-05	
161	1.400000e+00	3.401051e-05	
162	1.450000e+00	3.411133e-05	
163	1.500000e+00	3.420703e-05	
164	1.550000e+00	3.429818e-05	
165	1.600000e+00	3.438529e-05	
166	1.650000e+00	3.446877e-05	
167	1.700000e+00	3.454897e-05	
168	1.750000e+00	3.462620e-05	
169	1.800000e+00	3.470073e-05	
170	1.850000e+00	3.477279e-05	

Index   v-sweep         -i(vds)         
--------------------------------------------------------------------------------
171	1.900000e+00	3.484259e-05	
172	1.950000e+00	3.491030e-05	
173	2.000000e+00	3.497607e-05	
174	2.050000e+00	3.504007e-05	
175	2.100000e+00	3.510240e-05	
176	2.150000e+00	3.516319e-05	
177	2.200000e+00	3.522254e-05	
178	2.250000e+00	3.528053e-05	
179	2.300000e+00	3.533726e-05	
180	2.350000e+00	3.539280e-05	
181	2.400000e+00	3.544722e-05	
182	2.450000e+00	3.550059e-05	
183	2.500000e+00	3.555296e-05	
184	2.550000e+00	3.560438e-05	
185	2.600000e+00	3.565492e-05	
186	2.650000e+00	3.570461e-05	
187	2.700000e+00	3.575350e-05	
188	2.750000e+00	3.580162e-05	
189	2.800000e+00	3.584903e-05	
190	2.850000e+00	3.589574e-05	
191	2.900000e+00	3.594181e-05	
192	2.950000e+00	3.598725e-05	
193	3.000000e+00	3.603211e-05	
194	3.050000e+00	3.607641e-05	
195	3.100000e+00	3.612020e-05	
196	3.150000e+00	3.616350e-05	
197	3.200000e+00	3.620634e-05	
198	3.250000e+00	3.624876e-05	
199	3.300000e+00	3.629080e-05	
200	3.350000e+00	3.633250e-05	
201	3.400000e+00	3.637390e-05	
202	3.450000e+00	3.641504e-05	
203	3.500000e+00	3.645598e-05	
204	3.550000e+00	3.649677e-05	
205	3.600000e+00	3.653747e-05	
206	3.650000e+00	3.657815e-05	
207	3.700000e+00	3.661887e-05	
208	3.750000e+00	3.665971e-05	
209	3.800000e+00	3.670076e-05	
210	3.850000e+00	3.674212e-05	
211	3.900000e+00	3.678389e-05	
212	3.950000e+00	3.682617e-05	
213	4.000000e+00	3.686909e-05	
214	4.050000e+00	3.691278e-05	
215	4.100000e+00	3.695739e-05	
216	4.150000e+00	3.700306e-05	
217	4.200000e+00	3.704996e-05	
218	4.250000e+00	3.709826e-05	
219	4.300000e+00	3.714816e-05	
220	4.350000e+00	3.719986e-05	
221	4.400000e+00	3.725357e-05	
222	4.450000e+00	3.730952e-05	
223	4.500000e+00	3.736795e-05	
224	4.550000e+00	3.742912e-05	
225	4.600000e+00	3.749329e-05	
226	4.650000e+00	3.756075e-05	
227	4.700000e+00	3.763179e-05	
228	4.750000e+00	3.770674e-05	

Index   v-sweep         -i(vds)         
--------------------------------------------------------------------------------
229	4.800000e+00	3.778591e-05	
230	4.850000e+00	3.786964e-05	
231	4.900000e+00	3.795829e-05	
232	4.950000e+00	3.805223e-05	
233	5.000000e+00	3.815184e-05	
234	5.050000e+00	3.825752e-05	
235	5.100000e+00	3.836967e-05	
236	5.150000e+00	3.848873e-05	
237	5.200000e+00	3.861513e-05	
238	5.250000e+00	3.874932e-05	
239	5.300000e+00	3.889176e-05	
240	5.350000e+00	3.904294e-05	
241	5.400000e+00	3.920334e-05	
242	5.450000e+00	3.937346e-05	
243	5.500000e+00	3.955381e-05	
244	5.550000e+00	3.974493e-05	
245	5.600000e+00	3.994733e-05	
246	5.650000e+00	4.016158e-05	
247	5.700000e+00	4.038822e-05	
248	5.750000e+00	4.062782e-05	
249	5.800000e+00	4.088095e-05	
250	5.850000e+00	4.114821e-05	
251	5.900000e+00	4.143017e-05	
252	5.950000e+00	4.172744e-05	
253	6.000000e+00	4.204063e-05	
254	6.050000e+00	4.237034e-05	
255	6.100000e+00	4.271722e-05	
256	6.150000e+00	4.308187e-05	
257	6.200000e+00	4.346493e-05	
258	6.250000e+00	4.386704e-05	
259	6.300000e+00	4.428884e-05	
260	6.350000e+00	4.473099e-05	
261	6.400000e+00	4.519412e-05	
262	6.450000e+00	4.567890e-05	
263	6.500000e+00	4.618598e-05	
264	6.550000e+00	4.671602e-05	
265	6.600000e+00	4.726969e-05	
266	0.000000e+00	5.971102e-21	
267	5.000000e-02	5.830988e-06	
268	1.000000e-01	1.137428e-05	
269	1.500000e-01	1.663743e-05	
270	2.000000e-01	2.162778e-05	
271	2.500000e-01	2.635240e-05	
272	3.000000e-01	3.081811e-05	
273	3.500000e-01	3.503147e-05	
274	4.000000e-01	3.899872e-05	
275	4.500000e-01	4.272585e-05	
276	5.000000e-01	4.621859e-05	
277	5.500000e-01	4.948242e-05	
278	6.000000e-01	5.252255e-05	
279	6.500000e-01	5.534391e-05	
280	7.000000e-01	5.795103e-05	
281	7.500000e-01	6.034787e-05	
282	8.000000e-01	6.253738e-05	
283	8.500000e-01	6.452095e-05	
284	9.000000e-01	6.629744e-05	
285	9.500000e-01	6.786272e-05	
286	1.000000e+00	6.921125e-05	

Index   v-sweep         -i(vds)         
--------------------------------------------------------------------------------
287	1.050000e+00	7.034246e-05	
288	1.100000e+00	7.126965e-05	
289	1.150000e+00	7.202166e-05	
290	1.200000e+00	7.263434e-05	
291	1.250000e+00	7.314085e-05	
292	1.300000e+00	7.356739e-05	
293	1.350000e+00	7.393328e-05	
294	1.400000e+00	7.425244e-05	
295	1.450000e+00	7.453490e-05	
296	1.500000e+00	7.478801e-05	
297	1.550000e+00	7.501722e-05	
298	1.600000e+00	7.522669e-05	
299	1.650000e+00	7.541959e-05	
300	1.700000e+00	7.559843e-05	
301	1.750000e+00	7.576520e-05	
302	1.800000e+00	7.592151e-05	
303	1.850000e+00	7.606866e-05	
304	1.900000e+00	7.620776e-05	
305	1.950000e+00	7.633970e-05	
306	2.000000e+00	7.646526e-05	
307	2.050000e+00	7.658507e-05	
308	2.100000e+00	7.669970e-05	
309	2.150000e+00	7.680963e-05	
310	2.200000e+00	7.691528e-05	
311	2.250000e+00	7.701701e-05	
312	2.300000e+00	7.711515e-05	
313	2.350000e+00	7.720997e-05	
314	2.400000e+00	7.730173e-05	
315	2.450000e+00	7.739066e-05	
316	2.500000e+00	7.747695e-05	
317	2.550000e+00	7.756078e-05	
318	2.600000e+00	7.764233e-05	
319	2.650000e+00	7.772172e-05	
320	2.700000e+00	7.779910e-05	
321	2.750000e+00	7.787460e-05	
322	2.800000e+00	7.794831e-05	
323	2.850000e+00	7.802035e-05	
324	2.900000e+00	7.809080e-05	
325	2.950000e+00	7.815975e-05	
326	3.000000e+00	7.822729e-05	
327	3.050000e+00	7.829348e-05	
328	3.100000e+00	7.835840e-05	
329	3.150000e+00	7.842212e-05	
330	3.200000e+00	7.848468e-05	
331	3.250000e+00	7.854617e-05	
332	3.300000e+00	7.860663e-05	
333	3.350000e+00	7.866612e-05	
334	3.400000e+00	7.872470e-05	
335	3.450000e+00	7.878243e-05	
336	3.500000e+00	7.883937e-05	
337	3.550000e+00	7.889557e-05	
338	3.600000e+00	7.895110e-05	
339	3.650000e+00	7.900604e-05	
340	3.700000e+00	7.906046e-05	
341	3.750000e+00	7.911443e-05	
342	3.800000e+00	7.916806e-05	
343	3.850000e+00	7.922142e-05	
344	3.900000e+00	7.927464e-05	

Index   v-sweep         -i(vds)         
--------------------------------------------------------------------------------
345	3.950000e+00	7.932783e-05	
346	4.000000e+00	7.938112e-05	
347	4.050000e+00	7.943466e-05	
348	4.100000e+00	7.948860e-05	
349	4.150000e+00	7.954312e-05	
350	4.200000e+00	7.959842e-05	
351	4.250000e+00	7.965469e-05	
352	4.300000e+00	7.971217e-05	
353	4.350000e+00	7.977111e-05	
354	4.400000e+00	7.983179e-05	
355	4.450000e+00	7.989448e-05	
356	4.500000e+00	7.995953e-05	
357	4.550000e+00	8.002725e-05	
358	4.600000e+00	8.009803e-05	
359	4.650000e+00	8.017226e-05	
360	4.700000e+00	8.025035e-05	
361	4.750000e+00	8.033275e-05	
362	4.800000e+00	8.041994e-05	
363	4.850000e+00	8.051242e-05	
364	4.900000e+00	8.061072e-05	
365	4.950000e+00	8.071542e-05	
366	5.000000e+00	8.082708e-05	
367	5.050000e+00	8.094635e-05	
368	5.100000e+00	8.107386e-05	
369	5.150000e+00	8.121031e-05	
370	5.200000e+00	8.135639e-05	
371	5.250000e+00	8.151284e-05	
372	5.300000e+00	8.168045e-05	
373	5.350000e+00	8.185999e-05	
374	5.400000e+00	8.205230e-05	
375	5.450000e+00	8.225823e-05	
376	5.500000e+00	8.247866e-05	
377	5.550000e+00	8.271451e-05	
378	5.600000e+00	8.296670e-05	
379	5.650000e+00	8.323619e-05	
380	5.700000e+00	8.352398e-05	
381	5.750000e+00	8.383107e-05	
382	5.800000e+00	8.415849e-05	
383	5.850000e+00	8.450730e-05	
384	5.900000e+00	8.487859e-05	
385	5.950000e+00	8.527344e-05	
386	6.000000e+00	8.569297e-05	
387	6.050000e+00	8.613833e-05	
388	6.100000e+00	8.661066e-05	
389	6.150000e+00	8.711115e-05	
390	6.200000e+00	8.764097e-05	
391	6.250000e+00	8.820133e-05	
392	6.300000e+00	8.879344e-05	
393	6.350000e+00	8.941854e-05	
394	6.400000e+00	9.007786e-05	
395	6.450000e+00	9.077265e-05	
396	6.500000e+00	9.150418e-05	
397	6.550000e+00	9.227370e-05	
398	6.600000e+00	9.308250e-05	
399	0.000000e+00	1.273769e-20	
400	5.000000e-02	7.314854e-06	
401	1.000000e-01	1.434792e-05	
402	1.500000e-01	2.110589e-05	

Index   v-sweep         -i(vds)         
--------------------------------------------------------------------------------
403	2.000000e-01	2.759529e-05	
404	2.500000e-01	3.382246e-05	
405	3.000000e-01	3.979355e-05	
406	3.500000e-01	4.551445e-05	
407	4.000000e-01	5.099086e-05	
408	4.500000e-01	5.622820e-05	
409	5.000000e-01	6.123169e-05	
410	5.500000e-01	6.600628e-05	
411	6.000000e-01	7.055673e-05	
412	6.500000e-01	7.488759e-05	
413	7.000000e-01	7.900325e-05	
414	7.500000e-01	8.290793e-05	
415	8.000000e-01	8.660570e-05	
416	8.500000e-01	9.010045e-05	
417	9.000000e-01	9.339587e-05	
418	9.500000e-01	9.649534e-05	
419	1.000000e+00	9.940178e-05	
420	1.050000e+00	1.021173e-04	
421	1.100000e+00	1.046430e-04	
422	1.150000e+00	1.069777e-04	
423	1.200000e+00	1.091177e-04	
424	1.250000e+00	1.110553e-04	
425	1.300000e+00	1.127802e-04	
426	1.350000e+00	1.142826e-04	
427	1.400000e+00	1.155613e-04	
428	1.450000e+00	1.166306e-04	
429	1.500000e+00	1.175180e-04	
430	1.550000e+00	1.182570e-04	
431	1.600000e+00	1.188789e-04	
432	1.650000e+00	1.194095e-04	
433	1.700000e+00	1.198689e-04	
434	1.750000e+00	1.202720e-04	
435	1.800000e+00	1.206302e-04	
436	1.850000e+00	1.209518e-04	
437	1.900000e+00	1.212434e-04	
438	1.950000e+00	1.215099e-04	
439	2.000000e+00	1.217552e-04	
440	2.050000e+00	1.219825e-04	
441	2.100000e+00	1.221943e-04	
442	2.150000e+00	1.223924e-04	
443	2.200000e+00	1.225787e-04	
444	2.250000e+00	1.227545e-04	
445	2.300000e+00	1.229210e-04	
446	2.350000e+00	1.230791e-04	
447	2.400000e+00	1.232297e-04	
448	2.450000e+00	1.233736e-04	
449	2.500000e+00	1.235112e-04	
450	2.550000e+00	1.236433e-04	
451	2.600000e+00	1.237702e-04	
452	2.650000e+00	1.238925e-04	
453	2.700000e+00	1.240103e-04	
454	2.750000e+00	1.241242e-04	
455	2.800000e+00	1.242343e-04	
456	2.850000e+00	1.243409e-04	
457	2.900000e+00	1.244444e-04	
458	2.950000e+00	1.245448e-04	
459	3.000000e+00	1.246424e-04	
460	3.050000e+00	1.247373e-04	

Index   v-sweep         -i(vds)         
--------------------------------------------------------------------------------
461	3.100000e+00	1.248298e-04	
462	3.150000e+00	1.249199e-04	
463	3.200000e+00	1.250078e-04	
464	3.250000e+00	1.250936e-04	
465	3.300000e+00	1.251775e-04	
466	3.350000e+00	1.252595e-04	
467	3.400000e+00	1.253398e-04	
468	3.450000e+00	1.254183e-04	
469	3.500000e+00	1.254953e-04	
470	3.550000e+00	1.255708e-04	
471	3.600000e+00	1.256449e-04	
472	3.650000e+00	1.257177e-04	
473	3.700000e+00	1.257891e-04	
474	3.750000e+00	1.258595e-04	
475	3.800000e+00	1.259287e-04	
476	3.850000e+00	1.259969e-04	
477	3.900000e+00	1.260643e-04	
478	3.950000e+00	1.261308e-04	
479	4.000000e+00	1.261966e-04	
480	4.050000e+00	1.262618e-04	
481	4.100000e+00	1.263266e-04	
482	4.150000e+00	1.263911e-04	
483	4.200000e+00	1.264553e-04	
484	4.250000e+00	1.265196e-04	
485	4.300000e+00	1.265841e-04	
486	4.350000e+00	1.266490e-04	
487	4.400000e+00	1.267146e-04	
488	4.450000e+00	1.267811e-04	
489	4.500000e+00	1.268487e-04	
490	4.550000e+00	1.269179e-04	
491	4.600000e+00	1.269889e-04	
492	4.650000e+00	1.270622e-04	
493	4.700000e+00	1.271380e-04	
494	4.750000e+00	1.272170e-04	
495	4.800000e+00	1.272995e-04	
496	4.850000e+00	1.273861e-04	
497	4.900000e+00	1.274773e-04	
498	4.950000e+00	1.275737e-04	
499	5.000000e+00	1.276761e-04	
500	5.050000e+00	1.277849e-04	
501	5.100000e+00	1.279011e-04	
502	5.150000e+00	1.280253e-04	
503	5.200000e+00	1.281584e-04	
504	5.250000e+00	1.283012e-04	
505	5.300000e+00	1.284546e-04	
506	5.350000e+00	1.286196e-04	
507	5.400000e+00	1.287972e-04	
508	5.450000e+00	1.289885e-04	
509	5.500000e+00	1.291945e-04	
510	5.550000e+00	1.294163e-04	
511	5.600000e+00	1.296552e-04	
512	5.650000e+00	1.299124e-04	
513	5.700000e+00	1.301891e-04	
514	5.750000e+00	1.304867e-04	
515	5.800000e+00	1.308066e-04	
516	5.850000e+00	1.311500e-04	
517	5.900000e+00	1.315186e-04	
518	5.950000e+00	1.319137e-04	

Index   v-sweep         -i(vds)         
--------------------------------------------------------------------------------
519	6.000000e+00	1.323368e-04	
520	6.050000e+00	1.327896e-04	
521	6.100000e+00	1.332737e-04	
522	6.150000e+00	1.337905e-04	
523	6.200000e+00	1.343419e-04	
524	6.250000e+00	1.349295e-04	
525	6.300000e+00	1.355550e-04	
526	6.350000e+00	1.362201e-04	
527	6.400000e+00	1.369267e-04	
528	6.450000e+00	1.376765e-04	
529	6.500000e+00	1.384714e-04	
530	6.550000e+00	1.393131e-04	
531	6.600000e+00	1.402036e-04	
532	0.000000e+00	3.801018e-21	
533	5.000000e-02	8.406729e-06	
534	1.000000e-01	1.654554e-05	
535	1.500000e-01	2.442211e-05	
536	2.000000e-01	3.204200e-05	
537	2.500000e-01	3.941065e-05	
538	3.000000e-01	4.653333e-05	
539	3.500000e-01	5.341517e-05	
540	4.000000e-01	6.006112e-05	
541	4.500000e-01	6.647594e-05	
542	5.000000e-01	7.266422e-05	
543	5.500000e-01	7.863032e-05	
544	6.000000e-01	8.437844e-05	
545	6.500000e-01	8.991258e-05	
546	7.000000e-01	9.523659e-05	
547	7.500000e-01	1.003541e-04	
548	8.000000e-01	1.052688e-04	
549	8.500000e-01	1.099840e-04	
550	9.000000e-01	1.145030e-04	
551	9.500000e-01	1.188291e-04	
552	1.000000e+00	1.229655e-04	
553	1.050000e+00	1.269152e-04	
554	1.100000e+00	1.306812e-04	
555	1.150000e+00	1.342664e-04	
556	1.200000e+00	1.376734e-04	
557	1.250000e+00	1.409045e-04	
558	1.300000e+00	1.439613e-04	
559	1.350000e+00	1.468449e-04	
560	1.400000e+00	1.495547e-04	
561	1.450000e+00	1.520885e-04	
562	1.500000e+00	1.544408e-04	
563	1.550000e+00	1.566030e-04	
564	1.600000e+00	1.585632e-04	
565	1.650000e+00	1.603088e-04	
566	1.700000e+00	1.618325e-04	
567	1.750000e+00	1.631388e-04	
568	1.800000e+00	1.642459e-04	
569	1.850000e+00	1.651816e-04	
570	1.900000e+00	1.659758e-04	
571	1.950000e+00	1.666562e-04	
572	2.000000e+00	1.672457e-04	
573	2.050000e+00	1.677624e-04	
574	2.100000e+00	1.682205e-04	
575	2.150000e+00	1.686306e-04	
576	2.200000e+00	1.690013e-04	

Index   v-sweep         -i(vds)         
--------------------------------------------------------------------------------
577	2.250000e+00	1.693390e-04	
578	2.300000e+00	1.696489e-04	
579	2.350000e+00	1.699350e-04	
580	2.400000e+00	1.702007e-04	
581	2.450000e+00	1.704486e-04	
582	2.500000e+00	1.706810e-04	
583	2.550000e+00	1.708997e-04	
584	2.600000e+00	1.711063e-04	
585	2.650000e+00	1.713020e-04	
586	2.700000e+00	1.714879e-04	
587	2.750000e+00	1.716651e-04	
588	2.800000e+00	1.718343e-04	
589	2.850000e+00	1.719962e-04	
590	2.900000e+00	1.721515e-04	
591	2.950000e+00	1.723007e-04	
592	3.000000e+00	1.724444e-04	
593	3.050000e+00	1.725828e-04	
594	3.100000e+00	1.727165e-04	
595	3.150000e+00	1.728458e-04	
596	3.200000e+00	1.729709e-04	
597	3.250000e+00	1.730921e-04	
598	3.300000e+00	1.732098e-04	
599	3.350000e+00	1.733241e-04	
600	3.400000e+00	1.734352e-04	
601	3.450000e+00	1.735433e-04	
602	3.500000e+00	1.736486e-04	
603	3.550000e+00	1.737513e-04	
604	3.600000e+00	1.738515e-04	
605	3.650000e+00	1.739493e-04	
606	3.700000e+00	1.740449e-04	
607	3.750000e+00	1.741383e-04	
608	3.800000e+00	1.742298e-04	
609	3.850000e+00	1.743193e-04	
610	3.900000e+00	1.744071e-04	
611	3.950000e+00	1.744932e-04	
612	4.000000e+00	1.745777e-04	
613	4.050000e+00	1.746607e-04	
614	4.100000e+00	1.747424e-04	
615	4.150000e+00	1.748227e-04	
616	4.200000e+00	1.749020e-04	
617	4.250000e+00	1.749802e-04	
618	4.300000e+00	1.750575e-04	
619	4.350000e+00	1.751342e-04	
620	4.400000e+00	1.752102e-04	
621	4.450000e+00	1.752859e-04	
622	4.500000e+00	1.753614e-04	
623	4.550000e+00	1.754369e-04	
624	4.600000e+00	1.755128e-04	
625	4.650000e+00	1.755892e-04	
626	4.700000e+00	1.756665e-04	
627	4.750000e+00	1.757451e-04	
628	4.800000e+00	1.758253e-04	
629	4.850000e+00	1.759075e-04	
630	4.900000e+00	1.759922e-04	
631	4.950000e+00	1.760798e-04	
632	5.000000e+00	1.761710e-04	
633	5.050000e+00	1.762664e-04	
634	5.100000e+00	1.763665e-04	

Index   v-sweep         -i(vds)         
--------------------------------------------------------------------------------
635	5.150000e+00	1.764720e-04	
636	5.200000e+00	1.765838e-04	
637	5.250000e+00	1.767027e-04	
638	5.300000e+00	1.768293e-04	
639	5.350000e+00	1.769649e-04	
640	5.400000e+00	1.771101e-04	
641	5.450000e+00	1.772663e-04	
642	5.500000e+00	1.774343e-04	
643	5.550000e+00	1.776155e-04	
644	5.600000e+00	1.778109e-04	
645	5.650000e+00	1.780220e-04	
646	5.700000e+00	1.782501e-04	
647	5.750000e+00	1.784966e-04	
648	5.800000e+00	1.787629e-04	
649	5.850000e+00	1.790507e-04	
650	5.900000e+00	1.793615e-04	
651	5.950000e+00	1.796970e-04	
652	6.000000e+00	1.800589e-04	
653	6.050000e+00	1.804491e-04	
654	6.100000e+00	1.808692e-04	
655	6.150000e+00	1.813214e-04	
656	6.200000e+00	1.818075e-04	
657	6.250000e+00	1.823295e-04	
658	6.300000e+00	1.828894e-04	
659	6.350000e+00	1.834895e-04	
660	6.400000e+00	1.841318e-04	
661	6.450000e+00	1.848186e-04	
662	6.500000e+00	1.855520e-04	
663	6.550000e+00	1.863345e-04	
664	6.600000e+00	1.871682e-04	
665	0.000000e+00	1.934840e-21	
666	5.000000e-02	9.186724e-06	
667	1.000000e-01	1.812390e-05	
668	1.500000e-01	2.681623e-05	
669	2.000000e-01	3.526835e-05	
670	2.500000e-01	4.348480e-05	
671	3.000000e-01	5.147000e-05	
672	3.500000e-01	5.922828e-05	
673	4.000000e-01	6.676385e-05	
674	4.500000e-01	7.408078e-05	
675	5.000000e-01	8.118299e-05	
676	5.500000e-01	8.807429e-05	
677	6.000000e-01	9.475830e-05	
678	6.500000e-01	1.012385e-04	
679	7.000000e-01	1.075183e-04	
680	7.500000e-01	1.136008e-04	
681	8.000000e-01	1.194892e-04	
682	8.500000e-01	1.251864e-04	
683	9.000000e-01	1.306951e-04	
684	9.500000e-01	1.360183e-04	
685	1.000000e+00	1.411586e-04	
686	1.050000e+00	1.461185e-04	
687	1.100000e+00	1.509007e-04	
688	1.150000e+00	1.555076e-04	
689	1.200000e+00	1.599419e-04	
690	1.250000e+00	1.642058e-04	
691	1.300000e+00	1.683019e-04	
692	1.350000e+00	1.722325e-04	

Index   v-sweep         -i(vds)         
--------------------------------------------------------------------------------
693	1.400000e+00	1.759998e-04	
694	1.450000e+00	1.796061e-04	
695	1.500000e+00	1.830531e-04	
696	1.550000e+00	1.863424e-04	
697	1.600000e+00	1.894751e-04	
698	1.650000e+00	1.924513e-04	
699	1.700000e+00	1.952698e-04	
700	1.750000e+00	1.979278e-04	
701	1.800000e+00	2.004199e-04	
702	1.850000e+00	2.027376e-04	
703	1.900000e+00	2.048691e-04	
704	1.950000e+00	2.068015e-04	
705	2.000000e+00	2.085242e-04	
706	2.050000e+00	2.100343e-04	
707	2.100000e+00	2.113408e-04	
708	2.150000e+00	2.124633e-04	
709	2.200000e+00	2.134273e-04	
710	2.250000e+00	2.142590e-04	
711	2.300000e+00	2.149825e-04	
712	2.350000e+00	2.156176e-04	
713	2.400000e+00	2.161806e-04	
714	2.450000e+00	2.166842e-04	
715	2.500000e+00	2.171388e-04	
716	2.550000e+00	2.175521e-04	
717	2.600000e+00	2.179307e-04	
718	2.650000e+00	2.182796e-04	
719	2.700000e+00	2.186029e-04	
720	2.750000e+00	2.189040e-04	
721	2.800000e+00	2.191857e-04	
722	2.850000e+00	2.194503e-04	
723	2.900000e+00	2.196998e-04	
724	2.950000e+00	2.199357e-04	
725	3.000000e+00	2.201595e-04	
726	3.050000e+00	2.203724e-04	
727	3.100000e+00	2.205753e-04	
728	3.150000e+00	2.207693e-04	
729	3.200000e+00	2.209551e-04	
730	3.250000e+00	2.211333e-04	
731	3.300000e+00	2.213046e-04	
732	3.350000e+00	2.214696e-04	
733	3.400000e+00	2.216286e-04	
734	3.450000e+00	2.217822e-04	
735	3.500000e+00	2.219307e-04	
736	3.550000e+00	2.220744e-04	
737	3.600000e+00	2.222137e-04	
738	3.650000e+00	2.223488e-04	
739	3.700000e+00	2.224801e-04	
740	3.750000e+00	2.226076e-04	
741	3.800000e+00	2.227318e-04	
742	3.850000e+00	2.228527e-04	
743	3.900000e+00	2.229705e-04	
744	3.950000e+00	2.230855e-04	
745	4.000000e+00	2.231977e-04	
746	4.050000e+00	2.233073e-04	
747	4.100000e+00	2.234144e-04	
748	4.150000e+00	2.235192e-04	
749	4.200000e+00	2.236219e-04	
750	4.250000e+00	2.237225e-04	

Index   v-sweep         -i(vds)         
--------------------------------------------------------------------------------
751	4.300000e+00	2.238211e-04	
752	4.350000e+00	2.239179e-04	
753	4.400000e+00	2.240130e-04	
754	4.450000e+00	2.241066e-04	
755	4.500000e+00	2.241988e-04	
756	4.550000e+00	2.242897e-04	
757	4.600000e+00	2.243795e-04	
758	4.650000e+00	2.244684e-04	
759	4.700000e+00	2.245566e-04	
760	4.750000e+00	2.246444e-04	
761	4.800000e+00	2.247318e-04	
762	4.850000e+00	2.248193e-04	
763	4.900000e+00	2.249072e-04	
764	4.950000e+00	2.249957e-04	
765	5.000000e+00	2.250853e-04	
766	5.050000e+00	2.251763e-04	
767	5.100000e+00	2.252693e-04	
768	5.150000e+00	2.253647e-04	
769	5.200000e+00	2.254631e-04	
770	5.250000e+00	2.255652e-04	
771	5.300000e+00	2.256715e-04	
772	5.350000e+00	2.257829e-04	
773	5.400000e+00	2.259001e-04	
774	5.450000e+00	2.260239e-04	
775	5.500000e+00	2.261554e-04	
776	5.550000e+00	2.262955e-04	
777	5.600000e+00	2.264453e-04	
778	5.650000e+00	2.266059e-04	
779	5.700000e+00	2.267786e-04	
780	5.750000e+00	2.269646e-04	
781	5.800000e+00	2.271653e-04	
782	5.850000e+00	2.273822e-04	
783	5.900000e+00	2.276168e-04	
784	5.950000e+00	2.278708e-04	
785	6.000000e+00	2.281458e-04	
786	6.050000e+00	2.284436e-04	
787	6.100000e+00	2.287660e-04	
788	6.150000e+00	2.291151e-04	
789	6.200000e+00	2.294928e-04	
790	6.250000e+00	2.299012e-04	
791	6.300000e+00	2.303424e-04	
792	6.350000e+00	2.308188e-04	
793	6.400000e+00	2.313326e-04	
794	6.450000e+00	2.318862e-04	
795	6.500000e+00	2.324820e-04	
796	6.550000e+00	2.331227e-04	
797	6.600000e+00	2.338107e-04	
Note: No ".plot", ".print", or ".fourier" lines; no simulations run
