
Note: Compatibility modes selected: hs

Warning: m=xx on .subckt line will override multiplier m hierarchy!


Circuit: ***************************

Doing analysis at TEMP = -40.000000 and TNOM = -40.000000


No. of Data Rows : 798
                          ***************************
                          DC transfer characteristic  Mon Jan  9 13:58:36  2023
--------------------------------------------------------------------------------
Index   v-sweep         -i(vds)         
--------------------------------------------------------------------------------
0	0.000000e+00	-5.63941e-36	
1	5.000000e-02	1.683548e-06	
2	1.000000e-01	3.039512e-06	
3	1.500000e-01	4.078027e-06	
4	2.000000e-01	4.817673e-06	
5	2.500000e-01	5.301864e-06	
6	3.000000e-01	5.612429e-06	
7	3.500000e-01	5.831440e-06	
8	4.000000e-01	6.003648e-06	
9	4.500000e-01	6.148566e-06	
10	5.000000e-01	6.275547e-06	
11	5.500000e-01	6.389772e-06	
12	6.000000e-01	6.494439e-06	
13	6.500000e-01	6.591673e-06	
14	7.000000e-01	6.682959e-06	
15	7.500000e-01	6.769382e-06	
16	8.000000e-01	6.851756e-06	
17	8.500000e-01	6.930709e-06	
18	9.000000e-01	7.006735e-06	
19	9.500000e-01	7.080229e-06	
20	1.000000e+00	7.151515e-06	
21	1.050000e+00	7.220856e-06	
22	1.100000e+00	7.288476e-06	
23	1.150000e+00	7.354559e-06	
24	1.200000e+00	7.419265e-06	
25	1.250000e+00	7.482729e-06	
26	1.300000e+00	7.545069e-06	
27	1.350000e+00	7.606386e-06	
28	1.400000e+00	7.666769e-06	
29	1.450000e+00	7.726297e-06	
30	1.500000e+00	7.785038e-06	
31	1.550000e+00	7.843054e-06	
32	1.600000e+00	7.900401e-06	
33	1.650000e+00	7.957125e-06	
34	1.700000e+00	8.013273e-06	
35	1.750000e+00	8.068883e-06	
36	1.800000e+00	8.123991e-06	
37	1.850000e+00	8.178630e-06	
38	1.900000e+00	8.232830e-06	
39	1.950000e+00	8.286617e-06	
40	2.000000e+00	8.340016e-06	
41	2.050000e+00	8.393051e-06	
42	2.100000e+00	8.445741e-06	
43	2.150000e+00	8.498107e-06	
44	2.200000e+00	8.550166e-06	
45	2.250000e+00	8.601934e-06	
46	2.300000e+00	8.653427e-06	
47	2.350000e+00	8.704659e-06	
48	2.400000e+00	8.755644e-06	
49	2.450000e+00	8.806395e-06	
50	2.500000e+00	8.856923e-06	
51	2.550000e+00	8.907242e-06	
52	2.600000e+00	8.957360e-06	
53	2.650000e+00	9.007291e-06	
54	2.700000e+00	9.057045e-06	

Index   v-sweep         -i(vds)         
--------------------------------------------------------------------------------
55	2.750000e+00	9.106632e-06	
56	2.800000e+00	9.156064e-06	
57	2.850000e+00	9.205352e-06	
58	2.900000e+00	9.254508e-06	
59	2.950000e+00	9.303545e-06	
60	3.000000e+00	9.352476e-06	
61	3.050000e+00	9.401315e-06	
62	3.100000e+00	9.450077e-06	
63	3.150000e+00	9.498779e-06	
64	3.200000e+00	9.547438e-06	
65	3.250000e+00	9.596075e-06	
66	3.300000e+00	9.644711e-06	
67	3.350000e+00	9.693370e-06	
68	3.400000e+00	9.742077e-06	
69	3.450000e+00	9.790861e-06	
70	3.500000e+00	9.839752e-06	
71	3.550000e+00	9.888785e-06	
72	3.600000e+00	9.937995e-06	
73	3.650000e+00	9.987423e-06	
74	3.700000e+00	1.003711e-05	
75	3.750000e+00	1.008711e-05	
76	3.800000e+00	1.013747e-05	
77	3.850000e+00	1.018823e-05	
78	3.900000e+00	1.023947e-05	
79	3.950000e+00	1.029125e-05	
80	4.000000e+00	1.034362e-05	
81	4.050000e+00	1.039667e-05	
82	4.100000e+00	1.045047e-05	
83	4.150000e+00	1.050510e-05	
84	4.200000e+00	1.056065e-05	
85	4.250000e+00	1.061720e-05	
86	4.300000e+00	1.067486e-05	
87	4.350000e+00	1.073373e-05	
88	4.400000e+00	1.079391e-05	
89	4.450000e+00	1.085551e-05	
90	4.500000e+00	1.091865e-05	
91	4.550000e+00	1.098346e-05	
92	4.600000e+00	1.105006e-05	
93	4.650000e+00	1.111859e-05	
94	4.700000e+00	1.118919e-05	
95	4.750000e+00	1.126200e-05	
96	4.800000e+00	1.133717e-05	
97	4.850000e+00	1.141486e-05	
98	4.900000e+00	1.149523e-05	
99	4.950000e+00	1.157845e-05	
100	5.000000e+00	1.166469e-05	
101	5.050000e+00	1.175413e-05	
102	5.100000e+00	1.184696e-05	
103	5.150000e+00	1.194335e-05	
104	5.200000e+00	1.204351e-05	
105	5.250000e+00	1.214764e-05	
106	5.300000e+00	1.225594e-05	
107	5.350000e+00	1.236863e-05	
108	5.400000e+00	1.248590e-05	
109	5.450000e+00	1.260800e-05	
110	5.500000e+00	1.273514e-05	
111	5.550000e+00	1.286755e-05	
112	5.600000e+00	1.300546e-05	

Index   v-sweep         -i(vds)         
--------------------------------------------------------------------------------
113	5.650000e+00	1.314912e-05	
114	5.700000e+00	1.329877e-05	
115	5.750000e+00	1.345466e-05	
116	5.800000e+00	1.361703e-05	
117	5.850000e+00	1.378615e-05	
118	5.900000e+00	1.396228e-05	
119	5.950000e+00	1.414567e-05	
120	6.000000e+00	1.433660e-05	
121	6.050000e+00	1.453535e-05	
122	6.100000e+00	1.474217e-05	
123	6.150000e+00	1.495736e-05	
124	6.200000e+00	1.518119e-05	
125	6.250000e+00	1.541396e-05	
126	6.300000e+00	1.565594e-05	
127	6.350000e+00	1.590743e-05	
128	6.400000e+00	1.616873e-05	
129	6.450000e+00	1.644013e-05	
130	6.500000e+00	1.672193e-05	
131	6.550000e+00	1.701443e-05	
132	6.600000e+00	1.731793e-05	
133	0.000000e+00	-6.44374e-22	
134	5.000000e-02	4.740354e-06	
135	1.000000e-01	9.157772e-06	
136	1.500000e-01	1.325977e-05	
137	2.000000e-01	1.705364e-05	
138	2.500000e-01	2.054641e-05	
139	3.000000e-01	2.374482e-05	
140	3.500000e-01	2.665534e-05	
141	4.000000e-01	2.928429e-05	
142	4.500000e-01	3.163783e-05	
143	5.000000e-01	3.372207e-05	
144	5.500000e-01	3.554292e-05	
145	6.000000e-01	3.710617e-05	
146	6.500000e-01	3.841854e-05	
147	7.000000e-01	3.949240e-05	
148	7.500000e-01	4.035366e-05	
149	8.000000e-01	4.104246e-05	
150	8.500000e-01	4.160172e-05	
151	9.000000e-01	4.206670e-05	
152	9.500000e-01	4.246279e-05	
153	1.000000e+00	4.280750e-05	
154	1.050000e+00	4.311289e-05	
155	1.100000e+00	4.338745e-05	
156	1.150000e+00	4.363730e-05	
157	1.200000e+00	4.386695e-05	
158	1.250000e+00	4.407982e-05	
159	1.300000e+00	4.427855e-05	
160	1.350000e+00	4.446519e-05	
161	1.400000e+00	4.464142e-05	
162	1.450000e+00	4.480857e-05	
163	1.500000e+00	4.496773e-05	
164	1.550000e+00	4.511983e-05	
165	1.600000e+00	4.526563e-05	
166	1.650000e+00	4.540579e-05	
167	1.700000e+00	4.554085e-05	
168	1.750000e+00	4.567130e-05	
169	1.800000e+00	4.579755e-05	
170	1.850000e+00	4.591997e-05	

Index   v-sweep         -i(vds)         
--------------------------------------------------------------------------------
171	1.900000e+00	4.603886e-05	
172	1.950000e+00	4.615450e-05	
173	2.000000e+00	4.626716e-05	
174	2.050000e+00	4.637704e-05	
175	2.100000e+00	4.648434e-05	
176	2.150000e+00	4.658924e-05	
177	2.200000e+00	4.669191e-05	
178	2.250000e+00	4.679247e-05	
179	2.300000e+00	4.689108e-05	
180	2.350000e+00	4.698783e-05	
181	2.400000e+00	4.708285e-05	
182	2.450000e+00	4.717623e-05	
183	2.500000e+00	4.726807e-05	
184	2.550000e+00	4.735844e-05	
185	2.600000e+00	4.744742e-05	
186	2.650000e+00	4.753509e-05	
187	2.700000e+00	4.762151e-05	
188	2.750000e+00	4.770675e-05	
189	2.800000e+00	4.779087e-05	
190	2.850000e+00	4.787391e-05	
191	2.900000e+00	4.795594e-05	
192	2.950000e+00	4.803699e-05	
193	3.000000e+00	4.811713e-05	
194	3.050000e+00	4.819640e-05	
195	3.100000e+00	4.827484e-05	
196	3.150000e+00	4.835251e-05	
197	3.200000e+00	4.842946e-05	
198	3.250000e+00	4.850572e-05	
199	3.300000e+00	4.858136e-05	
200	3.350000e+00	4.865642e-05	
201	3.400000e+00	4.873098e-05	
202	3.450000e+00	4.880508e-05	
203	3.500000e+00	4.887879e-05	
204	3.550000e+00	4.895219e-05	
205	3.600000e+00	4.902536e-05	
206	3.650000e+00	4.909838e-05	
207	3.700000e+00	4.917135e-05	
208	3.750000e+00	4.924437e-05	
209	3.800000e+00	4.931756e-05	
210	3.850000e+00	4.939102e-05	
211	3.900000e+00	4.946492e-05	
212	3.950000e+00	4.953937e-05	
213	4.000000e+00	4.961456e-05	
214	4.050000e+00	4.969065e-05	
215	4.100000e+00	4.976782e-05	
216	4.150000e+00	4.984629e-05	
217	4.200000e+00	4.992626e-05	
218	4.250000e+00	5.000797e-05	
219	4.300000e+00	5.009167e-05	
220	4.350000e+00	5.017763e-05	
221	4.400000e+00	5.026614e-05	
222	4.450000e+00	5.035749e-05	
223	4.500000e+00	5.045202e-05	
224	4.550000e+00	5.055005e-05	
225	4.600000e+00	5.065195e-05	
226	4.650000e+00	5.075811e-05	
227	4.700000e+00	5.086891e-05	
228	4.750000e+00	5.098478e-05	

Index   v-sweep         -i(vds)         
--------------------------------------------------------------------------------
229	4.800000e+00	5.110615e-05	
230	4.850000e+00	5.123349e-05	
231	4.900000e+00	5.136728e-05	
232	4.950000e+00	5.150800e-05	
233	5.000000e+00	5.165618e-05	
234	5.050000e+00	5.181236e-05	
235	5.100000e+00	5.197710e-05	
236	5.150000e+00	5.215096e-05	
237	5.200000e+00	5.233455e-05	
238	5.250000e+00	5.252848e-05	
239	5.300000e+00	5.273338e-05	
240	5.350000e+00	5.294990e-05	
241	5.400000e+00	5.317872e-05	
242	5.450000e+00	5.342051e-05	
243	5.500000e+00	5.367597e-05	
244	5.550000e+00	5.394584e-05	
245	5.600000e+00	5.423083e-05	
246	5.650000e+00	5.453171e-05	
247	5.700000e+00	5.484922e-05	
248	5.750000e+00	5.518416e-05	
249	5.800000e+00	5.553731e-05	
250	5.850000e+00	5.590948e-05	
251	5.900000e+00	5.630148e-05	
252	5.950000e+00	5.671414e-05	
253	6.000000e+00	5.714831e-05	
254	6.050000e+00	5.760482e-05	
255	6.100000e+00	5.808455e-05	
256	6.150000e+00	5.858836e-05	
257	6.200000e+00	5.911713e-05	
258	6.250000e+00	5.967174e-05	
259	6.300000e+00	6.025308e-05	
260	6.350000e+00	6.086206e-05	
261	6.400000e+00	6.149957e-05	
262	6.450000e+00	6.216654e-05	
263	6.500000e+00	6.286387e-05	
264	6.550000e+00	6.359247e-05	
265	6.600000e+00	6.435329e-05	
266	0.000000e+00	2.979449e-22	
267	5.000000e-02	6.927784e-06	
268	1.000000e-01	1.353386e-05	
269	1.500000e-01	1.982549e-05	
270	2.000000e-01	2.580973e-05	
271	2.500000e-01	3.149337e-05	
272	3.000000e-01	3.688288e-05	
273	3.500000e-01	4.198434e-05	
274	4.000000e-01	4.680346e-05	
275	4.500000e-01	5.134558e-05	
276	5.000000e-01	5.561569e-05	
277	5.500000e-01	5.961859e-05	
278	6.000000e-01	6.335888e-05	
279	6.500000e-01	6.684106e-05	
280	7.000000e-01	7.006951e-05	
281	7.500000e-01	7.304836e-05	
282	8.000000e-01	7.578125e-05	
283	8.500000e-01	7.827073e-05	
284	9.000000e-01	8.051735e-05	
285	9.500000e-01	8.251876e-05	
286	1.000000e+00	8.427004e-05	

Index   v-sweep         -i(vds)         
--------------------------------------------------------------------------------
287	1.050000e+00	8.576834e-05	
288	1.100000e+00	8.702219e-05	
289	1.150000e+00	8.805761e-05	
290	1.200000e+00	8.891273e-05	
291	1.250000e+00	8.962663e-05	
292	1.300000e+00	9.023225e-05	
293	1.350000e+00	9.075482e-05	
294	1.400000e+00	9.121292e-05	
295	1.450000e+00	9.162013e-05	
296	1.500000e+00	9.198649e-05	
297	1.550000e+00	9.231951e-05	
298	1.600000e+00	9.262489e-05	
299	1.650000e+00	9.290706e-05	
300	1.700000e+00	9.316948e-05	
301	1.750000e+00	9.341494e-05	
302	1.800000e+00	9.364567e-05	
303	1.850000e+00	9.386350e-05	
304	1.900000e+00	9.406997e-05	
305	1.950000e+00	9.426632e-05	
306	2.000000e+00	9.445365e-05	
307	2.050000e+00	9.463287e-05	
308	2.100000e+00	9.480475e-05	
309	2.150000e+00	9.496997e-05	
310	2.200000e+00	9.512912e-05	
311	2.250000e+00	9.528272e-05	
312	2.300000e+00	9.543122e-05	
313	2.350000e+00	9.557501e-05	
314	2.400000e+00	9.571446e-05	
315	2.450000e+00	9.584988e-05	
316	2.500000e+00	9.598155e-05	
317	2.550000e+00	9.610972e-05	
318	2.600000e+00	9.623464e-05	
319	2.650000e+00	9.635650e-05	
320	2.700000e+00	9.647549e-05	
321	2.750000e+00	9.659180e-05	
322	2.800000e+00	9.670556e-05	
323	2.850000e+00	9.681693e-05	
324	2.900000e+00	9.692605e-05	
325	2.950000e+00	9.703303e-05	
326	3.000000e+00	9.713798e-05	
327	3.050000e+00	9.724101e-05	
328	3.100000e+00	9.734223e-05	
329	3.150000e+00	9.744171e-05	
330	3.200000e+00	9.753956e-05	
331	3.250000e+00	9.763585e-05	
332	3.300000e+00	9.773066e-05	
333	3.350000e+00	9.782408e-05	
334	3.400000e+00	9.791618e-05	
335	3.450000e+00	9.800703e-05	
336	3.500000e+00	9.809672e-05	
337	3.550000e+00	9.818533e-05	
338	3.600000e+00	9.827295e-05	
339	3.650000e+00	9.835966e-05	
340	3.700000e+00	9.844555e-05	
341	3.750000e+00	9.853074e-05	
342	3.800000e+00	9.861533e-05	
343	3.850000e+00	9.869944e-05	
344	3.900000e+00	9.878322e-05	

Index   v-sweep         -i(vds)         
--------------------------------------------------------------------------------
345	3.950000e+00	9.886680e-05	
346	4.000000e+00	9.895034e-05	
347	4.050000e+00	9.903404e-05	
348	4.100000e+00	9.911807e-05	
349	4.150000e+00	9.920267e-05	
350	4.200000e+00	9.928805e-05	
351	4.250000e+00	9.937449e-05	
352	4.300000e+00	9.946226e-05	
353	4.350000e+00	9.955168e-05	
354	4.400000e+00	9.964307e-05	
355	4.450000e+00	9.973681e-05	
356	4.500000e+00	9.983328e-05	
357	4.550000e+00	9.993290e-05	
358	4.600000e+00	1.000361e-04	
359	4.650000e+00	1.001435e-04	
360	4.700000e+00	1.002554e-04	
361	4.750000e+00	1.003725e-04	
362	4.800000e+00	1.004954e-04	
363	4.850000e+00	1.006247e-04	
364	4.900000e+00	1.007610e-04	
365	4.950000e+00	1.009051e-04	
366	5.000000e+00	1.010577e-04	
367	5.050000e+00	1.012195e-04	
368	5.100000e+00	1.013914e-04	
369	5.150000e+00	1.015743e-04	
370	5.200000e+00	1.017689e-04	
371	5.250000e+00	1.019763e-04	
372	5.300000e+00	1.021974e-04	
373	5.350000e+00	1.024333e-04	
374	5.400000e+00	1.026848e-04	
375	5.450000e+00	1.029532e-04	
376	5.500000e+00	1.032394e-04	
377	5.550000e+00	1.035448e-04	
378	5.600000e+00	1.038703e-04	
379	5.650000e+00	1.042174e-04	
380	5.700000e+00	1.045871e-04	
381	5.750000e+00	1.049808e-04	
382	5.800000e+00	1.053997e-04	
383	5.850000e+00	1.058452e-04	
384	5.900000e+00	1.063187e-04	
385	5.950000e+00	1.068216e-04	
386	6.000000e+00	1.073552e-04	
387	6.050000e+00	1.079210e-04	
388	6.100000e+00	1.085204e-04	
389	6.150000e+00	1.091550e-04	
390	6.200000e+00	1.098262e-04	
391	6.250000e+00	1.105356e-04	
392	6.300000e+00	1.112847e-04	
393	6.350000e+00	1.120750e-04	
394	6.400000e+00	1.129081e-04	
395	6.450000e+00	1.137857e-04	
396	6.500000e+00	1.147092e-04	
397	6.550000e+00	1.156803e-04	
398	6.600000e+00	1.167006e-04	
399	0.000000e+00	-3.60275e-21	
400	5.000000e-02	8.561942e-06	
401	1.000000e-01	1.681209e-05	
402	1.500000e-01	2.475687e-05	

Index   v-sweep         -i(vds)         
--------------------------------------------------------------------------------
403	2.000000e-01	3.240253e-05	
404	2.500000e-01	3.975516e-05	
405	3.000000e-01	4.682058e-05	
406	3.500000e-01	5.360433e-05	
407	4.000000e-01	6.011161e-05	
408	4.500000e-01	6.634722e-05	
409	5.000000e-01	7.231562e-05	
410	5.500000e-01	7.802089e-05	
411	6.000000e-01	8.346682e-05	
412	6.500000e-01	8.865694e-05	
413	7.000000e-01	9.359461e-05	
414	7.500000e-01	9.828309e-05	
415	8.000000e-01	1.027256e-04	
416	8.500000e-01	1.069255e-04	
417	9.000000e-01	1.108861e-04	
418	9.500000e-01	1.146107e-04	
419	1.000000e+00	1.181026e-04	
420	1.050000e+00	1.213649e-04	
421	1.100000e+00	1.243996e-04	
422	1.150000e+00	1.272077e-04	
423	1.200000e+00	1.297877e-04	
424	1.250000e+00	1.321347e-04	
425	1.300000e+00	1.342403e-04	
426	1.350000e+00	1.360954e-04	
427	1.400000e+00	1.376967e-04	
428	1.450000e+00	1.390553e-04	
429	1.500000e+00	1.401976e-04	
430	1.550000e+00	1.411589e-04	
431	1.600000e+00	1.419748e-04	
432	1.650000e+00	1.426758e-04	
433	1.700000e+00	1.432862e-04	
434	1.750000e+00	1.438246e-04	
435	1.800000e+00	1.443050e-04	
436	1.850000e+00	1.447382e-04	
437	1.900000e+00	1.451323e-04	
438	1.950000e+00	1.454938e-04	
439	2.000000e+00	1.458276e-04	
440	2.050000e+00	1.461377e-04	
441	2.100000e+00	1.464273e-04	
442	2.150000e+00	1.466992e-04	
443	2.200000e+00	1.469554e-04	
444	2.250000e+00	1.471977e-04	
445	2.300000e+00	1.474277e-04	
446	2.350000e+00	1.476467e-04	
447	2.400000e+00	1.478557e-04	
448	2.450000e+00	1.480557e-04	
449	2.500000e+00	1.482475e-04	
450	2.550000e+00	1.484319e-04	
451	2.600000e+00	1.486094e-04	
452	2.650000e+00	1.487806e-04	
453	2.700000e+00	1.489460e-04	
454	2.750000e+00	1.491061e-04	
455	2.800000e+00	1.492612e-04	
456	2.850000e+00	1.494117e-04	
457	2.900000e+00	1.495578e-04	
458	2.950000e+00	1.496999e-04	
459	3.000000e+00	1.498382e-04	
460	3.050000e+00	1.499730e-04	

Index   v-sweep         -i(vds)         
--------------------------------------------------------------------------------
461	3.100000e+00	1.501045e-04	
462	3.150000e+00	1.502328e-04	
463	3.200000e+00	1.503582e-04	
464	3.250000e+00	1.504807e-04	
465	3.300000e+00	1.506007e-04	
466	3.350000e+00	1.507181e-04	
467	3.400000e+00	1.508331e-04	
468	3.450000e+00	1.509459e-04	
469	3.500000e+00	1.510566e-04	
470	3.550000e+00	1.511652e-04	
471	3.600000e+00	1.512720e-04	
472	3.650000e+00	1.513769e-04	
473	3.700000e+00	1.514801e-04	
474	3.750000e+00	1.515817e-04	
475	3.800000e+00	1.516818e-04	
476	3.850000e+00	1.517806e-04	
477	3.900000e+00	1.518780e-04	
478	3.950000e+00	1.519743e-04	
479	4.000000e+00	1.520696e-04	
480	4.050000e+00	1.521641e-04	
481	4.100000e+00	1.522578e-04	
482	4.150000e+00	1.523509e-04	
483	4.200000e+00	1.524437e-04	
484	4.250000e+00	1.525364e-04	
485	4.300000e+00	1.526291e-04	
486	4.350000e+00	1.527222e-04	
487	4.400000e+00	1.528158e-04	
488	4.450000e+00	1.529104e-04	
489	4.500000e+00	1.530063e-04	
490	4.550000e+00	1.531038e-04	
491	4.600000e+00	1.532034e-04	
492	4.650000e+00	1.533055e-04	
493	4.700000e+00	1.534106e-04	
494	4.750000e+00	1.535192e-04	
495	4.800000e+00	1.536319e-04	
496	4.850000e+00	1.537493e-04	
497	4.900000e+00	1.538722e-04	
498	4.950000e+00	1.540012e-04	
499	5.000000e+00	1.541371e-04	
500	5.050000e+00	1.542807e-04	
501	5.100000e+00	1.544329e-04	
502	5.150000e+00	1.545946e-04	
503	5.200000e+00	1.547669e-04	
504	5.250000e+00	1.549507e-04	
505	5.300000e+00	1.551472e-04	
506	5.350000e+00	1.553575e-04	
507	5.400000e+00	1.555829e-04	
508	5.450000e+00	1.558246e-04	
509	5.500000e+00	1.560839e-04	
510	5.550000e+00	1.563622e-04	
511	5.600000e+00	1.566610e-04	
512	5.650000e+00	1.569818e-04	
513	5.700000e+00	1.573260e-04	
514	5.750000e+00	1.576954e-04	
515	5.800000e+00	1.580916e-04	
516	5.850000e+00	1.585162e-04	
517	5.900000e+00	1.589711e-04	
518	5.950000e+00	1.594580e-04	

Index   v-sweep         -i(vds)         
--------------------------------------------------------------------------------
519	6.000000e+00	1.599788e-04	
520	6.050000e+00	1.605354e-04	
521	6.100000e+00	1.611298e-04	
522	6.150000e+00	1.617638e-04	
523	6.200000e+00	1.624397e-04	
524	6.250000e+00	1.631593e-04	
525	6.300000e+00	1.639249e-04	
526	6.350000e+00	1.647385e-04	
527	6.400000e+00	1.656023e-04	
528	6.450000e+00	1.665185e-04	
529	6.500000e+00	1.674892e-04	
530	6.550000e+00	1.685169e-04	
531	6.600000e+00	1.696036e-04	
532	0.000000e+00	-1.55768e-20	
533	5.000000e-02	9.764015e-06	
534	1.000000e-01	1.923323e-05	
535	1.500000e-01	2.841308e-05	
536	2.000000e-01	3.730887e-05	
537	2.500000e-01	4.592582e-05	
538	3.000000e-01	5.426896e-05	
539	3.500000e-01	6.234312e-05	
540	4.000000e-01	7.015289e-05	
541	4.500000e-01	7.770257e-05	
542	5.000000e-01	8.499615e-05	
543	5.500000e-01	9.203730e-05	
544	6.000000e-01	9.882939e-05	
545	6.500000e-01	1.053755e-04	
546	7.000000e-01	1.116783e-04	
547	7.500000e-01	1.177405e-04	
548	8.000000e-01	1.235644e-04	
549	8.500000e-01	1.291524e-04	
550	9.000000e-01	1.345066e-04	
551	9.500000e-01	1.396294e-04	
552	1.000000e+00	1.445231e-04	
553	1.050000e+00	1.491901e-04	
554	1.100000e+00	1.536332e-04	
555	1.150000e+00	1.578550e-04	
556	1.200000e+00	1.618585e-04	
557	1.250000e+00	1.656464e-04	
558	1.300000e+00	1.692216e-04	
559	1.350000e+00	1.725862e-04	
560	1.400000e+00	1.757417e-04	
561	1.450000e+00	1.786879e-04	
562	1.500000e+00	1.814224e-04	
563	1.550000e+00	1.839395e-04	
564	1.600000e+00	1.862301e-04	
565	1.650000e+00	1.882837e-04	
566	1.700000e+00	1.900930e-04	
567	1.750000e+00	1.916612e-04	
568	1.800000e+00	1.930050e-04	
569	1.850000e+00	1.941521e-04	
570	1.900000e+00	1.951343e-04	
571	1.950000e+00	1.959821e-04	
572	2.000000e+00	1.967214e-04	
573	2.050000e+00	1.973732e-04	
574	2.100000e+00	1.979538e-04	
575	2.150000e+00	1.984760e-04	
576	2.200000e+00	1.989499e-04	

Index   v-sweep         -i(vds)         
--------------------------------------------------------------------------------
577	2.250000e+00	1.993831e-04	
578	2.300000e+00	1.997820e-04	
579	2.350000e+00	2.001514e-04	
580	2.400000e+00	2.004955e-04	
581	2.450000e+00	2.008174e-04	
582	2.500000e+00	2.011199e-04	
583	2.550000e+00	2.014052e-04	
584	2.600000e+00	2.016753e-04	
585	2.650000e+00	2.019318e-04	
586	2.700000e+00	2.021759e-04	
587	2.750000e+00	2.024090e-04	
588	2.800000e+00	2.026320e-04	
589	2.850000e+00	2.028458e-04	
590	2.900000e+00	2.030512e-04	
591	2.950000e+00	2.032489e-04	
592	3.000000e+00	2.034395e-04	
593	3.050000e+00	2.036235e-04	
594	3.100000e+00	2.038014e-04	
595	3.150000e+00	2.039737e-04	
596	3.200000e+00	2.041407e-04	
597	3.250000e+00	2.043028e-04	
598	3.300000e+00	2.044602e-04	
599	3.350000e+00	2.046134e-04	
600	3.400000e+00	2.047625e-04	
601	3.450000e+00	2.049078e-04	
602	3.500000e+00	2.050495e-04	
603	3.550000e+00	2.051878e-04	
604	3.600000e+00	2.053229e-04	
605	3.650000e+00	2.054550e-04	
606	3.700000e+00	2.055842e-04	
607	3.750000e+00	2.057106e-04	
608	3.800000e+00	2.058345e-04	
609	3.850000e+00	2.059560e-04	
610	3.900000e+00	2.060751e-04	
611	3.950000e+00	2.061920e-04	
612	4.000000e+00	2.063069e-04	
613	4.050000e+00	2.064199e-04	
614	4.100000e+00	2.065311e-04	
615	4.150000e+00	2.066406e-04	
616	4.200000e+00	2.067486e-04	
617	4.250000e+00	2.068552e-04	
618	4.300000e+00	2.069607e-04	
619	4.350000e+00	2.070651e-04	
620	4.400000e+00	2.071687e-04	
621	4.450000e+00	2.072717e-04	
622	4.500000e+00	2.073744e-04	
623	4.550000e+00	2.074769e-04	
624	4.600000e+00	2.075797e-04	
625	4.650000e+00	2.076830e-04	
626	4.700000e+00	2.077872e-04	
627	4.750000e+00	2.078928e-04	
628	4.800000e+00	2.080001e-04	
629	4.850000e+00	2.081096e-04	
630	4.900000e+00	2.082220e-04	
631	4.950000e+00	2.083377e-04	
632	5.000000e+00	2.084575e-04	
633	5.050000e+00	2.085820e-04	
634	5.100000e+00	2.087121e-04	

Index   v-sweep         -i(vds)         
--------------------------------------------------------------------------------
635	5.150000e+00	2.088485e-04	
636	5.200000e+00	2.089921e-04	
637	5.250000e+00	2.091439e-04	
638	5.300000e+00	2.093049e-04	
639	5.350000e+00	2.094763e-04	
640	5.400000e+00	2.096591e-04	
641	5.450000e+00	2.098547e-04	
642	5.500000e+00	2.100643e-04	
643	5.550000e+00	2.102893e-04	
644	5.600000e+00	2.105313e-04	
645	5.650000e+00	2.107918e-04	
646	5.700000e+00	2.110723e-04	
647	5.750000e+00	2.113746e-04	
648	5.800000e+00	2.117005e-04	
649	5.850000e+00	2.120518e-04	
650	5.900000e+00	2.124304e-04	
651	5.950000e+00	2.128384e-04	
652	6.000000e+00	2.132778e-04	
653	6.050000e+00	2.137507e-04	
654	6.100000e+00	2.142595e-04	
655	6.150000e+00	2.148062e-04	
656	6.200000e+00	2.153934e-04	
657	6.250000e+00	2.160234e-04	
658	6.300000e+00	2.166987e-04	
659	6.350000e+00	2.174218e-04	
660	6.400000e+00	2.181953e-04	
661	6.450000e+00	2.190218e-04	
662	6.500000e+00	2.199041e-04	
663	6.550000e+00	2.208449e-04	
664	6.600000e+00	2.218468e-04	
665	0.000000e+00	-1.48246e-20	
666	5.000000e-02	1.062458e-05	
667	1.000000e-01	2.097525e-05	
668	1.500000e-01	3.105650e-05	
669	2.000000e-01	4.087276e-05	
670	2.500000e-01	5.042837e-05	
671	3.000000e-01	5.972757e-05	
672	3.500000e-01	6.877447e-05	
673	4.000000e-01	7.757301e-05	
674	4.500000e-01	8.612695e-05	
675	5.000000e-01	9.443982e-05	
676	5.500000e-01	1.025149e-04	
677	6.000000e-01	1.103553e-04	
678	6.500000e-01	1.179637e-04	
679	7.000000e-01	1.253427e-04	
680	7.500000e-01	1.324946e-04	
681	8.000000e-01	1.394214e-04	
682	8.500000e-01	1.461250e-04	
683	9.000000e-01	1.526073e-04	
684	9.500000e-01	1.588697e-04	
685	1.000000e+00	1.649140e-04	
686	1.050000e+00	1.707416e-04	
687	1.100000e+00	1.763541e-04	
688	1.150000e+00	1.817534e-04	
689	1.200000e+00	1.869410e-04	
690	1.250000e+00	1.919190e-04	
691	1.300000e+00	1.966895e-04	
692	1.350000e+00	2.012549e-04	

Index   v-sweep         -i(vds)         
--------------------------------------------------------------------------------
693	1.400000e+00	2.056174e-04	
694	1.450000e+00	2.097798e-04	
695	1.500000e+00	2.137446e-04	
696	1.550000e+00	2.175143e-04	
697	1.600000e+00	2.210914e-04	
698	1.650000e+00	2.244775e-04	
699	1.700000e+00	2.276736e-04	
700	1.750000e+00	2.306792e-04	
701	1.800000e+00	2.334916e-04	
702	1.850000e+00	2.361053e-04	
703	1.900000e+00	2.385119e-04	
704	1.950000e+00	2.407011e-04	
705	2.000000e+00	2.426637e-04	
706	2.050000e+00	2.443976e-04	
707	2.100000e+00	2.459108e-04	
708	2.150000e+00	2.472228e-04	
709	2.200000e+00	2.483592e-04	
710	2.250000e+00	2.493477e-04	
711	2.300000e+00	2.502137e-04	
712	2.350000e+00	2.509789e-04	
713	2.400000e+00	2.516611e-04	
714	2.450000e+00	2.522747e-04	
715	2.500000e+00	2.528310e-04	
716	2.550000e+00	2.533391e-04	
717	2.600000e+00	2.538061e-04	
718	2.650000e+00	2.542381e-04	
719	2.700000e+00	2.546397e-04	
720	2.750000e+00	2.550148e-04	
721	2.800000e+00	2.553667e-04	
722	2.850000e+00	2.556981e-04	
723	2.900000e+00	2.560113e-04	
724	2.950000e+00	2.563081e-04	
725	3.000000e+00	2.565903e-04	
726	3.050000e+00	2.568592e-04	
727	3.100000e+00	2.571162e-04	
728	3.150000e+00	2.573621e-04	
729	3.200000e+00	2.575981e-04	
730	3.250000e+00	2.578249e-04	
731	3.300000e+00	2.580432e-04	
732	3.350000e+00	2.582537e-04	
733	3.400000e+00	2.584569e-04	
734	3.450000e+00	2.586535e-04	
735	3.500000e+00	2.588438e-04	
736	3.550000e+00	2.590282e-04	
737	3.600000e+00	2.592072e-04	
738	3.650000e+00	2.593810e-04	
739	3.700000e+00	2.595501e-04	
740	3.750000e+00	2.597146e-04	
741	3.800000e+00	2.598749e-04	
742	3.850000e+00	2.600312e-04	
743	3.900000e+00	2.601836e-04	
744	3.950000e+00	2.603325e-04	
745	4.000000e+00	2.604780e-04	
746	4.050000e+00	2.606202e-04	
747	4.100000e+00	2.607594e-04	
748	4.150000e+00	2.608957e-04	
749	4.200000e+00	2.610293e-04	
750	4.250000e+00	2.611603e-04	

Index   v-sweep         -i(vds)         
--------------------------------------------------------------------------------
751	4.300000e+00	2.612889e-04	
752	4.350000e+00	2.614152e-04	
753	4.400000e+00	2.615394e-04	
754	4.450000e+00	2.616616e-04	
755	4.500000e+00	2.617821e-04	
756	4.550000e+00	2.619009e-04	
757	4.600000e+00	2.620183e-04	
758	4.650000e+00	2.621346e-04	
759	4.700000e+00	2.622499e-04	
760	4.750000e+00	2.623644e-04	
761	4.800000e+00	2.624786e-04	
762	4.850000e+00	2.625927e-04	
763	4.900000e+00	2.627071e-04	
764	4.950000e+00	2.628221e-04	
765	5.000000e+00	2.629383e-04	
766	5.050000e+00	2.630561e-04	
767	5.100000e+00	2.631760e-04	
768	5.150000e+00	2.632987e-04	
769	5.200000e+00	2.634249e-04	
770	5.250000e+00	2.635551e-04	
771	5.300000e+00	2.636904e-04	
772	5.350000e+00	2.638314e-04	
773	5.400000e+00	2.639793e-04	
774	5.450000e+00	2.641348e-04	
775	5.500000e+00	2.642993e-04	
776	5.550000e+00	2.644738e-04	
777	5.600000e+00	2.646597e-04	
778	5.650000e+00	2.648583e-04	
779	5.700000e+00	2.650710e-04	
780	5.750000e+00	2.652993e-04	
781	5.800000e+00	2.655450e-04	
782	5.850000e+00	2.658098e-04	
783	5.900000e+00	2.660954e-04	
784	5.950000e+00	2.664038e-04	
785	6.000000e+00	2.667370e-04	
786	6.050000e+00	2.670972e-04	
787	6.100000e+00	2.674864e-04	
788	6.150000e+00	2.679072e-04	
789	6.200000e+00	2.683617e-04	
790	6.250000e+00	2.688526e-04	
791	6.300000e+00	2.693824e-04	
792	6.350000e+00	2.699537e-04	
793	6.400000e+00	2.705694e-04	
794	6.450000e+00	2.712322e-04	
795	6.500000e+00	2.719451e-04	
796	6.550000e+00	2.727111e-04	
797	6.600000e+00	2.735332e-04	
Note: No ".plot", ".print", or ".fourier" lines; no simulations run
