
Note: Compatibility modes selected: hs

Warning: m=xx on .subckt line will override multiplier m hierarchy!


Circuit: ***************************

Doing analysis at TEMP = 25.000000 and TNOM = 25.000000


No. of Data Rows : 798
                          ***************************
                          DC transfer characteristic  Mon Jan  9 13:58:36  2023
--------------------------------------------------------------------------------
Index   v-sweep         -i(vds)         
--------------------------------------------------------------------------------
0	0.000000e+00	-5.81549e-31	
1	5.000000e-02	1.352712e-06	
2	1.000000e-01	2.463268e-06	
3	1.500000e-01	3.338005e-06	
4	2.000000e-01	3.987023e-06	
5	2.500000e-01	4.431870e-06	
6	3.000000e-01	4.719426e-06	
7	3.500000e-01	4.915049e-06	
8	4.000000e-01	5.065622e-06	
9	4.500000e-01	5.192168e-06	
10	5.000000e-01	5.303608e-06	
11	5.500000e-01	5.404417e-06	
12	6.000000e-01	5.497231e-06	
13	6.500000e-01	5.583774e-06	
14	7.000000e-01	5.665255e-06	
15	7.500000e-01	5.742560e-06	
16	8.000000e-01	5.816360e-06	
17	8.500000e-01	5.887176e-06	
18	9.000000e-01	5.955425e-06	
19	9.500000e-01	6.021440e-06	
20	1.000000e+00	6.085496e-06	
21	1.050000e+00	6.147821e-06	
22	1.100000e+00	6.208605e-06	
23	1.150000e+00	6.268011e-06	
24	1.200000e+00	6.326176e-06	
25	1.250000e+00	6.383221e-06	
26	1.300000e+00	6.439247e-06	
27	1.350000e+00	6.494345e-06	
28	1.400000e+00	6.548594e-06	
29	1.450000e+00	6.602063e-06	
30	1.500000e+00	6.654815e-06	
31	1.550000e+00	6.706904e-06	
32	1.600000e+00	6.758379e-06	
33	1.650000e+00	6.809285e-06	
34	1.700000e+00	6.859661e-06	
35	1.750000e+00	6.909543e-06	
36	1.800000e+00	6.958964e-06	
37	1.850000e+00	7.007954e-06	
38	1.900000e+00	7.056538e-06	
39	1.950000e+00	7.104743e-06	
40	2.000000e+00	7.152590e-06	
41	2.050000e+00	7.200100e-06	
42	2.100000e+00	7.247293e-06	
43	2.150000e+00	7.294187e-06	
44	2.200000e+00	7.340796e-06	
45	2.250000e+00	7.387138e-06	
46	2.300000e+00	7.433225e-06	
47	2.350000e+00	7.479072e-06	
48	2.400000e+00	7.524690e-06	
49	2.450000e+00	7.570092e-06	
50	2.500000e+00	7.615288e-06	
51	2.550000e+00	7.660289e-06	
52	2.600000e+00	7.705106e-06	
53	2.650000e+00	7.749748e-06	
54	2.700000e+00	7.794225e-06	

Index   v-sweep         -i(vds)         
--------------------------------------------------------------------------------
55	2.750000e+00	7.838548e-06	
56	2.800000e+00	7.882725e-06	
57	2.850000e+00	7.926767e-06	
58	2.900000e+00	7.970684e-06	
59	2.950000e+00	8.014487e-06	
60	3.000000e+00	8.058187e-06	
61	3.050000e+00	8.101797e-06	
62	3.100000e+00	8.145329e-06	
63	3.150000e+00	8.188797e-06	
64	3.200000e+00	8.232217e-06	
65	3.250000e+00	8.275605e-06	
66	3.300000e+00	8.318978e-06	
67	3.350000e+00	8.362358e-06	
68	3.400000e+00	8.405764e-06	
69	3.450000e+00	8.449221e-06	
70	3.500000e+00	8.492754e-06	
71	3.550000e+00	8.536392e-06	
72	3.600000e+00	8.580165e-06	
73	3.650000e+00	8.624106e-06	
74	3.700000e+00	8.668251e-06	
75	3.750000e+00	8.712640e-06	
76	3.800000e+00	8.757314e-06	
77	3.850000e+00	8.802320e-06	
78	3.900000e+00	8.847707e-06	
79	3.950000e+00	8.893526e-06	
80	4.000000e+00	8.939836e-06	
81	4.050000e+00	8.986695e-06	
82	4.100000e+00	9.034168e-06	
83	4.150000e+00	9.082325e-06	
84	4.200000e+00	9.131236e-06	
85	4.250000e+00	9.180980e-06	
86	4.300000e+00	9.231637e-06	
87	4.350000e+00	9.283294e-06	
88	4.400000e+00	9.336041e-06	
89	4.450000e+00	9.389974e-06	
90	4.500000e+00	9.445191e-06	
91	4.550000e+00	9.501797e-06	
92	4.600000e+00	9.559902e-06	
93	4.650000e+00	9.619621e-06	
94	4.700000e+00	9.681071e-06	
95	4.750000e+00	9.744377e-06	
96	4.800000e+00	9.809667e-06	
97	4.850000e+00	9.877075e-06	
98	4.900000e+00	9.946740e-06	
99	4.950000e+00	1.001881e-05	
100	5.000000e+00	1.009342e-05	
101	5.050000e+00	1.017073e-05	
102	5.100000e+00	1.025091e-05	
103	5.150000e+00	1.033410e-05	
104	5.200000e+00	1.042049e-05	
105	5.250000e+00	1.051023e-05	
106	5.300000e+00	1.060351e-05	
107	5.350000e+00	1.070051e-05	
108	5.400000e+00	1.080142e-05	
109	5.450000e+00	1.090641e-05	
110	5.500000e+00	1.101570e-05	
111	5.550000e+00	1.112947e-05	
112	5.600000e+00	1.124793e-05	

Index   v-sweep         -i(vds)         
--------------------------------------------------------------------------------
113	5.650000e+00	1.137129e-05	
114	5.700000e+00	1.149976e-05	
115	5.750000e+00	1.163354e-05	
116	5.800000e+00	1.177287e-05	
117	5.850000e+00	1.191796e-05	
118	5.900000e+00	1.206903e-05	
119	5.950000e+00	1.222633e-05	
120	6.000000e+00	1.239007e-05	
121	6.050000e+00	1.256050e-05	
122	6.100000e+00	1.273785e-05	
123	6.150000e+00	1.292238e-05	
124	6.200000e+00	1.311432e-05	
125	6.250000e+00	1.331391e-05	
126	6.300000e+00	1.352143e-05	
127	6.350000e+00	1.373711e-05	
128	6.400000e+00	1.396121e-05	
129	6.450000e+00	1.419399e-05	
130	6.500000e+00	1.443572e-05	
131	6.550000e+00	1.468665e-05	
132	6.600000e+00	1.494705e-05	
133	0.000000e+00	1.409572e-31	
134	5.000000e-02	3.779523e-06	
135	1.000000e-01	7.314809e-06	
136	1.500000e-01	1.061086e-05	
137	2.000000e-01	1.367258e-05	
138	2.500000e-01	1.650477e-05	
139	3.000000e-01	1.911215e-05	
140	3.500000e-01	2.149933e-05	
141	4.000000e-01	2.367092e-05	
142	4.500000e-01	2.563155e-05	
143	5.000000e-01	2.738596e-05	
144	5.500000e-01	2.893920e-05	
145	6.000000e-01	3.029694e-05	
146	6.500000e-01	3.146608e-05	
147	7.000000e-01	3.245624e-05	
148	7.500000e-01	3.328204e-05	
149	8.000000e-01	3.396521e-05	
150	8.500000e-01	3.453269e-05	
151	9.000000e-01	3.501102e-05	
152	9.500000e-01	3.542196e-05	
153	1.000000e+00	3.578164e-05	
154	1.050000e+00	3.610164e-05	
155	1.100000e+00	3.639029e-05	
156	1.150000e+00	3.665365e-05	
157	1.200000e+00	3.689625e-05	
158	1.250000e+00	3.712154e-05	
159	1.300000e+00	3.733217e-05	
160	1.350000e+00	3.753027e-05	
161	1.400000e+00	3.771751e-05	
162	1.450000e+00	3.789528e-05	
163	1.500000e+00	3.806469e-05	
164	1.550000e+00	3.822671e-05	
165	1.600000e+00	3.838211e-05	
166	1.650000e+00	3.853158e-05	
167	1.700000e+00	3.867568e-05	
168	1.750000e+00	3.881492e-05	
169	1.800000e+00	3.894973e-05	
170	1.850000e+00	3.908048e-05	

Index   v-sweep         -i(vds)         
--------------------------------------------------------------------------------
171	1.900000e+00	3.920751e-05	
172	1.950000e+00	3.933111e-05	
173	2.000000e+00	3.945154e-05	
174	2.050000e+00	3.956902e-05	
175	2.100000e+00	3.968378e-05	
176	2.150000e+00	3.979599e-05	
177	2.200000e+00	3.990581e-05	
178	2.250000e+00	4.001342e-05	
179	2.300000e+00	4.011893e-05	
180	2.350000e+00	4.022248e-05	
181	2.400000e+00	4.032419e-05	
182	2.450000e+00	4.042415e-05	
183	2.500000e+00	4.052246e-05	
184	2.550000e+00	4.061922e-05	
185	2.600000e+00	4.071450e-05	
186	2.650000e+00	4.080838e-05	
187	2.700000e+00	4.090094e-05	
188	2.750000e+00	4.099223e-05	
189	2.800000e+00	4.108232e-05	
190	2.850000e+00	4.117126e-05	
191	2.900000e+00	4.125912e-05	
192	2.950000e+00	4.134593e-05	
193	3.000000e+00	4.143176e-05	
194	3.050000e+00	4.151665e-05	
195	3.100000e+00	4.160064e-05	
196	3.150000e+00	4.168379e-05	
197	3.200000e+00	4.176613e-05	
198	3.250000e+00	4.184772e-05	
199	3.300000e+00	4.192860e-05	
200	3.350000e+00	4.200882e-05	
201	3.400000e+00	4.208842e-05	
202	3.450000e+00	4.216747e-05	
203	3.500000e+00	4.224601e-05	
204	3.550000e+00	4.232412e-05	
205	3.600000e+00	4.240185e-05	
206	3.650000e+00	4.247927e-05	
207	3.700000e+00	4.255647e-05	
208	3.750000e+00	4.263352e-05	
209	3.800000e+00	4.271051e-05	
210	3.850000e+00	4.278755e-05	
211	3.900000e+00	4.286475e-05	
212	3.950000e+00	4.294221e-05	
213	4.000000e+00	4.302007e-05	
214	4.050000e+00	4.309847e-05	
215	4.100000e+00	4.317756e-05	
216	4.150000e+00	4.325750e-05	
217	4.200000e+00	4.333846e-05	
218	4.250000e+00	4.342064e-05	
219	4.300000e+00	4.350424e-05	
220	4.350000e+00	4.358947e-05	
221	4.400000e+00	4.367657e-05	
222	4.450000e+00	4.376578e-05	
223	4.500000e+00	4.385738e-05	
224	4.550000e+00	4.395164e-05	
225	4.600000e+00	4.404885e-05	
226	4.650000e+00	4.414933e-05	
227	4.700000e+00	4.425342e-05	
228	4.750000e+00	4.436145e-05	

Index   v-sweep         -i(vds)         
--------------------------------------------------------------------------------
229	4.800000e+00	4.447379e-05	
230	4.850000e+00	4.459083e-05	
231	4.900000e+00	4.471296e-05	
232	4.950000e+00	4.484061e-05	
233	5.000000e+00	4.497420e-05	
234	5.050000e+00	4.511419e-05	
235	5.100000e+00	4.526106e-05	
236	5.150000e+00	4.541528e-05	
237	5.200000e+00	4.557737e-05	
238	5.250000e+00	4.574784e-05	
239	5.300000e+00	4.592724e-05	
240	5.350000e+00	4.611612e-05	
241	5.400000e+00	4.631504e-05	
242	5.450000e+00	4.652460e-05	
243	5.500000e+00	4.674540e-05	
244	5.550000e+00	4.697806e-05	
245	5.600000e+00	4.722321e-05	
246	5.650000e+00	4.748149e-05	
247	5.700000e+00	4.775357e-05	
248	5.750000e+00	4.804011e-05	
249	5.800000e+00	4.834182e-05	
250	5.850000e+00	4.865938e-05	
251	5.900000e+00	4.899350e-05	
252	5.950000e+00	4.934492e-05	
253	6.000000e+00	4.971436e-05	
254	6.050000e+00	5.010256e-05	
255	6.100000e+00	5.051029e-05	
256	6.150000e+00	5.093830e-05	
257	6.200000e+00	5.138736e-05	
258	6.250000e+00	5.185825e-05	
259	6.300000e+00	5.235176e-05	
260	6.350000e+00	5.286869e-05	
261	6.400000e+00	5.340983e-05	
262	6.450000e+00	5.397599e-05	
263	6.500000e+00	5.456798e-05	
264	6.550000e+00	5.518662e-05	
265	6.600000e+00	5.583272e-05	
266	0.000000e+00	-1.18102e-20	
267	5.000000e-02	5.526618e-06	
268	1.000000e-01	1.081221e-05	
269	1.500000e-01	1.586152e-05	
270	2.000000e-01	2.067919e-05	
271	2.500000e-01	2.526974e-05	
272	3.000000e-01	2.963758e-05	
273	3.500000e-01	3.378700e-05	
274	4.000000e-01	3.772213e-05	
275	4.500000e-01	4.144698e-05	
276	5.000000e-01	4.496543e-05	
277	5.500000e-01	4.828126e-05	
278	6.000000e-01	5.139817e-05	
279	6.500000e-01	5.431981e-05	
280	7.000000e-01	5.704974e-05	
281	7.500000e-01	5.959154e-05	
282	8.000000e-01	6.194869e-05	
283	8.500000e-01	6.412459e-05	
284	9.000000e-01	6.612247e-05	
285	9.500000e-01	6.794517e-05	
286	1.000000e+00	6.959499e-05	

Index   v-sweep         -i(vds)         
--------------------------------------------------------------------------------
287	1.050000e+00	7.107353e-05	
288	1.100000e+00	7.238225e-05	
289	1.150000e+00	7.352477e-05	
290	1.200000e+00	7.451045e-05	
291	1.250000e+00	7.535617e-05	
292	1.300000e+00	7.608375e-05	
293	1.350000e+00	7.671520e-05	
294	1.400000e+00	7.726962e-05	
295	1.450000e+00	7.776232e-05	
296	1.500000e+00	7.820514e-05	
297	1.550000e+00	7.860715e-05	
298	1.600000e+00	7.897537e-05	
299	1.650000e+00	7.931523e-05	
300	1.700000e+00	7.963101e-05	
301	1.750000e+00	7.992613e-05	
302	1.800000e+00	8.020334e-05	
303	1.850000e+00	8.046491e-05	
304	1.900000e+00	8.071269e-05	
305	1.950000e+00	8.094824e-05	
306	2.000000e+00	8.117287e-05	
307	2.050000e+00	8.138769e-05	
308	2.100000e+00	8.159367e-05	
309	2.150000e+00	8.179161e-05	
310	2.200000e+00	8.198225e-05	
311	2.250000e+00	8.216619e-05	
312	2.300000e+00	8.234399e-05	
313	2.350000e+00	8.251613e-05	
314	2.400000e+00	8.268305e-05	
315	2.450000e+00	8.284512e-05	
316	2.500000e+00	8.300269e-05	
317	2.550000e+00	8.315607e-05	
318	2.600000e+00	8.330553e-05	
319	2.650000e+00	8.345132e-05	
320	2.700000e+00	8.359368e-05	
321	2.750000e+00	8.373280e-05	
322	2.800000e+00	8.386889e-05	
323	2.850000e+00	8.400210e-05	
324	2.900000e+00	8.413261e-05	
325	2.950000e+00	8.426055e-05	
326	3.000000e+00	8.438607e-05	
327	3.050000e+00	8.450928e-05	
328	3.100000e+00	8.463031e-05	
329	3.150000e+00	8.474926e-05	
330	3.200000e+00	8.486623e-05	
331	3.250000e+00	8.498132e-05	
332	3.300000e+00	8.509463e-05	
333	3.350000e+00	8.520623e-05	
334	3.400000e+00	8.531621e-05	
335	3.450000e+00	8.542465e-05	
336	3.500000e+00	8.553163e-05	
337	3.550000e+00	8.563723e-05	
338	3.600000e+00	8.574153e-05	
339	3.650000e+00	8.584461e-05	
340	3.700000e+00	8.594656e-05	
341	3.750000e+00	8.604746e-05	
342	3.800000e+00	8.614740e-05	
343	3.850000e+00	8.624648e-05	
344	3.900000e+00	8.634481e-05	

Index   v-sweep         -i(vds)         
--------------------------------------------------------------------------------
345	3.950000e+00	8.644251e-05	
346	4.000000e+00	8.653970e-05	
347	4.050000e+00	8.663651e-05	
348	4.100000e+00	8.673310e-05	
349	4.150000e+00	8.682962e-05	
350	4.200000e+00	8.692626e-05	
351	4.250000e+00	8.702321e-05	
352	4.300000e+00	8.712069e-05	
353	4.350000e+00	8.721892e-05	
354	4.400000e+00	8.731817e-05	
355	4.450000e+00	8.741871e-05	
356	4.500000e+00	8.752083e-05	
357	4.550000e+00	8.762487e-05	
358	4.600000e+00	8.773116e-05	
359	4.650000e+00	8.784010e-05	
360	4.700000e+00	8.795208e-05	
361	4.750000e+00	8.806754e-05	
362	4.800000e+00	8.818693e-05	
363	4.850000e+00	8.831075e-05	
364	4.900000e+00	8.843953e-05	
365	4.950000e+00	8.857382e-05	
366	5.000000e+00	8.871420e-05	
367	5.050000e+00	8.886131e-05	
368	5.100000e+00	8.901578e-05	
369	5.150000e+00	8.917830e-05	
370	5.200000e+00	8.934960e-05	
371	5.250000e+00	8.953043e-05	
372	5.300000e+00	8.972157e-05	
373	5.350000e+00	8.992384e-05	
374	5.400000e+00	9.013809e-05	
375	5.450000e+00	9.036521e-05	
376	5.500000e+00	9.060611e-05	
377	5.550000e+00	9.086174e-05	
378	5.600000e+00	9.113309e-05	
379	5.650000e+00	9.142116e-05	
380	5.700000e+00	9.172700e-05	
381	5.750000e+00	9.205168e-05	
382	5.800000e+00	9.239629e-05	
383	5.850000e+00	9.276196e-05	
384	5.900000e+00	9.314986e-05	
385	5.950000e+00	9.356115e-05	
386	6.000000e+00	9.399704e-05	
387	6.050000e+00	9.445877e-05	
388	6.100000e+00	9.494759e-05	
389	6.150000e+00	9.546476e-05	
390	6.200000e+00	9.601160e-05	
391	6.250000e+00	9.658940e-05	
392	6.300000e+00	9.719950e-05	
393	6.350000e+00	9.784326e-05	
394	6.400000e+00	9.852204e-05	
395	6.450000e+00	9.923722e-05	
396	6.500000e+00	9.999019e-05	
397	6.550000e+00	1.007824e-04	
398	6.600000e+00	1.016152e-04	
399	0.000000e+00	1.273347e-20	
400	5.000000e-02	6.815918e-06	
401	1.000000e-01	1.340077e-05	
402	1.500000e-01	1.975869e-05	

Index   v-sweep         -i(vds)         
--------------------------------------------------------------------------------
403	2.000000e-01	2.589373e-05	
404	2.500000e-01	3.180988e-05	
405	3.000000e-01	3.751102e-05	
406	3.500000e-01	4.300093e-05	
407	4.000000e-01	4.828327e-05	
408	4.500000e-01	5.336158e-05	
409	5.000000e-01	5.823927e-05	
410	5.500000e-01	6.291964e-05	
411	6.000000e-01	6.740586e-05	
412	6.500000e-01	7.170100e-05	
413	7.000000e-01	7.580805e-05	
414	7.500000e-01	7.972991e-05	
415	8.000000e-01	8.346944e-05	
416	8.500000e-01	8.702946e-05	
417	9.000000e-01	9.041279e-05	
418	9.500000e-01	9.362220e-05	
419	1.000000e+00	9.666047e-05	
420	1.050000e+00	9.953033e-05	
421	1.100000e+00	1.022345e-04	
422	1.150000e+00	1.047754e-04	
423	1.200000e+00	1.071553e-04	
424	1.250000e+00	1.093761e-04	
425	1.300000e+00	1.114386e-04	
426	1.350000e+00	1.133426e-04	
427	1.400000e+00	1.150864e-04	
428	1.450000e+00	1.166668e-04	
429	1.500000e+00	1.180816e-04	
430	1.550000e+00	1.193325e-04	
431	1.600000e+00	1.204284e-04	
432	1.650000e+00	1.213855e-04	
433	1.700000e+00	1.222236e-04	
434	1.750000e+00	1.229624e-04	
435	1.800000e+00	1.236195e-04	
436	1.850000e+00	1.242092e-04	
437	1.900000e+00	1.247432e-04	
438	1.950000e+00	1.252308e-04	
439	2.000000e+00	1.256791e-04	
440	2.050000e+00	1.260941e-04	
441	2.100000e+00	1.264804e-04	
442	2.150000e+00	1.268419e-04	
443	2.200000e+00	1.271817e-04	
444	2.250000e+00	1.275024e-04	
445	2.300000e+00	1.278062e-04	
446	2.350000e+00	1.280948e-04	
447	2.400000e+00	1.283699e-04	
448	2.450000e+00	1.286328e-04	
449	2.500000e+00	1.288845e-04	
450	2.550000e+00	1.291263e-04	
451	2.600000e+00	1.293587e-04	
452	2.650000e+00	1.295828e-04	
453	2.700000e+00	1.297991e-04	
454	2.750000e+00	1.300081e-04	
455	2.800000e+00	1.302106e-04	
456	2.850000e+00	1.304069e-04	
457	2.900000e+00	1.305974e-04	
458	2.950000e+00	1.307826e-04	
459	3.000000e+00	1.309627e-04	
460	3.050000e+00	1.311382e-04	

Index   v-sweep         -i(vds)         
--------------------------------------------------------------------------------
461	3.100000e+00	1.313092e-04	
462	3.150000e+00	1.314761e-04	
463	3.200000e+00	1.316391e-04	
464	3.250000e+00	1.317983e-04	
465	3.300000e+00	1.319541e-04	
466	3.350000e+00	1.321066e-04	
467	3.400000e+00	1.322560e-04	
468	3.450000e+00	1.324024e-04	
469	3.500000e+00	1.325459e-04	
470	3.550000e+00	1.326868e-04	
471	3.600000e+00	1.328251e-04	
472	3.650000e+00	1.329610e-04	
473	3.700000e+00	1.330945e-04	
474	3.750000e+00	1.332259e-04	
475	3.800000e+00	1.333552e-04	
476	3.850000e+00	1.334825e-04	
477	3.900000e+00	1.336080e-04	
478	3.950000e+00	1.337317e-04	
479	4.000000e+00	1.338537e-04	
480	4.050000e+00	1.339742e-04	
481	4.100000e+00	1.340934e-04	
482	4.150000e+00	1.342112e-04	
483	4.200000e+00	1.343280e-04	
484	4.250000e+00	1.344438e-04	
485	4.300000e+00	1.345587e-04	
486	4.350000e+00	1.346731e-04	
487	4.400000e+00	1.347870e-04	
488	4.450000e+00	1.349007e-04	
489	4.500000e+00	1.350144e-04	
490	4.550000e+00	1.351285e-04	
491	4.600000e+00	1.352431e-04	
492	4.650000e+00	1.353586e-04	
493	4.700000e+00	1.354754e-04	
494	4.750000e+00	1.355938e-04	
495	4.800000e+00	1.357143e-04	
496	4.850000e+00	1.358372e-04	
497	4.900000e+00	1.359631e-04	
498	4.950000e+00	1.360925e-04	
499	5.000000e+00	1.362260e-04	
500	5.050000e+00	1.363642e-04	
501	5.100000e+00	1.365077e-04	
502	5.150000e+00	1.366572e-04	
503	5.200000e+00	1.368135e-04	
504	5.250000e+00	1.369774e-04	
505	5.300000e+00	1.371496e-04	
506	5.350000e+00	1.373312e-04	
507	5.400000e+00	1.375229e-04	
508	5.450000e+00	1.377259e-04	
509	5.500000e+00	1.379411e-04	
510	5.550000e+00	1.381696e-04	
511	5.600000e+00	1.384126e-04	
512	5.650000e+00	1.386713e-04	
513	5.700000e+00	1.389468e-04	
514	5.750000e+00	1.392406e-04	
515	5.800000e+00	1.395538e-04	
516	5.850000e+00	1.398879e-04	
517	5.900000e+00	1.402444e-04	
518	5.950000e+00	1.406246e-04	

Index   v-sweep         -i(vds)         
--------------------------------------------------------------------------------
519	6.000000e+00	1.410302e-04	
520	6.050000e+00	1.414626e-04	
521	6.100000e+00	1.419235e-04	
522	6.150000e+00	1.424146e-04	
523	6.200000e+00	1.429376e-04	
524	6.250000e+00	1.434941e-04	
525	6.300000e+00	1.440859e-04	
526	6.350000e+00	1.447148e-04	
527	6.400000e+00	1.453828e-04	
528	6.450000e+00	1.460915e-04	
529	6.500000e+00	1.468430e-04	
530	6.550000e+00	1.476391e-04	
531	6.600000e+00	1.484818e-04	
532	0.000000e+00	1.262287e-20	
533	5.000000e-02	7.749400e-06	
534	1.000000e-01	1.528241e-05	
535	1.500000e-01	2.260249e-05	
536	2.000000e-01	2.971305e-05	
537	2.500000e-01	3.661745e-05	
538	3.000000e-01	4.331899e-05	
539	3.500000e-01	4.982086e-05	
540	4.000000e-01	5.612622e-05	
541	4.500000e-01	6.223809e-05	
542	5.000000e-01	6.815943e-05	
543	5.500000e-01	7.389308e-05	
544	6.000000e-01	7.944177e-05	
545	6.500000e-01	8.480814e-05	
546	7.000000e-01	8.999472e-05	
547	7.500000e-01	9.500397e-05	
548	8.000000e-01	9.983825e-05	
549	8.500000e-01	1.044999e-04	
550	9.000000e-01	1.089911e-04	
551	9.500000e-01	1.133141e-04	
552	1.000000e+00	1.174711e-04	
553	1.050000e+00	1.214643e-04	
554	1.100000e+00	1.252958e-04	
555	1.150000e+00	1.289678e-04	
556	1.200000e+00	1.324826e-04	
557	1.250000e+00	1.358423e-04	
558	1.300000e+00	1.390491e-04	
559	1.350000e+00	1.421052e-04	
560	1.400000e+00	1.450128e-04	
561	1.450000e+00	1.477737e-04	
562	1.500000e+00	1.503897e-04	
563	1.550000e+00	1.528622e-04	
564	1.600000e+00	1.551917e-04	
565	1.650000e+00	1.573779e-04	
566	1.700000e+00	1.594190e-04	
567	1.750000e+00	1.613114e-04	
568	1.800000e+00	1.630502e-04	
569	1.850000e+00	1.646306e-04	
570	1.900000e+00	1.660511e-04	
571	1.950000e+00	1.673163e-04	
572	2.000000e+00	1.684375e-04	
573	2.050000e+00	1.694308e-04	
574	2.100000e+00	1.703139e-04	
575	2.150000e+00	1.711040e-04	
576	2.200000e+00	1.718157e-04	

Index   v-sweep         -i(vds)         
--------------------------------------------------------------------------------
577	2.250000e+00	1.724617e-04	
578	2.300000e+00	1.730520e-04	
579	2.350000e+00	1.735951e-04	
580	2.400000e+00	1.740977e-04	
581	2.450000e+00	1.745654e-04	
582	2.500000e+00	1.750027e-04	
583	2.550000e+00	1.754133e-04	
584	2.600000e+00	1.758003e-04	
585	2.650000e+00	1.761665e-04	
586	2.700000e+00	1.765140e-04	
587	2.750000e+00	1.768447e-04	
588	2.800000e+00	1.771603e-04	
589	2.850000e+00	1.774622e-04	
590	2.900000e+00	1.777516e-04	
591	2.950000e+00	1.780295e-04	
592	3.000000e+00	1.782970e-04	
593	3.050000e+00	1.785548e-04	
594	3.100000e+00	1.788038e-04	
595	3.150000e+00	1.790444e-04	
596	3.200000e+00	1.792774e-04	
597	3.250000e+00	1.795033e-04	
598	3.300000e+00	1.797225e-04	
599	3.350000e+00	1.799355e-04	
600	3.400000e+00	1.801426e-04	
601	3.450000e+00	1.803442e-04	
602	3.500000e+00	1.805407e-04	
603	3.550000e+00	1.807324e-04	
604	3.600000e+00	1.809194e-04	
605	3.650000e+00	1.811021e-04	
606	3.700000e+00	1.812807e-04	
607	3.750000e+00	1.814554e-04	
608	3.800000e+00	1.816264e-04	
609	3.850000e+00	1.817939e-04	
610	3.900000e+00	1.819581e-04	
611	3.950000e+00	1.821191e-04	
612	4.000000e+00	1.822770e-04	
613	4.050000e+00	1.824321e-04	
614	4.100000e+00	1.825845e-04	
615	4.150000e+00	1.827343e-04	
616	4.200000e+00	1.828817e-04	
617	4.250000e+00	1.830267e-04	
618	4.300000e+00	1.831696e-04	
619	4.350000e+00	1.833104e-04	
620	4.400000e+00	1.834494e-04	
621	4.450000e+00	1.835867e-04	
622	4.500000e+00	1.837224e-04	
623	4.550000e+00	1.838568e-04	
624	4.600000e+00	1.839900e-04	
625	4.650000e+00	1.841223e-04	
626	4.700000e+00	1.842538e-04	
627	4.750000e+00	1.843850e-04	
628	4.800000e+00	1.845159e-04	
629	4.850000e+00	1.846471e-04	
630	4.900000e+00	1.847788e-04	
631	4.950000e+00	1.849113e-04	
632	5.000000e+00	1.850453e-04	
633	5.050000e+00	1.851810e-04	
634	5.100000e+00	1.853190e-04	

Index   v-sweep         -i(vds)         
--------------------------------------------------------------------------------
635	5.150000e+00	1.854598e-04	
636	5.200000e+00	1.856041e-04	
637	5.250000e+00	1.857526e-04	
638	5.300000e+00	1.859058e-04	
639	5.350000e+00	1.860646e-04	
640	5.400000e+00	1.862299e-04	
641	5.450000e+00	1.864024e-04	
642	5.500000e+00	1.865831e-04	
643	5.550000e+00	1.867730e-04	
644	5.600000e+00	1.869732e-04	
645	5.650000e+00	1.871848e-04	
646	5.700000e+00	1.874090e-04	
647	5.750000e+00	1.876471e-04	
648	5.800000e+00	1.879004e-04	
649	5.850000e+00	1.881703e-04	
650	5.900000e+00	1.884583e-04	
651	5.950000e+00	1.887658e-04	
652	6.000000e+00	1.890945e-04	
653	6.050000e+00	1.894461e-04	
654	6.100000e+00	1.898222e-04	
655	6.150000e+00	1.902248e-04	
656	6.200000e+00	1.906555e-04	
657	6.250000e+00	1.911164e-04	
658	6.300000e+00	1.916095e-04	
659	6.350000e+00	1.921367e-04	
660	6.400000e+00	1.927002e-04	
661	6.450000e+00	1.933022e-04	
662	6.500000e+00	1.939448e-04	
663	6.550000e+00	1.946303e-04	
664	6.600000e+00	1.953610e-04	
665	0.000000e+00	-5.41463e-20	
666	5.000000e-02	8.405447e-06	
667	1.000000e-01	1.661146e-05	
668	1.500000e-01	2.462088e-05	
669	2.000000e-01	3.243652e-05	
670	2.500000e-01	4.006116e-05	
671	3.000000e-01	4.749751e-05	
672	3.500000e-01	5.474827e-05	
673	4.000000e-01	6.181604e-05	
674	4.500000e-01	6.870340e-05	
675	5.000000e-01	7.541283e-05	
676	5.500000e-01	8.194675e-05	
677	6.000000e-01	8.830750e-05	
678	6.500000e-01	9.449734e-05	
679	7.000000e-01	1.005184e-04	
680	7.500000e-01	1.063729e-04	
681	8.000000e-01	1.120628e-04	
682	8.500000e-01	1.175900e-04	
683	9.000000e-01	1.229564e-04	
684	9.500000e-01	1.281638e-04	
685	1.000000e+00	1.332141e-04	
686	1.050000e+00	1.381090e-04	
687	1.100000e+00	1.428501e-04	
688	1.150000e+00	1.474393e-04	
689	1.200000e+00	1.518781e-04	
690	1.250000e+00	1.561682e-04	
691	1.300000e+00	1.603114e-04	
692	1.350000e+00	1.643094e-04	

Index   v-sweep         -i(vds)         
--------------------------------------------------------------------------------
693	1.400000e+00	1.681638e-04	
694	1.450000e+00	1.718765e-04	
695	1.500000e+00	1.754493e-04	
696	1.550000e+00	1.788839e-04	
697	1.600000e+00	1.821820e-04	
698	1.650000e+00	1.853456e-04	
699	1.700000e+00	1.883763e-04	
700	1.750000e+00	1.912758e-04	
701	1.800000e+00	1.940453e-04	
702	1.850000e+00	1.966862e-04	
703	1.900000e+00	1.991990e-04	
704	1.950000e+00	2.015837e-04	
705	2.000000e+00	2.038393e-04	
706	2.050000e+00	2.059631e-04	
707	2.100000e+00	2.079511e-04	
708	2.150000e+00	2.097978e-04	
709	2.200000e+00	2.114975e-04	
710	2.250000e+00	2.130469e-04	
711	2.300000e+00	2.144469e-04	
712	2.350000e+00	2.157046e-04	
713	2.400000e+00	2.168321e-04	
714	2.450000e+00	2.178440e-04	
715	2.500000e+00	2.187556e-04	
716	2.550000e+00	2.195812e-04	
717	2.600000e+00	2.203333e-04	
718	2.650000e+00	2.210224e-04	
719	2.700000e+00	2.216574e-04	
720	2.750000e+00	2.222458e-04	
721	2.800000e+00	2.227937e-04	
722	2.850000e+00	2.233060e-04	
723	2.900000e+00	2.237872e-04	
724	2.950000e+00	2.242408e-04	
725	3.000000e+00	2.246698e-04	
726	3.050000e+00	2.250767e-04	
727	3.100000e+00	2.254638e-04	
728	3.150000e+00	2.258331e-04	
729	3.200000e+00	2.261860e-04	
730	3.250000e+00	2.265241e-04	
731	3.300000e+00	2.268487e-04	
732	3.350000e+00	2.271608e-04	
733	3.400000e+00	2.274614e-04	
734	3.450000e+00	2.277514e-04	
735	3.500000e+00	2.280316e-04	
736	3.550000e+00	2.283026e-04	
737	3.600000e+00	2.285652e-04	
738	3.650000e+00	2.288198e-04	
739	3.700000e+00	2.290669e-04	
740	3.750000e+00	2.293071e-04	
741	3.800000e+00	2.295408e-04	
742	3.850000e+00	2.297683e-04	
743	3.900000e+00	2.299900e-04	
744	3.950000e+00	2.302062e-04	
745	4.000000e+00	2.304172e-04	
746	4.050000e+00	2.306233e-04	
747	4.100000e+00	2.308248e-04	
748	4.150000e+00	2.310218e-04	
749	4.200000e+00	2.312147e-04	
750	4.250000e+00	2.314035e-04	

Index   v-sweep         -i(vds)         
--------------------------------------------------------------------------------
751	4.300000e+00	2.315886e-04	
752	4.350000e+00	2.317701e-04	
753	4.400000e+00	2.319481e-04	
754	4.450000e+00	2.321229e-04	
755	4.500000e+00	2.322945e-04	
756	4.550000e+00	2.324633e-04	
757	4.600000e+00	2.326293e-04	
758	4.650000e+00	2.327927e-04	
759	4.700000e+00	2.329537e-04	
760	4.750000e+00	2.331124e-04	
761	4.800000e+00	2.332691e-04	
762	4.850000e+00	2.334240e-04	
763	4.900000e+00	2.335773e-04	
764	4.950000e+00	2.337292e-04	
765	5.000000e+00	2.338800e-04	
766	5.050000e+00	2.340299e-04	
767	5.100000e+00	2.341794e-04	
768	5.150000e+00	2.343288e-04	
769	5.200000e+00	2.344784e-04	
770	5.250000e+00	2.346287e-04	
771	5.300000e+00	2.347802e-04	
772	5.350000e+00	2.349333e-04	
773	5.400000e+00	2.350887e-04	
774	5.450000e+00	2.352471e-04	
775	5.500000e+00	2.354090e-04	
776	5.550000e+00	2.355752e-04	
777	5.600000e+00	2.357466e-04	
778	5.650000e+00	2.359239e-04	
779	5.700000e+00	2.361083e-04	
780	5.750000e+00	2.363006e-04	
781	5.800000e+00	2.365020e-04	
782	5.850000e+00	2.367137e-04	
783	5.900000e+00	2.369369e-04	
784	5.950000e+00	2.371729e-04	
785	6.000000e+00	2.374231e-04	
786	6.050000e+00	2.376891e-04	
787	6.100000e+00	2.379724e-04	
788	6.150000e+00	2.382747e-04	
789	6.200000e+00	2.385977e-04	
790	6.250000e+00	2.389432e-04	
791	6.300000e+00	2.393132e-04	
792	6.350000e+00	2.397097e-04	
793	6.400000e+00	2.401347e-04	
794	6.450000e+00	2.405904e-04	
795	6.500000e+00	2.410790e-04	
796	6.550000e+00	2.416030e-04	
797	6.600000e+00	2.421645e-04	
Note: No ".plot", ".print", or ".fourier" lines; no simulations run
