
Note: Compatibility modes selected: hs

Warning: m=xx on .subckt line will override multiplier m hierarchy!


Circuit: ***************************

Doing analysis at TEMP = 25.000000 and TNOM = 25.000000


No. of Data Rows : 798
                          ***************************
                          DC transfer characteristic  Mon Jan  9 13:58:36  2023
--------------------------------------------------------------------------------
Index   v-sweep         -i(vds)         
--------------------------------------------------------------------------------
0	0.000000e+00	1.074433e-22	
1	5.000000e-02	7.622351e-07	
2	1.000000e-01	1.366311e-06	
3	1.500000e-01	1.814261e-06	
4	2.000000e-01	2.111720e-06	
5	2.500000e-01	2.275834e-06	
6	3.000000e-01	2.346783e-06	
7	3.500000e-01	2.373750e-06	
8	4.000000e-01	2.385229e-06	
9	4.500000e-01	2.391328e-06	
10	5.000000e-01	2.395288e-06	
11	5.500000e-01	2.398261e-06	
12	6.000000e-01	2.400718e-06	
13	6.500000e-01	2.402879e-06	
14	7.000000e-01	2.404855e-06	
15	7.500000e-01	2.406711e-06	
16	8.000000e-01	2.408482e-06	
17	8.500000e-01	2.410193e-06	
18	9.000000e-01	2.411859e-06	
19	9.500000e-01	2.413490e-06	
20	1.000000e+00	2.415094e-06	
21	1.050000e+00	2.416675e-06	
22	1.100000e+00	2.418239e-06	
23	1.150000e+00	2.419788e-06	
24	1.200000e+00	2.421324e-06	
25	1.250000e+00	2.422850e-06	
26	1.300000e+00	2.424367e-06	
27	1.350000e+00	2.425875e-06	
28	1.400000e+00	2.427377e-06	
29	1.450000e+00	2.428872e-06	
30	1.500000e+00	2.430362e-06	
31	1.550000e+00	2.431847e-06	
32	1.600000e+00	2.433328e-06	
33	1.650000e+00	2.434804e-06	
34	1.700000e+00	2.436277e-06	
35	1.750000e+00	2.437747e-06	
36	1.800000e+00	2.439214e-06	
37	1.850000e+00	2.440677e-06	
38	1.900000e+00	2.442139e-06	
39	1.950000e+00	2.443598e-06	
40	2.000000e+00	2.445054e-06	
41	2.050000e+00	2.446509e-06	
42	2.100000e+00	2.447962e-06	
43	2.150000e+00	2.449413e-06	
44	2.200000e+00	2.450862e-06	
45	2.250000e+00	2.452310e-06	
46	2.300000e+00	2.453757e-06	
47	2.350000e+00	2.455202e-06	
48	2.400000e+00	2.456647e-06	
49	2.450000e+00	2.458091e-06	
50	2.500000e+00	2.459534e-06	
51	2.550000e+00	2.460978e-06	
52	2.600000e+00	2.462422e-06	
53	2.650000e+00	2.463866e-06	
54	2.700000e+00	2.465312e-06	

Index   v-sweep         -i(vds)         
--------------------------------------------------------------------------------
55	2.750000e+00	2.466761e-06	
56	2.800000e+00	2.468212e-06	
57	2.850000e+00	2.469668e-06	
58	2.900000e+00	2.471129e-06	
59	2.950000e+00	2.472597e-06	
60	3.000000e+00	2.474074e-06	
61	3.050000e+00	2.475562e-06	
62	3.100000e+00	2.477063e-06	
63	3.150000e+00	2.478580e-06	
64	3.200000e+00	2.480117e-06	
65	3.250000e+00	2.481677e-06	
66	3.300000e+00	2.483263e-06	
67	3.350000e+00	2.484882e-06	
68	3.400000e+00	2.486537e-06	
69	3.450000e+00	2.488235e-06	
70	3.500000e+00	2.489982e-06	
71	3.550000e+00	2.491784e-06	
72	3.600000e+00	2.493651e-06	
73	3.650000e+00	2.495589e-06	
74	3.700000e+00	2.497609e-06	
75	3.750000e+00	2.499720e-06	
76	3.800000e+00	2.501932e-06	
77	3.850000e+00	2.504258e-06	
78	3.900000e+00	2.506710e-06	
79	3.950000e+00	2.509301e-06	
80	4.000000e+00	2.512046e-06	
81	4.050000e+00	2.514959e-06	
82	4.100000e+00	2.518056e-06	
83	4.150000e+00	2.521355e-06	
84	4.200000e+00	2.524874e-06	
85	4.250000e+00	2.528631e-06	
86	4.300000e+00	2.532646e-06	
87	4.350000e+00	2.536940e-06	
88	4.400000e+00	2.541536e-06	
89	4.450000e+00	2.546455e-06	
90	4.500000e+00	2.551722e-06	
91	4.550000e+00	2.557361e-06	
92	4.600000e+00	2.563399e-06	
93	4.650000e+00	2.569861e-06	
94	4.700000e+00	2.576775e-06	
95	4.750000e+00	2.584171e-06	
96	4.800000e+00	2.592077e-06	
97	4.850000e+00	2.600524e-06	
98	4.900000e+00	2.609543e-06	
99	4.950000e+00	2.619167e-06	
100	5.000000e+00	2.629428e-06	
101	5.050000e+00	2.640360e-06	
102	5.100000e+00	2.651998e-06	
103	5.150000e+00	2.664377e-06	
104	5.200000e+00	2.677534e-06	
105	5.250000e+00	2.691506e-06	
106	5.300000e+00	2.706330e-06	
107	5.350000e+00	2.722044e-06	
108	5.400000e+00	2.738688e-06	
109	5.450000e+00	2.756301e-06	
110	5.500000e+00	2.774924e-06	
111	5.550000e+00	2.794598e-06	
112	5.600000e+00	2.815363e-06	

Index   v-sweep         -i(vds)         
--------------------------------------------------------------------------------
113	5.650000e+00	2.837263e-06	
114	5.700000e+00	2.860338e-06	
115	5.750000e+00	2.884634e-06	
116	5.800000e+00	2.910192e-06	
117	5.850000e+00	2.937056e-06	
118	5.900000e+00	2.965272e-06	
119	5.950000e+00	2.994883e-06	
120	6.000000e+00	3.025934e-06	
121	6.050000e+00	3.058471e-06	
122	6.100000e+00	3.092539e-06	
123	6.150000e+00	3.128184e-06	
124	6.200000e+00	3.165452e-06	
125	6.250000e+00	3.204388e-06	
126	6.300000e+00	3.245041e-06	
127	6.350000e+00	3.287455e-06	
128	6.400000e+00	3.331678e-06	
129	6.450000e+00	3.377756e-06	
130	6.500000e+00	3.425737e-06	
131	6.550000e+00	3.475667e-06	
132	6.600000e+00	3.527594e-06	
133	0.000000e+00	2.123053e-31	
134	5.000000e-02	3.263320e-06	
135	1.000000e-01	6.360860e-06	
136	1.500000e-01	9.292987e-06	
137	2.000000e-01	1.206007e-05	
138	2.500000e-01	1.466247e-05	
139	3.000000e-01	1.710057e-05	
140	3.500000e-01	1.937474e-05	
141	4.000000e-01	2.148539e-05	
142	4.500000e-01	2.343290e-05	
143	5.000000e-01	2.521773e-05	
144	5.500000e-01	2.684033e-05	
145	6.000000e-01	2.830124e-05	
146	6.500000e-01	2.960114e-05	
147	7.000000e-01	3.074086e-05	
148	7.500000e-01	3.172167e-05	
149	8.000000e-01	3.254552e-05	
150	8.500000e-01	3.321580e-05	
151	9.000000e-01	3.373863e-05	
152	9.500000e-01	3.412502e-05	
153	1.000000e+00	3.439333e-05	
154	1.050000e+00	3.456932e-05	
155	1.100000e+00	3.468125e-05	
156	1.150000e+00	3.475304e-05	
157	1.200000e+00	3.480101e-05	
158	1.250000e+00	3.483495e-05	
159	1.300000e+00	3.486041e-05	
160	1.350000e+00	3.488055e-05	
161	1.400000e+00	3.489721e-05	
162	1.450000e+00	3.491150e-05	
163	1.500000e+00	3.492410e-05	
164	1.550000e+00	3.493548e-05	
165	1.600000e+00	3.494595e-05	
166	1.650000e+00	3.495570e-05	
167	1.700000e+00	3.496490e-05	
168	1.750000e+00	3.497365e-05	
169	1.800000e+00	3.498203e-05	
170	1.850000e+00	3.499011e-05	

Index   v-sweep         -i(vds)         
--------------------------------------------------------------------------------
171	1.900000e+00	3.499795e-05	
172	1.950000e+00	3.500556e-05	
173	2.000000e+00	3.501300e-05	
174	2.050000e+00	3.502027e-05	
175	2.100000e+00	3.502741e-05	
176	2.150000e+00	3.503443e-05	
177	2.200000e+00	3.504134e-05	
178	2.250000e+00	3.504815e-05	
179	2.300000e+00	3.505488e-05	
180	2.350000e+00	3.506153e-05	
181	2.400000e+00	3.506812e-05	
182	2.450000e+00	3.507464e-05	
183	2.500000e+00	3.508110e-05	
184	2.550000e+00	3.508751e-05	
185	2.600000e+00	3.509387e-05	
186	2.650000e+00	3.510019e-05	
187	2.700000e+00	3.510647e-05	
188	2.750000e+00	3.511271e-05	
189	2.800000e+00	3.511891e-05	
190	2.850000e+00	3.512508e-05	
191	2.900000e+00	3.513122e-05	
192	2.950000e+00	3.513734e-05	
193	3.000000e+00	3.514343e-05	
194	3.050000e+00	3.514950e-05	
195	3.100000e+00	3.515554e-05	
196	3.150000e+00	3.516157e-05	
197	3.200000e+00	3.516759e-05	
198	3.250000e+00	3.517360e-05	
199	3.300000e+00	3.517961e-05	
200	3.350000e+00	3.518561e-05	
201	3.400000e+00	3.519163e-05	
202	3.450000e+00	3.519767e-05	
203	3.500000e+00	3.520374e-05	
204	3.550000e+00	3.520985e-05	
205	3.600000e+00	3.521602e-05	
206	3.650000e+00	3.522226e-05	
207	3.700000e+00	3.522861e-05	
208	3.750000e+00	3.523508e-05	
209	3.800000e+00	3.524171e-05	
210	3.850000e+00	3.524853e-05	
211	3.900000e+00	3.525558e-05	
212	3.950000e+00	3.526290e-05	
213	4.000000e+00	3.527055e-05	
214	4.050000e+00	3.527859e-05	
215	4.100000e+00	3.528707e-05	
216	4.150000e+00	3.529609e-05	
217	4.200000e+00	3.530570e-05	
218	4.250000e+00	3.531602e-05	
219	4.300000e+00	3.532712e-05	
220	4.350000e+00	3.533913e-05	
221	4.400000e+00	3.535216e-05	
222	4.450000e+00	3.536635e-05	
223	4.500000e+00	3.538182e-05	
224	4.550000e+00	3.539873e-05	
225	4.600000e+00	3.541725e-05	
226	4.650000e+00	3.543754e-05	
227	4.700000e+00	3.545980e-05	
228	4.750000e+00	3.548422e-05	

Index   v-sweep         -i(vds)         
--------------------------------------------------------------------------------
229	4.800000e+00	3.551102e-05	
230	4.850000e+00	3.554041e-05	
231	4.900000e+00	3.557264e-05	
232	4.950000e+00	3.560796e-05	
233	5.000000e+00	3.564662e-05	
234	5.050000e+00	3.568891e-05	
235	5.100000e+00	3.573512e-05	
236	5.150000e+00	3.578555e-05	
237	5.200000e+00	3.584051e-05	
238	5.250000e+00	3.590034e-05	
239	5.300000e+00	3.596537e-05	
240	5.350000e+00	3.603597e-05	
241	5.400000e+00	3.611250e-05	
242	5.450000e+00	3.619534e-05	
243	5.500000e+00	3.628489e-05	
244	5.550000e+00	3.638155e-05	
245	5.600000e+00	3.648575e-05	
246	5.650000e+00	3.659790e-05	
247	5.700000e+00	3.671846e-05	
248	5.750000e+00	3.684787e-05	
249	5.800000e+00	3.698659e-05	
250	5.850000e+00	3.713511e-05	
251	5.900000e+00	3.729391e-05	
252	5.950000e+00	3.746347e-05	
253	6.000000e+00	3.764431e-05	
254	6.050000e+00	3.783694e-05	
255	6.100000e+00	3.804187e-05	
256	6.150000e+00	3.825964e-05	
257	6.200000e+00	3.849079e-05	
258	6.250000e+00	3.873586e-05	
259	6.300000e+00	3.899540e-05	
260	6.350000e+00	3.926998e-05	
261	6.400000e+00	3.956016e-05	
262	6.450000e+00	3.986651e-05	
263	6.500000e+00	4.018961e-05	
264	6.550000e+00	4.053004e-05	
265	6.600000e+00	4.088840e-05	
266	0.000000e+00	-7.47441e-32	
267	5.000000e-02	5.386058e-06	
268	1.000000e-01	1.061744e-05	
269	1.500000e-01	1.569450e-05	
270	2.000000e-01	2.061757e-05	
271	2.500000e-01	2.538702e-05	
272	3.000000e-01	3.000316e-05	
273	3.500000e-01	3.446637e-05	
274	4.000000e-01	3.877696e-05	
275	4.500000e-01	4.293530e-05	
276	5.000000e-01	4.694171e-05	
277	5.500000e-01	5.079655e-05	
278	6.000000e-01	5.450014e-05	
279	6.500000e-01	5.805283e-05	
280	7.000000e-01	6.145497e-05	
281	7.500000e-01	6.470688e-05	
282	8.000000e-01	6.780891e-05	
283	8.500000e-01	7.076139e-05	
284	9.000000e-01	7.356468e-05	
285	9.500000e-01	7.621912e-05	
286	1.000000e+00	7.872505e-05	

Index   v-sweep         -i(vds)         
--------------------------------------------------------------------------------
287	1.050000e+00	8.108282e-05	
288	1.100000e+00	8.329280e-05	
289	1.150000e+00	8.535536e-05	
290	1.200000e+00	8.727089e-05	
291	1.250000e+00	8.903982e-05	
292	1.300000e+00	9.066262e-05	
293	1.350000e+00	9.213985e-05	
294	1.400000e+00	9.347218e-05	
295	1.450000e+00	9.466052e-05	
296	1.500000e+00	9.570615e-05	
297	1.550000e+00	9.661099e-05	
298	1.600000e+00	9.737807e-05	
299	1.650000e+00	9.801226e-05	
300	1.700000e+00	9.852131e-05	
301	1.750000e+00	9.891688e-05	
302	1.800000e+00	9.921495e-05	
303	1.850000e+00	9.943449e-05	
304	1.900000e+00	9.959479e-05	
305	1.950000e+00	9.971271e-05	
306	2.000000e+00	9.980121e-05	
307	2.050000e+00	9.986951e-05	
308	2.100000e+00	9.992385e-05	
309	2.150000e+00	9.996838e-05	
310	2.200000e+00	1.000059e-04	
311	2.250000e+00	1.000382e-04	
312	2.300000e+00	1.000667e-04	
313	2.350000e+00	1.000922e-04	
314	2.400000e+00	1.001153e-04	
315	2.450000e+00	1.001367e-04	
316	2.500000e+00	1.001565e-04	
317	2.550000e+00	1.001751e-04	
318	2.600000e+00	1.001928e-04	
319	2.650000e+00	1.002095e-04	
320	2.700000e+00	1.002256e-04	
321	2.750000e+00	1.002410e-04	
322	2.800000e+00	1.002559e-04	
323	2.850000e+00	1.002703e-04	
324	2.900000e+00	1.002843e-04	
325	2.950000e+00	1.002980e-04	
326	3.000000e+00	1.003113e-04	
327	3.050000e+00	1.003243e-04	
328	3.100000e+00	1.003371e-04	
329	3.150000e+00	1.003497e-04	
330	3.200000e+00	1.003620e-04	
331	3.250000e+00	1.003742e-04	
332	3.300000e+00	1.003862e-04	
333	3.350000e+00	1.003980e-04	
334	3.400000e+00	1.004097e-04	
335	3.450000e+00	1.004212e-04	
336	3.500000e+00	1.004326e-04	
337	3.550000e+00	1.004439e-04	
338	3.600000e+00	1.004551e-04	
339	3.650000e+00	1.004662e-04	
340	3.700000e+00	1.004772e-04	
341	3.750000e+00	1.004881e-04	
342	3.800000e+00	1.004990e-04	
343	3.850000e+00	1.005098e-04	
344	3.900000e+00	1.005205e-04	

Index   v-sweep         -i(vds)         
--------------------------------------------------------------------------------
345	3.950000e+00	1.005312e-04	
346	4.000000e+00	1.005418e-04	
347	4.050000e+00	1.005524e-04	
348	4.100000e+00	1.005630e-04	
349	4.150000e+00	1.005736e-04	
350	4.200000e+00	1.005843e-04	
351	4.250000e+00	1.005950e-04	
352	4.300000e+00	1.006059e-04	
353	4.350000e+00	1.006168e-04	
354	4.400000e+00	1.006280e-04	
355	4.450000e+00	1.006394e-04	
356	4.500000e+00	1.006511e-04	
357	4.550000e+00	1.006633e-04	
358	4.600000e+00	1.006759e-04	
359	4.650000e+00	1.006891e-04	
360	4.700000e+00	1.007030e-04	
361	4.750000e+00	1.007178e-04	
362	4.800000e+00	1.007336e-04	
363	4.850000e+00	1.007507e-04	
364	4.900000e+00	1.007690e-04	
365	4.950000e+00	1.007891e-04	
366	5.000000e+00	1.008109e-04	
367	5.050000e+00	1.008349e-04	
368	5.100000e+00	1.008613e-04	
369	5.150000e+00	1.008905e-04	
370	5.200000e+00	1.009227e-04	
371	5.250000e+00	1.009584e-04	
372	5.300000e+00	1.009980e-04	
373	5.350000e+00	1.010420e-04	
374	5.400000e+00	1.010908e-04	
375	5.450000e+00	1.011449e-04	
376	5.500000e+00	1.012049e-04	
377	5.550000e+00	1.012713e-04	
378	5.600000e+00	1.013448e-04	
379	5.650000e+00	1.014261e-04	
380	5.700000e+00	1.015158e-04	
381	5.750000e+00	1.016147e-04	
382	5.800000e+00	1.017235e-04	
383	5.850000e+00	1.018430e-04	
384	5.900000e+00	1.019742e-04	
385	5.950000e+00	1.021177e-04	
386	6.000000e+00	1.022747e-04	
387	6.050000e+00	1.024460e-04	
388	6.100000e+00	1.026326e-04	
389	6.150000e+00	1.028356e-04	
390	6.200000e+00	1.030559e-04	
391	6.250000e+00	1.032948e-04	
392	6.300000e+00	1.035534e-04	
393	6.350000e+00	1.038327e-04	
394	6.400000e+00	1.041341e-04	
395	6.450000e+00	1.044587e-04	
396	6.500000e+00	1.048079e-04	
397	6.550000e+00	1.051829e-04	
398	6.600000e+00	1.055850e-04	
399	0.000000e+00	-8.49837e-30	
400	5.000000e-02	7.081587e-06	
401	1.000000e-01	1.402268e-05	
402	1.500000e-01	2.082359e-05	

Index   v-sweep         -i(vds)         
--------------------------------------------------------------------------------
403	2.000000e-01	2.748462e-05	
404	2.500000e-01	3.400607e-05	
405	3.000000e-01	4.038824e-05	
406	3.500000e-01	4.663145e-05	
407	4.000000e-01	5.273598e-05	
408	4.500000e-01	5.870214e-05	
409	5.000000e-01	6.453023e-05	
410	5.500000e-01	7.022055e-05	
411	6.000000e-01	7.577339e-05	
412	6.500000e-01	8.118906e-05	
413	7.000000e-01	8.646785e-05	
414	7.500000e-01	9.161005e-05	
415	8.000000e-01	9.661597e-05	
416	8.500000e-01	1.014859e-04	
417	9.000000e-01	1.062201e-04	
418	9.500000e-01	1.108189e-04	
419	1.000000e+00	1.152826e-04	
420	1.050000e+00	1.196115e-04	
421	1.100000e+00	1.238058e-04	
422	1.150000e+00	1.278658e-04	
423	1.200000e+00	1.317919e-04	
424	1.250000e+00	1.355844e-04	
425	1.300000e+00	1.392434e-04	
426	1.350000e+00	1.427693e-04	
427	1.400000e+00	1.461625e-04	
428	1.450000e+00	1.494230e-04	
429	1.500000e+00	1.525514e-04	
430	1.550000e+00	1.555477e-04	
431	1.600000e+00	1.584124e-04	
432	1.650000e+00	1.611456e-04	
433	1.700000e+00	1.637477e-04	
434	1.750000e+00	1.662190e-04	
435	1.800000e+00	1.685597e-04	
436	1.850000e+00	1.707701e-04	
437	1.900000e+00	1.728505e-04	
438	1.950000e+00	1.748012e-04	
439	2.000000e+00	1.766225e-04	
440	2.050000e+00	1.783148e-04	
441	2.100000e+00	1.798785e-04	
442	2.150000e+00	1.813140e-04	
443	2.200000e+00	1.826218e-04	
444	2.250000e+00	1.838028e-04	
445	2.300000e+00	1.848579e-04	
446	2.350000e+00	1.857890e-04	
447	2.400000e+00	1.865983e-04	
448	2.450000e+00	1.872897e-04	
449	2.500000e+00	1.878689e-04	
450	2.550000e+00	1.883442e-04	
451	2.600000e+00	1.887265e-04	
452	2.650000e+00	1.890293e-04	
453	2.700000e+00	1.892669e-04	
454	2.750000e+00	1.894532e-04	
455	2.800000e+00	1.896004e-04	
456	2.850000e+00	1.897184e-04	
457	2.900000e+00	1.898145e-04	
458	2.950000e+00	1.898944e-04	
459	3.000000e+00	1.899620e-04	
460	3.050000e+00	1.900203e-04	

Index   v-sweep         -i(vds)         
--------------------------------------------------------------------------------
461	3.100000e+00	1.900713e-04	
462	3.150000e+00	1.901167e-04	
463	3.200000e+00	1.901576e-04	
464	3.250000e+00	1.901948e-04	
465	3.300000e+00	1.902290e-04	
466	3.350000e+00	1.902608e-04	
467	3.400000e+00	1.902905e-04	
468	3.450000e+00	1.903185e-04	
469	3.500000e+00	1.903450e-04	
470	3.550000e+00	1.903702e-04	
471	3.600000e+00	1.903944e-04	
472	3.650000e+00	1.904175e-04	
473	3.700000e+00	1.904398e-04	
474	3.750000e+00	1.904614e-04	
475	3.800000e+00	1.904823e-04	
476	3.850000e+00	1.905026e-04	
477	3.900000e+00	1.905223e-04	
478	3.950000e+00	1.905416e-04	
479	4.000000e+00	1.905605e-04	
480	4.050000e+00	1.905789e-04	
481	4.100000e+00	1.905970e-04	
482	4.150000e+00	1.906148e-04	
483	4.200000e+00	1.906322e-04	
484	4.250000e+00	1.906494e-04	
485	4.300000e+00	1.906663e-04	
486	4.350000e+00	1.906830e-04	
487	4.400000e+00	1.906995e-04	
488	4.450000e+00	1.907157e-04	
489	4.500000e+00	1.907318e-04	
490	4.550000e+00	1.907477e-04	
491	4.600000e+00	1.907634e-04	
492	4.650000e+00	1.907790e-04	
493	4.700000e+00	1.907945e-04	
494	4.750000e+00	1.908099e-04	
495	4.800000e+00	1.908251e-04	
496	4.850000e+00	1.908404e-04	
497	4.900000e+00	1.908556e-04	
498	4.950000e+00	1.908708e-04	
499	5.000000e+00	1.908861e-04	
500	5.050000e+00	1.909014e-04	
501	5.100000e+00	1.909170e-04	
502	5.150000e+00	1.909328e-04	
503	5.200000e+00	1.909489e-04	
504	5.250000e+00	1.909655e-04	
505	5.300000e+00	1.909826e-04	
506	5.350000e+00	1.910005e-04	
507	5.400000e+00	1.910193e-04	
508	5.450000e+00	1.910391e-04	
509	5.500000e+00	1.910602e-04	
510	5.550000e+00	1.910829e-04	
511	5.600000e+00	1.911075e-04	
512	5.650000e+00	1.911342e-04	
513	5.700000e+00	1.911635e-04	
514	5.750000e+00	1.911958e-04	
515	5.800000e+00	1.912314e-04	
516	5.850000e+00	1.912709e-04	
517	5.900000e+00	1.913149e-04	
518	5.950000e+00	1.913640e-04	

Index   v-sweep         -i(vds)         
--------------------------------------------------------------------------------
519	6.000000e+00	1.914187e-04	
520	6.050000e+00	1.914799e-04	
521	6.100000e+00	1.915483e-04	
522	6.150000e+00	1.916247e-04	
523	6.200000e+00	1.917100e-04	
524	6.250000e+00	1.918051e-04	
525	6.300000e+00	1.919112e-04	
526	6.350000e+00	1.920292e-04	
527	6.400000e+00	1.921604e-04	
528	6.450000e+00	1.923059e-04	
529	6.500000e+00	1.924671e-04	
530	6.550000e+00	1.926454e-04	
531	6.600000e+00	1.928421e-04	
532	0.000000e+00	8.154775e-20	
533	5.000000e-02	8.360483e-06	
534	1.000000e-01	1.659556e-05	
535	1.500000e-01	2.470550e-05	
536	2.000000e-01	3.269055e-05	
537	2.500000e-01	4.055096e-05	
538	3.000000e-01	4.828699e-05	
539	3.500000e-01	5.589889e-05	
540	4.000000e-01	6.338692e-05	
541	4.500000e-01	7.075132e-05	
542	5.000000e-01	7.799236e-05	
543	5.500000e-01	8.511027e-05	
544	6.000000e-01	9.210531e-05	
545	6.500000e-01	9.897774e-05	
546	7.000000e-01	1.057278e-04	
547	7.500000e-01	1.123557e-04	
548	8.000000e-01	1.188618e-04	
549	8.500000e-01	1.252462e-04	
550	9.000000e-01	1.315092e-04	
551	9.500000e-01	1.376511e-04	
552	1.000000e+00	1.436722e-04	
553	1.050000e+00	1.495725e-04	
554	1.100000e+00	1.553525e-04	
555	1.150000e+00	1.610123e-04	
556	1.200000e+00	1.665522e-04	
557	1.250000e+00	1.719724e-04	
558	1.300000e+00	1.772732e-04	
559	1.350000e+00	1.824548e-04	
560	1.400000e+00	1.875174e-04	
561	1.450000e+00	1.924613e-04	
562	1.500000e+00	1.972868e-04	
563	1.550000e+00	2.019940e-04	
564	1.600000e+00	2.065832e-04	
565	1.650000e+00	2.110546e-04	
566	1.700000e+00	2.154085e-04	
567	1.750000e+00	2.196451e-04	
568	1.800000e+00	2.237646e-04	
569	1.850000e+00	2.277673e-04	
570	1.900000e+00	2.316534e-04	
571	1.950000e+00	2.354231e-04	
572	2.000000e+00	2.390767e-04	
573	2.050000e+00	2.426143e-04	
574	2.100000e+00	2.460363e-04	
575	2.150000e+00	2.493428e-04	
576	2.200000e+00	2.525340e-04	

Index   v-sweep         -i(vds)         
--------------------------------------------------------------------------------
577	2.250000e+00	2.556102e-04	
578	2.300000e+00	2.585717e-04	
579	2.350000e+00	2.614185e-04	
580	2.400000e+00	2.641510e-04	
581	2.450000e+00	2.667693e-04	
582	2.500000e+00	2.692736e-04	
583	2.550000e+00	2.716642e-04	
584	2.600000e+00	2.739413e-04	
585	2.650000e+00	2.761050e-04	
586	2.700000e+00	2.781556e-04	
587	2.750000e+00	2.800933e-04	
588	2.800000e+00	2.819182e-04	
589	2.850000e+00	2.836306e-04	
590	2.900000e+00	2.852307e-04	
591	2.950000e+00	2.867188e-04	
592	3.000000e+00	2.880951e-04	
593	3.050000e+00	2.893600e-04	
594	3.100000e+00	2.905142e-04	
595	3.150000e+00	2.915584e-04	
596	3.200000e+00	2.924937e-04	
597	3.250000e+00	2.933222e-04	
598	3.300000e+00	2.940465e-04	
599	3.350000e+00	2.946708e-04	
600	3.400000e+00	2.952012e-04	
601	3.450000e+00	2.956453e-04	
602	3.500000e+00	2.960128e-04	
603	3.550000e+00	2.963146e-04	
604	3.600000e+00	2.965615e-04	
605	3.650000e+00	2.967641e-04	
606	3.700000e+00	2.969314e-04	
607	3.750000e+00	2.970709e-04	
608	3.800000e+00	2.971888e-04	
609	3.850000e+00	2.972896e-04	
610	3.900000e+00	2.973771e-04	
611	3.950000e+00	2.974538e-04	
612	4.000000e+00	2.975220e-04	
613	4.050000e+00	2.975833e-04	
614	4.100000e+00	2.976389e-04	
615	4.150000e+00	2.976898e-04	
616	4.200000e+00	2.977368e-04	
617	4.250000e+00	2.977804e-04	
618	4.300000e+00	2.978213e-04	
619	4.350000e+00	2.978597e-04	
620	4.400000e+00	2.978961e-04	
621	4.450000e+00	2.979306e-04	
622	4.500000e+00	2.979636e-04	
623	4.550000e+00	2.979952e-04	
624	4.600000e+00	2.980255e-04	
625	4.650000e+00	2.980547e-04	
626	4.700000e+00	2.980830e-04	
627	4.750000e+00	2.981103e-04	
628	4.800000e+00	2.981369e-04	
629	4.850000e+00	2.981627e-04	
630	4.900000e+00	2.981879e-04	
631	4.950000e+00	2.982125e-04	
632	5.000000e+00	2.982365e-04	
633	5.050000e+00	2.982601e-04	
634	5.100000e+00	2.982831e-04	

Index   v-sweep         -i(vds)         
--------------------------------------------------------------------------------
635	5.150000e+00	2.983058e-04	
636	5.200000e+00	2.983280e-04	
637	5.250000e+00	2.983499e-04	
638	5.300000e+00	2.983714e-04	
639	5.350000e+00	2.983926e-04	
640	5.400000e+00	2.984136e-04	
641	5.450000e+00	2.984343e-04	
642	5.500000e+00	2.984547e-04	
643	5.550000e+00	2.984749e-04	
644	5.600000e+00	2.984950e-04	
645	5.650000e+00	2.985149e-04	
646	5.700000e+00	2.985347e-04	
647	5.750000e+00	2.985545e-04	
648	5.800000e+00	2.985742e-04	
649	5.850000e+00	2.985940e-04	
650	5.900000e+00	2.986140e-04	
651	5.950000e+00	2.986342e-04	
652	6.000000e+00	2.986548e-04	
653	6.050000e+00	2.986758e-04	
654	6.100000e+00	2.986976e-04	
655	6.150000e+00	2.987202e-04	
656	6.200000e+00	2.987438e-04	
657	6.250000e+00	2.987688e-04	
658	6.300000e+00	2.987955e-04	
659	6.350000e+00	2.988241e-04	
660	6.400000e+00	2.988551e-04	
661	6.450000e+00	2.988889e-04	
662	6.500000e+00	2.989260e-04	
663	6.550000e+00	2.989670e-04	
664	6.600000e+00	2.990125e-04	
665	0.000000e+00	1.461261e-30	
666	5.000000e-02	9.269907e-06	
667	1.000000e-01	1.842926e-05	
668	1.500000e-01	2.747828e-05	
669	2.000000e-01	3.641715e-05	
670	2.500000e-01	4.524610e-05	
671	3.000000e-01	5.396533e-05	
672	3.500000e-01	6.257505e-05	
673	4.000000e-01	7.107545e-05	
674	4.500000e-01	7.946675e-05	
675	5.000000e-01	8.774915e-05	
676	5.500000e-01	9.592286e-05	
677	6.000000e-01	1.039881e-04	
678	6.500000e-01	1.119450e-04	
679	7.000000e-01	1.197938e-04	
680	7.500000e-01	1.275348e-04	
681	8.000000e-01	1.351681e-04	
682	8.500000e-01	1.426939e-04	
683	9.000000e-01	1.501124e-04	
684	9.500000e-01	1.574239e-04	
685	1.000000e+00	1.646284e-04	
686	1.050000e+00	1.717263e-04	
687	1.100000e+00	1.787177e-04	
688	1.150000e+00	1.856029e-04	
689	1.200000e+00	1.923819e-04	
690	1.250000e+00	1.990551e-04	
691	1.300000e+00	2.056226e-04	
692	1.350000e+00	2.120846e-04	

Index   v-sweep         -i(vds)         
--------------------------------------------------------------------------------
693	1.400000e+00	2.184413e-04	
694	1.450000e+00	2.246929e-04	
695	1.500000e+00	2.308396e-04	
696	1.550000e+00	2.368816e-04	
697	1.600000e+00	2.428191e-04	
698	1.650000e+00	2.486523e-04	
699	1.700000e+00	2.543813e-04	
700	1.750000e+00	2.600064e-04	
701	1.800000e+00	2.655278e-04	
702	1.850000e+00	2.709456e-04	
703	1.900000e+00	2.762601e-04	
704	1.950000e+00	2.814714e-04	
705	2.000000e+00	2.865797e-04	
706	2.050000e+00	2.915853e-04	
707	2.100000e+00	2.964882e-04	
708	2.150000e+00	3.012888e-04	
709	2.200000e+00	3.059871e-04	
710	2.250000e+00	3.105834e-04	
711	2.300000e+00	3.150778e-04	
712	2.350000e+00	3.194706e-04	
713	2.400000e+00	3.237619e-04	
714	2.450000e+00	3.279519e-04	
715	2.500000e+00	3.320408e-04	
716	2.550000e+00	3.360288e-04	
717	2.600000e+00	3.399160e-04	
718	2.650000e+00	3.437027e-04	
719	2.700000e+00	3.473889e-04	
720	2.750000e+00	3.509750e-04	
721	2.800000e+00	3.544610e-04	
722	2.850000e+00	3.578472e-04	
723	2.900000e+00	3.611337e-04	
724	2.950000e+00	3.643207e-04	
725	3.000000e+00	3.674084e-04	
726	3.050000e+00	3.703968e-04	
727	3.100000e+00	3.732863e-04	
728	3.150000e+00	3.760769e-04	
729	3.200000e+00	3.787688e-04	
730	3.250000e+00	3.813622e-04	
731	3.300000e+00	3.838573e-04	
732	3.350000e+00	3.862540e-04	
733	3.400000e+00	3.885527e-04	
734	3.450000e+00	3.907535e-04	
735	3.500000e+00	3.928564e-04	
736	3.550000e+00	3.948616e-04	
737	3.600000e+00	3.967692e-04	
738	3.650000e+00	3.985794e-04	
739	3.700000e+00	4.002921e-04	
740	3.750000e+00	4.019076e-04	
741	3.800000e+00	4.034260e-04	
742	3.850000e+00	4.048472e-04	
743	3.900000e+00	4.061716e-04	
744	3.950000e+00	4.073993e-04	
745	4.000000e+00	4.085305e-04	
746	4.050000e+00	4.095659e-04	
747	4.100000e+00	4.105060e-04	
748	4.150000e+00	4.113522e-04	
749	4.200000e+00	4.121064e-04	
750	4.250000e+00	4.127714e-04	

Index   v-sweep         -i(vds)         
--------------------------------------------------------------------------------
751	4.300000e+00	4.133512e-04	
752	4.350000e+00	4.138512e-04	
753	4.400000e+00	4.142783e-04	
754	4.450000e+00	4.146403e-04	
755	4.500000e+00	4.149459e-04	
756	4.550000e+00	4.152037e-04	
757	4.600000e+00	4.154216e-04	
758	4.650000e+00	4.156068e-04	
759	4.700000e+00	4.157655e-04	
760	4.750000e+00	4.159026e-04	
761	4.800000e+00	4.160223e-04	
762	4.850000e+00	4.161277e-04	
763	4.900000e+00	4.162215e-04	
764	4.950000e+00	4.163058e-04	
765	5.000000e+00	4.163821e-04	
766	5.050000e+00	4.164518e-04	
767	5.100000e+00	4.165159e-04	
768	5.150000e+00	4.165752e-04	
769	5.200000e+00	4.166305e-04	
770	5.250000e+00	4.166823e-04	
771	5.300000e+00	4.167310e-04	
772	5.350000e+00	4.167771e-04	
773	5.400000e+00	4.168209e-04	
774	5.450000e+00	4.168626e-04	
775	5.500000e+00	4.169026e-04	
776	5.550000e+00	4.169409e-04	
777	5.600000e+00	4.169777e-04	
778	5.650000e+00	4.170132e-04	
779	5.700000e+00	4.170476e-04	
780	5.750000e+00	4.170809e-04	
781	5.800000e+00	4.171132e-04	
782	5.850000e+00	4.171447e-04	
783	5.900000e+00	4.171753e-04	
784	5.950000e+00	4.172052e-04	
785	6.000000e+00	4.172344e-04	
786	6.050000e+00	4.172629e-04	
787	6.100000e+00	4.172909e-04	
788	6.150000e+00	4.173184e-04	
789	6.200000e+00	4.173453e-04	
790	6.250000e+00	4.173718e-04	
791	6.300000e+00	4.173979e-04	
792	6.350000e+00	4.174235e-04	
793	6.400000e+00	4.174489e-04	
794	6.450000e+00	4.174739e-04	
795	6.500000e+00	4.174986e-04	
796	6.550000e+00	4.175231e-04	
797	6.600000e+00	4.175475e-04	
Note: No ".plot", ".print", or ".fourier" lines; no simulations run
