
Note: Compatibility modes selected: hs

Warning: m=xx on .subckt line will override multiplier m hierarchy!


Circuit: ***************************

Doing analysis at TEMP = -40.000000 and TNOM = -40.000000


No. of Data Rows : 798
                          ***************************
                          DC transfer characteristic  Mon Jan  9 13:58:36  2023
--------------------------------------------------------------------------------
Index   v-sweep         -i(vds)         
--------------------------------------------------------------------------------
0	0.000000e+00	2.402829e-36	
1	5.000000e-02	2.075598e-05	
2	1.000000e-01	3.296530e-05	
3	1.500000e-01	3.864959e-05	
4	2.000000e-01	4.126799e-05	
5	2.500000e-01	4.290784e-05	
6	3.000000e-01	4.416676e-05	
7	3.500000e-01	4.522356e-05	
8	4.000000e-01	4.615249e-05	
9	4.500000e-01	4.699227e-05	
10	5.000000e-01	4.776604e-05	
11	5.500000e-01	4.848890e-05	
12	6.000000e-01	4.917126e-05	
13	6.500000e-01	4.982066e-05	
14	7.000000e-01	5.044271e-05	
15	7.500000e-01	5.104173e-05	
16	8.000000e-01	5.162109e-05	
17	8.500000e-01	5.218349e-05	
18	9.000000e-01	5.273113e-05	
19	9.500000e-01	5.326581e-05	
20	1.000000e+00	5.378902e-05	
21	1.050000e+00	5.430202e-05	
22	1.100000e+00	5.480588e-05	
23	1.150000e+00	5.530152e-05	
24	1.200000e+00	5.578972e-05	
25	1.250000e+00	5.627118e-05	
26	1.300000e+00	5.674648e-05	
27	1.350000e+00	5.721615e-05	
28	1.400000e+00	5.768067e-05	
29	1.450000e+00	5.814043e-05	
30	1.500000e+00	5.859581e-05	
31	1.550000e+00	5.904712e-05	
32	1.600000e+00	5.949468e-05	
33	1.650000e+00	5.993874e-05	
34	1.700000e+00	6.037954e-05	
35	1.750000e+00	6.081730e-05	
36	1.800000e+00	6.125221e-05	
37	1.850000e+00	6.168447e-05	
38	1.900000e+00	6.211423e-05	
39	1.950000e+00	6.254164e-05	
40	2.000000e+00	6.296684e-05	
41	2.050000e+00	6.338997e-05	
42	2.100000e+00	6.381114e-05	
43	2.150000e+00	6.423046e-05	
44	2.200000e+00	6.464804e-05	
45	2.250000e+00	6.506396e-05	
46	2.300000e+00	6.547833e-05	
47	2.350000e+00	6.589122e-05	
48	2.400000e+00	6.630273e-05	
49	2.450000e+00	6.671293e-05	
50	2.500000e+00	6.712189e-05	
51	2.550000e+00	6.752970e-05	
52	2.600000e+00	6.793644e-05	
53	2.650000e+00	6.834217e-05	
54	2.700000e+00	6.874698e-05	

Index   v-sweep         -i(vds)         
--------------------------------------------------------------------------------
55	2.750000e+00	6.915095e-05	
56	2.800000e+00	6.955417e-05	
57	2.850000e+00	6.995673e-05	
58	2.900000e+00	7.035873e-05	
59	2.950000e+00	7.076027e-05	
60	3.000000e+00	7.116148e-05	
61	3.050000e+00	7.156248e-05	
62	3.100000e+00	7.196341e-05	
63	3.150000e+00	7.236441e-05	
64	3.200000e+00	7.276567e-05	
65	3.250000e+00	7.316736e-05	
66	3.300000e+00	7.356968e-05	
67	3.350000e+00	7.397286e-05	
68	3.400000e+00	7.437713e-05	
69	3.450000e+00	7.478277e-05	
70	3.500000e+00	7.519006e-05	
71	3.550000e+00	7.559932e-05	
72	3.600000e+00	7.601089e-05	
73	3.650000e+00	7.642514e-05	
74	3.700000e+00	7.684246e-05	
75	3.750000e+00	7.726329e-05	
76	3.800000e+00	7.768809e-05	
77	3.850000e+00	7.811735e-05	
78	3.900000e+00	7.855162e-05	
79	3.950000e+00	7.899145e-05	
80	4.000000e+00	7.943744e-05	
81	4.050000e+00	7.989025e-05	
82	4.100000e+00	8.035054e-05	
83	4.150000e+00	8.081905e-05	
84	4.200000e+00	8.129652e-05	
85	4.250000e+00	8.178377e-05	
86	4.300000e+00	8.228163e-05	
87	4.350000e+00	8.279099e-05	
88	4.400000e+00	8.331279e-05	
89	4.450000e+00	8.384799e-05	
90	4.500000e+00	8.439760e-05	
91	4.550000e+00	8.496270e-05	
92	4.600000e+00	8.554437e-05	
93	4.650000e+00	8.614378e-05	
94	4.700000e+00	8.676211e-05	
95	4.750000e+00	8.740061e-05	
96	4.800000e+00	8.806054e-05	
97	4.850000e+00	8.874325e-05	
98	4.900000e+00	8.945009e-05	
99	4.950000e+00	9.018249e-05	
100	5.000000e+00	9.094190e-05	
101	5.050000e+00	9.172983e-05	
102	5.100000e+00	9.254781e-05	
103	5.150000e+00	9.339743e-05	
104	5.200000e+00	9.428033e-05	
105	5.250000e+00	9.519817e-05	
106	5.300000e+00	9.615267e-05	
107	5.350000e+00	9.714557e-05	
108	5.400000e+00	9.817868e-05	
109	5.450000e+00	9.925381e-05	
110	5.500000e+00	1.003728e-04	
111	5.550000e+00	1.015377e-04	
112	5.600000e+00	1.027503e-04	

Index   v-sweep         -i(vds)         
--------------------------------------------------------------------------------
113	5.650000e+00	1.040126e-04	
114	5.700000e+00	1.053267e-04	
115	5.750000e+00	1.066946e-04	
116	5.800000e+00	1.081184e-04	
117	5.850000e+00	1.096001e-04	
118	5.900000e+00	1.111421e-04	
119	5.950000e+00	1.127463e-04	
120	6.000000e+00	1.144151e-04	
121	6.050000e+00	1.161508e-04	
122	6.100000e+00	1.179554e-04	
123	6.150000e+00	1.198315e-04	
124	6.200000e+00	1.217812e-04	
125	6.250000e+00	1.238070e-04	
126	6.300000e+00	1.259112e-04	
127	6.350000e+00	1.280962e-04	
128	6.400000e+00	1.303644e-04	
129	6.450000e+00	1.327184e-04	
130	6.500000e+00	1.351605e-04	
131	6.550000e+00	1.376932e-04	
132	6.600000e+00	1.403191e-04	
133	0.000000e+00	-8.14247e-20	
134	5.000000e-02	1.166039e-04	
135	1.000000e-01	2.230280e-04	
136	1.500000e-01	3.196349e-04	
137	2.000000e-01	4.067733e-04	
138	2.500000e-01	4.847768e-04	
139	3.000000e-01	5.539629e-04	
140	3.500000e-01	6.146309e-04	
141	4.000000e-01	6.670560e-04	
142	4.500000e-01	7.114804e-04	
143	5.000000e-01	7.481147e-04	
144	5.500000e-01	7.772267e-04	
145	6.000000e-01	7.994408e-04	
146	6.500000e-01	8.160089e-04	
147	7.000000e-01	8.284920e-04	
148	7.500000e-01	8.382057e-04	
149	8.000000e-01	8.460474e-04	
150	8.500000e-01	8.525873e-04	
151	9.000000e-01	8.581880e-04	
152	9.500000e-01	8.630871e-04	
153	1.000000e+00	8.674457e-04	
154	1.050000e+00	8.713768e-04	
155	1.100000e+00	8.749623e-04	
156	1.150000e+00	8.782632e-04	
157	1.200000e+00	8.813259e-04	
158	1.250000e+00	8.841865e-04	
159	1.300000e+00	8.868736e-04	
160	1.350000e+00	8.894103e-04	
161	1.400000e+00	8.918153e-04	
162	1.450000e+00	8.941042e-04	
163	1.500000e+00	8.962898e-04	
164	1.550000e+00	8.983831e-04	
165	1.600000e+00	9.003935e-04	
166	1.650000e+00	9.023288e-04	
167	1.700000e+00	9.041959e-04	
168	1.750000e+00	9.060009e-04	
169	1.800000e+00	9.077490e-04	
170	1.850000e+00	9.094447e-04	

Index   v-sweep         -i(vds)         
--------------------------------------------------------------------------------
171	1.900000e+00	9.110922e-04	
172	1.950000e+00	9.126950e-04	
173	2.000000e+00	9.142565e-04	
174	2.050000e+00	9.157794e-04	
175	2.100000e+00	9.172665e-04	
176	2.150000e+00	9.187200e-04	
177	2.200000e+00	9.201420e-04	
178	2.250000e+00	9.215346e-04	
179	2.300000e+00	9.228995e-04	
180	2.350000e+00	9.242382e-04	
181	2.400000e+00	9.255523e-04	
182	2.450000e+00	9.268431e-04	
183	2.500000e+00	9.281119e-04	
184	2.550000e+00	9.293599e-04	
185	2.600000e+00	9.305881e-04	
186	2.650000e+00	9.317975e-04	
187	2.700000e+00	9.329892e-04	
188	2.750000e+00	9.341639e-04	
189	2.800000e+00	9.353227e-04	
190	2.850000e+00	9.364663e-04	
191	2.900000e+00	9.375955e-04	
192	2.950000e+00	9.387111e-04	
193	3.000000e+00	9.398141e-04	
194	3.050000e+00	9.409051e-04	
195	3.100000e+00	9.419851e-04	
196	3.150000e+00	9.430550e-04	
197	3.200000e+00	9.441156e-04	
198	3.250000e+00	9.451680e-04	
199	3.300000e+00	9.462133e-04	
200	3.350000e+00	9.472527e-04	
201	3.400000e+00	9.482873e-04	
202	3.450000e+00	9.493187e-04	
203	3.500000e+00	9.503483e-04	
204	3.550000e+00	9.513778e-04	
205	3.600000e+00	9.524090e-04	
206	3.650000e+00	9.534440e-04	
207	3.700000e+00	9.544850e-04	
208	3.750000e+00	9.555344e-04	
209	3.800000e+00	9.565948e-04	
210	3.850000e+00	9.576692e-04	
211	3.900000e+00	9.587606e-04	
212	3.950000e+00	9.598724e-04	
213	4.000000e+00	9.610084e-04	
214	4.050000e+00	9.621724e-04	
215	4.100000e+00	9.633688e-04	
216	4.150000e+00	9.646021e-04	
217	4.200000e+00	9.658773e-04	
218	4.250000e+00	9.671994e-04	
219	4.300000e+00	9.685741e-04	
220	4.350000e+00	9.700074e-04	
221	4.400000e+00	9.715054e-04	
222	4.450000e+00	9.730747e-04	
223	4.500000e+00	9.747224e-04	
224	4.550000e+00	9.764558e-04	
225	4.600000e+00	9.782825e-04	
226	4.650000e+00	9.802108e-04	
227	4.700000e+00	9.822489e-04	
228	4.750000e+00	9.844058e-04	

Index   v-sweep         -i(vds)         
--------------------------------------------------------------------------------
229	4.800000e+00	9.866906e-04	
230	4.850000e+00	9.891130e-04	
231	4.900000e+00	9.916827e-04	
232	4.950000e+00	9.944102e-04	
233	5.000000e+00	9.973060e-04	
234	5.050000e+00	1.000381e-03	
235	5.100000e+00	1.003647e-03	
236	5.150000e+00	1.007115e-03	
237	5.200000e+00	1.010798e-03	
238	5.250000e+00	1.014707e-03	
239	5.300000e+00	1.018856e-03	
240	5.350000e+00	1.023258e-03	
241	5.400000e+00	1.027925e-03	
242	5.450000e+00	1.032871e-03	
243	5.500000e+00	1.038111e-03	
244	5.550000e+00	1.043657e-03	
245	5.600000e+00	1.049526e-03	
246	5.650000e+00	1.055731e-03	
247	5.700000e+00	1.062287e-03	
248	5.750000e+00	1.069209e-03	
249	5.800000e+00	1.076513e-03	
250	5.850000e+00	1.084214e-03	
251	5.900000e+00	1.092328e-03	
252	5.950000e+00	1.100871e-03	
253	6.000000e+00	1.109859e-03	
254	6.050000e+00	1.119308e-03	
255	6.100000e+00	1.129235e-03	
256	6.150000e+00	1.139656e-03	
257	6.200000e+00	1.150587e-03	
258	6.250000e+00	1.162046e-03	
259	6.300000e+00	1.174050e-03	
260	6.350000e+00	1.186614e-03	
261	6.400000e+00	1.199757e-03	
262	6.450000e+00	1.213495e-03	
263	6.500000e+00	1.227846e-03	
264	6.550000e+00	1.242826e-03	
265	6.600000e+00	1.258453e-03	
266	0.000000e+00	-2.95086e-35	
267	5.000000e-02	1.823761e-04	
268	1.000000e-01	3.543427e-04	
269	1.500000e-01	5.162327e-04	
270	2.000000e-01	6.683676e-04	
271	2.500000e-01	8.110575e-04	
272	3.000000e-01	9.446002e-04	
273	3.500000e-01	1.069281e-03	
274	4.000000e-01	1.185371e-03	
275	4.500000e-01	1.293129e-03	
276	5.000000e-01	1.392797e-03	
277	5.500000e-01	1.484598e-03	
278	6.000000e-01	1.568729e-03	
279	6.500000e-01	1.645348e-03	
280	7.000000e-01	1.714548e-03	
281	7.500000e-01	1.776323e-03	
282	8.000000e-01	1.830524e-03	
283	8.500000e-01	1.876882e-03	
284	9.000000e-01	1.915218e-03	
285	9.500000e-01	1.945880e-03	
286	1.000000e+00	1.969943e-03	

Index   v-sweep         -i(vds)         
--------------------------------------------------------------------------------
287	1.050000e+00	1.988868e-03	
288	1.100000e+00	2.004012e-03	
289	1.150000e+00	2.016419e-03	
290	1.200000e+00	2.026824e-03	
291	1.250000e+00	2.035735e-03	
292	1.300000e+00	2.043505e-03	
293	1.350000e+00	2.050382e-03	
294	1.400000e+00	2.056548e-03	
295	1.450000e+00	2.062135e-03	
296	1.500000e+00	2.067243e-03	
297	1.550000e+00	2.071949e-03	
298	1.600000e+00	2.076315e-03	
299	1.650000e+00	2.080389e-03	
300	1.700000e+00	2.084209e-03	
301	1.750000e+00	2.087807e-03	
302	1.800000e+00	2.091209e-03	
303	1.850000e+00	2.094438e-03	
304	1.900000e+00	2.097511e-03	
305	1.950000e+00	2.100446e-03	
306	2.000000e+00	2.103254e-03	
307	2.050000e+00	2.105949e-03	
308	2.100000e+00	2.108540e-03	
309	2.150000e+00	2.111035e-03	
310	2.200000e+00	2.113443e-03	
311	2.250000e+00	2.115771e-03	
312	2.300000e+00	2.118024e-03	
313	2.350000e+00	2.120208e-03	
314	2.400000e+00	2.122329e-03	
315	2.450000e+00	2.124389e-03	
316	2.500000e+00	2.126394e-03	
317	2.550000e+00	2.128347e-03	
318	2.600000e+00	2.130251e-03	
319	2.650000e+00	2.132110e-03	
320	2.700000e+00	2.133924e-03	
321	2.750000e+00	2.135699e-03	
322	2.800000e+00	2.137434e-03	
323	2.850000e+00	2.139134e-03	
324	2.900000e+00	2.140799e-03	
325	2.950000e+00	2.142431e-03	
326	3.000000e+00	2.144033e-03	
327	3.050000e+00	2.145605e-03	
328	3.100000e+00	2.147150e-03	
329	3.150000e+00	2.148669e-03	
330	3.200000e+00	2.150163e-03	
331	3.250000e+00	2.151634e-03	
332	3.300000e+00	2.153083e-03	
333	3.350000e+00	2.154512e-03	
334	3.400000e+00	2.155923e-03	
335	3.450000e+00	2.157317e-03	
336	3.500000e+00	2.158695e-03	
337	3.550000e+00	2.160061e-03	
338	3.600000e+00	2.161416e-03	
339	3.650000e+00	2.162762e-03	
340	3.700000e+00	2.164101e-03	
341	3.750000e+00	2.165438e-03	
342	3.800000e+00	2.166774e-03	
343	3.850000e+00	2.168113e-03	
344	3.900000e+00	2.169459e-03	

Index   v-sweep         -i(vds)         
--------------------------------------------------------------------------------
345	3.950000e+00	2.170816e-03	
346	4.000000e+00	2.172189e-03	
347	4.050000e+00	2.173583e-03	
348	4.100000e+00	2.175002e-03	
349	4.150000e+00	2.176454e-03	
350	4.200000e+00	2.177945e-03	
351	4.250000e+00	2.179482e-03	
352	4.300000e+00	2.181072e-03	
353	4.350000e+00	2.182725e-03	
354	4.400000e+00	2.184449e-03	
355	4.450000e+00	2.186254e-03	
356	4.500000e+00	2.188151e-03	
357	4.550000e+00	2.190150e-03	
358	4.600000e+00	2.192264e-03	
359	4.650000e+00	2.194505e-03	
360	4.700000e+00	2.196887e-03	
361	4.750000e+00	2.199424e-03	
362	4.800000e+00	2.202131e-03	
363	4.850000e+00	2.205023e-03	
364	4.900000e+00	2.208118e-03	
365	4.950000e+00	2.211432e-03	
366	5.000000e+00	2.214984e-03	
367	5.050000e+00	2.218793e-03	
368	5.100000e+00	2.222879e-03	
369	5.150000e+00	2.227262e-03	
370	5.200000e+00	2.231964e-03	
371	5.250000e+00	2.237007e-03	
372	5.300000e+00	2.242413e-03	
373	5.350000e+00	2.248206e-03	
374	5.400000e+00	2.254412e-03	
375	5.450000e+00	2.261054e-03	
376	5.500000e+00	2.268159e-03	
377	5.550000e+00	2.275753e-03	
378	5.600000e+00	2.283863e-03	
379	5.650000e+00	2.292517e-03	
380	5.700000e+00	2.301744e-03	
381	5.750000e+00	2.311572e-03	
382	5.800000e+00	2.322031e-03	
383	5.850000e+00	2.333152e-03	
384	5.900000e+00	2.344963e-03	
385	5.950000e+00	2.357498e-03	
386	6.000000e+00	2.370787e-03	
387	6.050000e+00	2.384861e-03	
388	6.100000e+00	2.399755e-03	
389	6.150000e+00	2.415499e-03	
390	6.200000e+00	2.432128e-03	
391	6.250000e+00	2.449674e-03	
392	6.300000e+00	2.468172e-03	
393	6.350000e+00	2.487654e-03	
394	6.400000e+00	2.508156e-03	
395	6.450000e+00	2.529711e-03	
396	6.500000e+00	2.552354e-03	
397	6.550000e+00	2.576119e-03	
398	6.600000e+00	2.601041e-03	
399	0.000000e+00	-4.54773e-35	
400	5.000000e-02	2.295697e-04	
401	1.000000e-01	4.490170e-04	
402	1.500000e-01	6.586245e-04	

Index   v-sweep         -i(vds)         
--------------------------------------------------------------------------------
403	2.000000e-01	8.586675e-04	
404	2.500000e-01	1.049413e-03	
405	3.000000e-01	1.231121e-03	
406	3.500000e-01	1.404040e-03	
407	4.000000e-01	1.568412e-03	
408	4.500000e-01	1.724468e-03	
409	5.000000e-01	1.872433e-03	
410	5.500000e-01	2.012518e-03	
411	6.000000e-01	2.144928e-03	
412	6.500000e-01	2.269856e-03	
413	7.000000e-01	2.387483e-03	
414	7.500000e-01	2.497978e-03	
415	8.000000e-01	2.601487e-03	
416	8.500000e-01	2.698132e-03	
417	9.000000e-01	2.787991e-03	
418	9.500000e-01	2.871077e-03	
419	1.000000e+00	2.947302e-03	
420	1.050000e+00	3.016433e-03	
421	1.100000e+00	3.078067e-03	
422	1.150000e+00	3.131702e-03	
423	1.200000e+00	3.177015e-03	
424	1.250000e+00	3.214244e-03	
425	1.300000e+00	3.244324e-03	
426	1.350000e+00	3.268592e-03	
427	1.400000e+00	3.288379e-03	
428	1.450000e+00	3.304785e-03	
429	1.500000e+00	3.318637e-03	
430	1.550000e+00	3.330538e-03	
431	1.600000e+00	3.340924e-03	
432	1.650000e+00	3.350112e-03	
433	1.700000e+00	3.358335e-03	
434	1.750000e+00	3.365769e-03	
435	1.800000e+00	3.372549e-03	
436	1.850000e+00	3.378779e-03	
437	1.900000e+00	3.384541e-03	
438	1.950000e+00	3.389901e-03	
439	2.000000e+00	3.394912e-03	
440	2.050000e+00	3.399617e-03	
441	2.100000e+00	3.404054e-03	
442	2.150000e+00	3.408252e-03	
443	2.200000e+00	3.412236e-03	
444	2.250000e+00	3.416030e-03	
445	2.300000e+00	3.419650e-03	
446	2.350000e+00	3.423114e-03	
447	2.400000e+00	3.426435e-03	
448	2.450000e+00	3.429626e-03	
449	2.500000e+00	3.432697e-03	
450	2.550000e+00	3.435658e-03	
451	2.600000e+00	3.438517e-03	
452	2.650000e+00	3.441282e-03	
453	2.700000e+00	3.443959e-03	
454	2.750000e+00	3.446555e-03	
455	2.800000e+00	3.449075e-03	
456	2.850000e+00	3.451524e-03	
457	2.900000e+00	3.453906e-03	
458	2.950000e+00	3.456226e-03	
459	3.000000e+00	3.458487e-03	
460	3.050000e+00	3.460692e-03	

Index   v-sweep         -i(vds)         
--------------------------------------------------------------------------------
461	3.100000e+00	3.462845e-03	
462	3.150000e+00	3.464948e-03	
463	3.200000e+00	3.467005e-03	
464	3.250000e+00	3.469018e-03	
465	3.300000e+00	3.470989e-03	
466	3.350000e+00	3.472920e-03	
467	3.400000e+00	3.474815e-03	
468	3.450000e+00	3.476673e-03	
469	3.500000e+00	3.478499e-03	
470	3.550000e+00	3.480294e-03	
471	3.600000e+00	3.482061e-03	
472	3.650000e+00	3.483800e-03	
473	3.700000e+00	3.485516e-03	
474	3.750000e+00	3.487210e-03	
475	3.800000e+00	3.488885e-03	
476	3.850000e+00	3.490545e-03	
477	3.900000e+00	3.492192e-03	
478	3.950000e+00	3.493830e-03	
479	4.000000e+00	3.495462e-03	
480	4.050000e+00	3.497095e-03	
481	4.100000e+00	3.498731e-03	
482	4.150000e+00	3.500378e-03	
483	4.200000e+00	3.502040e-03	
484	4.250000e+00	3.503725e-03	
485	4.300000e+00	3.505440e-03	
486	4.350000e+00	3.507192e-03	
487	4.400000e+00	3.508992e-03	
488	4.450000e+00	3.510849e-03	
489	4.500000e+00	3.512773e-03	
490	4.550000e+00	3.514776e-03	
491	4.600000e+00	3.516871e-03	
492	4.650000e+00	3.519071e-03	
493	4.700000e+00	3.521390e-03	
494	4.750000e+00	3.523846e-03	
495	4.800000e+00	3.526454e-03	
496	4.850000e+00	3.529232e-03	
497	4.900000e+00	3.532201e-03	
498	4.950000e+00	3.535379e-03	
499	5.000000e+00	3.538790e-03	
500	5.050000e+00	3.542455e-03	
501	5.100000e+00	3.546399e-03	
502	5.150000e+00	3.550648e-03	
503	5.200000e+00	3.555228e-03	
504	5.250000e+00	3.560166e-03	
505	5.300000e+00	3.565493e-03	
506	5.350000e+00	3.571238e-03	
507	5.400000e+00	3.577434e-03	
508	5.450000e+00	3.584113e-03	
509	5.500000e+00	3.591309e-03	
510	5.550000e+00	3.599058e-03	
511	5.600000e+00	3.607396e-03	
512	5.650000e+00	3.616361e-03	
513	5.700000e+00	3.625992e-03	
514	5.750000e+00	3.636328e-03	
515	5.800000e+00	3.647411e-03	
516	5.850000e+00	3.659282e-03	
517	5.900000e+00	3.671984e-03	
518	5.950000e+00	3.685562e-03	

Index   v-sweep         -i(vds)         
--------------------------------------------------------------------------------
519	6.000000e+00	3.700059e-03	
520	6.050000e+00	3.715522e-03	
521	6.100000e+00	3.731996e-03	
522	6.150000e+00	3.749530e-03	
523	6.200000e+00	3.768170e-03	
524	6.250000e+00	3.787966e-03	
525	6.300000e+00	3.808966e-03	
526	6.350000e+00	3.831220e-03	
527	6.400000e+00	3.854778e-03	
528	6.450000e+00	3.879691e-03	
529	6.500000e+00	3.906010e-03	
530	6.550000e+00	3.933786e-03	
531	6.600000e+00	3.963072e-03	
532	0.000000e+00	-3.44298e-20	
533	5.000000e-02	2.623439e-04	
534	1.000000e-01	5.151946e-04	
535	1.500000e-01	7.587825e-04	
536	2.000000e-01	9.933333e-04	
537	2.500000e-01	1.219067e-03	
538	3.000000e-01	1.436199e-03	
539	3.500000e-01	1.644939e-03	
540	4.000000e-01	1.845488e-03	
541	4.500000e-01	2.038044e-03	
542	5.000000e-01	2.222798e-03	
543	5.500000e-01	2.399933e-03	
544	6.000000e-01	2.569627e-03	
545	6.500000e-01	2.732051e-03	
546	7.000000e-01	2.887371e-03	
547	7.500000e-01	3.035744e-03	
548	8.000000e-01	3.177324e-03	
549	8.500000e-01	3.312256e-03	
550	9.000000e-01	3.440676e-03	
551	9.500000e-01	3.562712e-03	
552	1.000000e+00	3.678478e-03	
553	1.050000e+00	3.788069e-03	
554	1.100000e+00	3.891556e-03	
555	1.150000e+00	3.988968e-03	
556	1.200000e+00	4.080276e-03	
557	1.250000e+00	4.165360e-03	
558	1.300000e+00	4.243974e-03	
559	1.350000e+00	4.315711e-03	
560	1.400000e+00	4.380022e-03	
561	1.450000e+00	4.436357e-03	
562	1.500000e+00	4.484459e-03	
563	1.550000e+00	4.524643e-03	
564	1.600000e+00	4.557810e-03	
565	1.650000e+00	4.585169e-03	
566	1.700000e+00	4.607922e-03	
567	1.750000e+00	4.627092e-03	
568	1.800000e+00	4.643481e-03	
569	1.850000e+00	4.657692e-03	
570	1.900000e+00	4.670179e-03	
571	1.950000e+00	4.681280e-03	
572	2.000000e+00	4.691252e-03	
573	2.050000e+00	4.700290e-03	
574	2.100000e+00	4.708548e-03	
575	2.150000e+00	4.716145e-03	
576	2.200000e+00	4.723176e-03	

Index   v-sweep         -i(vds)         
--------------------------------------------------------------------------------
577	2.250000e+00	4.729719e-03	
578	2.300000e+00	4.735837e-03	
579	2.350000e+00	4.741581e-03	
580	2.400000e+00	4.746996e-03	
581	2.450000e+00	4.752117e-03	
582	2.500000e+00	4.756975e-03	
583	2.550000e+00	4.761598e-03	
584	2.600000e+00	4.766006e-03	
585	2.650000e+00	4.770221e-03	
586	2.700000e+00	4.774259e-03	
587	2.750000e+00	4.778135e-03	
588	2.800000e+00	4.781862e-03	
589	2.850000e+00	4.785453e-03	
590	2.900000e+00	4.788917e-03	
591	2.950000e+00	4.792263e-03	
592	3.000000e+00	4.795501e-03	
593	3.050000e+00	4.798637e-03	
594	3.100000e+00	4.801679e-03	
595	3.150000e+00	4.804632e-03	
596	3.200000e+00	4.807501e-03	
597	3.250000e+00	4.810293e-03	
598	3.300000e+00	4.813011e-03	
599	3.350000e+00	4.815659e-03	
600	3.400000e+00	4.818243e-03	
601	3.450000e+00	4.820765e-03	
602	3.500000e+00	4.823228e-03	
603	3.550000e+00	4.825636e-03	
604	3.600000e+00	4.827993e-03	
605	3.650000e+00	4.830300e-03	
606	3.700000e+00	4.832560e-03	
607	3.750000e+00	4.834777e-03	
608	3.800000e+00	4.836953e-03	
609	3.850000e+00	4.839092e-03	
610	3.900000e+00	4.841194e-03	
611	3.950000e+00	4.843265e-03	
612	4.000000e+00	4.845307e-03	
613	4.050000e+00	4.847324e-03	
614	4.100000e+00	4.849318e-03	
615	4.150000e+00	4.851296e-03	
616	4.200000e+00	4.853260e-03	
617	4.250000e+00	4.855216e-03	
618	4.300000e+00	4.857170e-03	
619	4.350000e+00	4.859129e-03	
620	4.400000e+00	4.861098e-03	
621	4.450000e+00	4.863086e-03	
622	4.500000e+00	4.865101e-03	
623	4.550000e+00	4.867154e-03	
624	4.600000e+00	4.869253e-03	
625	4.650000e+00	4.871412e-03	
626	4.700000e+00	4.873642e-03	
627	4.750000e+00	4.875958e-03	
628	4.800000e+00	4.878374e-03	
629	4.850000e+00	4.880908e-03	
630	4.900000e+00	4.883576e-03	
631	4.950000e+00	4.886399e-03	
632	5.000000e+00	4.889397e-03	
633	5.050000e+00	4.892593e-03	
634	5.100000e+00	4.896009e-03	

Index   v-sweep         -i(vds)         
--------------------------------------------------------------------------------
635	5.150000e+00	4.899672e-03	
636	5.200000e+00	4.903609e-03	
637	5.250000e+00	4.907848e-03	
638	5.300000e+00	4.912420e-03	
639	5.350000e+00	4.917358e-03	
640	5.400000e+00	4.922694e-03	
641	5.450000e+00	4.928465e-03	
642	5.500000e+00	4.934709e-03	
643	5.550000e+00	4.941463e-03	
644	5.600000e+00	4.948769e-03	
645	5.650000e+00	4.956669e-03	
646	5.700000e+00	4.965208e-03	
647	5.750000e+00	4.974431e-03	
648	5.800000e+00	4.984386e-03	
649	5.850000e+00	4.995122e-03	
650	5.900000e+00	5.006689e-03	
651	5.950000e+00	5.019140e-03	
652	6.000000e+00	5.032527e-03	
653	6.050000e+00	5.046907e-03	
654	6.100000e+00	5.062335e-03	
655	6.150000e+00	5.078870e-03	
656	6.200000e+00	5.096569e-03	
657	6.250000e+00	5.115493e-03	
658	6.300000e+00	5.135704e-03	
659	6.350000e+00	5.157262e-03	
660	6.400000e+00	5.180233e-03	
661	6.450000e+00	5.204679e-03	
662	6.500000e+00	5.230666e-03	
663	6.550000e+00	5.258260e-03	
664	6.600000e+00	5.287526e-03	
665	0.000000e+00	-2.94194e-19	
666	5.000000e-02	2.839560e-04	
667	1.000000e-01	5.592146e-04	
668	1.500000e-01	8.259599e-04	
669	2.000000e-01	1.084373e-03	
670	2.500000e-01	1.334632e-03	
671	3.000000e-01	1.576910e-03	
672	3.500000e-01	1.811377e-03	
673	4.000000e-01	2.038201e-03	
674	4.500000e-01	2.257543e-03	
675	5.000000e-01	2.469560e-03	
676	5.500000e-01	2.674407e-03	
677	6.000000e-01	2.872232e-03	
678	6.500000e-01	3.063181e-03	
679	7.000000e-01	3.247392e-03	
680	7.500000e-01	3.425003e-03	
681	8.000000e-01	3.596145e-03	
682	8.500000e-01	3.760946e-03	
683	9.000000e-01	3.919530e-03	
684	9.500000e-01	4.072017e-03	
685	1.000000e+00	4.218521e-03	
686	1.050000e+00	4.359154e-03	
687	1.100000e+00	4.494022e-03	
688	1.150000e+00	4.623222e-03	
689	1.200000e+00	4.746846e-03	
690	1.250000e+00	4.864974e-03	
691	1.300000e+00	4.977669e-03	
692	1.350000e+00	5.084972e-03	

Index   v-sweep         -i(vds)         
--------------------------------------------------------------------------------
693	1.400000e+00	5.186892e-03	
694	1.450000e+00	5.283390e-03	
695	1.500000e+00	5.374354e-03	
696	1.550000e+00	5.459573e-03	
697	1.600000e+00	5.538704e-03	
698	1.650000e+00	5.611261e-03	
699	1.700000e+00	5.676663e-03	
700	1.750000e+00	5.734403e-03	
701	1.800000e+00	5.784291e-03	
702	1.850000e+00	5.826653e-03	
703	1.900000e+00	5.862286e-03	
704	1.950000e+00	5.892242e-03	
705	2.000000e+00	5.917583e-03	
706	2.050000e+00	5.939238e-03	
707	2.100000e+00	5.957963e-03	
708	2.150000e+00	5.974346e-03	
709	2.200000e+00	5.988844e-03	
710	2.250000e+00	6.001803e-03	
711	2.300000e+00	6.013494e-03	
712	2.350000e+00	6.024126e-03	
713	2.400000e+00	6.033865e-03	
714	2.450000e+00	6.042844e-03	
715	2.500000e+00	6.051167e-03	
716	2.550000e+00	6.058922e-03	
717	2.600000e+00	6.066181e-03	
718	2.650000e+00	6.073001e-03	
719	2.700000e+00	6.079433e-03	
720	2.750000e+00	6.085518e-03	
721	2.800000e+00	6.091293e-03	
722	2.850000e+00	6.096788e-03	
723	2.900000e+00	6.102029e-03	
724	2.950000e+00	6.107039e-03	
725	3.000000e+00	6.111838e-03	
726	3.050000e+00	6.116445e-03	
727	3.100000e+00	6.120873e-03	
728	3.150000e+00	6.125138e-03	
729	3.200000e+00	6.129252e-03	
730	3.250000e+00	6.133225e-03	
731	3.300000e+00	6.137067e-03	
732	3.350000e+00	6.140787e-03	
733	3.400000e+00	6.144393e-03	
734	3.450000e+00	6.147892e-03	
735	3.500000e+00	6.151292e-03	
736	3.550000e+00	6.154597e-03	
737	3.600000e+00	6.157814e-03	
738	3.650000e+00	6.160948e-03	
739	3.700000e+00	6.164003e-03	
740	3.750000e+00	6.166983e-03	
741	3.800000e+00	6.169893e-03	
742	3.850000e+00	6.172737e-03	
743	3.900000e+00	6.175518e-03	
744	3.950000e+00	6.178240e-03	
745	4.000000e+00	6.180906e-03	
746	4.050000e+00	6.183519e-03	
747	4.100000e+00	6.186084e-03	
748	4.150000e+00	6.188603e-03	
749	4.200000e+00	6.191080e-03	
750	4.250000e+00	6.193519e-03	

Index   v-sweep         -i(vds)         
--------------------------------------------------------------------------------
751	4.300000e+00	6.195924e-03	
752	4.350000e+00	6.198299e-03	
753	4.400000e+00	6.200650e-03	
754	4.450000e+00	6.202982e-03	
755	4.500000e+00	6.205300e-03	
756	4.550000e+00	6.207612e-03	
757	4.600000e+00	6.209924e-03	
758	4.650000e+00	6.212245e-03	
759	4.700000e+00	6.214583e-03	
760	4.750000e+00	6.216949e-03	
761	4.800000e+00	6.219355e-03	
762	4.850000e+00	6.221812e-03	
763	4.900000e+00	6.224334e-03	
764	4.950000e+00	6.226936e-03	
765	5.000000e+00	6.229635e-03	
766	5.050000e+00	6.232449e-03	
767	5.100000e+00	6.235398e-03	
768	5.150000e+00	6.238502e-03	
769	5.200000e+00	6.241785e-03	
770	5.250000e+00	6.245273e-03	
771	5.300000e+00	6.248991e-03	
772	5.350000e+00	6.252969e-03	
773	5.400000e+00	6.257238e-03	
774	5.450000e+00	6.261830e-03	
775	5.500000e+00	6.266781e-03	
776	5.550000e+00	6.272128e-03	
777	5.600000e+00	6.277909e-03	
778	5.650000e+00	6.284167e-03	
779	5.700000e+00	6.290945e-03	
780	5.750000e+00	6.298289e-03	
781	5.800000e+00	6.306247e-03	
782	5.850000e+00	6.314869e-03	
783	5.900000e+00	6.324206e-03	
784	5.950000e+00	6.334315e-03	
785	6.000000e+00	6.345251e-03	
786	6.050000e+00	6.357072e-03	
787	6.100000e+00	6.369839e-03	
788	6.150000e+00	6.383616e-03	
789	6.200000e+00	6.398465e-03	
790	6.250000e+00	6.414454e-03	
791	6.300000e+00	6.431650e-03	
792	6.350000e+00	6.450123e-03	
793	6.400000e+00	6.469945e-03	
794	6.450000e+00	6.491188e-03	
795	6.500000e+00	6.513927e-03	
796	6.550000e+00	6.538238e-03	
797	6.600000e+00	6.564197e-03	
Note: No ".plot", ".print", or ".fourier" lines; no simulations run
