
Note: Compatibility modes selected: hs

Warning: m=xx on .subckt line will override multiplier m hierarchy!


Circuit: ***************************

Doing analysis at TEMP = 125.000000 and TNOM = 125.000000


No. of Data Rows : 798
                          ***************************
                          DC transfer characteristic  Mon Jan  9 13:58:37  2023
--------------------------------------------------------------------------------
Index   v-sweep         -i(vds)         
--------------------------------------------------------------------------------
0	0.000000e+00	-3.38133e-24	
1	5.000000e-02	2.220787e-05	
2	1.000000e-01	3.994867e-05	
3	1.500000e-01	5.346097e-05	
4	2.000000e-01	6.298619e-05	
5	2.500000e-01	6.900498e-05	
6	3.000000e-01	7.251463e-05	
7	3.500000e-01	7.473176e-05	
8	4.000000e-01	7.639158e-05	
9	4.500000e-01	7.777825e-05	
10	5.000000e-01	7.899969e-05	
11	5.500000e-01	8.010591e-05	
12	6.000000e-01	8.112501e-05	
13	6.500000e-01	8.207502e-05	
14	7.000000e-01	8.296852e-05	
15	7.500000e-01	8.381480e-05	
16	8.000000e-01	8.462093e-05	
17	8.500000e-01	8.539248e-05	
18	9.000000e-01	8.613395e-05	
19	9.500000e-01	8.684897e-05	
20	1.000000e+00	8.754058e-05	
21	1.050000e+00	8.821132e-05	
22	1.100000e+00	8.886333e-05	
23	1.150000e+00	8.949846e-05	
24	1.200000e+00	9.011828e-05	
25	1.250000e+00	9.072417e-05	
26	1.300000e+00	9.131733e-05	
27	1.350000e+00	9.189881e-05	
28	1.400000e+00	9.246954e-05	
29	1.450000e+00	9.303035e-05	
30	1.500000e+00	9.358197e-05	
31	1.550000e+00	9.412507e-05	
32	1.600000e+00	9.466023e-05	
33	1.650000e+00	9.518800e-05	
34	1.700000e+00	9.570885e-05	
35	1.750000e+00	9.622322e-05	
36	1.800000e+00	9.673152e-05	
37	1.850000e+00	9.723410e-05	
38	1.900000e+00	9.773131e-05	
39	1.950000e+00	9.822345e-05	
40	2.000000e+00	9.871080e-05	
41	2.050000e+00	9.919362e-05	
42	2.100000e+00	9.967215e-05	
43	2.150000e+00	1.001466e-04	
44	2.200000e+00	1.006172e-04	
45	2.250000e+00	1.010842e-04	
46	2.300000e+00	1.015477e-04	
47	2.350000e+00	1.020078e-04	
48	2.400000e+00	1.024648e-04	
49	2.450000e+00	1.029188e-04	
50	2.500000e+00	1.033700e-04	
51	2.550000e+00	1.038184e-04	
52	2.600000e+00	1.042642e-04	
53	2.650000e+00	1.047076e-04	
54	2.700000e+00	1.051487e-04	

Index   v-sweep         -i(vds)         
--------------------------------------------------------------------------------
55	2.750000e+00	1.055876e-04	
56	2.800000e+00	1.060244e-04	
57	2.850000e+00	1.064592e-04	
58	2.900000e+00	1.068923e-04	
59	2.950000e+00	1.073238e-04	
60	3.000000e+00	1.077538e-04	
61	3.050000e+00	1.081824e-04	
62	3.100000e+00	1.086099e-04	
63	3.150000e+00	1.090364e-04	
64	3.200000e+00	1.094621e-04	
65	3.250000e+00	1.098873e-04	
66	3.300000e+00	1.103122e-04	
67	3.350000e+00	1.107371e-04	
68	3.400000e+00	1.111622e-04	
69	3.450000e+00	1.115879e-04	
70	3.500000e+00	1.120145e-04	
71	3.550000e+00	1.124423e-04	
72	3.600000e+00	1.128719e-04	
73	3.650000e+00	1.133035e-04	
74	3.700000e+00	1.137378e-04	
75	3.750000e+00	1.141751e-04	
76	3.800000e+00	1.146161e-04	
77	3.850000e+00	1.150613e-04	
78	3.900000e+00	1.155114e-04	
79	3.950000e+00	1.159670e-04	
80	4.000000e+00	1.164289e-04	
81	4.050000e+00	1.168979e-04	
82	4.100000e+00	1.173747e-04	
83	4.150000e+00	1.178603e-04	
84	4.200000e+00	1.183556e-04	
85	4.250000e+00	1.188615e-04	
86	4.300000e+00	1.193792e-04	
87	4.350000e+00	1.199095e-04	
88	4.400000e+00	1.204538e-04	
89	4.450000e+00	1.210132e-04	
90	4.500000e+00	1.215889e-04	
91	4.550000e+00	1.221823e-04	
92	4.600000e+00	1.227947e-04	
93	4.650000e+00	1.234276e-04	
94	4.700000e+00	1.240823e-04	
95	4.750000e+00	1.247605e-04	
96	4.800000e+00	1.254638e-04	
97	4.850000e+00	1.261937e-04	
98	4.900000e+00	1.269520e-04	
99	4.950000e+00	1.277404e-04	
100	5.000000e+00	1.285608e-04	
101	5.050000e+00	1.294151e-04	
102	5.100000e+00	1.303050e-04	
103	5.150000e+00	1.312327e-04	
104	5.200000e+00	1.322002e-04	
105	5.250000e+00	1.332094e-04	
106	5.300000e+00	1.342627e-04	
107	5.350000e+00	1.353620e-04	
108	5.400000e+00	1.365098e-04	
109	5.450000e+00	1.377081e-04	
110	5.500000e+00	1.389595e-04	
111	5.550000e+00	1.402662e-04	
112	5.600000e+00	1.416306e-04	

Index   v-sweep         -i(vds)         
--------------------------------------------------------------------------------
113	5.650000e+00	1.430553e-04	
114	5.700000e+00	1.445427e-04	
115	5.750000e+00	1.460954e-04	
116	5.800000e+00	1.477159e-04	
117	5.850000e+00	1.494069e-04	
118	5.900000e+00	1.511710e-04	
119	5.950000e+00	1.530110e-04	
120	6.000000e+00	1.549295e-04	
121	6.050000e+00	1.569293e-04	
122	6.100000e+00	1.590133e-04	
123	6.150000e+00	1.611842e-04	
124	6.200000e+00	1.634450e-04	
125	6.250000e+00	1.657984e-04	
126	6.300000e+00	1.682474e-04	
127	6.350000e+00	1.707950e-04	
128	6.400000e+00	1.734441e-04	
129	6.450000e+00	1.761977e-04	
130	6.500000e+00	1.790588e-04	
131	6.550000e+00	1.820305e-04	
132	6.600000e+00	1.851157e-04	
133	0.000000e+00	1.494105e-24	
134	5.000000e-02	7.181137e-05	
135	1.000000e-01	1.387750e-04	
136	1.500000e-01	2.010849e-04	
137	2.000000e-01	2.588589e-04	
138	2.500000e-01	3.121939e-04	
139	3.000000e-01	3.611802e-04	
140	3.500000e-01	4.059058e-04	
141	4.000000e-01	4.464579e-04	
142	4.500000e-01	4.829246e-04	
143	5.000000e-01	5.153963e-04	
144	5.500000e-01	5.439694e-04	
145	6.000000e-01	5.687545e-04	
146	6.500000e-01	5.898910e-04	
147	7.000000e-01	6.075787e-04	
148	7.500000e-01	6.221260e-04	
149	8.000000e-01	6.339872e-04	
150	8.500000e-01	6.437183e-04	
151	9.000000e-01	6.518527e-04	
152	9.500000e-01	6.588091e-04	
153	1.000000e+00	6.648837e-04	
154	1.050000e+00	6.702813e-04	
155	1.100000e+00	6.751451e-04	
156	1.150000e+00	6.795782e-04	
157	1.200000e+00	6.836569e-04	
158	1.250000e+00	6.874389e-04	
159	1.300000e+00	6.909691e-04	
160	1.350000e+00	6.942830e-04	
161	1.400000e+00	6.974090e-04	
162	1.450000e+00	7.003703e-04	
163	1.500000e+00	7.031863e-04	
164	1.550000e+00	7.058728e-04	
165	1.600000e+00	7.084435e-04	
166	1.650000e+00	7.109099e-04	
167	1.700000e+00	7.132818e-04	
168	1.750000e+00	7.155679e-04	
169	1.800000e+00	7.177756e-04	
170	1.850000e+00	7.199114e-04	

Index   v-sweep         -i(vds)         
--------------------------------------------------------------------------------
171	1.900000e+00	7.219811e-04	
172	1.950000e+00	7.239897e-04	
173	2.000000e+00	7.259418e-04	
174	2.050000e+00	7.278415e-04	
175	2.100000e+00	7.296923e-04	
176	2.150000e+00	7.314975e-04	
177	2.200000e+00	7.332601e-04	
178	2.250000e+00	7.349827e-04	
179	2.300000e+00	7.366678e-04	
180	2.350000e+00	7.383176e-04	
181	2.400000e+00	7.399342e-04	
182	2.450000e+00	7.415193e-04	
183	2.500000e+00	7.430747e-04	
184	2.550000e+00	7.446020e-04	
185	2.600000e+00	7.461027e-04	
186	2.650000e+00	7.475780e-04	
187	2.700000e+00	7.490293e-04	
188	2.750000e+00	7.504577e-04	
189	2.800000e+00	7.518642e-04	
190	2.850000e+00	7.532501e-04	
191	2.900000e+00	7.546161e-04	
192	2.950000e+00	7.559632e-04	
193	3.000000e+00	7.572923e-04	
194	3.050000e+00	7.586043e-04	
195	3.100000e+00	7.599000e-04	
196	3.150000e+00	7.611801e-04	
197	3.200000e+00	7.624456e-04	
198	3.250000e+00	7.636971e-04	
199	3.300000e+00	7.649355e-04	
200	3.350000e+00	7.661618e-04	
201	3.400000e+00	7.673766e-04	
202	3.450000e+00	7.685811e-04	
203	3.500000e+00	7.697760e-04	
204	3.550000e+00	7.709626e-04	
205	3.600000e+00	7.721419e-04	
206	3.650000e+00	7.733152e-04	
207	3.700000e+00	7.744837e-04	
208	3.750000e+00	7.756489e-04	
209	3.800000e+00	7.768124e-04	
210	3.850000e+00	7.779759e-04	
211	3.900000e+00	7.791413e-04	
212	3.950000e+00	7.803106e-04	
213	4.000000e+00	7.814860e-04	
214	4.050000e+00	7.826699e-04	
215	4.100000e+00	7.838650e-04	
216	4.150000e+00	7.850741e-04	
217	4.200000e+00	7.863001e-04	
218	4.250000e+00	7.875465e-04	
219	4.300000e+00	7.888167e-04	
220	4.350000e+00	7.901146e-04	
221	4.400000e+00	7.914441e-04	
222	4.450000e+00	7.928097e-04	
223	4.500000e+00	7.942158e-04	
224	4.550000e+00	7.956675e-04	
225	4.600000e+00	7.971699e-04	
226	4.650000e+00	7.987284e-04	
227	4.700000e+00	8.003489e-04	
228	4.750000e+00	8.020374e-04	

Index   v-sweep         -i(vds)         
--------------------------------------------------------------------------------
229	4.800000e+00	8.038003e-04	
230	4.850000e+00	8.056444e-04	
231	4.900000e+00	8.075766e-04	
232	4.950000e+00	8.096042e-04	
233	5.000000e+00	8.117350e-04	
234	5.050000e+00	8.139768e-04	
235	5.100000e+00	8.163378e-04	
236	5.150000e+00	8.188268e-04	
237	5.200000e+00	8.214524e-04	
238	5.250000e+00	8.242239e-04	
239	5.300000e+00	8.271507e-04	
240	5.350000e+00	8.302426e-04	
241	5.400000e+00	8.335096e-04	
242	5.450000e+00	8.369620e-04	
243	5.500000e+00	8.406105e-04	
244	5.550000e+00	8.444658e-04	
245	5.600000e+00	8.485391e-04	
246	5.650000e+00	8.528417e-04	
247	5.700000e+00	8.573853e-04	
248	5.750000e+00	8.621817e-04	
249	5.800000e+00	8.672430e-04	
250	5.850000e+00	8.725814e-04	
251	5.900000e+00	8.782095e-04	
252	5.950000e+00	8.841400e-04	
253	6.000000e+00	8.903857e-04	
254	6.050000e+00	8.969598e-04	
255	6.100000e+00	9.038755e-04	
256	6.150000e+00	9.111462e-04	
257	6.200000e+00	9.187855e-04	
258	6.250000e+00	9.268070e-04	
259	6.300000e+00	9.352246e-04	
260	6.350000e+00	9.440523e-04	
261	6.400000e+00	9.533041e-04	
262	6.450000e+00	9.629943e-04	
263	6.500000e+00	9.731369e-04	
264	6.550000e+00	9.837465e-04	
265	6.600000e+00	9.948375e-04	
266	0.000000e+00	-2.43983e-24	
267	5.000000e-02	1.073824e-04	
268	1.000000e-01	2.099993e-04	
269	1.500000e-01	3.080308e-04	
270	2.000000e-01	4.015852e-04	
271	2.500000e-01	4.907502e-04	
272	3.000000e-01	5.756070e-04	
273	3.500000e-01	6.562339e-04	
274	4.000000e-01	7.327072e-04	
275	4.500000e-01	8.051021e-04	
276	5.000000e-01	8.734921e-04	
277	5.500000e-01	9.379497e-04	
278	6.000000e-01	9.985459e-04	
279	6.500000e-01	1.055351e-03	
280	7.000000e-01	1.108433e-03	
281	7.500000e-01	1.157861e-03	
282	8.000000e-01	1.203701e-03	
283	8.500000e-01	1.246021e-03	
284	9.000000e-01	1.284886e-03	
285	9.500000e-01	1.320363e-03	
286	1.000000e+00	1.352521e-03	

Index   v-sweep         -i(vds)         
--------------------------------------------------------------------------------
287	1.050000e+00	1.381430e-03	
288	1.100000e+00	1.407175e-03	
289	1.150000e+00	1.429863e-03	
290	1.200000e+00	1.449656e-03	
291	1.250000e+00	1.466797e-03	
292	1.300000e+00	1.481614e-03	
293	1.350000e+00	1.494480e-03	
294	1.400000e+00	1.505750e-03	
295	1.450000e+00	1.515729e-03	
296	1.500000e+00	1.524662e-03	
297	1.550000e+00	1.532740e-03	
298	1.600000e+00	1.540111e-03	
299	1.650000e+00	1.546889e-03	
300	1.700000e+00	1.553165e-03	
301	1.750000e+00	1.559011e-03	
302	1.800000e+00	1.564486e-03	
303	1.850000e+00	1.569636e-03	
304	1.900000e+00	1.574500e-03	
305	1.950000e+00	1.579112e-03	
306	2.000000e+00	1.583498e-03	
307	2.050000e+00	1.587681e-03	
308	2.100000e+00	1.591682e-03	
309	2.150000e+00	1.595517e-03	
310	2.200000e+00	1.599202e-03	
311	2.250000e+00	1.602748e-03	
312	2.300000e+00	1.606168e-03	
313	2.350000e+00	1.609472e-03	
314	2.400000e+00	1.612667e-03	
315	2.450000e+00	1.615763e-03	
316	2.500000e+00	1.618767e-03	
317	2.550000e+00	1.621684e-03	
318	2.600000e+00	1.624521e-03	
319	2.650000e+00	1.627282e-03	
320	2.700000e+00	1.629972e-03	
321	2.750000e+00	1.632596e-03	
322	2.800000e+00	1.635158e-03	
323	2.850000e+00	1.637660e-03	
324	2.900000e+00	1.640107e-03	
325	2.950000e+00	1.642501e-03	
326	3.000000e+00	1.644845e-03	
327	3.050000e+00	1.647142e-03	
328	3.100000e+00	1.649394e-03	
329	3.150000e+00	1.651603e-03	
330	3.200000e+00	1.653771e-03	
331	3.250000e+00	1.655901e-03	
332	3.300000e+00	1.657994e-03	
333	3.350000e+00	1.660052e-03	
334	3.400000e+00	1.662076e-03	
335	3.450000e+00	1.664068e-03	
336	3.500000e+00	1.666030e-03	
337	3.550000e+00	1.667963e-03	
338	3.600000e+00	1.669869e-03	
339	3.650000e+00	1.671749e-03	
340	3.700000e+00	1.673605e-03	
341	3.750000e+00	1.675438e-03	
342	3.800000e+00	1.677250e-03	
343	3.850000e+00	1.679043e-03	
344	3.900000e+00	1.680819e-03	

Index   v-sweep         -i(vds)         
--------------------------------------------------------------------------------
345	3.950000e+00	1.682579e-03	
346	4.000000e+00	1.684327e-03	
347	4.050000e+00	1.686063e-03	
348	4.100000e+00	1.687792e-03	
349	4.150000e+00	1.689515e-03	
350	4.200000e+00	1.691237e-03	
351	4.250000e+00	1.692959e-03	
352	4.300000e+00	1.694687e-03	
353	4.350000e+00	1.696423e-03	
354	4.400000e+00	1.698173e-03	
355	4.450000e+00	1.699941e-03	
356	4.500000e+00	1.701733e-03	
357	4.550000e+00	1.703555e-03	
358	4.600000e+00	1.705411e-03	
359	4.650000e+00	1.707310e-03	
360	4.700000e+00	1.709258e-03	
361	4.750000e+00	1.711264e-03	
362	4.800000e+00	1.713334e-03	
363	4.850000e+00	1.715479e-03	
364	4.900000e+00	1.717707e-03	
365	4.950000e+00	1.720029e-03	
366	5.000000e+00	1.722455e-03	
367	5.050000e+00	1.724997e-03	
368	5.100000e+00	1.727665e-03	
369	5.150000e+00	1.730474e-03	
370	5.200000e+00	1.733435e-03	
371	5.250000e+00	1.736563e-03	
372	5.300000e+00	1.739872e-03	
373	5.350000e+00	1.743377e-03	
374	5.400000e+00	1.747093e-03	
375	5.450000e+00	1.751038e-03	
376	5.500000e+00	1.755227e-03	
377	5.550000e+00	1.759679e-03	
378	5.600000e+00	1.764412e-03	
379	5.650000e+00	1.769444e-03	
380	5.700000e+00	1.774795e-03	
381	5.750000e+00	1.780485e-03	
382	5.800000e+00	1.786534e-03	
383	5.850000e+00	1.792964e-03	
384	5.900000e+00	1.799795e-03	
385	5.950000e+00	1.807051e-03	
386	6.000000e+00	1.814753e-03	
387	6.050000e+00	1.822926e-03	
388	6.100000e+00	1.831592e-03	
389	6.150000e+00	1.840775e-03	
390	6.200000e+00	1.850501e-03	
391	6.250000e+00	1.860794e-03	
392	6.300000e+00	1.871678e-03	
393	6.350000e+00	1.883181e-03	
394	6.400000e+00	1.895327e-03	
395	6.450000e+00	1.908143e-03	
396	6.500000e+00	1.921656e-03	
397	6.550000e+00	1.935892e-03	
398	6.600000e+00	1.950878e-03	
399	0.000000e+00	-6.18123e-20	
400	5.000000e-02	1.324917e-04	
401	1.000000e-01	2.604884e-04	
402	1.500000e-01	3.841534e-04	

Index   v-sweep         -i(vds)         
--------------------------------------------------------------------------------
403	2.000000e-01	5.035813e-04	
404	2.500000e-01	6.188471e-04	
405	3.000000e-01	7.300195e-04	
406	3.500000e-01	8.371646e-04	
407	4.000000e-01	9.403472e-04	
408	4.500000e-01	1.039631e-03	
409	5.000000e-01	1.135078e-03	
410	5.500000e-01	1.226751e-03	
411	6.000000e-01	1.314708e-03	
412	6.500000e-01	1.399011e-03	
413	7.000000e-01	1.479717e-03	
414	7.500000e-01	1.556884e-03	
415	8.000000e-01	1.630568e-03	
416	8.500000e-01	1.700824e-03	
417	9.000000e-01	1.767708e-03	
418	9.500000e-01	1.831273e-03	
419	1.000000e+00	1.891572e-03	
420	1.050000e+00	1.948656e-03	
421	1.100000e+00	2.002576e-03	
422	1.150000e+00	2.053381e-03	
423	1.200000e+00	2.101119e-03	
424	1.250000e+00	2.145834e-03	
425	1.300000e+00	2.187569e-03	
426	1.350000e+00	2.226363e-03	
427	1.400000e+00	2.262246e-03	
428	1.450000e+00	2.295242e-03	
429	1.500000e+00	2.325368e-03	
430	1.550000e+00	2.352644e-03	
431	1.600000e+00	2.377116e-03	
432	1.650000e+00	2.398894e-03	
433	1.700000e+00	2.418176e-03	
434	1.750000e+00	2.435237e-03	
435	1.800000e+00	2.450386e-03	
436	1.850000e+00	2.463920e-03	
437	1.900000e+00	2.476104e-03	
438	1.950000e+00	2.487158e-03	
439	2.000000e+00	2.497261e-03	
440	2.050000e+00	2.506558e-03	
441	2.100000e+00	2.515166e-03	
442	2.150000e+00	2.523181e-03	
443	2.200000e+00	2.530679e-03	
444	2.250000e+00	2.537725e-03	
445	2.300000e+00	2.544373e-03	
446	2.350000e+00	2.550666e-03	
447	2.400000e+00	2.556643e-03	
448	2.450000e+00	2.562335e-03	
449	2.500000e+00	2.567770e-03	
450	2.550000e+00	2.572972e-03	
451	2.600000e+00	2.577962e-03	
452	2.650000e+00	2.582758e-03	
453	2.700000e+00	2.587375e-03	
454	2.750000e+00	2.591827e-03	
455	2.800000e+00	2.596128e-03	
456	2.850000e+00	2.600288e-03	
457	2.900000e+00	2.604318e-03	
458	2.950000e+00	2.608225e-03	
459	3.000000e+00	2.612018e-03	
460	3.050000e+00	2.615705e-03	

Index   v-sweep         -i(vds)         
--------------------------------------------------------------------------------
461	3.100000e+00	2.619292e-03	
462	3.150000e+00	2.622785e-03	
463	3.200000e+00	2.626190e-03	
464	3.250000e+00	2.629511e-03	
465	3.300000e+00	2.632753e-03	
466	3.350000e+00	2.635921e-03	
467	3.400000e+00	2.639018e-03	
468	3.450000e+00	2.642049e-03	
469	3.500000e+00	2.645015e-03	
470	3.550000e+00	2.647922e-03	
471	3.600000e+00	2.650770e-03	
472	3.650000e+00	2.653564e-03	
473	3.700000e+00	2.656306e-03	
474	3.750000e+00	2.658998e-03	
475	3.800000e+00	2.661643e-03	
476	3.850000e+00	2.664243e-03	
477	3.900000e+00	2.666800e-03	
478	3.950000e+00	2.669316e-03	
479	4.000000e+00	2.671794e-03	
480	4.050000e+00	2.674235e-03	
481	4.100000e+00	2.676643e-03	
482	4.150000e+00	2.679019e-03	
483	4.200000e+00	2.681366e-03	
484	4.250000e+00	2.683686e-03	
485	4.300000e+00	2.685983e-03	
486	4.350000e+00	2.688260e-03	
487	4.400000e+00	2.690519e-03	
488	4.450000e+00	2.692765e-03	
489	4.500000e+00	2.695001e-03	
490	4.550000e+00	2.697232e-03	
491	4.600000e+00	2.699463e-03	
492	4.650000e+00	2.701698e-03	
493	4.700000e+00	2.703944e-03	
494	4.750000e+00	2.706208e-03	
495	4.800000e+00	2.708495e-03	
496	4.850000e+00	2.710814e-03	
497	4.900000e+00	2.713172e-03	
498	4.950000e+00	2.715579e-03	
499	5.000000e+00	2.718045e-03	
500	5.050000e+00	2.720579e-03	
501	5.100000e+00	2.723194e-03	
502	5.150000e+00	2.725901e-03	
503	5.200000e+00	2.728713e-03	
504	5.250000e+00	2.731644e-03	
505	5.300000e+00	2.734708e-03	
506	5.350000e+00	2.737923e-03	
507	5.400000e+00	2.741303e-03	
508	5.450000e+00	2.744867e-03	
509	5.500000e+00	2.748634e-03	
510	5.550000e+00	2.752622e-03	
511	5.600000e+00	2.756853e-03	
512	5.650000e+00	2.761348e-03	
513	5.700000e+00	2.766130e-03	
514	5.750000e+00	2.771221e-03	
515	5.800000e+00	2.776647e-03	
516	5.850000e+00	2.782434e-03	
517	5.900000e+00	2.788606e-03	
518	5.950000e+00	2.795193e-03	

Index   v-sweep         -i(vds)         
--------------------------------------------------------------------------------
519	6.000000e+00	2.802222e-03	
520	6.050000e+00	2.809723e-03	
521	6.100000e+00	2.817725e-03	
522	6.150000e+00	2.826260e-03	
523	6.200000e+00	2.835359e-03	
524	6.250000e+00	2.845056e-03	
525	6.300000e+00	2.855384e-03	
526	6.350000e+00	2.866376e-03	
527	6.400000e+00	2.878069e-03	
528	6.450000e+00	2.890498e-03	
529	6.500000e+00	2.903699e-03	
530	6.550000e+00	2.917709e-03	
531	6.600000e+00	2.932565e-03	
532	0.000000e+00	1.400091e-20	
533	5.000000e-02	1.493641e-04	
534	1.000000e-01	2.946020e-04	
535	1.500000e-01	4.358610e-04	
536	2.000000e-01	5.732225e-04	
537	2.500000e-01	7.067483e-04	
538	3.000000e-01	8.364946e-04	
539	3.500000e-01	9.625153e-04	
540	4.000000e-01	1.084863e-03	
541	4.500000e-01	1.203590e-03	
542	5.000000e-01	1.318748e-03	
543	5.500000e-01	1.430386e-03	
544	6.000000e-01	1.538555e-03	
545	6.500000e-01	1.643303e-03	
546	7.000000e-01	1.744679e-03	
547	7.500000e-01	1.842731e-03	
548	8.000000e-01	1.937504e-03	
549	8.500000e-01	2.029045e-03	
550	9.000000e-01	2.117400e-03	
551	9.500000e-01	2.202613e-03	
552	1.000000e+00	2.284728e-03	
553	1.050000e+00	2.363789e-03	
554	1.100000e+00	2.439839e-03	
555	1.150000e+00	2.512919e-03	
556	1.200000e+00	2.583071e-03	
557	1.250000e+00	2.650336e-03	
558	1.300000e+00	2.714754e-03	
559	1.350000e+00	2.776364e-03	
560	1.400000e+00	2.835204e-03	
561	1.450000e+00	2.891311e-03	
562	1.500000e+00	2.944721e-03	
563	1.550000e+00	2.995468e-03	
564	1.600000e+00	3.043583e-03	
565	1.650000e+00	3.089093e-03	
566	1.700000e+00	3.132021e-03	
567	1.750000e+00	3.172380e-03	
568	1.800000e+00	3.210173e-03	
569	1.850000e+00	3.245392e-03	
570	1.900000e+00	3.278012e-03	
571	1.950000e+00	3.308007e-03	
572	2.000000e+00	3.335368e-03	
573	2.050000e+00	3.360140e-03	
574	2.100000e+00	3.382448e-03	
575	2.150000e+00	3.402492e-03	
576	2.200000e+00	3.420522e-03	

Index   v-sweep         -i(vds)         
--------------------------------------------------------------------------------
577	2.250000e+00	3.436801e-03	
578	2.300000e+00	3.451575e-03	
579	2.350000e+00	3.465063e-03	
580	2.400000e+00	3.477449e-03	
581	2.450000e+00	3.488887e-03	
582	2.500000e+00	3.499507e-03	
583	2.550000e+00	3.509415e-03	
584	2.600000e+00	3.518700e-03	
585	2.650000e+00	3.527435e-03	
586	2.700000e+00	3.535682e-03	
587	2.750000e+00	3.543494e-03	
588	2.800000e+00	3.550916e-03	
589	2.850000e+00	3.557986e-03	
590	2.900000e+00	3.564738e-03	
591	2.950000e+00	3.571200e-03	
592	3.000000e+00	3.577398e-03	
593	3.050000e+00	3.583353e-03	
594	3.100000e+00	3.589085e-03	
595	3.150000e+00	3.594611e-03	
596	3.200000e+00	3.599947e-03	
597	3.250000e+00	3.605106e-03	
598	3.300000e+00	3.610100e-03	
599	3.350000e+00	3.614941e-03	
600	3.400000e+00	3.619638e-03	
601	3.450000e+00	3.624201e-03	
602	3.500000e+00	3.628638e-03	
603	3.550000e+00	3.632957e-03	
604	3.600000e+00	3.637163e-03	
605	3.650000e+00	3.641264e-03	
606	3.700000e+00	3.645266e-03	
607	3.750000e+00	3.649173e-03	
608	3.800000e+00	3.652990e-03	
609	3.850000e+00	3.656723e-03	
610	3.900000e+00	3.660375e-03	
611	3.950000e+00	3.663950e-03	
612	4.000000e+00	3.667452e-03	
613	4.050000e+00	3.670885e-03	
614	4.100000e+00	3.674251e-03	
615	4.150000e+00	3.677554e-03	
616	4.200000e+00	3.680797e-03	
617	4.250000e+00	3.683983e-03	
618	4.300000e+00	3.687114e-03	
619	4.350000e+00	3.690194e-03	
620	4.400000e+00	3.693225e-03	
621	4.450000e+00	3.696211e-03	
622	4.500000e+00	3.699153e-03	
623	4.550000e+00	3.702056e-03	
624	4.600000e+00	3.704922e-03	
625	4.650000e+00	3.707756e-03	
626	4.700000e+00	3.710560e-03	
627	4.750000e+00	3.713340e-03	
628	4.800000e+00	3.716098e-03	
629	4.850000e+00	3.718842e-03	
630	4.900000e+00	3.721575e-03	
631	4.950000e+00	3.724303e-03	
632	5.000000e+00	3.727035e-03	
633	5.050000e+00	3.729775e-03	
634	5.100000e+00	3.732533e-03	

Index   v-sweep         -i(vds)         
--------------------------------------------------------------------------------
635	5.150000e+00	3.735317e-03	
636	5.200000e+00	3.738137e-03	
637	5.250000e+00	3.741003e-03	
638	5.300000e+00	3.743925e-03	
639	5.350000e+00	3.746918e-03	
640	5.400000e+00	3.749993e-03	
641	5.450000e+00	3.753165e-03	
642	5.500000e+00	3.756449e-03	
643	5.550000e+00	3.759863e-03	
644	5.600000e+00	3.763424e-03	
645	5.650000e+00	3.767150e-03	
646	5.700000e+00	3.771063e-03	
647	5.750000e+00	3.775184e-03	
648	5.800000e+00	3.779535e-03	
649	5.850000e+00	3.784140e-03	
650	5.900000e+00	3.789026e-03	
651	5.950000e+00	3.794218e-03	
652	6.000000e+00	3.799746e-03	
653	6.050000e+00	3.805638e-03	
654	6.100000e+00	3.811925e-03	
655	6.150000e+00	3.818639e-03	
656	6.200000e+00	3.825815e-03	
657	6.250000e+00	3.833486e-03	
658	6.300000e+00	3.841688e-03	
659	6.350000e+00	3.850460e-03	
660	6.400000e+00	3.859839e-03	
661	6.450000e+00	3.869866e-03	
662	6.500000e+00	3.880581e-03	
663	6.550000e+00	3.892027e-03	
664	6.600000e+00	3.904246e-03	
665	0.000000e+00	-8.41924e-19	
666	5.000000e-02	1.599676e-04	
667	1.000000e-01	3.162100e-04	
668	1.500000e-01	4.688617e-04	
669	2.000000e-01	6.179921e-04	
670	2.500000e-01	7.636519e-04	
671	3.000000e-01	9.058862e-04	
672	3.500000e-01	1.044738e-03	
673	4.000000e-01	1.180250e-03	
674	4.500000e-01	1.312463e-03	
675	5.000000e-01	1.441419e-03	
676	5.500000e-01	1.567158e-03	
677	6.000000e-01	1.689720e-03	
678	6.500000e-01	1.809144e-03	
679	7.000000e-01	1.925470e-03	
680	7.500000e-01	2.038737e-03	
681	8.000000e-01	2.148981e-03	
682	8.500000e-01	2.256241e-03	
683	9.000000e-01	2.360554e-03	
684	9.500000e-01	2.461955e-03	
685	1.000000e+00	2.560482e-03	
686	1.050000e+00	2.656170e-03	
687	1.100000e+00	2.749053e-03	
688	1.150000e+00	2.839167e-03	
689	1.200000e+00	2.926546e-03	
690	1.250000e+00	3.011223e-03	
691	1.300000e+00	3.093232e-03	
692	1.350000e+00	3.172605e-03	

Index   v-sweep         -i(vds)         
--------------------------------------------------------------------------------
693	1.400000e+00	3.249376e-03	
694	1.450000e+00	3.323575e-03	
695	1.500000e+00	3.395235e-03	
696	1.550000e+00	3.464387e-03	
697	1.600000e+00	3.531060e-03	
698	1.650000e+00	3.595286e-03	
699	1.700000e+00	3.657093e-03	
700	1.750000e+00	3.716510e-03	
701	1.800000e+00	3.773564e-03	
702	1.850000e+00	3.828282e-03	
703	1.900000e+00	3.880688e-03	
704	1.950000e+00	3.930805e-03	
705	2.000000e+00	3.978652e-03	
706	2.050000e+00	4.024243e-03	
707	2.100000e+00	4.067588e-03	
708	2.150000e+00	4.108686e-03	
709	2.200000e+00	4.147524e-03	
710	2.250000e+00	4.184076e-03	
711	2.300000e+00	4.218300e-03	
712	2.350000e+00	4.250149e-03	
713	2.400000e+00	4.279586e-03	
714	2.450000e+00	4.306615e-03	
715	2.500000e+00	4.331300e-03	
716	2.550000e+00	4.353777e-03	
717	2.600000e+00	4.374234e-03	
718	2.650000e+00	4.392887e-03	
719	2.700000e+00	4.409951e-03	
720	2.750000e+00	4.425629e-03	
721	2.800000e+00	4.440099e-03	
722	2.850000e+00	4.453518e-03	
723	2.900000e+00	4.466017e-03	
724	2.950000e+00	4.477709e-03	
725	3.000000e+00	4.488688e-03	
726	3.050000e+00	4.499035e-03	
727	3.100000e+00	4.508817e-03	
728	3.150000e+00	4.518095e-03	
729	3.200000e+00	4.526917e-03	
730	3.250000e+00	4.535327e-03	
731	3.300000e+00	4.543363e-03	
732	3.350000e+00	4.551058e-03	
733	3.400000e+00	4.558441e-03	
734	3.450000e+00	4.565537e-03	
735	3.500000e+00	4.572368e-03	
736	3.550000e+00	4.578955e-03	
737	3.600000e+00	4.585315e-03	
738	3.650000e+00	4.591464e-03	
739	3.700000e+00	4.597417e-03	
740	3.750000e+00	4.603187e-03	
741	3.800000e+00	4.608786e-03	
742	3.850000e+00	4.614223e-03	
743	3.900000e+00	4.619510e-03	
744	3.950000e+00	4.624654e-03	
745	4.000000e+00	4.629663e-03	
746	4.050000e+00	4.634547e-03	
747	4.100000e+00	4.639310e-03	
748	4.150000e+00	4.643960e-03	
749	4.200000e+00	4.648501e-03	
750	4.250000e+00	4.652941e-03	

Index   v-sweep         -i(vds)         
--------------------------------------------------------------------------------
751	4.300000e+00	4.657283e-03	
752	4.350000e+00	4.661533e-03	
753	4.400000e+00	4.665695e-03	
754	4.450000e+00	4.669773e-03	
755	4.500000e+00	4.673770e-03	
756	4.550000e+00	4.677691e-03	
757	4.600000e+00	4.681540e-03	
758	4.650000e+00	4.685319e-03	
759	4.700000e+00	4.689033e-03	
760	4.750000e+00	4.692684e-03	
761	4.800000e+00	4.696276e-03	
762	4.850000e+00	4.699813e-03	
763	4.900000e+00	4.703298e-03	
764	4.950000e+00	4.706735e-03	
765	5.000000e+00	4.710128e-03	
766	5.050000e+00	4.713481e-03	
767	5.100000e+00	4.716799e-03	
768	5.150000e+00	4.720087e-03	
769	5.200000e+00	4.723351e-03	
770	5.250000e+00	4.726596e-03	
771	5.300000e+00	4.729830e-03	
772	5.350000e+00	4.733059e-03	
773	5.400000e+00	4.736292e-03	
774	5.450000e+00	4.739538e-03	
775	5.500000e+00	4.742807e-03	
776	5.550000e+00	4.746108e-03	
777	5.600000e+00	4.749455e-03	
778	5.650000e+00	4.752861e-03	
779	5.700000e+00	4.756338e-03	
780	5.750000e+00	4.759903e-03	
781	5.800000e+00	4.763572e-03	
782	5.850000e+00	4.767363e-03	
783	5.900000e+00	4.771295e-03	
784	5.950000e+00	4.775390e-03	
785	6.000000e+00	4.779669e-03	
786	6.050000e+00	4.784156e-03	
787	6.100000e+00	4.788877e-03	
788	6.150000e+00	4.793858e-03	
789	6.200000e+00	4.799129e-03	
790	6.250000e+00	4.804719e-03	
791	6.300000e+00	4.810660e-03	
792	6.350000e+00	4.816986e-03	
793	6.400000e+00	4.823732e-03	
794	6.450000e+00	4.830935e-03	
795	6.500000e+00	4.838634e-03	
796	6.550000e+00	4.846869e-03	
797	6.600000e+00	4.855681e-03	
Note: No ".plot", ".print", or ".fourier" lines; no simulations run
