
Note: Compatibility modes selected: hs

Warning: m=xx on .subckt line will override multiplier m hierarchy!


Circuit: ***************************

Doing analysis at TEMP = -40.000000 and TNOM = -40.000000


No. of Data Rows : 798
                          ***************************
                          DC transfer characteristic  Mon Jan  9 13:58:36  2023
--------------------------------------------------------------------------------
Index   v-sweep         -i(vds)         
--------------------------------------------------------------------------------
0	0.000000e+00	-2.05987e-36	
1	5.000000e-02	1.345020e-05	
2	1.000000e-01	2.164529e-05	
3	1.500000e-01	2.573724e-05	
4	2.000000e-01	2.780733e-05	
5	2.500000e-01	2.920449e-05	
6	3.000000e-01	3.033159e-05	
7	3.500000e-01	3.131112e-05	
8	4.000000e-01	3.219524e-05	
9	4.500000e-01	3.301187e-05	
10	5.000000e-01	3.377810e-05	
11	5.500000e-01	3.450524e-05	
12	6.000000e-01	3.520121e-05	
13	6.500000e-01	3.587176e-05	
14	7.000000e-01	3.652125e-05	
15	7.500000e-01	3.715302e-05	
16	8.000000e-01	3.776971e-05	
17	8.500000e-01	3.837341e-05	
18	9.000000e-01	3.896585e-05	
19	9.500000e-01	3.954843e-05	
20	1.000000e+00	4.012234e-05	
21	1.050000e+00	4.068855e-05	
22	1.100000e+00	4.124792e-05	
23	1.150000e+00	4.180116e-05	
24	1.200000e+00	4.234888e-05	
25	1.250000e+00	4.289162e-05	
26	1.300000e+00	4.342986e-05	
27	1.350000e+00	4.396400e-05	
28	1.400000e+00	4.449440e-05	
29	1.450000e+00	4.502138e-05	
30	1.500000e+00	4.554524e-05	
31	1.550000e+00	4.606621e-05	
32	1.600000e+00	4.658454e-05	
33	1.650000e+00	4.710042e-05	
34	1.700000e+00	4.761405e-05	
35	1.750000e+00	4.812558e-05	
36	1.800000e+00	4.863518e-05	
37	1.850000e+00	4.914297e-05	
38	1.900000e+00	4.964909e-05	
39	1.950000e+00	5.015365e-05	
40	2.000000e+00	5.065675e-05	
41	2.050000e+00	5.115849e-05	
42	2.100000e+00	5.165897e-05	
43	2.150000e+00	5.215827e-05	
44	2.200000e+00	5.265645e-05	
45	2.250000e+00	5.315361e-05	
46	2.300000e+00	5.364979e-05	
47	2.350000e+00	5.414507e-05	
48	2.400000e+00	5.463952e-05	
49	2.450000e+00	5.513318e-05	
50	2.500000e+00	5.562611e-05	
51	2.550000e+00	5.611838e-05	
52	2.600000e+00	5.661005e-05	
53	2.650000e+00	5.710116e-05	
54	2.700000e+00	5.759178e-05	

Index   v-sweep         -i(vds)         
--------------------------------------------------------------------------------
55	2.750000e+00	5.808198e-05	
56	2.800000e+00	5.857183e-05	
57	2.850000e+00	5.906138e-05	
58	2.900000e+00	5.955074e-05	
59	2.950000e+00	6.003997e-05	
60	3.000000e+00	6.052918e-05	
61	3.050000e+00	6.101846e-05	
62	3.100000e+00	6.150794e-05	
63	3.150000e+00	6.199775e-05	
64	3.200000e+00	6.248801e-05	
65	3.250000e+00	6.297890e-05	
66	3.300000e+00	6.347058e-05	
67	3.350000e+00	6.396325e-05	
68	3.400000e+00	6.445711e-05	
69	3.450000e+00	6.495240e-05	
70	3.500000e+00	6.544937e-05	
71	3.550000e+00	6.594831e-05	
72	3.600000e+00	6.644950e-05	
73	3.650000e+00	6.695330e-05	
74	3.700000e+00	6.746004e-05	
75	3.750000e+00	6.797013e-05	
76	3.800000e+00	6.848398e-05	
77	3.850000e+00	6.900205e-05	
78	3.900000e+00	6.952481e-05	
79	3.950000e+00	7.005279e-05	
80	4.000000e+00	7.058655e-05	
81	4.050000e+00	7.112668e-05	
82	4.100000e+00	7.167381e-05	
83	4.150000e+00	7.222862e-05	
84	4.200000e+00	7.279181e-05	
85	4.250000e+00	7.336414e-05	
86	4.300000e+00	7.394640e-05	
87	4.350000e+00	7.453943e-05	
88	4.400000e+00	7.514411e-05	
89	4.450000e+00	7.576137e-05	
90	4.500000e+00	7.639217e-05	
91	4.550000e+00	7.703753e-05	
92	4.600000e+00	7.769851e-05	
93	4.650000e+00	7.837623e-05	
94	4.700000e+00	7.907182e-05	
95	4.750000e+00	7.978649e-05	
96	4.800000e+00	8.052149e-05	
97	4.850000e+00	8.127811e-05	
98	4.900000e+00	8.205769e-05	
99	4.950000e+00	8.286162e-05	
100	5.000000e+00	8.369132e-05	
101	5.050000e+00	8.454829e-05	
102	5.100000e+00	8.543404e-05	
103	5.150000e+00	8.635016e-05	
104	5.200000e+00	8.729826e-05	
105	5.250000e+00	8.828000e-05	
106	5.300000e+00	8.929711e-05	
107	5.350000e+00	9.035133e-05	
108	5.400000e+00	9.144447e-05	
109	5.450000e+00	9.257836e-05	
110	5.500000e+00	9.375491e-05	
111	5.550000e+00	9.497604e-05	
112	5.600000e+00	9.624372e-05	

Index   v-sweep         -i(vds)         
--------------------------------------------------------------------------------
113	5.650000e+00	9.755997e-05	
114	5.700000e+00	9.892685e-05	
115	5.750000e+00	1.003465e-04	
116	5.800000e+00	1.018209e-04	
117	5.850000e+00	1.033524e-04	
118	5.900000e+00	1.049432e-04	
119	5.950000e+00	1.065955e-04	
120	6.000000e+00	1.083115e-04	
121	6.050000e+00	1.100937e-04	
122	6.100000e+00	1.119444e-04	
123	6.150000e+00	1.138659e-04	
124	6.200000e+00	1.158607e-04	
125	6.250000e+00	1.179313e-04	
126	6.300000e+00	1.200802e-04	
127	6.350000e+00	1.223098e-04	
128	6.400000e+00	1.246227e-04	
129	6.450000e+00	1.270216e-04	
130	6.500000e+00	1.295090e-04	
131	6.550000e+00	1.320875e-04	
132	6.600000e+00	1.347598e-04	
133	0.000000e+00	-3.98327e-20	
134	5.000000e-02	6.795993e-05	
135	1.000000e-01	1.301084e-04	
136	1.500000e-01	1.866333e-04	
137	2.000000e-01	2.377162e-04	
138	2.500000e-01	2.835319e-04	
139	3.000000e-01	3.242481e-04	
140	3.500000e-01	3.600249e-04	
141	4.000000e-01	3.910126e-04	
142	4.500000e-01	4.173483e-04	
143	5.000000e-01	4.391595e-04	
144	5.500000e-01	4.566224e-04	
145	6.000000e-01	4.701362e-04	
146	6.500000e-01	4.804456e-04	
147	7.000000e-01	4.884301e-04	
148	7.500000e-01	4.948135e-04	
149	8.000000e-01	5.000908e-04	
150	8.500000e-01	5.045822e-04	
151	9.000000e-01	5.084955e-04	
152	9.500000e-01	5.119698e-04	
153	1.000000e+00	5.151011e-04	
154	1.050000e+00	5.179581e-04	
155	1.100000e+00	5.205911e-04	
156	1.150000e+00	5.230381e-04	
157	1.200000e+00	5.253282e-04	
158	1.250000e+00	5.274845e-04	
159	1.300000e+00	5.295252e-04	
160	1.350000e+00	5.314652e-04	
161	1.400000e+00	5.333168e-04	
162	1.450000e+00	5.350900e-04	
163	1.500000e+00	5.367934e-04	
164	1.550000e+00	5.384341e-04	
165	1.600000e+00	5.400183e-04	
166	1.650000e+00	5.415514e-04	
167	1.700000e+00	5.430379e-04	
168	1.750000e+00	5.444818e-04	
169	1.800000e+00	5.458866e-04	
170	1.850000e+00	5.472554e-04	

Index   v-sweep         -i(vds)         
--------------------------------------------------------------------------------
171	1.900000e+00	5.485911e-04	
172	1.950000e+00	5.498960e-04	
173	2.000000e+00	5.511723e-04	
174	2.050000e+00	5.524220e-04	
175	2.100000e+00	5.536469e-04	
176	2.150000e+00	5.548485e-04	
177	2.200000e+00	5.560284e-04	
178	2.250000e+00	5.571878e-04	
179	2.300000e+00	5.583280e-04	
180	2.350000e+00	5.594500e-04	
181	2.400000e+00	5.605550e-04	
182	2.450000e+00	5.616437e-04	
183	2.500000e+00	5.627171e-04	
184	2.550000e+00	5.637759e-04	
185	2.600000e+00	5.648210e-04	
186	2.650000e+00	5.658531e-04	
187	2.700000e+00	5.668726e-04	
188	2.750000e+00	5.678805e-04	
189	2.800000e+00	5.688771e-04	
190	2.850000e+00	5.698630e-04	
191	2.900000e+00	5.708390e-04	
192	2.950000e+00	5.718054e-04	
193	3.000000e+00	5.727628e-04	
194	3.050000e+00	5.737119e-04	
195	3.100000e+00	5.746531e-04	
196	3.150000e+00	5.755871e-04	
197	3.200000e+00	5.765145e-04	
198	3.250000e+00	5.774359e-04	
199	3.300000e+00	5.783521e-04	
200	3.350000e+00	5.792638e-04	
201	3.400000e+00	5.801718e-04	
202	3.450000e+00	5.810770e-04	
203	3.500000e+00	5.819805e-04	
204	3.550000e+00	5.828832e-04	
205	3.600000e+00	5.837864e-04	
206	3.650000e+00	5.846913e-04	
207	3.700000e+00	5.855994e-04	
208	3.750000e+00	5.865121e-04	
209	3.800000e+00	5.874312e-04	
210	3.850000e+00	5.883584e-04	
211	3.900000e+00	5.892958e-04	
212	3.950000e+00	5.902455e-04	
213	4.000000e+00	5.912097e-04	
214	4.050000e+00	5.921911e-04	
215	4.100000e+00	5.931922e-04	
216	4.150000e+00	5.942160e-04	
217	4.200000e+00	5.952656e-04	
218	4.250000e+00	5.963441e-04	
219	4.300000e+00	5.974552e-04	
220	4.350000e+00	5.986026e-04	
221	4.400000e+00	5.997901e-04	
222	4.450000e+00	6.010220e-04	
223	4.500000e+00	6.023027e-04	
224	4.550000e+00	6.036367e-04	
225	4.600000e+00	6.050290e-04	
226	4.650000e+00	6.064847e-04	
227	4.700000e+00	6.080090e-04	
228	4.750000e+00	6.096075e-04	

Index   v-sweep         -i(vds)         
--------------------------------------------------------------------------------
229	4.800000e+00	6.112862e-04	
230	4.850000e+00	6.130509e-04	
231	4.900000e+00	6.149080e-04	
232	4.950000e+00	6.168639e-04	
233	5.000000e+00	6.189255e-04	
234	5.050000e+00	6.210997e-04	
235	5.100000e+00	6.233937e-04	
236	5.150000e+00	6.258148e-04	
237	5.200000e+00	6.283708e-04	
238	5.250000e+00	6.310694e-04	
239	5.300000e+00	6.339187e-04	
240	5.350000e+00	6.369269e-04	
241	5.400000e+00	6.401026e-04	
242	5.450000e+00	6.434543e-04	
243	5.500000e+00	6.469908e-04	
244	5.550000e+00	6.507211e-04	
245	5.600000e+00	6.546545e-04	
246	5.650000e+00	6.588003e-04	
247	5.700000e+00	6.631679e-04	
248	5.750000e+00	6.677670e-04	
249	5.800000e+00	6.726074e-04	
250	5.850000e+00	6.776990e-04	
251	5.900000e+00	6.830519e-04	
252	5.950000e+00	6.886763e-04	
253	6.000000e+00	6.945824e-04	
254	6.050000e+00	7.007806e-04	
255	6.100000e+00	7.072815e-04	
256	6.150000e+00	7.140957e-04	
257	6.200000e+00	7.212338e-04	
258	6.250000e+00	7.287065e-04	
259	6.300000e+00	7.365247e-04	
260	6.350000e+00	7.446993e-04	
261	6.400000e+00	7.532412e-04	
262	6.450000e+00	7.621614e-04	
263	6.500000e+00	7.714709e-04	
264	6.550000e+00	7.811808e-04	
265	6.600000e+00	7.913021e-04	
266	0.000000e+00	7.311398e-36	
267	5.000000e-02	1.043627e-04	
268	1.000000e-01	2.028989e-04	
269	1.500000e-01	2.957785e-04	
270	2.000000e-01	3.831665e-04	
271	2.500000e-01	4.652222e-04	
272	3.000000e-01	5.420985e-04	
273	3.500000e-01	6.139417e-04	
274	4.000000e-01	6.808912e-04	
275	4.500000e-01	7.430791e-04	
276	5.000000e-01	8.006300e-04	
277	5.500000e-01	8.536590e-04	
278	6.000000e-01	9.022683e-04	
279	6.500000e-01	9.465395e-04	
280	7.000000e-01	9.865187e-04	
281	7.500000e-01	1.022195e-03	
282	8.000000e-01	1.053475e-03	
283	8.500000e-01	1.080210e-03	
284	9.000000e-01	1.102345e-03	
285	9.500000e-01	1.120163e-03	
286	1.000000e+00	1.134338e-03	

Index   v-sweep         -i(vds)         
--------------------------------------------------------------------------------
287	1.050000e+00	1.145698e-03	
288	1.100000e+00	1.154976e-03	
289	1.150000e+00	1.162727e-03	
290	1.200000e+00	1.169343e-03	
291	1.250000e+00	1.175099e-03	
292	1.300000e+00	1.180186e-03	
293	1.350000e+00	1.184744e-03	
294	1.400000e+00	1.188874e-03	
295	1.450000e+00	1.192653e-03	
296	1.500000e+00	1.196138e-03	
297	1.550000e+00	1.199375e-03	
298	1.600000e+00	1.202400e-03	
299	1.650000e+00	1.205241e-03	
300	1.700000e+00	1.207923e-03	
301	1.750000e+00	1.210463e-03	
302	1.800000e+00	1.212879e-03	
303	1.850000e+00	1.215183e-03	
304	1.900000e+00	1.217388e-03	
305	1.950000e+00	1.219503e-03	
306	2.000000e+00	1.221536e-03	
307	2.050000e+00	1.223495e-03	
308	2.100000e+00	1.225387e-03	
309	2.150000e+00	1.227216e-03	
310	2.200000e+00	1.228988e-03	
311	2.250000e+00	1.230707e-03	
312	2.300000e+00	1.232378e-03	
313	2.350000e+00	1.234003e-03	
314	2.400000e+00	1.235585e-03	
315	2.450000e+00	1.237129e-03	
316	2.500000e+00	1.238635e-03	
317	2.550000e+00	1.240106e-03	
318	2.600000e+00	1.241546e-03	
319	2.650000e+00	1.242954e-03	
320	2.700000e+00	1.244334e-03	
321	2.750000e+00	1.245687e-03	
322	2.800000e+00	1.247014e-03	
323	2.850000e+00	1.248316e-03	
324	2.900000e+00	1.249596e-03	
325	2.950000e+00	1.250854e-03	
326	3.000000e+00	1.252091e-03	
327	3.050000e+00	1.253308e-03	
328	3.100000e+00	1.254507e-03	
329	3.150000e+00	1.255689e-03	
330	3.200000e+00	1.256853e-03	
331	3.250000e+00	1.258002e-03	
332	3.300000e+00	1.259137e-03	
333	3.350000e+00	1.260257e-03	
334	3.400000e+00	1.261365e-03	
335	3.450000e+00	1.262462e-03	
336	3.500000e+00	1.263547e-03	
337	3.550000e+00	1.264624e-03	
338	3.600000e+00	1.265693e-03	
339	3.650000e+00	1.266755e-03	
340	3.700000e+00	1.267813e-03	
341	3.750000e+00	1.268867e-03	
342	3.800000e+00	1.269920e-03	
343	3.850000e+00	1.270974e-03	
344	3.900000e+00	1.272031e-03	

Index   v-sweep         -i(vds)         
--------------------------------------------------------------------------------
345	3.950000e+00	1.273094e-03	
346	4.000000e+00	1.274165e-03	
347	4.050000e+00	1.275248e-03	
348	4.100000e+00	1.276346e-03	
349	4.150000e+00	1.277463e-03	
350	4.200000e+00	1.278602e-03	
351	4.250000e+00	1.279768e-03	
352	4.300000e+00	1.280966e-03	
353	4.350000e+00	1.282200e-03	
354	4.400000e+00	1.283477e-03	
355	4.450000e+00	1.284802e-03	
356	4.500000e+00	1.286181e-03	
357	4.550000e+00	1.287622e-03	
358	4.600000e+00	1.289131e-03	
359	4.650000e+00	1.290715e-03	
360	4.700000e+00	1.292384e-03	
361	4.750000e+00	1.294145e-03	
362	4.800000e+00	1.296008e-03	
363	4.850000e+00	1.297981e-03	
364	4.900000e+00	1.300076e-03	
365	4.950000e+00	1.302302e-03	
366	5.000000e+00	1.304670e-03	
367	5.050000e+00	1.307192e-03	
368	5.100000e+00	1.309879e-03	
369	5.150000e+00	1.312744e-03	
370	5.200000e+00	1.315800e-03	
371	5.250000e+00	1.319059e-03	
372	5.300000e+00	1.322536e-03	
373	5.350000e+00	1.326245e-03	
374	5.400000e+00	1.330200e-03	
375	5.450000e+00	1.334416e-03	
376	5.500000e+00	1.338909e-03	
377	5.550000e+00	1.343694e-03	
378	5.600000e+00	1.348788e-03	
379	5.650000e+00	1.354207e-03	
380	5.700000e+00	1.359969e-03	
381	5.750000e+00	1.366090e-03	
382	5.800000e+00	1.372588e-03	
383	5.850000e+00	1.379481e-03	
384	5.900000e+00	1.386788e-03	
385	5.950000e+00	1.394526e-03	
386	6.000000e+00	1.402715e-03	
387	6.050000e+00	1.411374e-03	
388	6.100000e+00	1.420521e-03	
389	6.150000e+00	1.430177e-03	
390	6.200000e+00	1.440361e-03	
391	6.250000e+00	1.451093e-03	
392	6.300000e+00	1.462393e-03	
393	6.350000e+00	1.474280e-03	
394	6.400000e+00	1.486776e-03	
395	6.450000e+00	1.499901e-03	
396	6.500000e+00	1.513675e-03	
397	6.550000e+00	1.528118e-03	
398	6.600000e+00	1.543252e-03	
399	0.000000e+00	-8.73242e-35	
400	5.000000e-02	1.302987e-04	
401	1.000000e-01	2.549866e-04	
402	1.500000e-01	3.742065e-04	

Index   v-sweep         -i(vds)         
--------------------------------------------------------------------------------
403	2.000000e-01	4.880979e-04	
404	2.500000e-01	5.967967e-04	
405	3.000000e-01	7.004345e-04	
406	3.500000e-01	7.991383e-04	
407	4.000000e-01	8.930298e-04	
408	4.500000e-01	9.822259e-04	
409	5.000000e-01	1.066838e-03	
410	5.500000e-01	1.146973e-03	
411	6.000000e-01	1.222732e-03	
412	6.500000e-01	1.294211e-03	
413	7.000000e-01	1.361503e-03	
414	7.500000e-01	1.424692e-03	
415	8.000000e-01	1.483853e-03	
416	8.500000e-01	1.539047e-03	
417	9.000000e-01	1.590314e-03	
418	9.500000e-01	1.637654e-03	
419	1.000000e+00	1.681009e-03	
420	1.050000e+00	1.720236e-03	
421	1.100000e+00	1.755099e-03	
422	1.150000e+00	1.785335e-03	
423	1.200000e+00	1.810840e-03	
424	1.250000e+00	1.831865e-03	
425	1.300000e+00	1.849021e-03	
426	1.350000e+00	1.863072e-03	
427	1.400000e+00	1.874730e-03	
428	1.450000e+00	1.884567e-03	
429	1.500000e+00	1.893010e-03	
430	1.550000e+00	1.900374e-03	
431	1.600000e+00	1.906887e-03	
432	1.650000e+00	1.912717e-03	
433	1.700000e+00	1.917991e-03	
434	1.750000e+00	1.922805e-03	
435	1.800000e+00	1.927234e-03	
436	1.850000e+00	1.931335e-03	
437	1.900000e+00	1.935156e-03	
438	1.950000e+00	1.938733e-03	
439	2.000000e+00	1.942098e-03	
440	2.050000e+00	1.945276e-03	
441	2.100000e+00	1.948289e-03	
442	2.150000e+00	1.951153e-03	
443	2.200000e+00	1.953885e-03	
444	2.250000e+00	1.956497e-03	
445	2.300000e+00	1.959001e-03	
446	2.350000e+00	1.961407e-03	
447	2.400000e+00	1.963722e-03	
448	2.450000e+00	1.965954e-03	
449	2.500000e+00	1.968111e-03	
450	2.550000e+00	1.970197e-03	
451	2.600000e+00	1.972218e-03	
452	2.650000e+00	1.974179e-03	
453	2.700000e+00	1.976083e-03	
454	2.750000e+00	1.977935e-03	
455	2.800000e+00	1.979739e-03	
456	2.850000e+00	1.981496e-03	
457	2.900000e+00	1.983209e-03	
458	2.950000e+00	1.984883e-03	
459	3.000000e+00	1.986518e-03	
460	3.050000e+00	1.988117e-03	

Index   v-sweep         -i(vds)         
--------------------------------------------------------------------------------
461	3.100000e+00	1.989682e-03	
462	3.150000e+00	1.991214e-03	
463	3.200000e+00	1.992717e-03	
464	3.250000e+00	1.994190e-03	
465	3.300000e+00	1.995636e-03	
466	3.350000e+00	1.997056e-03	
467	3.400000e+00	1.998451e-03	
468	3.450000e+00	1.999823e-03	
469	3.500000e+00	2.001174e-03	
470	3.550000e+00	2.002504e-03	
471	3.600000e+00	2.003815e-03	
472	3.650000e+00	2.005108e-03	
473	3.700000e+00	2.006386e-03	
474	3.750000e+00	2.007649e-03	
475	3.800000e+00	2.008899e-03	
476	3.850000e+00	2.010138e-03	
477	3.900000e+00	2.011368e-03	
478	3.950000e+00	2.012591e-03	
479	4.000000e+00	2.013810e-03	
480	4.050000e+00	2.015028e-03	
481	4.100000e+00	2.016247e-03	
482	4.150000e+00	2.017471e-03	
483	4.200000e+00	2.018703e-03	
484	4.250000e+00	2.019948e-03	
485	4.300000e+00	2.021210e-03	
486	4.350000e+00	2.022494e-03	
487	4.400000e+00	2.023805e-03	
488	4.450000e+00	2.025149e-03	
489	4.500000e+00	2.026533e-03	
490	4.550000e+00	2.027963e-03	
491	4.600000e+00	2.029447e-03	
492	4.650000e+00	2.030993e-03	
493	4.700000e+00	2.032610e-03	
494	4.750000e+00	2.034307e-03	
495	4.800000e+00	2.036094e-03	
496	4.850000e+00	2.037982e-03	
497	4.900000e+00	2.039982e-03	
498	4.950000e+00	2.042107e-03	
499	5.000000e+00	2.044369e-03	
500	5.050000e+00	2.046782e-03	
501	5.100000e+00	2.049359e-03	
502	5.150000e+00	2.052117e-03	
503	5.200000e+00	2.055071e-03	
504	5.250000e+00	2.058236e-03	
505	5.300000e+00	2.061631e-03	
506	5.350000e+00	2.065273e-03	
507	5.400000e+00	2.069182e-03	
508	5.450000e+00	2.073375e-03	
509	5.500000e+00	2.077874e-03	
510	5.550000e+00	2.082699e-03	
511	5.600000e+00	2.087871e-03	
512	5.650000e+00	2.093413e-03	
513	5.700000e+00	2.099348e-03	
514	5.750000e+00	2.105698e-03	
515	5.800000e+00	2.112487e-03	
516	5.850000e+00	2.119741e-03	
517	5.900000e+00	2.127484e-03	
518	5.950000e+00	2.135741e-03	

Index   v-sweep         -i(vds)         
--------------------------------------------------------------------------------
519	6.000000e+00	2.144540e-03	
520	6.050000e+00	2.153906e-03	
521	6.100000e+00	2.163866e-03	
522	6.150000e+00	2.174449e-03	
523	6.200000e+00	2.185681e-03	
524	6.250000e+00	2.197592e-03	
525	6.300000e+00	2.210209e-03	
526	6.350000e+00	2.223561e-03	
527	6.400000e+00	2.237678e-03	
528	6.450000e+00	2.252589e-03	
529	6.500000e+00	2.268323e-03	
530	6.550000e+00	2.284910e-03	
531	6.600000e+00	2.302381e-03	
532	0.000000e+00	-5.98207e-20	
533	5.000000e-02	1.482754e-04	
534	1.000000e-01	2.913150e-04	
535	1.500000e-01	4.292342e-04	
536	2.000000e-01	5.621467e-04	
537	2.500000e-01	6.901635e-04	
538	3.000000e-01	8.133934e-04	
539	3.500000e-01	9.319417e-04	
540	4.000000e-01	1.045911e-03	
541	4.500000e-01	1.155399e-03	
542	5.000000e-01	1.260502e-03	
543	5.500000e-01	1.361310e-03	
544	6.000000e-01	1.457911e-03	
545	6.500000e-01	1.550389e-03	
546	7.000000e-01	1.638824e-03	
547	7.500000e-01	1.723294e-03	
548	8.000000e-01	1.803874e-03	
549	8.500000e-01	1.880636e-03	
550	9.000000e-01	1.953647e-03	
551	9.500000e-01	2.022971e-03	
552	1.000000e+00	2.088667e-03	
553	1.050000e+00	2.150784e-03	
554	1.100000e+00	2.209357e-03	
555	1.150000e+00	2.264399e-03	
556	1.200000e+00	2.315888e-03	
557	1.250000e+00	2.363750e-03	
558	1.300000e+00	2.407834e-03	
559	1.350000e+00	2.447899e-03	
560	1.400000e+00	2.483643e-03	
561	1.450000e+00	2.514812e-03	
562	1.500000e+00	2.541373e-03	
563	1.550000e+00	2.563636e-03	
564	1.600000e+00	2.582183e-03	
565	1.650000e+00	2.597694e-03	
566	1.700000e+00	2.610802e-03	
567	1.750000e+00	2.622028e-03	
568	1.800000e+00	2.631776e-03	
569	1.850000e+00	2.640351e-03	
570	1.900000e+00	2.647985e-03	
571	1.950000e+00	2.654852e-03	
572	2.000000e+00	2.661086e-03	
573	2.050000e+00	2.666791e-03	
574	2.100000e+00	2.672048e-03	
575	2.150000e+00	2.676922e-03	
576	2.200000e+00	2.681465e-03	

Index   v-sweep         -i(vds)         
--------------------------------------------------------------------------------
577	2.250000e+00	2.685721e-03	
578	2.300000e+00	2.689725e-03	
579	2.350000e+00	2.693505e-03	
580	2.400000e+00	2.697088e-03	
581	2.450000e+00	2.700492e-03	
582	2.500000e+00	2.703737e-03	
583	2.550000e+00	2.706838e-03	
584	2.600000e+00	2.709807e-03	
585	2.650000e+00	2.712657e-03	
586	2.700000e+00	2.715397e-03	
587	2.750000e+00	2.718037e-03	
588	2.800000e+00	2.720585e-03	
589	2.850000e+00	2.723046e-03	
590	2.900000e+00	2.725429e-03	
591	2.950000e+00	2.727737e-03	
592	3.000000e+00	2.729977e-03	
593	3.050000e+00	2.732153e-03	
594	3.100000e+00	2.734269e-03	
595	3.150000e+00	2.736328e-03	
596	3.200000e+00	2.738335e-03	
597	3.250000e+00	2.740291e-03	
598	3.300000e+00	2.742201e-03	
599	3.350000e+00	2.744066e-03	
600	3.400000e+00	2.745890e-03	
601	3.450000e+00	2.747674e-03	
602	3.500000e+00	2.749420e-03	
603	3.550000e+00	2.751131e-03	
604	3.600000e+00	2.752809e-03	
605	3.650000e+00	2.754454e-03	
606	3.700000e+00	2.756070e-03	
607	3.750000e+00	2.757657e-03	
608	3.800000e+00	2.759218e-03	
609	3.850000e+00	2.760754e-03	
610	3.900000e+00	2.762267e-03	
611	3.950000e+00	2.763759e-03	
612	4.000000e+00	2.765232e-03	
613	4.050000e+00	2.766689e-03	
614	4.100000e+00	2.768131e-03	
615	4.150000e+00	2.769560e-03	
616	4.200000e+00	2.770981e-03	
617	4.250000e+00	2.772396e-03	
618	4.300000e+00	2.773809e-03	
619	4.350000e+00	2.775222e-03	
620	4.400000e+00	2.776642e-03	
621	4.450000e+00	2.778072e-03	
622	4.500000e+00	2.779517e-03	
623	4.550000e+00	2.780983e-03	
624	4.600000e+00	2.782477e-03	
625	4.650000e+00	2.784006e-03	
626	4.700000e+00	2.785577e-03	
627	4.750000e+00	2.787198e-03	
628	4.800000e+00	2.788879e-03	
629	4.850000e+00	2.790629e-03	
630	4.900000e+00	2.792459e-03	
631	4.950000e+00	2.794380e-03	
632	5.000000e+00	2.796406e-03	
633	5.050000e+00	2.798548e-03	
634	5.100000e+00	2.800821e-03	

Index   v-sweep         -i(vds)         
--------------------------------------------------------------------------------
635	5.150000e+00	2.803240e-03	
636	5.200000e+00	2.805821e-03	
637	5.250000e+00	2.808582e-03	
638	5.300000e+00	2.811539e-03	
639	5.350000e+00	2.814712e-03	
640	5.400000e+00	2.818121e-03	
641	5.450000e+00	2.821786e-03	
642	5.500000e+00	2.825730e-03	
643	5.550000e+00	2.829976e-03	
644	5.600000e+00	2.834546e-03	
645	5.650000e+00	2.839467e-03	
646	5.700000e+00	2.844764e-03	
647	5.750000e+00	2.850463e-03	
648	5.800000e+00	2.856592e-03	
649	5.850000e+00	2.863180e-03	
650	5.900000e+00	2.870256e-03	
651	5.950000e+00	2.877851e-03	
652	6.000000e+00	2.885995e-03	
653	6.050000e+00	2.894721e-03	
654	6.100000e+00	2.904060e-03	
655	6.150000e+00	2.914047e-03	
656	6.200000e+00	2.924716e-03	
657	6.250000e+00	2.936100e-03	
658	6.300000e+00	2.948237e-03	
659	6.350000e+00	2.961160e-03	
660	6.400000e+00	2.974907e-03	
661	6.450000e+00	2.989515e-03	
662	6.500000e+00	3.005021e-03	
663	6.550000e+00	3.021462e-03	
664	6.600000e+00	3.038877e-03	
665	0.000000e+00	8.892385e-20	
666	5.000000e-02	1.601488e-04	
667	1.000000e-01	3.155106e-04	
668	1.500000e-01	4.661772e-04	
669	2.000000e-01	6.122394e-04	
670	2.500000e-01	7.537865e-04	
671	3.000000e-01	8.909061e-04	
672	3.500000e-01	1.023684e-03	
673	4.000000e-01	1.152204e-03	
674	4.500000e-01	1.276547e-03	
675	5.000000e-01	1.396792e-03	
676	5.500000e-01	1.513015e-03	
677	6.000000e-01	1.625291e-03	
678	6.500000e-01	1.733689e-03	
679	7.000000e-01	1.838279e-03	
680	7.500000e-01	1.939125e-03	
681	8.000000e-01	2.036293e-03	
682	8.500000e-01	2.129843e-03	
683	9.000000e-01	2.219836e-03	
684	9.500000e-01	2.306329e-03	
685	1.000000e+00	2.389379e-03	
686	1.050000e+00	2.469040e-03	
687	1.100000e+00	2.545364e-03	
688	1.150000e+00	2.618403e-03	
689	1.200000e+00	2.688202e-03	
690	1.250000e+00	2.754803e-03	
691	1.300000e+00	2.818239e-03	
692	1.350000e+00	2.878530e-03	

Index   v-sweep         -i(vds)         
--------------------------------------------------------------------------------
693	1.400000e+00	2.935681e-03	
694	1.450000e+00	2.989663e-03	
695	1.500000e+00	3.040407e-03	
696	1.550000e+00	3.087784e-03	
697	1.600000e+00	3.131585e-03	
698	1.650000e+00	3.171533e-03	
699	1.700000e+00	3.207326e-03	
700	1.750000e+00	3.238762e-03	
701	1.800000e+00	3.265871e-03	
702	1.850000e+00	3.288967e-03	
703	1.900000e+00	3.308569e-03	
704	1.950000e+00	3.325264e-03	
705	2.000000e+00	3.339604e-03	
706	2.050000e+00	3.352053e-03	
707	2.100000e+00	3.362983e-03	
708	2.150000e+00	3.372685e-03	
709	2.200000e+00	3.381382e-03	
710	2.250000e+00	3.389250e-03	
711	2.300000e+00	3.396424e-03	
712	2.350000e+00	3.403012e-03	
713	2.400000e+00	3.409100e-03	
714	2.450000e+00	3.414757e-03	
715	2.500000e+00	3.420041e-03	
716	2.550000e+00	3.424997e-03	
717	2.600000e+00	3.429664e-03	
718	2.650000e+00	3.434074e-03	
719	2.700000e+00	3.438256e-03	
720	2.750000e+00	3.442232e-03	
721	2.800000e+00	3.446023e-03	
722	2.850000e+00	3.449646e-03	
723	2.900000e+00	3.453115e-03	
724	2.950000e+00	3.456445e-03	
725	3.000000e+00	3.459647e-03	
726	3.050000e+00	3.462730e-03	
727	3.100000e+00	3.465705e-03	
728	3.150000e+00	3.468578e-03	
729	3.200000e+00	3.471358e-03	
730	3.250000e+00	3.474051e-03	
731	3.300000e+00	3.476663e-03	
732	3.350000e+00	3.479198e-03	
733	3.400000e+00	3.481663e-03	
734	3.450000e+00	3.484060e-03	
735	3.500000e+00	3.486395e-03	
736	3.550000e+00	3.488670e-03	
737	3.600000e+00	3.490890e-03	
738	3.650000e+00	3.493057e-03	
739	3.700000e+00	3.495174e-03	
740	3.750000e+00	3.497244e-03	
741	3.800000e+00	3.499269e-03	
742	3.850000e+00	3.501252e-03	
743	3.900000e+00	3.503195e-03	
744	3.950000e+00	3.505100e-03	
745	4.000000e+00	3.506970e-03	
746	4.050000e+00	3.508806e-03	
747	4.100000e+00	3.510610e-03	
748	4.150000e+00	3.512385e-03	
749	4.200000e+00	3.514134e-03	
750	4.250000e+00	3.515858e-03	

Index   v-sweep         -i(vds)         
--------------------------------------------------------------------------------
751	4.300000e+00	3.517560e-03	
752	4.350000e+00	3.519242e-03	
753	4.400000e+00	3.520909e-03	
754	4.450000e+00	3.522563e-03	
755	4.500000e+00	3.524208e-03	
756	4.550000e+00	3.525848e-03	
757	4.600000e+00	3.527487e-03	
758	4.650000e+00	3.529131e-03	
759	4.700000e+00	3.530784e-03	
760	4.750000e+00	3.532454e-03	
761	4.800000e+00	3.534147e-03	
762	4.850000e+00	3.535871e-03	
763	4.900000e+00	3.537633e-03	
764	4.950000e+00	3.539444e-03	
765	5.000000e+00	3.541312e-03	
766	5.050000e+00	3.543249e-03	
767	5.100000e+00	3.545266e-03	
768	5.150000e+00	3.547377e-03	
769	5.200000e+00	3.549595e-03	
770	5.250000e+00	3.551935e-03	
771	5.300000e+00	3.554412e-03	
772	5.350000e+00	3.557045e-03	
773	5.400000e+00	3.559851e-03	
774	5.450000e+00	3.562850e-03	
775	5.500000e+00	3.566063e-03	
776	5.550000e+00	3.569510e-03	
777	5.600000e+00	3.573216e-03	
778	5.650000e+00	3.577205e-03	
779	5.700000e+00	3.581503e-03	
780	5.750000e+00	3.586135e-03	
781	5.800000e+00	3.591131e-03	
782	5.850000e+00	3.596519e-03	
783	5.900000e+00	3.602330e-03	
784	5.950000e+00	3.608596e-03	
785	6.000000e+00	3.615350e-03	
786	6.050000e+00	3.622625e-03	
787	6.100000e+00	3.630457e-03	
788	6.150000e+00	3.638882e-03	
789	6.200000e+00	3.647938e-03	
790	6.250000e+00	3.657662e-03	
791	6.300000e+00	3.668094e-03	
792	6.350000e+00	3.679274e-03	
793	6.400000e+00	3.691243e-03	
794	6.450000e+00	3.704044e-03	
795	6.500000e+00	3.717718e-03	
796	6.550000e+00	3.732310e-03	
797	6.600000e+00	3.747864e-03	
Note: No ".plot", ".print", or ".fourier" lines; no simulations run
