
Note: Compatibility modes selected: hs

Warning: m=xx on .subckt line will override multiplier m hierarchy!


Circuit: ***************************

Doing analysis at TEMP = -40.000000 and TNOM = -40.000000


No. of Data Rows : 798
                          ***************************
                          DC transfer characteristic  Mon Jan  9 13:58:36  2023
--------------------------------------------------------------------------------
Index   v-sweep         -i(vds)         
--------------------------------------------------------------------------------
0	0.000000e+00	-4.12393e-23	
1	5.000000e-02	1.587894e-07	
2	1.000000e-01	2.733266e-07	
3	1.500000e-01	3.453187e-07	
4	2.000000e-01	3.807541e-07	
5	2.500000e-01	3.936228e-07	
6	3.000000e-01	3.979537e-07	
7	3.500000e-01	3.997767e-07	
8	4.000000e-01	4.007899e-07	
9	4.500000e-01	4.014855e-07	
10	5.000000e-01	4.020340e-07	
11	5.500000e-01	4.025048e-07	
12	6.000000e-01	4.029306e-07	
13	6.500000e-01	4.033281e-07	
14	7.000000e-01	4.037068e-07	
15	7.500000e-01	4.040724e-07	
16	8.000000e-01	4.044284e-07	
17	8.500000e-01	4.047773e-07	
18	9.000000e-01	4.051207e-07	
19	9.500000e-01	4.054598e-07	
20	1.000000e+00	4.057953e-07	
21	1.050000e+00	4.061280e-07	
22	1.100000e+00	4.064582e-07	
23	1.150000e+00	4.067865e-07	
24	1.200000e+00	4.071130e-07	
25	1.250000e+00	4.074380e-07	
26	1.300000e+00	4.077618e-07	
27	1.350000e+00	4.080844e-07	
28	1.400000e+00	4.084060e-07	
29	1.450000e+00	4.087267e-07	
30	1.500000e+00	4.090466e-07	
31	1.550000e+00	4.093657e-07	
32	1.600000e+00	4.096843e-07	
33	1.650000e+00	4.100022e-07	
34	1.700000e+00	4.103196e-07	
35	1.750000e+00	4.106365e-07	
36	1.800000e+00	4.109529e-07	
37	1.850000e+00	4.112689e-07	
38	1.900000e+00	4.115845e-07	
39	1.950000e+00	4.118998e-07	
40	2.000000e+00	4.122147e-07	
41	2.050000e+00	4.125293e-07	
42	2.100000e+00	4.128437e-07	
43	2.150000e+00	4.131577e-07	
44	2.200000e+00	4.134716e-07	
45	2.250000e+00	4.137852e-07	
46	2.300000e+00	4.140986e-07	
47	2.350000e+00	4.144119e-07	
48	2.400000e+00	4.147251e-07	
49	2.450000e+00	4.150383e-07	
50	2.500000e+00	4.153514e-07	
51	2.550000e+00	4.156646e-07	
52	2.600000e+00	4.159780e-07	
53	2.650000e+00	4.162917e-07	
54	2.700000e+00	4.166058e-07	

Index   v-sweep         -i(vds)         
--------------------------------------------------------------------------------
55	2.750000e+00	4.169205e-07	
56	2.800000e+00	4.172359e-07	
57	2.850000e+00	4.175523e-07	
58	2.900000e+00	4.178700e-07	
59	2.950000e+00	4.181893e-07	
60	3.000000e+00	4.185105e-07	
61	3.050000e+00	4.188341e-07	
62	3.100000e+00	4.191605e-07	
63	3.150000e+00	4.194904e-07	
64	3.200000e+00	4.198244e-07	
65	3.250000e+00	4.201631e-07	
66	3.300000e+00	4.205074e-07	
67	3.350000e+00	4.208582e-07	
68	3.400000e+00	4.212165e-07	
69	3.450000e+00	4.215833e-07	
70	3.500000e+00	4.219600e-07	
71	3.550000e+00	4.223478e-07	
72	3.600000e+00	4.227483e-07	
73	3.650000e+00	4.231629e-07	
74	3.700000e+00	4.235935e-07	
75	3.750000e+00	4.240419e-07	
76	3.800000e+00	4.245100e-07	
77	3.850000e+00	4.250001e-07	
78	3.900000e+00	4.255145e-07	
79	3.950000e+00	4.260556e-07	
80	4.000000e+00	4.266260e-07	
81	4.050000e+00	4.272285e-07	
82	4.100000e+00	4.278661e-07	
83	4.150000e+00	4.285418e-07	
84	4.200000e+00	4.292590e-07	
85	4.250000e+00	4.300210e-07	
86	4.300000e+00	4.308314e-07	
87	4.350000e+00	4.316941e-07	
88	4.400000e+00	4.326130e-07	
89	4.450000e+00	4.335922e-07	
90	4.500000e+00	4.346360e-07	
91	4.550000e+00	4.357487e-07	
92	4.600000e+00	4.369351e-07	
93	4.650000e+00	4.381999e-07	
94	4.700000e+00	4.395480e-07	
95	4.750000e+00	4.409845e-07	
96	4.800000e+00	4.425147e-07	
97	4.850000e+00	4.441440e-07	
98	4.900000e+00	4.458778e-07	
99	4.950000e+00	4.477220e-07	
100	5.000000e+00	4.496824e-07	
101	5.050000e+00	4.517649e-07	
102	5.100000e+00	4.539757e-07	
103	5.150000e+00	4.563211e-07	
104	5.200000e+00	4.588074e-07	
105	5.250000e+00	4.614411e-07	
106	5.300000e+00	4.642289e-07	
107	5.350000e+00	4.671775e-07	
108	5.400000e+00	4.702938e-07	
109	5.450000e+00	4.735847e-07	
110	5.500000e+00	4.770574e-07	
111	5.550000e+00	4.807190e-07	
112	5.600000e+00	4.845767e-07	

Index   v-sweep         -i(vds)         
--------------------------------------------------------------------------------
113	5.650000e+00	4.886379e-07	
114	5.700000e+00	4.929100e-07	
115	5.750000e+00	4.974007e-07	
116	5.800000e+00	5.021173e-07	
117	5.850000e+00	5.070677e-07	
118	5.900000e+00	5.122595e-07	
119	5.950000e+00	5.177006e-07	
120	6.000000e+00	5.233987e-07	
121	6.050000e+00	5.293618e-07	
122	6.100000e+00	5.355978e-07	
123	6.150000e+00	5.421147e-07	
124	6.200000e+00	5.489205e-07	
125	6.250000e+00	5.560233e-07	
126	6.300000e+00	5.634311e-07	
127	6.350000e+00	5.711522e-07	
128	6.400000e+00	5.791945e-07	
129	6.450000e+00	5.875663e-07	
130	6.500000e+00	5.962757e-07	
131	6.550000e+00	6.053310e-07	
132	6.600000e+00	6.147402e-07	
133	0.000000e+00	-7.90602e-22	
134	5.000000e-02	8.742629e-07	
135	1.000000e-01	1.701068e-06	
136	1.500000e-01	2.480524e-06	
137	2.000000e-01	3.212742e-06	
138	2.500000e-01	3.897831e-06	
139	3.000000e-01	4.535905e-06	
140	3.500000e-01	5.127079e-06	
141	4.000000e-01	5.671471e-06	
142	4.500000e-01	6.169209e-06	
143	5.000000e-01	6.620428e-06	
144	5.500000e-01	7.025287e-06	
145	6.000000e-01	7.383976e-06	
146	6.500000e-01	7.696748e-06	
147	7.000000e-01	7.963977e-06	
148	7.500000e-01	8.186272e-06	
149	8.000000e-01	8.364720e-06	
150	8.500000e-01	8.501340e-06	
151	9.000000e-01	8.599832e-06	
152	9.500000e-01	8.666261e-06	
153	1.000000e+00	8.708688e-06	
154	1.050000e+00	8.735260e-06	
155	1.100000e+00	8.752285e-06	
156	1.150000e+00	8.763768e-06	
157	1.200000e+00	8.772007e-06	
158	1.250000e+00	8.778281e-06	
159	1.300000e+00	8.783311e-06	
160	1.350000e+00	8.787518e-06	
161	1.400000e+00	8.791159e-06	
162	1.450000e+00	8.794396e-06	
163	1.500000e+00	8.797336e-06	
164	1.550000e+00	8.800050e-06	
165	1.600000e+00	8.802590e-06	
166	1.650000e+00	8.804991e-06	
167	1.700000e+00	8.807282e-06	
168	1.750000e+00	8.809481e-06	
169	1.800000e+00	8.811604e-06	
170	1.850000e+00	8.813664e-06	

Index   v-sweep         -i(vds)         
--------------------------------------------------------------------------------
171	1.900000e+00	8.815670e-06	
172	1.950000e+00	8.817629e-06	
173	2.000000e+00	8.819549e-06	
174	2.050000e+00	8.821433e-06	
175	2.100000e+00	8.823286e-06	
176	2.150000e+00	8.825112e-06	
177	2.200000e+00	8.826914e-06	
178	2.250000e+00	8.828693e-06	
179	2.300000e+00	8.830454e-06	
180	2.350000e+00	8.832196e-06	
181	2.400000e+00	8.833922e-06	
182	2.450000e+00	8.835634e-06	
183	2.500000e+00	8.837332e-06	
184	2.550000e+00	8.839018e-06	
185	2.600000e+00	8.840692e-06	
186	2.650000e+00	8.842356e-06	
187	2.700000e+00	8.844011e-06	
188	2.750000e+00	8.845656e-06	
189	2.800000e+00	8.847293e-06	
190	2.850000e+00	8.848922e-06	
191	2.900000e+00	8.850545e-06	
192	2.950000e+00	8.852161e-06	
193	3.000000e+00	8.853771e-06	
194	3.050000e+00	8.855377e-06	
195	3.100000e+00	8.856978e-06	
196	3.150000e+00	8.858576e-06	
197	3.200000e+00	8.860172e-06	
198	3.250000e+00	8.861768e-06	
199	3.300000e+00	8.863365e-06	
200	3.350000e+00	8.864965e-06	
201	3.400000e+00	8.866570e-06	
202	3.450000e+00	8.868184e-06	
203	3.500000e+00	8.869809e-06	
204	3.550000e+00	8.871451e-06	
205	3.600000e+00	8.873114e-06	
206	3.650000e+00	8.874805e-06	
207	3.700000e+00	8.876529e-06	
208	3.750000e+00	8.878294e-06	
209	3.800000e+00	8.880111e-06	
210	3.850000e+00	8.881989e-06	
211	3.900000e+00	8.883941e-06	
212	3.950000e+00	8.885979e-06	
213	4.000000e+00	8.888120e-06	
214	4.050000e+00	8.890381e-06	
215	4.100000e+00	8.892779e-06	
216	4.150000e+00	8.895338e-06	
217	4.200000e+00	8.898079e-06	
218	4.250000e+00	8.901029e-06	
219	4.300000e+00	8.904216e-06	
220	4.350000e+00	8.907671e-06	
221	4.400000e+00	8.911426e-06	
222	4.450000e+00	8.915519e-06	
223	4.500000e+00	8.919988e-06	
224	4.550000e+00	8.924875e-06	
225	4.600000e+00	8.930225e-06	
226	4.650000e+00	8.936086e-06	
227	4.700000e+00	8.942509e-06	
228	4.750000e+00	8.949548e-06	

Index   v-sweep         -i(vds)         
--------------------------------------------------------------------------------
229	4.800000e+00	8.957262e-06	
230	4.850000e+00	8.965710e-06	
231	4.900000e+00	8.974957e-06	
232	4.950000e+00	8.985071e-06	
233	5.000000e+00	8.996122e-06	
234	5.050000e+00	9.008184e-06	
235	5.100000e+00	9.021335e-06	
236	5.150000e+00	9.035656e-06	
237	5.200000e+00	9.051231e-06	
238	5.250000e+00	9.068148e-06	
239	5.300000e+00	9.086497e-06	
240	5.350000e+00	9.106371e-06	
241	5.400000e+00	9.127870e-06	
242	5.450000e+00	9.151091e-06	
243	5.500000e+00	9.176140e-06	
244	5.550000e+00	9.203121e-06	
245	5.600000e+00	9.232145e-06	
246	5.650000e+00	9.263324e-06	
247	5.700000e+00	9.296773e-06	
248	5.750000e+00	9.332609e-06	
249	5.800000e+00	9.370953e-06	
250	5.850000e+00	9.411927e-06	
251	5.900000e+00	9.455658e-06	
252	5.950000e+00	9.502272e-06	
253	6.000000e+00	9.551900e-06	
254	6.050000e+00	9.604674e-06	
255	6.100000e+00	9.660729e-06	
256	6.150000e+00	9.720200e-06	
257	6.200000e+00	9.783226e-06	
258	6.250000e+00	9.849947e-06	
259	6.300000e+00	9.920505e-06	
260	6.350000e+00	9.995043e-06	
261	6.400000e+00	1.007370e-05	
262	6.450000e+00	1.015664e-05	
263	6.500000e+00	1.024399e-05	
264	6.550000e+00	1.033591e-05	
265	6.600000e+00	1.043254e-05	
266	0.000000e+00	2.095181e-22	
267	5.000000e-02	1.488005e-06	
268	1.000000e-01	2.931512e-06	
269	1.500000e-01	4.330633e-06	
270	2.000000e-01	5.685476e-06	
271	2.500000e-01	6.996150e-06	
272	3.000000e-01	8.262764e-06	
273	3.500000e-01	9.485426e-06	
274	4.000000e-01	1.066424e-05	
275	4.500000e-01	1.179933e-05	
276	5.000000e-01	1.289078e-05	
277	5.500000e-01	1.393871e-05	
278	6.000000e-01	1.494323e-05	
279	6.500000e-01	1.590444e-05	
280	7.000000e-01	1.682245e-05	
281	7.500000e-01	1.769736e-05	
282	8.000000e-01	1.852928e-05	
283	8.500000e-01	1.931832e-05	
284	9.000000e-01	2.006459e-05	
285	9.500000e-01	2.076818e-05	
286	1.000000e+00	2.142921e-05	

Index   v-sweep         -i(vds)         
--------------------------------------------------------------------------------
287	1.050000e+00	2.204779e-05	
288	1.100000e+00	2.262404e-05	
289	1.150000e+00	2.315805e-05	
290	1.200000e+00	2.364998e-05	
291	1.250000e+00	2.409994e-05	
292	1.300000e+00	2.450811e-05	
293	1.350000e+00	2.487469e-05	
294	1.400000e+00	2.519994e-05	
295	1.450000e+00	2.548427e-05	
296	1.500000e+00	2.572829e-05	
297	1.550000e+00	2.593299e-05	
298	1.600000e+00	2.610003e-05	
299	1.650000e+00	2.623204e-05	
300	1.700000e+00	2.633293e-05	
301	1.750000e+00	2.640782e-05	
302	1.800000e+00	2.646245e-05	
303	1.850000e+00	2.650225e-05	
304	1.900000e+00	2.653165e-05	
305	1.950000e+00	2.655392e-05	
306	2.000000e+00	2.657130e-05	
307	2.050000e+00	2.658528e-05	
308	2.100000e+00	2.659686e-05	
309	2.150000e+00	2.660670e-05	
310	2.200000e+00	2.661524e-05	
311	2.250000e+00	2.662281e-05	
312	2.300000e+00	2.662962e-05	
313	2.350000e+00	2.663584e-05	
314	2.400000e+00	2.664157e-05	
315	2.450000e+00	2.664692e-05	
316	2.500000e+00	2.665195e-05	
317	2.550000e+00	2.665672e-05	
318	2.600000e+00	2.666126e-05	
319	2.650000e+00	2.666560e-05	
320	2.700000e+00	2.666978e-05	
321	2.750000e+00	2.667382e-05	
322	2.800000e+00	2.667774e-05	
323	2.850000e+00	2.668154e-05	
324	2.900000e+00	2.668525e-05	
325	2.950000e+00	2.668887e-05	
326	3.000000e+00	2.669241e-05	
327	3.050000e+00	2.669588e-05	
328	3.100000e+00	2.669929e-05	
329	3.150000e+00	2.670265e-05	
330	3.200000e+00	2.670595e-05	
331	3.250000e+00	2.670920e-05	
332	3.300000e+00	2.671241e-05	
333	3.350000e+00	2.671558e-05	
334	3.400000e+00	2.671872e-05	
335	3.450000e+00	2.672182e-05	
336	3.500000e+00	2.672489e-05	
337	3.550000e+00	2.672793e-05	
338	3.600000e+00	2.673094e-05	
339	3.650000e+00	2.673393e-05	
340	3.700000e+00	2.673690e-05	
341	3.750000e+00	2.673984e-05	
342	3.800000e+00	2.674277e-05	
343	3.850000e+00	2.674569e-05	
344	3.900000e+00	2.674859e-05	

Index   v-sweep         -i(vds)         
--------------------------------------------------------------------------------
345	3.950000e+00	2.675148e-05	
346	4.000000e+00	2.675437e-05	
347	4.050000e+00	2.675726e-05	
348	4.100000e+00	2.676015e-05	
349	4.150000e+00	2.676305e-05	
350	4.200000e+00	2.676598e-05	
351	4.250000e+00	2.676894e-05	
352	4.300000e+00	2.677194e-05	
353	4.350000e+00	2.677500e-05	
354	4.400000e+00	2.677814e-05	
355	4.450000e+00	2.678137e-05	
356	4.500000e+00	2.678471e-05	
357	4.550000e+00	2.678820e-05	
358	4.600000e+00	2.679186e-05	
359	4.650000e+00	2.679574e-05	
360	4.700000e+00	2.679985e-05	
361	4.750000e+00	2.680427e-05	
362	4.800000e+00	2.680902e-05	
363	4.850000e+00	2.681417e-05	
364	4.900000e+00	2.681977e-05	
365	4.950000e+00	2.682591e-05	
366	5.000000e+00	2.683265e-05	
367	5.050000e+00	2.684007e-05	
368	5.100000e+00	2.684826e-05	
369	5.150000e+00	2.685733e-05	
370	5.200000e+00	2.686737e-05	
371	5.250000e+00	2.687851e-05	
372	5.300000e+00	2.689086e-05	
373	5.350000e+00	2.690455e-05	
374	5.400000e+00	2.691974e-05	
375	5.450000e+00	2.693656e-05	
376	5.500000e+00	2.695518e-05	
377	5.550000e+00	2.697577e-05	
378	5.600000e+00	2.699850e-05	
379	5.650000e+00	2.702357e-05	
380	5.700000e+00	2.705118e-05	
381	5.750000e+00	2.708153e-05	
382	5.800000e+00	2.711485e-05	
383	5.850000e+00	2.715135e-05	
384	5.900000e+00	2.719129e-05	
385	5.950000e+00	2.723491e-05	
386	6.000000e+00	2.728247e-05	
387	6.050000e+00	2.733423e-05	
388	6.100000e+00	2.739048e-05	
389	6.150000e+00	2.745151e-05	
390	6.200000e+00	2.751761e-05	
391	6.250000e+00	2.758908e-05	
392	6.300000e+00	2.766624e-05	
393	6.350000e+00	2.774942e-05	
394	6.400000e+00	2.783895e-05	
395	6.450000e+00	2.793517e-05	
396	6.500000e+00	2.803843e-05	
397	6.550000e+00	2.814908e-05	
398	6.600000e+00	2.826749e-05	
399	0.000000e+00	-7.13721e-22	
400	5.000000e-02	1.980187e-06	
401	1.000000e-01	3.919770e-06	
402	1.500000e-01	5.818848e-06	

Index   v-sweep         -i(vds)         
--------------------------------------------------------------------------------
403	2.000000e-01	7.677520e-06	
404	2.500000e-01	9.495885e-06	
405	3.000000e-01	1.127404e-05	
406	3.500000e-01	1.301208e-05	
407	4.000000e-01	1.471011e-05	
408	4.500000e-01	1.636823e-05	
409	5.000000e-01	1.798652e-05	
410	5.500000e-01	1.956509e-05	
411	6.000000e-01	2.110403e-05	
412	6.500000e-01	2.260344e-05	
413	7.000000e-01	2.406342e-05	
414	7.500000e-01	2.548406e-05	
415	8.000000e-01	2.686545e-05	
416	8.500000e-01	2.820769e-05	
417	9.000000e-01	2.951087e-05	
418	9.500000e-01	3.077509e-05	
419	1.000000e+00	3.200045e-05	
420	1.050000e+00	3.318702e-05	
421	1.100000e+00	3.433492e-05	
422	1.150000e+00	3.544422e-05	
423	1.200000e+00	3.651503e-05	
424	1.250000e+00	3.754743e-05	
425	1.300000e+00	3.854151e-05	
426	1.350000e+00	3.949737e-05	
427	1.400000e+00	4.041509e-05	
428	1.450000e+00	4.129476e-05	
429	1.500000e+00	4.213647e-05	
430	1.550000e+00	4.294032e-05	
431	1.600000e+00	4.370638e-05	
432	1.650000e+00	4.443474e-05	
433	1.700000e+00	4.512549e-05	
434	1.750000e+00	4.577872e-05	
435	1.800000e+00	4.639451e-05	
436	1.850000e+00	4.697294e-05	
437	1.900000e+00	4.751410e-05	
438	1.950000e+00	4.801808e-05	
439	2.000000e+00	4.848498e-05	
440	2.050000e+00	4.891490e-05	
441	2.100000e+00	4.930796e-05	
442	2.150000e+00	4.966434e-05	
443	2.200000e+00	4.998426e-05	
444	2.250000e+00	5.026807e-05	
445	2.300000e+00	5.051630e-05	
446	2.350000e+00	5.072982e-05	
447	2.400000e+00	5.090998e-05	
448	2.450000e+00	5.105883e-05	
449	2.500000e+00	5.117926e-05	
450	2.550000e+00	5.127495e-05	
451	2.600000e+00	5.135008e-05	
452	2.650000e+00	5.140886e-05	
453	2.700000e+00	5.145507e-05	
454	2.750000e+00	5.149184e-05	
455	2.800000e+00	5.152158e-05	
456	2.850000e+00	5.154608e-05	
457	2.900000e+00	5.156666e-05	
458	2.950000e+00	5.158425e-05	
459	3.000000e+00	5.159954e-05	
460	3.050000e+00	5.161304e-05	

Index   v-sweep         -i(vds)         
--------------------------------------------------------------------------------
461	3.100000e+00	5.162512e-05	
462	3.150000e+00	5.163606e-05	
463	3.200000e+00	5.164606e-05	
464	3.250000e+00	5.165530e-05	
465	3.300000e+00	5.166390e-05	
466	3.350000e+00	5.167196e-05	
467	3.400000e+00	5.167956e-05	
468	3.450000e+00	5.168678e-05	
469	3.500000e+00	5.169365e-05	
470	3.550000e+00	5.170023e-05	
471	3.600000e+00	5.170655e-05	
472	3.650000e+00	5.171264e-05	
473	3.700000e+00	5.171853e-05	
474	3.750000e+00	5.172425e-05	
475	3.800000e+00	5.172980e-05	
476	3.850000e+00	5.173520e-05	
477	3.900000e+00	5.174047e-05	
478	3.950000e+00	5.174563e-05	
479	4.000000e+00	5.175068e-05	
480	4.050000e+00	5.175562e-05	
481	4.100000e+00	5.176048e-05	
482	4.150000e+00	5.176525e-05	
483	4.200000e+00	5.176995e-05	
484	4.250000e+00	5.177458e-05	
485	4.300000e+00	5.177914e-05	
486	4.350000e+00	5.178364e-05	
487	4.400000e+00	5.178808e-05	
488	4.450000e+00	5.179248e-05	
489	4.500000e+00	5.179682e-05	
490	4.550000e+00	5.180113e-05	
491	4.600000e+00	5.180539e-05	
492	4.650000e+00	5.180963e-05	
493	4.700000e+00	5.181384e-05	
494	4.750000e+00	5.181802e-05	
495	4.800000e+00	5.182220e-05	
496	4.850000e+00	5.182638e-05	
497	4.900000e+00	5.183056e-05	
498	4.950000e+00	5.183477e-05	
499	5.000000e+00	5.183902e-05	
500	5.050000e+00	5.184333e-05	
501	5.100000e+00	5.184772e-05	
502	5.150000e+00	5.185222e-05	
503	5.200000e+00	5.185687e-05	
504	5.250000e+00	5.186170e-05	
505	5.300000e+00	5.186675e-05	
506	5.350000e+00	5.187209e-05	
507	5.400000e+00	5.187776e-05	
508	5.450000e+00	5.188383e-05	
509	5.500000e+00	5.189038e-05	
510	5.550000e+00	5.189750e-05	
511	5.600000e+00	5.190529e-05	
512	5.650000e+00	5.191384e-05	
513	5.700000e+00	5.192328e-05	
514	5.750000e+00	5.193374e-05	
515	5.800000e+00	5.194537e-05	
516	5.850000e+00	5.195832e-05	
517	5.900000e+00	5.197278e-05	
518	5.950000e+00	5.198892e-05	

Index   v-sweep         -i(vds)         
--------------------------------------------------------------------------------
519	6.000000e+00	5.200695e-05	
520	6.050000e+00	5.202710e-05	
521	6.100000e+00	5.204961e-05	
522	6.150000e+00	5.207472e-05	
523	6.200000e+00	5.210271e-05	
524	6.250000e+00	5.213387e-05	
525	6.300000e+00	5.216851e-05	
526	6.350000e+00	5.220696e-05	
527	6.400000e+00	5.224956e-05	
528	6.450000e+00	5.229668e-05	
529	6.500000e+00	5.234871e-05	
530	6.550000e+00	5.240605e-05	
531	6.600000e+00	5.246912e-05	
532	0.000000e+00	2.489234e-21	
533	5.000000e-02	2.350961e-06	
534	1.000000e-01	4.665566e-06	
535	1.500000e-01	6.943899e-06	
536	2.000000e-01	9.186044e-06	
537	2.500000e-01	1.139208e-05	
538	3.000000e-01	1.356210e-05	
539	3.500000e-01	1.569619e-05	
540	4.000000e-01	1.779441e-05	
541	4.500000e-01	1.985687e-05	
542	5.000000e-01	2.188363e-05	
543	5.500000e-01	2.387479e-05	
544	6.000000e-01	2.583042e-05	
545	6.500000e-01	2.775061e-05	
546	7.000000e-01	2.963543e-05	
547	7.500000e-01	3.148497e-05	
548	8.000000e-01	3.329932e-05	
549	8.500000e-01	3.507854e-05	
550	9.000000e-01	3.682272e-05	
551	9.500000e-01	3.853195e-05	
552	1.000000e+00	4.020629e-05	
553	1.050000e+00	4.184584e-05	
554	1.100000e+00	4.345067e-05	
555	1.150000e+00	4.502085e-05	
556	1.200000e+00	4.655648e-05	
557	1.250000e+00	4.805762e-05	
558	1.300000e+00	4.952435e-05	
559	1.350000e+00	5.095676e-05	
560	1.400000e+00	5.235493e-05	
561	1.450000e+00	5.371892e-05	
562	1.500000e+00	5.504881e-05	
563	1.550000e+00	5.634469e-05	
564	1.600000e+00	5.760663e-05	
565	1.650000e+00	5.883470e-05	
566	1.700000e+00	6.002899e-05	
567	1.750000e+00	6.118956e-05	
568	1.800000e+00	6.231649e-05	
569	1.850000e+00	6.340985e-05	
570	1.900000e+00	6.446973e-05	
571	1.950000e+00	6.549619e-05	
572	2.000000e+00	6.648930e-05	
573	2.050000e+00	6.744914e-05	
574	2.100000e+00	6.837578e-05	
575	2.150000e+00	6.926929e-05	
576	2.200000e+00	7.012973e-05	

Index   v-sweep         -i(vds)         
--------------------------------------------------------------------------------
577	2.250000e+00	7.095719e-05	
578	2.300000e+00	7.175171e-05	
579	2.350000e+00	7.251338e-05	
580	2.400000e+00	7.324225e-05	
581	2.450000e+00	7.393838e-05	
582	2.500000e+00	7.460184e-05	
583	2.550000e+00	7.523268e-05	
584	2.600000e+00	7.583097e-05	
585	2.650000e+00	7.639675e-05	
586	2.700000e+00	7.693007e-05	
587	2.750000e+00	7.743099e-05	
588	2.800000e+00	7.789955e-05	
589	2.850000e+00	7.833580e-05	
590	2.900000e+00	7.873980e-05	
591	2.950000e+00	7.911163e-05	
592	3.000000e+00	7.945139e-05	
593	3.050000e+00	7.975924e-05	
594	3.100000e+00	8.003545e-05	
595	3.150000e+00	8.028046e-05	
596	3.200000e+00	8.049497e-05	
597	3.250000e+00	8.068008e-05	
598	3.300000e+00	8.083743e-05	
599	3.350000e+00	8.096923e-05	
600	3.400000e+00	8.107826e-05	
601	3.450000e+00	8.116770e-05	
602	3.500000e+00	8.124081e-05	
603	3.550000e+00	8.130068e-05	
604	3.600000e+00	8.135004e-05	
605	3.650000e+00	8.139113e-05	
606	3.700000e+00	8.142576e-05	
607	3.750000e+00	8.145532e-05	
608	3.800000e+00	8.148088e-05	
609	3.850000e+00	8.150327e-05	
610	3.900000e+00	8.152311e-05	
611	3.950000e+00	8.154088e-05	
612	4.000000e+00	8.155697e-05	
613	4.050000e+00	8.157166e-05	
614	4.100000e+00	8.158518e-05	
615	4.150000e+00	8.159771e-05	
616	4.200000e+00	8.160941e-05	
617	4.250000e+00	8.162039e-05	
618	4.300000e+00	8.163075e-05	
619	4.350000e+00	8.164058e-05	
620	4.400000e+00	8.164993e-05	
621	4.450000e+00	8.165887e-05	
622	4.500000e+00	8.166744e-05	
623	4.550000e+00	8.167569e-05	
624	4.600000e+00	8.168364e-05	
625	4.650000e+00	8.169134e-05	
626	4.700000e+00	8.169880e-05	
627	4.750000e+00	8.170604e-05	
628	4.800000e+00	8.171309e-05	
629	4.850000e+00	8.171996e-05	
630	4.900000e+00	8.172667e-05	
631	4.950000e+00	8.173324e-05	
632	5.000000e+00	8.173966e-05	
633	5.050000e+00	8.174597e-05	
634	5.100000e+00	8.175215e-05	

Index   v-sweep         -i(vds)         
--------------------------------------------------------------------------------
635	5.150000e+00	8.175823e-05	
636	5.200000e+00	8.176421e-05	
637	5.250000e+00	8.177009e-05	
638	5.300000e+00	8.177590e-05	
639	5.350000e+00	8.178162e-05	
640	5.400000e+00	8.178728e-05	
641	5.450000e+00	8.179288e-05	
642	5.500000e+00	8.179842e-05	
643	5.550000e+00	8.180392e-05	
644	5.600000e+00	8.180939e-05	
645	5.650000e+00	8.181484e-05	
646	5.700000e+00	8.182029e-05	
647	5.750000e+00	8.182575e-05	
648	5.800000e+00	8.183126e-05	
649	5.850000e+00	8.183683e-05	
650	5.900000e+00	8.184250e-05	
651	5.950000e+00	8.184830e-05	
652	6.000000e+00	8.185429e-05	
653	6.050000e+00	8.186051e-05	
654	6.100000e+00	8.186703e-05	
655	6.150000e+00	8.187391e-05	
656	6.200000e+00	8.188125e-05	
657	6.250000e+00	8.188914e-05	
658	6.300000e+00	8.189768e-05	
659	6.350000e+00	8.190699e-05	
660	6.400000e+00	8.191722e-05	
661	6.450000e+00	8.192852e-05	
662	6.500000e+00	8.194107e-05	
663	6.550000e+00	8.195504e-05	
664	6.600000e+00	8.197066e-05	
665	0.000000e+00	-4.84597e-36	
666	5.000000e-02	2.612888e-06	
667	1.000000e-01	5.193673e-06	
668	1.500000e-01	7.742424e-06	
669	2.000000e-01	1.025921e-05	
670	2.500000e-01	1.274410e-05	
671	3.000000e-01	1.519716e-05	
672	3.500000e-01	1.761846e-05	
673	4.000000e-01	2.000807e-05	
674	4.500000e-01	2.236605e-05	
675	5.000000e-01	2.469248e-05	
676	5.500000e-01	2.698741e-05	
677	6.000000e-01	2.925093e-05	
678	6.500000e-01	3.148309e-05	
679	7.000000e-01	3.368395e-05	
680	7.500000e-01	3.585360e-05	
681	8.000000e-01	3.799209e-05	
682	8.500000e-01	4.009949e-05	
683	9.000000e-01	4.217587e-05	
684	9.500000e-01	4.422129e-05	
685	1.000000e+00	4.623582e-05	
686	1.050000e+00	4.821953e-05	
687	1.100000e+00	5.017247e-05	
688	1.150000e+00	5.209472e-05	
689	1.200000e+00	5.398634e-05	
690	1.250000e+00	5.584739e-05	
691	1.300000e+00	5.767795e-05	
692	1.350000e+00	5.947806e-05	

Index   v-sweep         -i(vds)         
--------------------------------------------------------------------------------
693	1.400000e+00	6.124781e-05	
694	1.450000e+00	6.298725e-05	
695	1.500000e+00	6.469644e-05	
696	1.550000e+00	6.637545e-05	
697	1.600000e+00	6.802435e-05	
698	1.650000e+00	6.964320e-05	
699	1.700000e+00	7.123206e-05	
700	1.750000e+00	7.279098e-05	
701	1.800000e+00	7.432005e-05	
702	1.850000e+00	7.581931e-05	
703	1.900000e+00	7.728884e-05	
704	1.950000e+00	7.872869e-05	
705	2.000000e+00	8.013892e-05	
706	2.050000e+00	8.151960e-05	
707	2.100000e+00	8.287079e-05	
708	2.150000e+00	8.419254e-05	
709	2.200000e+00	8.548493e-05	
710	2.250000e+00	8.674801e-05	
711	2.300000e+00	8.798184e-05	
712	2.350000e+00	8.918647e-05	
713	2.400000e+00	9.036198e-05	
714	2.450000e+00	9.150842e-05	
715	2.500000e+00	9.262585e-05	
716	2.550000e+00	9.371432e-05	
717	2.600000e+00	9.477389e-05	
718	2.650000e+00	9.580463e-05	
719	2.700000e+00	9.680659e-05	
720	2.750000e+00	9.777982e-05	
721	2.800000e+00	9.872438e-05	
722	2.850000e+00	9.964032e-05	
723	2.900000e+00	1.005277e-04	
724	2.950000e+00	1.013866e-04	
725	3.000000e+00	1.022170e-04	
726	3.050000e+00	1.030190e-04	
727	3.100000e+00	1.037927e-04	
728	3.150000e+00	1.045380e-04	
729	3.200000e+00	1.052551e-04	
730	3.250000e+00	1.059439e-04	
731	3.300000e+00	1.066046e-04	
732	3.350000e+00	1.072371e-04	
733	3.400000e+00	1.078415e-04	
734	3.450000e+00	1.084179e-04	
735	3.500000e+00	1.089661e-04	
736	3.550000e+00	1.094864e-04	
737	3.600000e+00	1.099786e-04	
738	3.650000e+00	1.104428e-04	
739	3.700000e+00	1.108790e-04	
740	3.750000e+00	1.112872e-04	
741	3.800000e+00	1.116674e-04	
742	3.850000e+00	1.120196e-04	
743	3.900000e+00	1.123439e-04	
744	3.950000e+00	1.126403e-04	
745	4.000000e+00	1.129091e-04	
746	4.050000e+00	1.131505e-04	
747	4.100000e+00	1.133651e-04	
748	4.150000e+00	1.135537e-04	
749	4.200000e+00	1.137175e-04	
750	4.250000e+00	1.138583e-04	

Index   v-sweep         -i(vds)         
--------------------------------------------------------------------------------
751	4.300000e+00	1.139782e-04	
752	4.350000e+00	1.140795e-04	
753	4.400000e+00	1.141648e-04	
754	4.450000e+00	1.142367e-04	
755	4.500000e+00	1.142975e-04	
756	4.550000e+00	1.143492e-04	
757	4.600000e+00	1.143936e-04	
758	4.650000e+00	1.144319e-04	
759	4.700000e+00	1.144655e-04	
760	4.750000e+00	1.144950e-04	
761	4.800000e+00	1.145214e-04	
762	4.850000e+00	1.145451e-04	
763	4.900000e+00	1.145665e-04	
764	4.950000e+00	1.145861e-04	
765	5.000000e+00	1.146041e-04	
766	5.050000e+00	1.146208e-04	
767	5.100000e+00	1.146364e-04	
768	5.150000e+00	1.146509e-04	
769	5.200000e+00	1.146646e-04	
770	5.250000e+00	1.146775e-04	
771	5.300000e+00	1.146898e-04	
772	5.350000e+00	1.147015e-04	
773	5.400000e+00	1.147127e-04	
774	5.450000e+00	1.147234e-04	
775	5.500000e+00	1.147337e-04	
776	5.550000e+00	1.147436e-04	
777	5.600000e+00	1.147532e-04	
778	5.650000e+00	1.147624e-04	
779	5.700000e+00	1.147714e-04	
780	5.750000e+00	1.147802e-04	
781	5.800000e+00	1.147887e-04	
782	5.850000e+00	1.147970e-04	
783	5.900000e+00	1.148051e-04	
784	5.950000e+00	1.148130e-04	
785	6.000000e+00	1.148208e-04	
786	6.050000e+00	1.148284e-04	
787	6.100000e+00	1.148358e-04	
788	6.150000e+00	1.148432e-04	
789	6.200000e+00	1.148504e-04	
790	6.250000e+00	1.148575e-04	
791	6.300000e+00	1.148645e-04	
792	6.350000e+00	1.148714e-04	
793	6.400000e+00	1.148782e-04	
794	6.450000e+00	1.148850e-04	
795	6.500000e+00	1.148917e-04	
796	6.550000e+00	1.148984e-04	
797	6.600000e+00	1.149051e-04	
Note: No ".plot", ".print", or ".fourier" lines; no simulations run
