
Note: Compatibility modes selected: hs

Warning: m=xx on .subckt line will override multiplier m hierarchy!


Circuit: ***************************

Doing analysis at TEMP = 25.000000 and TNOM = 25.000000


No. of Data Rows : 798
                          ***************************
                          DC transfer characteristic  Mon Jan  9 13:58:35  2023
--------------------------------------------------------------------------------
Index   v-sweep         -i(vds)         
--------------------------------------------------------------------------------
0	0.000000e+00	-8.05906e-22	
1	5.000000e-02	1.512645e-06	
2	1.000000e-01	2.708426e-06	
3	1.500000e-01	3.591550e-06	
4	2.000000e-01	4.173819e-06	
5	2.500000e-01	4.491216e-06	
6	3.000000e-01	4.626555e-06	
7	3.500000e-01	4.677783e-06	
8	4.000000e-01	4.699732e-06	
9	4.500000e-01	4.711504e-06	
10	5.000000e-01	4.719208e-06	
11	5.500000e-01	4.725025e-06	
12	6.000000e-01	4.729854e-06	
13	6.500000e-01	4.734112e-06	
14	7.000000e-01	4.738015e-06	
15	7.500000e-01	4.741684e-06	
16	8.000000e-01	4.745189e-06	
17	8.500000e-01	4.748577e-06	
18	9.000000e-01	4.751876e-06	
19	9.500000e-01	4.755108e-06	
20	1.000000e+00	4.758287e-06	
21	1.050000e+00	4.761423e-06	
22	1.100000e+00	4.764524e-06	
23	1.150000e+00	4.767596e-06	
24	1.200000e+00	4.770644e-06	
25	1.250000e+00	4.773671e-06	
26	1.300000e+00	4.776680e-06	
27	1.350000e+00	4.779673e-06	
28	1.400000e+00	4.782653e-06	
29	1.450000e+00	4.785620e-06	
30	1.500000e+00	4.788577e-06	
31	1.550000e+00	4.791524e-06	
32	1.600000e+00	4.794462e-06	
33	1.650000e+00	4.797393e-06	
34	1.700000e+00	4.800317e-06	
35	1.750000e+00	4.803234e-06	
36	1.800000e+00	4.806145e-06	
37	1.850000e+00	4.809050e-06	
38	1.900000e+00	4.811951e-06	
39	1.950000e+00	4.814847e-06	
40	2.000000e+00	4.817738e-06	
41	2.050000e+00	4.820626e-06	
42	2.100000e+00	4.823510e-06	
43	2.150000e+00	4.826390e-06	
44	2.200000e+00	4.829268e-06	
45	2.250000e+00	4.832142e-06	
46	2.300000e+00	4.835014e-06	
47	2.350000e+00	4.837884e-06	
48	2.400000e+00	4.840752e-06	
49	2.450000e+00	4.843618e-06	
50	2.500000e+00	4.846484e-06	
51	2.550000e+00	4.849350e-06	
52	2.600000e+00	4.852216e-06	
53	2.650000e+00	4.855084e-06	
54	2.700000e+00	4.857955e-06	

Index   v-sweep         -i(vds)         
--------------------------------------------------------------------------------
55	2.750000e+00	4.860831e-06	
56	2.800000e+00	4.863713e-06	
57	2.850000e+00	4.866603e-06	
58	2.900000e+00	4.869504e-06	
59	2.950000e+00	4.872419e-06	
60	3.000000e+00	4.875352e-06	
61	3.050000e+00	4.878306e-06	
62	3.100000e+00	4.881287e-06	
63	3.150000e+00	4.884300e-06	
64	3.200000e+00	4.887351e-06	
65	3.250000e+00	4.890448e-06	
66	3.300000e+00	4.893599e-06	
67	3.350000e+00	4.896813e-06	
68	3.400000e+00	4.900100e-06	
69	3.450000e+00	4.903471e-06	
70	3.500000e+00	4.906939e-06	
71	3.550000e+00	4.910518e-06	
72	3.600000e+00	4.914224e-06	
73	3.650000e+00	4.918072e-06	
74	3.700000e+00	4.922081e-06	
75	3.750000e+00	4.926270e-06	
76	3.800000e+00	4.930661e-06	
77	3.850000e+00	4.935277e-06	
78	3.900000e+00	4.940143e-06	
79	3.950000e+00	4.945283e-06	
80	4.000000e+00	4.950728e-06	
81	4.050000e+00	4.956506e-06	
82	4.100000e+00	4.962649e-06	
83	4.150000e+00	4.969191e-06	
84	4.200000e+00	4.976167e-06	
85	4.250000e+00	4.983615e-06	
86	4.300000e+00	4.991573e-06	
87	4.350000e+00	5.000084e-06	
88	4.400000e+00	5.009191e-06	
89	4.450000e+00	5.018937e-06	
90	4.500000e+00	5.029371e-06	
91	4.550000e+00	5.040541e-06	
92	4.600000e+00	5.052499e-06	
93	4.650000e+00	5.065296e-06	
94	4.700000e+00	5.078987e-06	
95	4.750000e+00	5.093629e-06	
96	4.800000e+00	5.109280e-06	
97	4.850000e+00	5.126000e-06	
98	4.900000e+00	5.143850e-06	
99	4.950000e+00	5.162895e-06	
100	5.000000e+00	5.183199e-06	
101	5.050000e+00	5.204830e-06	
102	5.100000e+00	5.227854e-06	
103	5.150000e+00	5.252344e-06	
104	5.200000e+00	5.278369e-06	
105	5.250000e+00	5.306004e-06	
106	5.300000e+00	5.335322e-06	
107	5.350000e+00	5.366398e-06	
108	5.400000e+00	5.399311e-06	
109	5.450000e+00	5.434139e-06	
110	5.500000e+00	5.470960e-06	
111	5.550000e+00	5.509856e-06	
112	5.600000e+00	5.550908e-06	

Index   v-sweep         -i(vds)         
--------------------------------------------------------------------------------
113	5.650000e+00	5.594199e-06	
114	5.700000e+00	5.639813e-06	
115	5.750000e+00	5.687835e-06	
116	5.800000e+00	5.738350e-06	
117	5.850000e+00	5.791445e-06	
118	5.900000e+00	5.847207e-06	
119	5.950000e+00	5.905724e-06	
120	6.000000e+00	5.967085e-06	
121	6.050000e+00	6.031378e-06	
122	6.100000e+00	6.098694e-06	
123	6.150000e+00	6.169122e-06	
124	6.200000e+00	6.242754e-06	
125	6.250000e+00	6.319681e-06	
126	6.300000e+00	6.399994e-06	
127	6.350000e+00	6.483785e-06	
128	6.400000e+00	6.571146e-06	
129	6.450000e+00	6.662169e-06	
130	6.500000e+00	6.756947e-06	
131	6.550000e+00	6.855572e-06	
132	6.600000e+00	6.958137e-06	
133	0.000000e+00	1.018339e-30	
134	5.000000e-02	6.527312e-06	
135	1.000000e-01	1.272215e-05	
136	1.500000e-01	1.858525e-05	
137	2.000000e-01	2.411734e-05	
138	2.500000e-01	2.931917e-05	
139	3.000000e-01	3.419147e-05	
140	3.500000e-01	3.873501e-05	
141	4.000000e-01	4.295057e-05	
142	4.500000e-01	4.683896e-05	
143	5.000000e-01	5.040106e-05	
144	5.500000e-01	5.363780e-05	
145	6.000000e-01	5.655028e-05	
146	6.500000e-01	5.913983e-05	
147	7.000000e-01	6.140820e-05	
148	7.500000e-01	6.335793e-05	
149	8.000000e-01	6.499307e-05	
150	8.500000e-01	6.632061e-05	
151	9.000000e-01	6.735320e-05	
152	9.500000e-01	6.811364e-05	
153	1.000000e+00	6.863963e-05	
154	1.050000e+00	6.898352e-05	
155	1.100000e+00	6.920195e-05	
156	1.150000e+00	6.934217e-05	
157	1.200000e+00	6.943608e-05	
158	1.250000e+00	6.950271e-05	
159	1.300000e+00	6.955285e-05	
160	1.350000e+00	6.959261e-05	
161	1.400000e+00	6.962557e-05	
162	1.450000e+00	6.965388e-05	
163	1.500000e+00	6.967890e-05	
164	1.550000e+00	6.970152e-05	
165	1.600000e+00	6.972233e-05	
166	1.650000e+00	6.974174e-05	
167	1.700000e+00	6.976006e-05	
168	1.750000e+00	6.977749e-05	
169	1.800000e+00	6.979420e-05	
170	1.850000e+00	6.981033e-05	

Index   v-sweep         -i(vds)         
--------------------------------------------------------------------------------
171	1.900000e+00	6.982595e-05	
172	1.950000e+00	6.984115e-05	
173	2.000000e+00	6.985598e-05	
174	2.050000e+00	6.987051e-05	
175	2.100000e+00	6.988476e-05	
176	2.150000e+00	6.989877e-05	
177	2.200000e+00	6.991256e-05	
178	2.250000e+00	6.992617e-05	
179	2.300000e+00	6.993961e-05	
180	2.350000e+00	6.995290e-05	
181	2.400000e+00	6.996605e-05	
182	2.450000e+00	6.997907e-05	
183	2.500000e+00	6.999198e-05	
184	2.550000e+00	7.000479e-05	
185	2.600000e+00	7.001750e-05	
186	2.650000e+00	7.003012e-05	
187	2.700000e+00	7.004267e-05	
188	2.750000e+00	7.005513e-05	
189	2.800000e+00	7.006753e-05	
190	2.850000e+00	7.007986e-05	
191	2.900000e+00	7.009214e-05	
192	2.950000e+00	7.010436e-05	
193	3.000000e+00	7.011653e-05	
194	3.050000e+00	7.012865e-05	
195	3.100000e+00	7.014074e-05	
196	3.150000e+00	7.015279e-05	
197	3.200000e+00	7.016482e-05	
198	3.250000e+00	7.017683e-05	
199	3.300000e+00	7.018883e-05	
200	3.350000e+00	7.020084e-05	
201	3.400000e+00	7.021288e-05	
202	3.450000e+00	7.022495e-05	
203	3.500000e+00	7.023708e-05	
204	3.550000e+00	7.024930e-05	
205	3.600000e+00	7.026164e-05	
206	3.650000e+00	7.027414e-05	
207	3.700000e+00	7.028683e-05	
208	3.750000e+00	7.029978e-05	
209	3.800000e+00	7.031305e-05	
210	3.850000e+00	7.032670e-05	
211	3.900000e+00	7.034081e-05	
212	3.950000e+00	7.035548e-05	
213	4.000000e+00	7.037080e-05	
214	4.050000e+00	7.038691e-05	
215	4.100000e+00	7.040392e-05	
216	4.150000e+00	7.042198e-05	
217	4.200000e+00	7.044126e-05	
218	4.250000e+00	7.046194e-05	
219	4.300000e+00	7.048421e-05	
220	4.350000e+00	7.050830e-05	
221	4.400000e+00	7.053444e-05	
222	4.450000e+00	7.056289e-05	
223	4.500000e+00	7.059393e-05	
224	4.550000e+00	7.062787e-05	
225	4.600000e+00	7.066502e-05	
226	4.650000e+00	7.070573e-05	
227	4.700000e+00	7.075039e-05	
228	4.750000e+00	7.079938e-05	

Index   v-sweep         -i(vds)         
--------------------------------------------------------------------------------
229	4.800000e+00	7.085314e-05	
230	4.850000e+00	7.091210e-05	
231	4.900000e+00	7.097675e-05	
232	4.950000e+00	7.104758e-05	
233	5.000000e+00	7.112513e-05	
234	5.050000e+00	7.120994e-05	
235	5.100000e+00	7.130259e-05	
236	5.150000e+00	7.140370e-05	
237	5.200000e+00	7.151389e-05	
238	5.250000e+00	7.163382e-05	
239	5.300000e+00	7.176419e-05	
240	5.350000e+00	7.190569e-05	
241	5.400000e+00	7.205906e-05	
242	5.450000e+00	7.222508e-05	
243	5.500000e+00	7.240452e-05	
244	5.550000e+00	7.259819e-05	
245	5.600000e+00	7.280694e-05	
246	5.650000e+00	7.303162e-05	
247	5.700000e+00	7.327311e-05	
248	5.750000e+00	7.353231e-05	
249	5.800000e+00	7.381016e-05	
250	5.850000e+00	7.410759e-05	
251	5.900000e+00	7.442558e-05	
252	5.950000e+00	7.476511e-05	
253	6.000000e+00	7.512719e-05	
254	6.050000e+00	7.551284e-05	
255	6.100000e+00	7.592311e-05	
256	6.150000e+00	7.635905e-05	
257	6.200000e+00	7.682173e-05	
258	6.250000e+00	7.731225e-05	
259	6.300000e+00	7.783171e-05	
260	6.350000e+00	7.838122e-05	
261	6.400000e+00	7.896193e-05	
262	6.450000e+00	7.957496e-05	
263	6.500000e+00	8.022148e-05	
264	6.550000e+00	8.090264e-05	
265	6.600000e+00	8.161963e-05	
266	0.000000e+00	3.864995e-31	
267	5.000000e-02	1.078199e-05	
268	1.000000e-01	2.125385e-05	
269	1.500000e-01	3.141627e-05	
270	2.000000e-01	4.126995e-05	
271	2.500000e-01	5.081558e-05	
272	3.000000e-01	6.005384e-05	
273	3.500000e-01	6.898543e-05	
274	4.000000e-01	7.761102e-05	
275	4.500000e-01	8.593131e-05	
276	5.000000e-01	9.394696e-05	
277	5.500000e-01	1.016587e-04	
278	6.000000e-01	1.090671e-04	
279	6.500000e-01	1.161730e-04	
280	7.000000e-01	1.229769e-04	
281	7.500000e-01	1.294797e-04	
282	8.000000e-01	1.356819e-04	
283	8.500000e-01	1.415842e-04	
284	9.000000e-01	1.471873e-04	
285	9.500000e-01	1.524919e-04	
286	1.000000e+00	1.574988e-04	

Index   v-sweep         -i(vds)         
--------------------------------------------------------------------------------
287	1.050000e+00	1.622085e-04	
288	1.100000e+00	1.666219e-04	
289	1.150000e+00	1.707397e-04	
290	1.200000e+00	1.745626e-04	
291	1.250000e+00	1.780916e-04	
292	1.300000e+00	1.813275e-04	
293	1.350000e+00	1.842715e-04	
294	1.400000e+00	1.869251e-04	
295	1.450000e+00	1.892899e-04	
296	1.500000e+00	1.913687e-04	
297	1.550000e+00	1.931654e-04	
298	1.600000e+00	1.946863e-04	
299	1.650000e+00	1.959414e-04	
300	1.700000e+00	1.969467e-04	
301	1.750000e+00	1.977261e-04	
302	1.800000e+00	1.983122e-04	
303	1.850000e+00	1.987433e-04	
304	1.900000e+00	1.990580e-04	
305	1.950000e+00	1.992896e-04	
306	2.000000e+00	1.994636e-04	
307	2.050000e+00	1.995982e-04	
308	2.100000e+00	1.997054e-04	
309	2.150000e+00	1.997934e-04	
310	2.200000e+00	1.998676e-04	
311	2.250000e+00	1.999317e-04	
312	2.300000e+00	1.999882e-04	
313	2.350000e+00	2.000389e-04	
314	2.400000e+00	2.000850e-04	
315	2.450000e+00	2.001274e-04	
316	2.500000e+00	2.001669e-04	
317	2.550000e+00	2.002040e-04	
318	2.600000e+00	2.002391e-04	
319	2.650000e+00	2.002726e-04	
320	2.700000e+00	2.003045e-04	
321	2.750000e+00	2.003353e-04	
322	2.800000e+00	2.003650e-04	
323	2.850000e+00	2.003938e-04	
324	2.900000e+00	2.004218e-04	
325	2.950000e+00	2.004491e-04	
326	3.000000e+00	2.004757e-04	
327	3.050000e+00	2.005017e-04	
328	3.100000e+00	2.005273e-04	
329	3.150000e+00	2.005524e-04	
330	3.200000e+00	2.005770e-04	
331	3.250000e+00	2.006013e-04	
332	3.300000e+00	2.006253e-04	
333	3.350000e+00	2.006489e-04	
334	3.400000e+00	2.006723e-04	
335	3.450000e+00	2.006953e-04	
336	3.500000e+00	2.007181e-04	
337	3.550000e+00	2.007407e-04	
338	3.600000e+00	2.007631e-04	
339	3.650000e+00	2.007853e-04	
340	3.700000e+00	2.008073e-04	
341	3.750000e+00	2.008291e-04	
342	3.800000e+00	2.008508e-04	
343	3.850000e+00	2.008724e-04	
344	3.900000e+00	2.008938e-04	

Index   v-sweep         -i(vds)         
--------------------------------------------------------------------------------
345	3.950000e+00	2.009152e-04	
346	4.000000e+00	2.009365e-04	
347	4.050000e+00	2.009577e-04	
348	4.100000e+00	2.009789e-04	
349	4.150000e+00	2.010002e-04	
350	4.200000e+00	2.010215e-04	
351	4.250000e+00	2.010430e-04	
352	4.300000e+00	2.010647e-04	
353	4.350000e+00	2.010866e-04	
354	4.400000e+00	2.011090e-04	
355	4.450000e+00	2.011318e-04	
356	4.500000e+00	2.011554e-04	
357	4.550000e+00	2.011797e-04	
358	4.600000e+00	2.012050e-04	
359	4.650000e+00	2.012315e-04	
360	4.700000e+00	2.012595e-04	
361	4.750000e+00	2.012892e-04	
362	4.800000e+00	2.013210e-04	
363	4.850000e+00	2.013551e-04	
364	4.900000e+00	2.013921e-04	
365	4.950000e+00	2.014323e-04	
366	5.000000e+00	2.014763e-04	
367	5.050000e+00	2.015245e-04	
368	5.100000e+00	2.015776e-04	
369	5.150000e+00	2.016363e-04	
370	5.200000e+00	2.017011e-04	
371	5.250000e+00	2.017730e-04	
372	5.300000e+00	2.018527e-04	
373	5.350000e+00	2.019412e-04	
374	5.400000e+00	2.020393e-04	
375	5.450000e+00	2.021481e-04	
376	5.500000e+00	2.022688e-04	
377	5.550000e+00	2.024025e-04	
378	5.600000e+00	2.025504e-04	
379	5.650000e+00	2.027138e-04	
380	5.700000e+00	2.028942e-04	
381	5.750000e+00	2.030930e-04	
382	5.800000e+00	2.033118e-04	
383	5.850000e+00	2.035521e-04	
384	5.900000e+00	2.038157e-04	
385	5.950000e+00	2.041042e-04	
386	6.000000e+00	2.044197e-04	
387	6.050000e+00	2.047638e-04	
388	6.100000e+00	2.051388e-04	
389	6.150000e+00	2.055465e-04	
390	6.200000e+00	2.059892e-04	
391	6.250000e+00	2.064690e-04	
392	6.300000e+00	2.069883e-04	
393	6.350000e+00	2.075493e-04	
394	6.400000e+00	2.081544e-04	
395	6.450000e+00	2.088062e-04	
396	6.500000e+00	2.095071e-04	
397	6.550000e+00	2.102598e-04	
398	6.600000e+00	2.110669e-04	
399	0.000000e+00	-2.63721e-30	
400	5.000000e-02	1.417909e-05	
401	1.000000e-01	2.807655e-05	
402	1.500000e-01	4.169301e-05	

Index   v-sweep         -i(vds)         
--------------------------------------------------------------------------------
403	2.000000e-01	5.502906e-05	
404	2.500000e-01	6.808531e-05	
405	3.000000e-01	8.086238e-05	
406	3.500000e-01	9.336086e-05	
407	4.000000e-01	1.055814e-04	
408	4.500000e-01	1.175245e-04	
409	5.000000e-01	1.291908e-04	
410	5.500000e-01	1.405810e-04	
411	6.000000e-01	1.516955e-04	
412	6.500000e-01	1.625351e-04	
413	7.000000e-01	1.731002e-04	
414	7.500000e-01	1.833916e-04	
415	8.000000e-01	1.934097e-04	
416	8.500000e-01	2.031552e-04	
417	9.000000e-01	2.126287e-04	
418	9.500000e-01	2.218307e-04	
419	1.000000e+00	2.307618e-04	
420	1.050000e+00	2.394226e-04	
421	1.100000e+00	2.478136e-04	
422	1.150000e+00	2.559356e-04	
423	1.200000e+00	2.637890e-04	
424	1.250000e+00	2.713743e-04	
425	1.300000e+00	2.786923e-04	
426	1.350000e+00	2.857434e-04	
427	1.400000e+00	2.925282e-04	
428	1.450000e+00	2.990473e-04	
429	1.500000e+00	3.053013e-04	
430	1.550000e+00	3.112906e-04	
431	1.600000e+00	3.170160e-04	
432	1.650000e+00	3.224778e-04	
433	1.700000e+00	3.276768e-04	
434	1.750000e+00	3.326134e-04	
435	1.800000e+00	3.372882e-04	
436	1.850000e+00	3.417018e-04	
437	1.900000e+00	3.458548e-04	
438	1.950000e+00	3.497478e-04	
439	2.000000e+00	3.533814e-04	
440	2.050000e+00	3.567563e-04	
441	2.100000e+00	3.598732e-04	
442	2.150000e+00	3.627332e-04	
443	2.200000e+00	3.653373e-04	
444	2.250000e+00	3.676872e-04	
445	2.300000e+00	3.697850e-04	
446	2.350000e+00	3.716341e-04	
447	2.400000e+00	3.732395e-04	
448	2.450000e+00	3.746092e-04	
449	2.500000e+00	3.757549e-04	
450	2.550000e+00	3.766935e-04	
451	2.600000e+00	3.774475e-04	
452	2.650000e+00	3.780438e-04	
453	2.700000e+00	3.785115e-04	
454	2.750000e+00	3.788784e-04	
455	2.800000e+00	3.791685e-04	
456	2.850000e+00	3.794010e-04	
457	2.900000e+00	3.795908e-04	
458	2.950000e+00	3.797487e-04	
459	3.000000e+00	3.798825e-04	
460	3.050000e+00	3.799979e-04	

Index   v-sweep         -i(vds)         
--------------------------------------------------------------------------------
461	3.100000e+00	3.800992e-04	
462	3.150000e+00	3.801892e-04	
463	3.200000e+00	3.802704e-04	
464	3.250000e+00	3.803444e-04	
465	3.300000e+00	3.804125e-04	
466	3.350000e+00	3.804758e-04	
467	3.400000e+00	3.805350e-04	
468	3.450000e+00	3.805907e-04	
469	3.500000e+00	3.806435e-04	
470	3.550000e+00	3.806938e-04	
471	3.600000e+00	3.807419e-04	
472	3.650000e+00	3.807881e-04	
473	3.700000e+00	3.808327e-04	
474	3.750000e+00	3.808757e-04	
475	3.800000e+00	3.809174e-04	
476	3.850000e+00	3.809579e-04	
477	3.900000e+00	3.809974e-04	
478	3.950000e+00	3.810359e-04	
479	4.000000e+00	3.810736e-04	
480	4.050000e+00	3.811104e-04	
481	4.100000e+00	3.811466e-04	
482	4.150000e+00	3.811821e-04	
483	4.200000e+00	3.812170e-04	
484	4.250000e+00	3.812513e-04	
485	4.300000e+00	3.812851e-04	
486	4.350000e+00	3.813184e-04	
487	4.400000e+00	3.813513e-04	
488	4.450000e+00	3.813838e-04	
489	4.500000e+00	3.814160e-04	
490	4.550000e+00	3.814478e-04	
491	4.600000e+00	3.814792e-04	
492	4.650000e+00	3.815104e-04	
493	4.700000e+00	3.815414e-04	
494	4.750000e+00	3.815721e-04	
495	4.800000e+00	3.816027e-04	
496	4.850000e+00	3.816332e-04	
497	4.900000e+00	3.816636e-04	
498	4.950000e+00	3.816940e-04	
499	5.000000e+00	3.817246e-04	
500	5.050000e+00	3.817554e-04	
501	5.100000e+00	3.817865e-04	
502	5.150000e+00	3.818182e-04	
503	5.200000e+00	3.818505e-04	
504	5.250000e+00	3.818838e-04	
505	5.300000e+00	3.819182e-04	
506	5.350000e+00	3.819540e-04	
507	5.400000e+00	3.819917e-04	
508	5.450000e+00	3.820315e-04	
509	5.500000e+00	3.820740e-04	
510	5.550000e+00	3.821197e-04	
511	5.600000e+00	3.821691e-04	
512	5.650000e+00	3.822229e-04	
513	5.700000e+00	3.822819e-04	
514	5.750000e+00	3.823468e-04	
515	5.800000e+00	3.824186e-04	
516	5.850000e+00	3.824982e-04	
517	5.900000e+00	3.825869e-04	
518	5.950000e+00	3.826857e-04	

Index   v-sweep         -i(vds)         
--------------------------------------------------------------------------------
519	6.000000e+00	3.827961e-04	
520	6.050000e+00	3.829194e-04	
521	6.100000e+00	3.830571e-04	
522	6.150000e+00	3.832111e-04	
523	6.200000e+00	3.833830e-04	
524	6.250000e+00	3.835747e-04	
525	6.300000e+00	3.837884e-04	
526	6.350000e+00	3.840262e-04	
527	6.400000e+00	3.842904e-04	
528	6.450000e+00	3.845836e-04	
529	6.500000e+00	3.849082e-04	
530	6.550000e+00	3.852671e-04	
531	6.600000e+00	3.856631e-04	
532	0.000000e+00	-2.04064e-20	
533	5.000000e-02	1.674021e-05	
534	1.000000e-01	3.322912e-05	
535	1.500000e-01	4.946722e-05	
536	2.000000e-01	6.545503e-05	
537	2.500000e-01	8.119306e-05	
538	3.000000e-01	9.668182e-05	
539	3.500000e-01	1.119218e-04	
540	4.000000e-01	1.269136e-04	
541	4.500000e-01	1.416575e-04	
542	5.000000e-01	1.561543e-04	
543	5.500000e-01	1.704042e-04	
544	6.000000e-01	1.844080e-04	
545	6.500000e-01	1.981659e-04	
546	7.000000e-01	2.116786e-04	
547	7.500000e-01	2.249466e-04	
548	8.000000e-01	2.379703e-04	
549	8.500000e-01	2.507502e-04	
550	9.000000e-01	2.632869e-04	
551	9.500000e-01	2.755807e-04	
552	1.000000e+00	2.876323e-04	
553	1.050000e+00	2.994421e-04	
554	1.100000e+00	3.110105e-04	
555	1.150000e+00	3.223381e-04	
556	1.200000e+00	3.334254e-04	
557	1.250000e+00	3.442728e-04	
558	1.300000e+00	3.548808e-04	
559	1.350000e+00	3.652500e-04	
560	1.400000e+00	3.753807e-04	
561	1.450000e+00	3.852734e-04	
562	1.500000e+00	3.949287e-04	
563	1.550000e+00	4.043470e-04	
564	1.600000e+00	4.135288e-04	
565	1.650000e+00	4.224745e-04	
566	1.700000e+00	4.311846e-04	
567	1.750000e+00	4.396597e-04	
568	1.800000e+00	4.479001e-04	
569	1.850000e+00	4.559063e-04	
570	1.900000e+00	4.636787e-04	
571	1.950000e+00	4.712180e-04	
572	2.000000e+00	4.785244e-04	
573	2.050000e+00	4.855984e-04	
574	2.100000e+00	4.924406e-04	
575	2.150000e+00	4.990513e-04	
576	2.200000e+00	5.054311e-04	

Index   v-sweep         -i(vds)         
--------------------------------------------------------------------------------
577	2.250000e+00	5.115802e-04	
578	2.300000e+00	5.174992e-04	
579	2.350000e+00	5.231886e-04	
580	2.400000e+00	5.286487e-04	
581	2.450000e+00	5.338799e-04	
582	2.500000e+00	5.388828e-04	
583	2.550000e+00	5.436576e-04	
584	2.600000e+00	5.482048e-04	
585	2.650000e+00	5.525249e-04	
586	2.700000e+00	5.566181e-04	
587	2.750000e+00	5.604850e-04	
588	2.800000e+00	5.641259e-04	
589	2.850000e+00	5.675412e-04	
590	2.900000e+00	5.707315e-04	
591	2.950000e+00	5.736971e-04	
592	3.000000e+00	5.764388e-04	
593	3.050000e+00	5.789573e-04	
594	3.100000e+00	5.812537e-04	
595	3.150000e+00	5.833298e-04	
596	3.200000e+00	5.851880e-04	
597	3.250000e+00	5.868322e-04	
598	3.300000e+00	5.882681e-04	
599	3.350000e+00	5.895044e-04	
600	3.400000e+00	5.905532e-04	
601	3.450000e+00	5.914306e-04	
602	3.500000e+00	5.921560e-04	
603	3.550000e+00	5.927512e-04	
604	3.600000e+00	5.932383e-04	
605	3.650000e+00	5.936379e-04	
606	3.700000e+00	5.939681e-04	
607	3.750000e+00	5.942437e-04	
608	3.800000e+00	5.944767e-04	
609	3.850000e+00	5.946762e-04	
610	3.900000e+00	5.948494e-04	
611	3.950000e+00	5.950015e-04	
612	4.000000e+00	5.951368e-04	
613	4.050000e+00	5.952585e-04	
614	4.100000e+00	5.953689e-04	
615	4.150000e+00	5.954701e-04	
616	4.200000e+00	5.955636e-04	
617	4.250000e+00	5.956505e-04	
618	4.300000e+00	5.957318e-04	
619	4.350000e+00	5.958084e-04	
620	4.400000e+00	5.958809e-04	
621	4.450000e+00	5.959497e-04	
622	4.500000e+00	5.960155e-04	
623	4.550000e+00	5.960784e-04	
624	4.600000e+00	5.961389e-04	
625	4.650000e+00	5.961973e-04	
626	4.700000e+00	5.962536e-04	
627	4.750000e+00	5.963083e-04	
628	4.800000e+00	5.963613e-04	
629	4.850000e+00	5.964129e-04	
630	4.900000e+00	5.964632e-04	
631	4.950000e+00	5.965123e-04	
632	5.000000e+00	5.965603e-04	
633	5.050000e+00	5.966073e-04	
634	5.100000e+00	5.966534e-04	

Index   v-sweep         -i(vds)         
--------------------------------------------------------------------------------
635	5.150000e+00	5.966986e-04	
636	5.200000e+00	5.967431e-04	
637	5.250000e+00	5.967868e-04	
638	5.300000e+00	5.968299e-04	
639	5.350000e+00	5.968723e-04	
640	5.400000e+00	5.969141e-04	
641	5.450000e+00	5.969555e-04	
642	5.500000e+00	5.969964e-04	
643	5.550000e+00	5.970368e-04	
644	5.600000e+00	5.970769e-04	
645	5.650000e+00	5.971168e-04	
646	5.700000e+00	5.971564e-04	
647	5.750000e+00	5.971959e-04	
648	5.800000e+00	5.972354e-04	
649	5.850000e+00	5.972751e-04	
650	5.900000e+00	5.973151e-04	
651	5.950000e+00	5.973556e-04	
652	6.000000e+00	5.973968e-04	
653	6.050000e+00	5.974391e-04	
654	6.100000e+00	5.974827e-04	
655	6.150000e+00	5.975280e-04	
656	6.200000e+00	5.975756e-04	
657	6.250000e+00	5.976258e-04	
658	6.300000e+00	5.976794e-04	
659	6.350000e+00	5.977370e-04	
660	6.400000e+00	5.977993e-04	
661	6.450000e+00	5.978674e-04	
662	6.500000e+00	5.979422e-04	
663	6.550000e+00	5.980249e-04	
664	6.600000e+00	5.981166e-04	
665	0.000000e+00	1.719294e-29	
666	5.000000e-02	1.856029e-05	
667	1.000000e-01	3.689909e-05	
668	1.500000e-01	5.501680e-05	
669	2.000000e-01	7.291384e-05	
670	2.500000e-01	9.059063e-05	
671	3.000000e-01	1.080476e-04	
672	3.500000e-01	1.252851e-04	
673	4.000000e-01	1.423036e-04	
674	4.500000e-01	1.591035e-04	
675	5.000000e-01	1.756852e-04	
676	5.500000e-01	1.920491e-04	
677	6.000000e-01	2.081956e-04	
678	6.500000e-01	2.241252e-04	
679	7.000000e-01	2.398382e-04	
680	7.500000e-01	2.553350e-04	
681	8.000000e-01	2.706161e-04	
682	8.500000e-01	2.856818e-04	
683	9.000000e-01	3.005325e-04	
684	9.500000e-01	3.151687e-04	
685	1.000000e+00	3.295908e-04	
686	1.050000e+00	3.437991e-04	
687	1.100000e+00	3.577940e-04	
688	1.150000e+00	3.715760e-04	
689	1.200000e+00	3.851454e-04	
690	1.250000e+00	3.985026e-04	
691	1.300000e+00	4.116481e-04	
692	1.350000e+00	4.245822e-04	

Index   v-sweep         -i(vds)         
--------------------------------------------------------------------------------
693	1.400000e+00	4.373053e-04	
694	1.450000e+00	4.498178e-04	
695	1.500000e+00	4.621201e-04	
696	1.550000e+00	4.742126e-04	
697	1.600000e+00	4.860957e-04	
698	1.650000e+00	4.977697e-04	
699	1.700000e+00	5.092351e-04	
700	1.750000e+00	5.204922e-04	
701	1.800000e+00	5.315414e-04	
702	1.850000e+00	5.423832e-04	
703	1.900000e+00	5.530178e-04	
704	1.950000e+00	5.634457e-04	
705	2.000000e+00	5.736672e-04	
706	2.050000e+00	5.836828e-04	
707	2.100000e+00	5.934927e-04	
708	2.150000e+00	6.030975e-04	
709	2.200000e+00	6.124974e-04	
710	2.250000e+00	6.216928e-04	
711	2.300000e+00	6.306842e-04	
712	2.350000e+00	6.394718e-04	
713	2.400000e+00	6.480560e-04	
714	2.450000e+00	6.564373e-04	
715	2.500000e+00	6.646159e-04	
716	2.550000e+00	6.725923e-04	
717	2.600000e+00	6.803668e-04	
718	2.650000e+00	6.879398e-04	
719	2.700000e+00	6.953116e-04	
720	2.750000e+00	7.024825e-04	
721	2.800000e+00	7.094530e-04	
722	2.850000e+00	7.162234e-04	
723	2.900000e+00	7.227940e-04	
724	2.950000e+00	7.291652e-04	
725	3.000000e+00	7.353373e-04	
726	3.050000e+00	7.413107e-04	
727	3.100000e+00	7.470856e-04	
728	3.150000e+00	7.526624e-04	
729	3.200000e+00	7.580415e-04	
730	3.250000e+00	7.632230e-04	
731	3.300000e+00	7.682074e-04	
732	3.350000e+00	7.729950e-04	
733	3.400000e+00	7.775859e-04	
734	3.450000e+00	7.819806e-04	
735	3.500000e+00	7.861791e-04	
736	3.550000e+00	7.901819e-04	
737	3.600000e+00	7.939891e-04	
738	3.650000e+00	7.976009e-04	
739	3.700000e+00	8.010175e-04	
740	3.750000e+00	8.042392e-04	
741	3.800000e+00	8.072662e-04	
742	3.850000e+00	8.100986e-04	
743	3.900000e+00	8.127368e-04	
744	3.950000e+00	8.151812e-04	
745	4.000000e+00	8.174325e-04	
746	4.050000e+00	8.194915e-04	
747	4.100000e+00	8.213600e-04	
748	4.150000e+00	8.230405e-04	
749	4.200000e+00	8.245368e-04	
750	4.250000e+00	8.258549e-04	

Index   v-sweep         -i(vds)         
--------------------------------------------------------------------------------
751	4.300000e+00	8.270031e-04	
752	4.350000e+00	8.279923e-04	
753	4.400000e+00	8.288366e-04	
754	4.450000e+00	8.295519e-04	
755	4.500000e+00	8.301555e-04	
756	4.550000e+00	8.306645e-04	
757	4.600000e+00	8.310950e-04	
758	4.650000e+00	8.314611e-04	
759	4.700000e+00	8.317748e-04	
760	4.750000e+00	8.320462e-04	
761	4.800000e+00	8.322831e-04	
762	4.850000e+00	8.324921e-04	
763	4.900000e+00	8.326782e-04	
764	4.950000e+00	8.328454e-04	
765	5.000000e+00	8.329970e-04	
766	5.050000e+00	8.331355e-04	
767	5.100000e+00	8.332629e-04	
768	5.150000e+00	8.333809e-04	
769	5.200000e+00	8.334909e-04	
770	5.250000e+00	8.335940e-04	
771	5.300000e+00	8.336911e-04	
772	5.350000e+00	8.337829e-04	
773	5.400000e+00	8.338702e-04	
774	5.450000e+00	8.339533e-04	
775	5.500000e+00	8.340329e-04	
776	5.550000e+00	8.341093e-04	
777	5.600000e+00	8.341828e-04	
778	5.650000e+00	8.342537e-04	
779	5.700000e+00	8.343223e-04	
780	5.750000e+00	8.343888e-04	
781	5.800000e+00	8.344533e-04	
782	5.850000e+00	8.345161e-04	
783	5.900000e+00	8.345772e-04	
784	5.950000e+00	8.346369e-04	
785	6.000000e+00	8.346953e-04	
786	6.050000e+00	8.347523e-04	
787	6.100000e+00	8.348082e-04	
788	6.150000e+00	8.348631e-04	
789	6.200000e+00	8.349169e-04	
790	6.250000e+00	8.349699e-04	
791	6.300000e+00	8.350219e-04	
792	6.350000e+00	8.350733e-04	
793	6.400000e+00	8.351239e-04	
794	6.450000e+00	8.351739e-04	
795	6.500000e+00	8.352233e-04	
796	6.550000e+00	8.352724e-04	
797	6.600000e+00	8.353210e-04	
Note: No ".plot", ".print", or ".fourier" lines; no simulations run
