
Note: Compatibility modes selected: hs

Warning: m=xx on .subckt line will override multiplier m hierarchy!


Circuit: ***************************

Doing analysis at TEMP = 125.000000 and TNOM = 125.000000


No. of Data Rows : 798
                          ***************************
                          DC transfer characteristic  Mon Jan  9 13:58:37  2023
--------------------------------------------------------------------------------
Index   v-sweep         -i(vds)         
--------------------------------------------------------------------------------
0	0.000000e+00	-1.58004e-24	
1	5.000000e-02	1.134168e-05	
2	1.000000e-01	2.044504e-05	
3	1.500000e-01	2.742736e-05	
4	2.000000e-01	3.240343e-05	
5	2.500000e-01	3.559569e-05	
6	3.000000e-01	3.747500e-05	
7	3.500000e-01	3.865271e-05	
8	4.000000e-01	3.952401e-05	
9	4.500000e-01	4.024704e-05	
10	5.000000e-01	4.088165e-05	
11	5.500000e-01	4.145515e-05	
12	6.000000e-01	4.198267e-05	
13	6.500000e-01	4.247384e-05	
14	7.000000e-01	4.293535e-05	
15	7.500000e-01	4.337210e-05	
16	8.000000e-01	4.378783e-05	
17	8.500000e-01	4.418548e-05	
18	9.000000e-01	4.456739e-05	
19	9.500000e-01	4.493549e-05	
20	1.000000e+00	4.529136e-05	
21	1.050000e+00	4.563634e-05	
22	1.100000e+00	4.597155e-05	
23	1.150000e+00	4.629795e-05	
24	1.200000e+00	4.661637e-05	
25	1.250000e+00	4.692753e-05	
26	1.300000e+00	4.723206e-05	
27	1.350000e+00	4.753050e-05	
28	1.400000e+00	4.782334e-05	
29	1.450000e+00	4.811101e-05	
30	1.500000e+00	4.839390e-05	
31	1.550000e+00	4.867235e-05	
32	1.600000e+00	4.894666e-05	
33	1.650000e+00	4.921713e-05	
34	1.700000e+00	4.948400e-05	
35	1.750000e+00	4.974749e-05	
36	1.800000e+00	5.000782e-05	
37	1.850000e+00	5.026518e-05	
38	1.900000e+00	5.051974e-05	
39	1.950000e+00	5.077166e-05	
40	2.000000e+00	5.102109e-05	
41	2.050000e+00	5.126817e-05	
42	2.100000e+00	5.151301e-05	
43	2.150000e+00	5.175574e-05	
44	2.200000e+00	5.199646e-05	
45	2.250000e+00	5.223528e-05	
46	2.300000e+00	5.247228e-05	
47	2.350000e+00	5.270756e-05	
48	2.400000e+00	5.294120e-05	
49	2.450000e+00	5.317327e-05	
50	2.500000e+00	5.340386e-05	
51	2.550000e+00	5.363304e-05	
52	2.600000e+00	5.386086e-05	
53	2.650000e+00	5.408742e-05	
54	2.700000e+00	5.431276e-05	

Index   v-sweep         -i(vds)         
--------------------------------------------------------------------------------
55	2.750000e+00	5.453696e-05	
56	2.800000e+00	5.476008e-05	
57	2.850000e+00	5.498219e-05	
58	2.900000e+00	5.520338e-05	
59	2.950000e+00	5.542370e-05	
60	3.000000e+00	5.564324e-05	
61	3.050000e+00	5.586208e-05	
62	3.100000e+00	5.608031e-05	
63	3.150000e+00	5.629802e-05	
64	3.200000e+00	5.651533e-05	
65	3.250000e+00	5.673235e-05	
66	3.300000e+00	5.694919e-05	
67	3.350000e+00	5.716600e-05	
68	3.400000e+00	5.738292e-05	
69	3.450000e+00	5.760011e-05	
70	3.500000e+00	5.781774e-05	
71	3.550000e+00	5.803600e-05	
72	3.600000e+00	5.825511e-05	
73	3.650000e+00	5.847528e-05	
74	3.700000e+00	5.869676e-05	
75	3.750000e+00	5.891980e-05	
76	3.800000e+00	5.914470e-05	
77	3.850000e+00	5.937175e-05	
78	3.900000e+00	5.960127e-05	
79	3.950000e+00	5.983363e-05	
80	4.000000e+00	6.006918e-05	
81	4.050000e+00	6.030833e-05	
82	4.100000e+00	6.055149e-05	
83	4.150000e+00	6.079913e-05	
84	4.200000e+00	6.105170e-05	
85	4.250000e+00	6.130971e-05	
86	4.300000e+00	6.157369e-05	
87	4.350000e+00	6.184420e-05	
88	4.400000e+00	6.212181e-05	
89	4.450000e+00	6.240715e-05	
90	4.500000e+00	6.270084e-05	
91	4.550000e+00	6.300357e-05	
92	4.600000e+00	6.331604e-05	
93	4.650000e+00	6.363896e-05	
94	4.700000e+00	6.397311e-05	
95	4.750000e+00	6.431925e-05	
96	4.800000e+00	6.467822e-05	
97	4.850000e+00	6.505085e-05	
98	4.900000e+00	6.543803e-05	
99	4.950000e+00	6.584064e-05	
100	5.000000e+00	6.625963e-05	
101	5.050000e+00	6.669594e-05	
102	5.100000e+00	6.715057e-05	
103	5.150000e+00	6.762454e-05	
104	5.200000e+00	6.811887e-05	
105	5.250000e+00	6.863465e-05	
106	5.300000e+00	6.917296e-05	
107	5.350000e+00	6.973492e-05	
108	5.400000e+00	7.032169e-05	
109	5.450000e+00	7.093442e-05	
110	5.500000e+00	7.157431e-05	
111	5.550000e+00	7.224258e-05	
112	5.600000e+00	7.294047e-05	

Index   v-sweep         -i(vds)         
--------------------------------------------------------------------------------
113	5.650000e+00	7.366924e-05	
114	5.700000e+00	7.443018e-05	
115	5.750000e+00	7.522460e-05	
116	5.800000e+00	7.605381e-05	
117	5.850000e+00	7.691917e-05	
118	5.900000e+00	7.782204e-05	
119	5.950000e+00	7.876381e-05	
120	6.000000e+00	7.974587e-05	
121	6.050000e+00	8.076966e-05	
122	6.100000e+00	8.183659e-05	
123	6.150000e+00	8.294813e-05	
124	6.200000e+00	8.410575e-05	
125	6.250000e+00	8.531091e-05	
126	6.300000e+00	8.656513e-05	
127	6.350000e+00	8.786990e-05	
128	6.400000e+00	8.922676e-05	
129	6.450000e+00	9.063722e-05	
130	6.500000e+00	9.210284e-05	
131	6.550000e+00	9.362518e-05	
132	6.600000e+00	9.520578e-05	
133	0.000000e+00	9.209155e-25	
134	5.000000e-02	3.610427e-05	
135	1.000000e-01	6.978708e-05	
136	1.500000e-01	1.011450e-04	
137	2.000000e-01	1.302367e-04	
138	2.500000e-01	1.571101e-04	
139	3.000000e-01	1.818100e-04	
140	3.500000e-01	2.043801e-04	
141	4.000000e-01	2.248636e-04	
142	4.500000e-01	2.433041e-04	
143	5.000000e-01	2.597462e-04	
144	5.500000e-01	2.742375e-04	
145	6.000000e-01	2.868321e-04	
146	6.500000e-01	2.975975e-04	
147	7.000000e-01	3.066294e-04	
148	7.500000e-01	3.140754e-04	
149	8.000000e-01	3.201546e-04	
150	8.500000e-01	3.251413e-04	
151	9.000000e-01	3.293048e-04	
152	9.500000e-01	3.328601e-04	
153	1.000000e+00	3.359607e-04	
154	1.050000e+00	3.387126e-04	
155	1.100000e+00	3.411901e-04	
156	1.150000e+00	3.434466e-04	
157	1.200000e+00	3.455213e-04	
158	1.250000e+00	3.474441e-04	
159	1.300000e+00	3.492380e-04	
160	1.350000e+00	3.509213e-04	
161	1.400000e+00	3.525086e-04	
162	1.450000e+00	3.540118e-04	
163	1.500000e+00	3.554408e-04	
164	1.550000e+00	3.568038e-04	
165	1.600000e+00	3.581077e-04	
166	1.650000e+00	3.593585e-04	
167	1.700000e+00	3.605611e-04	
168	1.750000e+00	3.617200e-04	
169	1.800000e+00	3.628389e-04	
170	1.850000e+00	3.639212e-04	

Index   v-sweep         -i(vds)         
--------------------------------------------------------------------------------
171	1.900000e+00	3.649699e-04	
172	1.950000e+00	3.659875e-04	
173	2.000000e+00	3.669764e-04	
174	2.050000e+00	3.679385e-04	
175	2.100000e+00	3.688758e-04	
176	2.150000e+00	3.697899e-04	
177	2.200000e+00	3.706824e-04	
178	2.250000e+00	3.715545e-04	
179	2.300000e+00	3.724075e-04	
180	2.350000e+00	3.732426e-04	
181	2.400000e+00	3.740608e-04	
182	2.450000e+00	3.748631e-04	
183	2.500000e+00	3.756502e-04	
184	2.550000e+00	3.764231e-04	
185	2.600000e+00	3.771824e-04	
186	2.650000e+00	3.779288e-04	
187	2.700000e+00	3.786630e-04	
188	2.750000e+00	3.793856e-04	
189	2.800000e+00	3.800972e-04	
190	2.850000e+00	3.807981e-04	
191	2.900000e+00	3.814890e-04	
192	2.950000e+00	3.821704e-04	
193	3.000000e+00	3.828425e-04	
194	3.050000e+00	3.835060e-04	
195	3.100000e+00	3.841612e-04	
196	3.150000e+00	3.848085e-04	
197	3.200000e+00	3.854483e-04	
198	3.250000e+00	3.860810e-04	
199	3.300000e+00	3.867071e-04	
200	3.350000e+00	3.873270e-04	
201	3.400000e+00	3.879410e-04	
202	3.450000e+00	3.885498e-04	
203	3.500000e+00	3.891537e-04	
204	3.550000e+00	3.897533e-04	
205	3.600000e+00	3.903492e-04	
206	3.650000e+00	3.909419e-04	
207	3.700000e+00	3.915322e-04	
208	3.750000e+00	3.921207e-04	
209	3.800000e+00	3.927083e-04	
210	3.850000e+00	3.932958e-04	
211	3.900000e+00	3.938842e-04	
212	3.950000e+00	3.944744e-04	
213	4.000000e+00	3.950676e-04	
214	4.050000e+00	3.956650e-04	
215	4.100000e+00	3.962678e-04	
216	4.150000e+00	3.968776e-04	
217	4.200000e+00	3.974959e-04	
218	4.250000e+00	3.981242e-04	
219	4.300000e+00	3.987644e-04	
220	4.350000e+00	3.994184e-04	
221	4.400000e+00	4.000882e-04	
222	4.450000e+00	4.007760e-04	
223	4.500000e+00	4.014841e-04	
224	4.550000e+00	4.022149e-04	
225	4.600000e+00	4.029711e-04	
226	4.650000e+00	4.037554e-04	
227	4.700000e+00	4.045707e-04	
228	4.750000e+00	4.054201e-04	

Index   v-sweep         -i(vds)         
--------------------------------------------------------------------------------
229	4.800000e+00	4.063068e-04	
230	4.850000e+00	4.072342e-04	
231	4.900000e+00	4.082058e-04	
232	4.950000e+00	4.092253e-04	
233	5.000000e+00	4.102965e-04	
234	5.050000e+00	4.114235e-04	
235	5.100000e+00	4.126103e-04	
236	5.150000e+00	4.138613e-04	
237	5.200000e+00	4.151810e-04	
238	5.250000e+00	4.165740e-04	
239	5.300000e+00	4.180450e-04	
240	5.350000e+00	4.195990e-04	
241	5.400000e+00	4.212410e-04	
242	5.450000e+00	4.229763e-04	
243	5.500000e+00	4.248100e-04	
244	5.550000e+00	4.267479e-04	
245	5.600000e+00	4.287953e-04	
246	5.650000e+00	4.309582e-04	
247	5.700000e+00	4.332422e-04	
248	5.750000e+00	4.356535e-04	
249	5.800000e+00	4.381981e-04	
250	5.850000e+00	4.408822e-04	
251	5.900000e+00	4.437121e-04	
252	5.950000e+00	4.466942e-04	
253	6.000000e+00	4.498350e-04	
254	6.050000e+00	4.531412e-04	
255	6.100000e+00	4.566194e-04	
256	6.150000e+00	4.602764e-04	
257	6.200000e+00	4.641190e-04	
258	6.250000e+00	4.681542e-04	
259	6.300000e+00	4.723890e-04	
260	6.350000e+00	4.768303e-04	
261	6.400000e+00	4.814854e-04	
262	6.450000e+00	4.863613e-04	
263	6.500000e+00	4.914653e-04	
264	6.550000e+00	4.968045e-04	
265	6.600000e+00	5.023864e-04	
266	0.000000e+00	-1.51704e-24	
267	5.000000e-02	5.388816e-05	
268	1.000000e-01	1.053966e-04	
269	1.500000e-01	1.546151e-04	
270	2.000000e-01	2.015975e-04	
271	2.500000e-01	2.463875e-04	
272	3.000000e-01	2.890252e-04	
273	3.500000e-01	3.295495e-04	
274	4.000000e-01	3.679984e-04	
275	4.500000e-01	4.044091e-04	
276	5.000000e-01	4.388182e-04	
277	5.500000e-01	4.712616e-04	
278	6.000000e-01	5.017747e-04	
279	6.500000e-01	5.303921e-04	
280	7.000000e-01	5.571481e-04	
281	7.500000e-01	5.820765e-04	
282	8.000000e-01	6.052106e-04	
283	8.500000e-01	6.265835e-04	
284	9.000000e-01	6.462281e-04	
285	9.500000e-01	6.641774e-04	
286	1.000000e+00	6.804653e-04	

Index   v-sweep         -i(vds)         
--------------------------------------------------------------------------------
287	1.050000e+00	6.951274e-04	
288	1.100000e+00	7.082042e-04	
289	1.150000e+00	7.197482e-04	
290	1.200000e+00	7.298359e-04	
291	1.250000e+00	7.385835e-04	
292	1.300000e+00	7.461503e-04	
293	1.350000e+00	7.527199e-04	
294	1.400000e+00	7.584719e-04	
295	1.450000e+00	7.635614e-04	
296	1.500000e+00	7.681139e-04	
297	1.550000e+00	7.722275e-04	
298	1.600000e+00	7.759783e-04	
299	1.650000e+00	7.794255e-04	
300	1.700000e+00	7.826159e-04	
301	1.750000e+00	7.855864e-04	
302	1.800000e+00	7.883668e-04	
303	1.850000e+00	7.909815e-04	
304	1.900000e+00	7.934504e-04	
305	1.950000e+00	7.957903e-04	
306	2.000000e+00	7.980150e-04	
307	2.050000e+00	8.001365e-04	
308	2.100000e+00	8.021650e-04	
309	2.150000e+00	8.041091e-04	
310	2.200000e+00	8.059764e-04	
311	2.250000e+00	8.077735e-04	
312	2.300000e+00	8.095063e-04	
313	2.350000e+00	8.111798e-04	
314	2.400000e+00	8.127985e-04	
315	2.450000e+00	8.143666e-04	
316	2.500000e+00	8.158875e-04	
317	2.550000e+00	8.173645e-04	
318	2.600000e+00	8.188007e-04	
319	2.650000e+00	8.201984e-04	
320	2.700000e+00	8.215603e-04	
321	2.750000e+00	8.228884e-04	
322	2.800000e+00	8.241848e-04	
323	2.850000e+00	8.254512e-04	
324	2.900000e+00	8.266893e-04	
325	2.950000e+00	8.279007e-04	
326	3.000000e+00	8.290867e-04	
327	3.050000e+00	8.302487e-04	
328	3.100000e+00	8.313879e-04	
329	3.150000e+00	8.325053e-04	
330	3.200000e+00	8.336022e-04	
331	3.250000e+00	8.346794e-04	
332	3.300000e+00	8.357379e-04	
333	3.350000e+00	8.367785e-04	
334	3.400000e+00	8.378021e-04	
335	3.450000e+00	8.388096e-04	
336	3.500000e+00	8.398016e-04	
337	3.550000e+00	8.407790e-04	
338	3.600000e+00	8.417425e-04	
339	3.650000e+00	8.426929e-04	
340	3.700000e+00	8.436310e-04	
341	3.750000e+00	8.445576e-04	
342	3.800000e+00	8.454735e-04	
343	3.850000e+00	8.463797e-04	
344	3.900000e+00	8.472769e-04	

Index   v-sweep         -i(vds)         
--------------------------------------------------------------------------------
345	3.950000e+00	8.481664e-04	
346	4.000000e+00	8.490491e-04	
347	4.050000e+00	8.499262e-04	
348	4.100000e+00	8.507991e-04	
349	4.150000e+00	8.516692e-04	
350	4.200000e+00	8.525380e-04	
351	4.250000e+00	8.534072e-04	
352	4.300000e+00	8.542786e-04	
353	4.350000e+00	8.551544e-04	
354	4.400000e+00	8.560366e-04	
355	4.450000e+00	8.569278e-04	
356	4.500000e+00	8.578306e-04	
357	4.550000e+00	8.587477e-04	
358	4.600000e+00	8.596824e-04	
359	4.650000e+00	8.606379e-04	
360	4.700000e+00	8.616178e-04	
361	4.750000e+00	8.626260e-04	
362	4.800000e+00	8.636666e-04	
363	4.850000e+00	8.647441e-04	
364	4.900000e+00	8.658631e-04	
365	4.950000e+00	8.670286e-04	
366	5.000000e+00	8.682460e-04	
367	5.050000e+00	8.695209e-04	
368	5.100000e+00	8.708592e-04	
369	5.150000e+00	8.722672e-04	
370	5.200000e+00	8.737515e-04	
371	5.250000e+00	8.753189e-04	
372	5.300000e+00	8.769766e-04	
373	5.350000e+00	8.787323e-04	
374	5.400000e+00	8.805938e-04	
375	5.450000e+00	8.825692e-04	
376	5.500000e+00	8.846671e-04	
377	5.550000e+00	8.868962e-04	
378	5.600000e+00	8.892658e-04	
379	5.650000e+00	8.917851e-04	
380	5.700000e+00	8.944641e-04	
381	5.750000e+00	8.973127e-04	
382	5.800000e+00	9.003412e-04	
383	5.850000e+00	9.035601e-04	
384	5.900000e+00	9.069805e-04	
385	5.950000e+00	9.106134e-04	
386	6.000000e+00	9.144702e-04	
387	6.050000e+00	9.185626e-04	
388	6.100000e+00	9.229023e-04	
389	6.150000e+00	9.275016e-04	
390	6.200000e+00	9.323726e-04	
391	6.250000e+00	9.375281e-04	
392	6.300000e+00	9.429805e-04	
393	6.350000e+00	9.487429e-04	
394	6.400000e+00	9.548283e-04	
395	6.450000e+00	9.612500e-04	
396	6.500000e+00	9.680212e-04	
397	6.550000e+00	9.751556e-04	
398	6.600000e+00	9.826667e-04	
399	0.000000e+00	-3.08340e-20	
400	5.000000e-02	6.645872e-05	
401	1.000000e-01	1.306725e-04	
402	1.500000e-01	1.927228e-04	

Index   v-sweep         -i(vds)         
--------------------------------------------------------------------------------
403	2.000000e-01	2.526568e-04	
404	2.500000e-01	3.105116e-04	
405	3.000000e-01	3.663215e-04	
406	3.500000e-01	4.201193e-04	
407	4.000000e-01	4.719372e-04	
408	4.500000e-01	5.218067e-04	
409	5.000000e-01	5.697590e-04	
410	5.500000e-01	6.158246e-04	
411	6.000000e-01	6.600335e-04	
412	6.500000e-01	7.024153e-04	
413	7.000000e-01	7.429989e-04	
414	7.500000e-01	7.818129e-04	
415	8.000000e-01	8.188854e-04	
416	8.500000e-01	8.542440e-04	
417	9.000000e-01	8.879159e-04	
418	9.500000e-01	9.199276e-04	
419	1.000000e+00	9.503056e-04	
420	1.050000e+00	9.790753e-04	
421	1.100000e+00	1.006262e-03	
422	1.150000e+00	1.031890e-03	
423	1.200000e+00	1.055984e-03	
424	1.250000e+00	1.078566e-03	
425	1.300000e+00	1.099656e-03	
426	1.350000e+00	1.119276e-03	
427	1.400000e+00	1.137440e-03	
428	1.450000e+00	1.154161e-03	
429	1.500000e+00	1.169449e-03	
430	1.550000e+00	1.183312e-03	
431	1.600000e+00	1.195772e-03	
432	1.650000e+00	1.206878e-03	
433	1.700000e+00	1.216722e-03	
434	1.750000e+00	1.225436e-03	
435	1.800000e+00	1.233173e-03	
436	1.850000e+00	1.240083e-03	
437	1.900000e+00	1.246299e-03	
438	1.950000e+00	1.251935e-03	
439	2.000000e+00	1.257083e-03	
440	2.050000e+00	1.261817e-03	
441	2.100000e+00	1.266198e-03	
442	2.150000e+00	1.270275e-03	
443	2.200000e+00	1.274087e-03	
444	2.250000e+00	1.277669e-03	
445	2.300000e+00	1.281046e-03	
446	2.350000e+00	1.284242e-03	
447	2.400000e+00	1.287276e-03	
448	2.450000e+00	1.290165e-03	
449	2.500000e+00	1.292923e-03	
450	2.550000e+00	1.295563e-03	
451	2.600000e+00	1.298093e-03	
452	2.650000e+00	1.300525e-03	
453	2.700000e+00	1.302866e-03	
454	2.750000e+00	1.305123e-03	
455	2.800000e+00	1.307303e-03	
456	2.850000e+00	1.309411e-03	
457	2.900000e+00	1.311453e-03	
458	2.950000e+00	1.313433e-03	
459	3.000000e+00	1.315354e-03	
460	3.050000e+00	1.317222e-03	

Index   v-sweep         -i(vds)         
--------------------------------------------------------------------------------
461	3.100000e+00	1.319039e-03	
462	3.150000e+00	1.320807e-03	
463	3.200000e+00	1.322531e-03	
464	3.250000e+00	1.324213e-03	
465	3.300000e+00	1.325855e-03	
466	3.350000e+00	1.327458e-03	
467	3.400000e+00	1.329026e-03	
468	3.450000e+00	1.330560e-03	
469	3.500000e+00	1.332062e-03	
470	3.550000e+00	1.333533e-03	
471	3.600000e+00	1.334974e-03	
472	3.650000e+00	1.336388e-03	
473	3.700000e+00	1.337775e-03	
474	3.750000e+00	1.339137e-03	
475	3.800000e+00	1.340475e-03	
476	3.850000e+00	1.341791e-03	
477	3.900000e+00	1.343084e-03	
478	3.950000e+00	1.344357e-03	
479	4.000000e+00	1.345610e-03	
480	4.050000e+00	1.346845e-03	
481	4.100000e+00	1.348062e-03	
482	4.150000e+00	1.349264e-03	
483	4.200000e+00	1.350450e-03	
484	4.250000e+00	1.351623e-03	
485	4.300000e+00	1.352784e-03	
486	4.350000e+00	1.353934e-03	
487	4.400000e+00	1.355076e-03	
488	4.450000e+00	1.356210e-03	
489	4.500000e+00	1.357339e-03	
490	4.550000e+00	1.358465e-03	
491	4.600000e+00	1.359591e-03	
492	4.650000e+00	1.360719e-03	
493	4.700000e+00	1.361851e-03	
494	4.750000e+00	1.362992e-03	
495	4.800000e+00	1.364144e-03	
496	4.850000e+00	1.365312e-03	
497	4.900000e+00	1.366498e-03	
498	4.950000e+00	1.367709e-03	
499	5.000000e+00	1.368949e-03	
500	5.050000e+00	1.370222e-03	
501	5.100000e+00	1.371535e-03	
502	5.150000e+00	1.372893e-03	
503	5.200000e+00	1.374304e-03	
504	5.250000e+00	1.375773e-03	
505	5.300000e+00	1.377309e-03	
506	5.350000e+00	1.378918e-03	
507	5.400000e+00	1.380610e-03	
508	5.450000e+00	1.382394e-03	
509	5.500000e+00	1.384278e-03	
510	5.550000e+00	1.386272e-03	
511	5.600000e+00	1.388387e-03	
512	5.650000e+00	1.390634e-03	
513	5.700000e+00	1.393023e-03	
514	5.750000e+00	1.395566e-03	
515	5.800000e+00	1.398276e-03	
516	5.850000e+00	1.401166e-03	
517	5.900000e+00	1.404249e-03	
518	5.950000e+00	1.407538e-03	

Index   v-sweep         -i(vds)         
--------------------------------------------------------------------------------
519	6.000000e+00	1.411048e-03	
520	6.050000e+00	1.414793e-03	
521	6.100000e+00	1.418789e-03	
522	6.150000e+00	1.423051e-03	
523	6.200000e+00	1.427595e-03	
524	6.250000e+00	1.432437e-03	
525	6.300000e+00	1.437595e-03	
526	6.350000e+00	1.443086e-03	
527	6.400000e+00	1.448926e-03	
528	6.450000e+00	1.455135e-03	
529	6.500000e+00	1.461730e-03	
530	6.550000e+00	1.468730e-03	
531	6.600000e+00	1.476154e-03	
532	0.000000e+00	6.994932e-21	
533	5.000000e-02	7.492219e-05	
534	1.000000e-01	1.477829e-04	
535	1.500000e-01	2.186557e-04	
536	2.000000e-01	2.875811e-04	
537	2.500000e-01	3.545900e-04	
538	3.000000e-01	4.197102e-04	
539	3.500000e-01	4.829686e-04	
540	4.000000e-01	5.443915e-04	
541	4.500000e-01	6.040047e-04	
542	5.000000e-01	6.618336e-04	
543	5.500000e-01	7.179033e-04	
544	6.000000e-01	7.722386e-04	
545	6.500000e-01	8.248638e-04	
546	7.000000e-01	8.758029e-04	
547	7.500000e-01	9.250795e-04	
548	8.000000e-01	9.727169e-04	
549	8.500000e-01	1.018738e-03	
550	9.000000e-01	1.063165e-03	
551	9.500000e-01	1.106021e-03	
552	1.000000e+00	1.147328e-03	
553	1.050000e+00	1.187107e-03	
554	1.100000e+00	1.225379e-03	
555	1.150000e+00	1.262165e-03	
556	1.200000e+00	1.297486e-03	
557	1.250000e+00	1.331363e-03	
558	1.300000e+00	1.363815e-03	
559	1.350000e+00	1.394861e-03	
560	1.400000e+00	1.424522e-03	
561	1.450000e+00	1.452814e-03	
562	1.500000e+00	1.479757e-03	
563	1.550000e+00	1.505367e-03	
564	1.600000e+00	1.529660e-03	
565	1.650000e+00	1.552650e-03	
566	1.700000e+00	1.574348e-03	
567	1.750000e+00	1.594763e-03	
568	1.800000e+00	1.613897e-03	
569	1.850000e+00	1.631746e-03	
570	1.900000e+00	1.648300e-03	
571	1.950000e+00	1.663546e-03	
572	2.000000e+00	1.677478e-03	
573	2.050000e+00	1.690112e-03	
574	2.100000e+00	1.701503e-03	
575	2.150000e+00	1.711745e-03	
576	2.200000e+00	1.720961e-03	

Index   v-sweep         -i(vds)         
--------------------------------------------------------------------------------
577	2.250000e+00	1.729279e-03	
578	2.300000e+00	1.736825e-03	
579	2.350000e+00	1.743709e-03	
580	2.400000e+00	1.750028e-03	
581	2.450000e+00	1.755859e-03	
582	2.500000e+00	1.761270e-03	
583	2.550000e+00	1.766316e-03	
584	2.600000e+00	1.771042e-03	
585	2.650000e+00	1.775485e-03	
586	2.700000e+00	1.779679e-03	
587	2.750000e+00	1.783651e-03	
588	2.800000e+00	1.787422e-03	
589	2.850000e+00	1.791014e-03	
590	2.900000e+00	1.794443e-03	
591	2.950000e+00	1.797725e-03	
592	3.000000e+00	1.800871e-03	
593	3.050000e+00	1.803893e-03	
594	3.100000e+00	1.806801e-03	
595	3.150000e+00	1.809605e-03	
596	3.200000e+00	1.812311e-03	
597	3.250000e+00	1.814927e-03	
598	3.300000e+00	1.817459e-03	
599	3.350000e+00	1.819914e-03	
600	3.400000e+00	1.822295e-03	
601	3.450000e+00	1.824607e-03	
602	3.500000e+00	1.826856e-03	
603	3.550000e+00	1.829044e-03	
604	3.600000e+00	1.831175e-03	
605	3.650000e+00	1.833253e-03	
606	3.700000e+00	1.835280e-03	
607	3.750000e+00	1.837259e-03	
608	3.800000e+00	1.839192e-03	
609	3.850000e+00	1.841083e-03	
610	3.900000e+00	1.842932e-03	
611	3.950000e+00	1.844742e-03	
612	4.000000e+00	1.846515e-03	
613	4.050000e+00	1.848253e-03	
614	4.100000e+00	1.849957e-03	
615	4.150000e+00	1.851629e-03	
616	4.200000e+00	1.853271e-03	
617	4.250000e+00	1.854883e-03	
618	4.300000e+00	1.856468e-03	
619	4.350000e+00	1.858026e-03	
620	4.400000e+00	1.859560e-03	
621	4.450000e+00	1.861070e-03	
622	4.500000e+00	1.862559e-03	
623	4.550000e+00	1.864027e-03	
624	4.600000e+00	1.865476e-03	
625	4.650000e+00	1.866909e-03	
626	4.700000e+00	1.868326e-03	
627	4.750000e+00	1.869731e-03	
628	4.800000e+00	1.871125e-03	
629	4.850000e+00	1.872510e-03	
630	4.900000e+00	1.873890e-03	
631	4.950000e+00	1.875267e-03	
632	5.000000e+00	1.876645e-03	
633	5.050000e+00	1.878027e-03	
634	5.100000e+00	1.879417e-03	

Index   v-sweep         -i(vds)         
--------------------------------------------------------------------------------
635	5.150000e+00	1.880819e-03	
636	5.200000e+00	1.882238e-03	
637	5.250000e+00	1.883680e-03	
638	5.300000e+00	1.885149e-03	
639	5.350000e+00	1.886652e-03	
640	5.400000e+00	1.888196e-03	
641	5.450000e+00	1.889787e-03	
642	5.500000e+00	1.891434e-03	
643	5.550000e+00	1.893144e-03	
644	5.600000e+00	1.894927e-03	
645	5.650000e+00	1.896791e-03	
646	5.700000e+00	1.898748e-03	
647	5.750000e+00	1.900807e-03	
648	5.800000e+00	1.902981e-03	
649	5.850000e+00	1.905280e-03	
650	5.900000e+00	1.907718e-03	
651	5.950000e+00	1.910309e-03	
652	6.000000e+00	1.913066e-03	
653	6.050000e+00	1.916003e-03	
654	6.100000e+00	1.919138e-03	
655	6.150000e+00	1.922484e-03	
656	6.200000e+00	1.926060e-03	
657	6.250000e+00	1.929883e-03	
658	6.300000e+00	1.933970e-03	
659	6.350000e+00	1.938340e-03	
660	6.400000e+00	1.943014e-03	
661	6.450000e+00	1.948009e-03	
662	6.500000e+00	1.953348e-03	
663	6.550000e+00	1.959052e-03	
664	6.600000e+00	1.965141e-03	
665	0.000000e+00	-4.42384e-19	
666	5.000000e-02	8.025682e-05	
667	1.000000e-01	1.586517e-04	
668	1.500000e-01	2.352518e-04	
669	2.000000e-01	3.100918e-04	
670	2.500000e-01	3.831970e-04	
671	3.000000e-01	4.545897e-04	
672	3.500000e-01	5.242916e-04	
673	4.000000e-01	5.923235e-04	
674	4.500000e-01	6.587062e-04	
675	5.000000e-01	7.234602e-04	
676	5.500000e-01	7.866056e-04	
677	6.000000e-01	8.481624e-04	
678	6.500000e-01	9.081502e-04	
679	7.000000e-01	9.665885e-04	
680	7.500000e-01	1.023496e-03	
681	8.000000e-01	1.078893e-03	
682	8.500000e-01	1.132796e-03	
683	9.000000e-01	1.185226e-03	
684	9.500000e-01	1.236199e-03	
685	1.000000e+00	1.285734e-03	
686	1.050000e+00	1.333848e-03	
687	1.100000e+00	1.380559e-03	
688	1.150000e+00	1.425885e-03	
689	1.200000e+00	1.469841e-03	
690	1.250000e+00	1.512446e-03	
691	1.300000e+00	1.553715e-03	
692	1.350000e+00	1.593665e-03	

Index   v-sweep         -i(vds)         
--------------------------------------------------------------------------------
693	1.400000e+00	1.632313e-03	
694	1.450000e+00	1.669673e-03	
695	1.500000e+00	1.705762e-03	
696	1.550000e+00	1.740595e-03	
697	1.600000e+00	1.774188e-03	
698	1.650000e+00	1.806555e-03	
699	1.700000e+00	1.837712e-03	
700	1.750000e+00	1.867671e-03	
701	1.800000e+00	1.896448e-03	
702	1.850000e+00	1.924055e-03	
703	1.900000e+00	1.950504e-03	
704	1.950000e+00	1.975808e-03	
705	2.000000e+00	1.999976e-03	
706	2.050000e+00	2.023016e-03	
707	2.100000e+00	2.044933e-03	
708	2.150000e+00	2.065728e-03	
709	2.200000e+00	2.085395e-03	
710	2.250000e+00	2.103924e-03	
711	2.300000e+00	2.121295e-03	
712	2.350000e+00	2.137484e-03	
713	2.400000e+00	2.152473e-03	
714	2.450000e+00	2.166257e-03	
715	2.500000e+00	2.178863e-03	
716	2.550000e+00	2.190352e-03	
717	2.600000e+00	2.200812e-03	
718	2.650000e+00	2.210349e-03	
719	2.700000e+00	2.219072e-03	
720	2.750000e+00	2.227082e-03	
721	2.800000e+00	2.234471e-03	
722	2.850000e+00	2.241319e-03	
723	2.900000e+00	2.247694e-03	
724	2.950000e+00	2.253654e-03	
725	3.000000e+00	2.259248e-03	
726	3.050000e+00	2.264517e-03	
727	3.100000e+00	2.269496e-03	
728	3.150000e+00	2.274217e-03	
729	3.200000e+00	2.278704e-03	
730	3.250000e+00	2.282980e-03	
731	3.300000e+00	2.287065e-03	
732	3.350000e+00	2.290975e-03	
733	3.400000e+00	2.294726e-03	
734	3.450000e+00	2.298330e-03	
735	3.500000e+00	2.301798e-03	
736	3.550000e+00	2.305142e-03	
737	3.600000e+00	2.308370e-03	
738	3.650000e+00	2.311491e-03	
739	3.700000e+00	2.314511e-03	
740	3.750000e+00	2.317438e-03	
741	3.800000e+00	2.320278e-03	
742	3.850000e+00	2.323035e-03	
743	3.900000e+00	2.325716e-03	
744	3.950000e+00	2.328324e-03	
745	4.000000e+00	2.330863e-03	
746	4.050000e+00	2.333338e-03	
747	4.100000e+00	2.335752e-03	
748	4.150000e+00	2.338109e-03	
749	4.200000e+00	2.340410e-03	
750	4.250000e+00	2.342660e-03	

Index   v-sweep         -i(vds)         
--------------------------------------------------------------------------------
751	4.300000e+00	2.344859e-03	
752	4.350000e+00	2.347012e-03	
753	4.400000e+00	2.349120e-03	
754	4.450000e+00	2.351186e-03	
755	4.500000e+00	2.353210e-03	
756	4.550000e+00	2.355196e-03	
757	4.600000e+00	2.357144e-03	
758	4.650000e+00	2.359058e-03	
759	4.700000e+00	2.360938e-03	
760	4.750000e+00	2.362786e-03	
761	4.800000e+00	2.364604e-03	
762	4.850000e+00	2.366394e-03	
763	4.900000e+00	2.368157e-03	
764	4.950000e+00	2.369896e-03	
765	5.000000e+00	2.371612e-03	
766	5.050000e+00	2.373308e-03	
767	5.100000e+00	2.374986e-03	
768	5.150000e+00	2.376647e-03	
769	5.200000e+00	2.378296e-03	
770	5.250000e+00	2.379936e-03	
771	5.300000e+00	2.381568e-03	
772	5.350000e+00	2.383198e-03	
773	5.400000e+00	2.384828e-03	
774	5.450000e+00	2.386465e-03	
775	5.500000e+00	2.388111e-03	
776	5.550000e+00	2.389773e-03	
777	5.600000e+00	2.391457e-03	
778	5.650000e+00	2.393169e-03	
779	5.700000e+00	2.394915e-03	
780	5.750000e+00	2.396704e-03	
781	5.800000e+00	2.398544e-03	
782	5.850000e+00	2.400444e-03	
783	5.900000e+00	2.402412e-03	
784	5.950000e+00	2.404461e-03	
785	6.000000e+00	2.406600e-03	
786	6.050000e+00	2.408841e-03	
787	6.100000e+00	2.411198e-03	
788	6.150000e+00	2.413683e-03	
789	6.200000e+00	2.416311e-03	
790	6.250000e+00	2.419096e-03	
791	6.300000e+00	2.422056e-03	
792	6.350000e+00	2.425206e-03	
793	6.400000e+00	2.428564e-03	
794	6.450000e+00	2.432148e-03	
795	6.500000e+00	2.435978e-03	
796	6.550000e+00	2.440074e-03	
797	6.600000e+00	2.444457e-03	
Note: No ".plot", ".print", or ".fourier" lines; no simulations run
