
Note: Compatibility modes selected: hs

Warning: m=xx on .subckt line will override multiplier m hierarchy!


Circuit: ***************************

Doing analysis at TEMP = -40.000000 and TNOM = -40.000000


No. of Data Rows : 798
                          ***************************
                          DC transfer characteristic  Mon Jan  9 13:58:36  2023
--------------------------------------------------------------------------------
Index   v-sweep         -i(vds)         
--------------------------------------------------------------------------------
0	0.000000e+00	7.996887e-37	
1	5.000000e-02	1.127556e-05	
2	1.000000e-01	1.819580e-05	
3	1.500000e-01	2.162077e-05	
4	2.000000e-01	2.320759e-05	
5	2.500000e-01	2.416505e-05	
6	3.000000e-01	2.488315e-05	
7	3.500000e-01	2.547801e-05	
8	4.000000e-01	2.599633e-05	
9	4.500000e-01	2.646189e-05	
10	5.000000e-01	2.688869e-05	
11	5.500000e-01	2.728577e-05	
12	6.000000e-01	2.765930e-05	
13	6.500000e-01	2.801373e-05	
14	7.000000e-01	2.835236e-05	
15	7.500000e-01	2.867769e-05	
16	8.000000e-01	2.899171e-05	
17	8.500000e-01	2.929598e-05	
18	9.000000e-01	2.959176e-05	
19	9.500000e-01	2.988011e-05	
20	1.000000e+00	3.016187e-05	
21	1.050000e+00	3.043779e-05	
22	1.100000e+00	3.070847e-05	
23	1.150000e+00	3.097445e-05	
24	1.200000e+00	3.123616e-05	
25	1.250000e+00	3.149401e-05	
26	1.300000e+00	3.174834e-05	
27	1.350000e+00	3.199946e-05	
28	1.400000e+00	3.224761e-05	
29	1.450000e+00	3.249305e-05	
30	1.500000e+00	3.273597e-05	
31	1.550000e+00	3.297658e-05	
32	1.600000e+00	3.321503e-05	
33	1.650000e+00	3.345147e-05	
34	1.700000e+00	3.368605e-05	
35	1.750000e+00	3.391889e-05	
36	1.800000e+00	3.415010e-05	
37	1.850000e+00	3.437978e-05	
38	1.900000e+00	3.460802e-05	
39	1.950000e+00	3.483493e-05	
40	2.000000e+00	3.506056e-05	
41	2.050000e+00	3.528500e-05	
42	2.100000e+00	3.550832e-05	
43	2.150000e+00	3.573057e-05	
44	2.200000e+00	3.595182e-05	
45	2.250000e+00	3.617212e-05	
46	2.300000e+00	3.639152e-05	
47	2.350000e+00	3.661007e-05	
48	2.400000e+00	3.682782e-05	
49	2.450000e+00	3.704481e-05	
50	2.500000e+00	3.726109e-05	
51	2.550000e+00	3.747670e-05	
52	2.600000e+00	3.769168e-05	
53	2.650000e+00	3.790608e-05	
54	2.700000e+00	3.811993e-05	

Index   v-sweep         -i(vds)         
--------------------------------------------------------------------------------
55	2.750000e+00	3.833330e-05	
56	2.800000e+00	3.854622e-05	
57	2.850000e+00	3.875874e-05	
58	2.900000e+00	3.897093e-05	
59	2.950000e+00	3.918283e-05	
60	3.000000e+00	3.939452e-05	
61	3.050000e+00	3.960606e-05	
62	3.100000e+00	3.981752e-05	
63	3.150000e+00	4.002900e-05	
64	3.200000e+00	4.024058e-05	
65	3.250000e+00	4.045236e-05	
66	3.300000e+00	4.066446e-05	
67	3.350000e+00	4.087698e-05	
68	3.400000e+00	4.109008e-05	
69	3.450000e+00	4.130388e-05	
70	3.500000e+00	4.151855e-05	
71	3.550000e+00	4.173426e-05	
72	3.600000e+00	4.195118e-05	
73	3.650000e+00	4.216953e-05	
74	3.700000e+00	4.238953e-05	
75	3.750000e+00	4.261139e-05	
76	3.800000e+00	4.283538e-05	
77	3.850000e+00	4.306176e-05	
78	3.900000e+00	4.329083e-05	
79	3.950000e+00	4.352289e-05	
80	4.000000e+00	4.375826e-05	
81	4.050000e+00	4.399730e-05	
82	4.100000e+00	4.424038e-05	
83	4.150000e+00	4.448788e-05	
84	4.200000e+00	4.474021e-05	
85	4.250000e+00	4.499783e-05	
86	4.300000e+00	4.526117e-05	
87	4.350000e+00	4.553072e-05	
88	4.400000e+00	4.580699e-05	
89	4.450000e+00	4.609050e-05	
90	4.500000e+00	4.638180e-05	
91	4.550000e+00	4.668147e-05	
92	4.600000e+00	4.699010e-05	
93	4.650000e+00	4.730833e-05	
94	4.700000e+00	4.763678e-05	
95	4.750000e+00	4.797614e-05	
96	4.800000e+00	4.832710e-05	
97	4.850000e+00	4.869038e-05	
98	4.900000e+00	4.906672e-05	
99	4.950000e+00	4.945688e-05	
100	5.000000e+00	4.986165e-05	
101	5.050000e+00	5.028185e-05	
102	5.100000e+00	5.071831e-05	
103	5.150000e+00	5.117189e-05	
104	5.200000e+00	5.164348e-05	
105	5.250000e+00	5.213397e-05	
106	5.300000e+00	5.264428e-05	
107	5.350000e+00	5.317538e-05	
108	5.400000e+00	5.372822e-05	
109	5.450000e+00	5.430379e-05	
110	5.500000e+00	5.490311e-05	
111	5.550000e+00	5.552721e-05	
112	5.600000e+00	5.617712e-05	

Index   v-sweep         -i(vds)         
--------------------------------------------------------------------------------
113	5.650000e+00	5.685394e-05	
114	5.700000e+00	5.755873e-05	
115	5.750000e+00	5.829262e-05	
116	5.800000e+00	5.905672e-05	
117	5.850000e+00	5.985217e-05	
118	5.900000e+00	6.068014e-05	
119	5.950000e+00	6.154180e-05	
120	6.000000e+00	6.243835e-05	
121	6.050000e+00	6.337099e-05	
122	6.100000e+00	6.434094e-05	
123	6.150000e+00	6.534945e-05	
124	6.200000e+00	6.639776e-05	
125	6.250000e+00	6.748714e-05	
126	6.300000e+00	6.861887e-05	
127	6.350000e+00	6.979425e-05	
128	6.400000e+00	7.101456e-05	
129	6.450000e+00	7.228114e-05	
130	6.500000e+00	7.359531e-05	
131	6.550000e+00	7.495840e-05	
132	6.600000e+00	7.637177e-05	
133	0.000000e+00	8.348682e-20	
134	5.000000e-02	5.891875e-05	
135	1.000000e-01	1.127503e-04	
136	1.500000e-01	1.616748e-04	
137	2.000000e-01	2.058656e-04	
138	2.500000e-01	2.454884e-04	
139	3.000000e-01	2.807011e-04	
140	3.500000e-01	3.116526e-04	
141	4.000000e-01	3.384800e-04	
142	4.500000e-01	3.613041e-04	
143	5.000000e-01	3.802280e-04	
144	5.500000e-01	3.953714e-04	
145	6.000000e-01	4.070062e-04	
146	6.500000e-01	4.157124e-04	
147	7.000000e-01	4.222634e-04	
148	7.500000e-01	4.273421e-04	
149	8.000000e-01	4.314254e-04	
150	8.500000e-01	4.348184e-04	
151	9.000000e-01	4.377154e-04	
152	9.500000e-01	4.402432e-04	
153	1.000000e+00	4.424874e-04	
154	1.050000e+00	4.445081e-04	
155	1.100000e+00	4.463485e-04	
156	1.150000e+00	4.480406e-04	
157	1.200000e+00	4.496091e-04	
158	1.250000e+00	4.510726e-04	
159	1.300000e+00	4.524463e-04	
160	1.350000e+00	4.537422e-04	
161	1.400000e+00	4.549699e-04	
162	1.450000e+00	4.561377e-04	
163	1.500000e+00	4.572522e-04	
164	1.550000e+00	4.583192e-04	
165	1.600000e+00	4.593434e-04	
166	1.650000e+00	4.603289e-04	
167	1.700000e+00	4.612794e-04	
168	1.750000e+00	4.621979e-04	
169	1.800000e+00	4.630872e-04	
170	1.850000e+00	4.639495e-04	

Index   v-sweep         -i(vds)         
--------------------------------------------------------------------------------
171	1.900000e+00	4.647871e-04	
172	1.950000e+00	4.656018e-04	
173	2.000000e+00	4.663952e-04	
174	2.050000e+00	4.671688e-04	
175	2.100000e+00	4.679241e-04	
176	2.150000e+00	4.686621e-04	
177	2.200000e+00	4.693841e-04	
178	2.250000e+00	4.700909e-04	
179	2.300000e+00	4.707835e-04	
180	2.350000e+00	4.714627e-04	
181	2.400000e+00	4.721294e-04	
182	2.450000e+00	4.727841e-04	
183	2.500000e+00	4.734275e-04	
184	2.550000e+00	4.740602e-04	
185	2.600000e+00	4.746829e-04	
186	2.650000e+00	4.752959e-04	
187	2.700000e+00	4.758999e-04	
188	2.750000e+00	4.764951e-04	
189	2.800000e+00	4.770822e-04	
190	2.850000e+00	4.776616e-04	
191	2.900000e+00	4.782335e-04	
192	2.950000e+00	4.787986e-04	
193	3.000000e+00	4.793571e-04	
194	3.050000e+00	4.799095e-04	
195	3.100000e+00	4.804562e-04	
196	3.150000e+00	4.809978e-04	
197	3.200000e+00	4.815346e-04	
198	3.250000e+00	4.820671e-04	
199	3.300000e+00	4.825960e-04	
200	3.350000e+00	4.831217e-04	
201	3.400000e+00	4.836450e-04	
202	3.450000e+00	4.841665e-04	
203	3.500000e+00	4.846871e-04	
204	3.550000e+00	4.852074e-04	
205	3.600000e+00	4.857286e-04	
206	3.650000e+00	4.862516e-04	
207	3.700000e+00	4.867775e-04	
208	3.750000e+00	4.873075e-04	
209	3.800000e+00	4.878429e-04	
210	3.850000e+00	4.883853e-04	
211	3.900000e+00	4.889362e-04	
212	3.950000e+00	4.894973e-04	
213	4.000000e+00	4.900705e-04	
214	4.050000e+00	4.906577e-04	
215	4.100000e+00	4.912611e-04	
216	4.150000e+00	4.918831e-04	
217	4.200000e+00	4.925260e-04	
218	4.250000e+00	4.931926e-04	
219	4.300000e+00	4.938857e-04	
220	4.350000e+00	4.946082e-04	
221	4.400000e+00	4.953632e-04	
222	4.450000e+00	4.961543e-04	
223	4.500000e+00	4.969848e-04	
224	4.550000e+00	4.978585e-04	
225	4.600000e+00	4.987794e-04	
226	4.650000e+00	4.997514e-04	
227	4.700000e+00	5.007790e-04	
228	4.750000e+00	5.018665e-04	

Index   v-sweep         -i(vds)         
--------------------------------------------------------------------------------
229	4.800000e+00	5.030186e-04	
230	4.850000e+00	5.042402e-04	
231	4.900000e+00	5.055363e-04	
232	4.950000e+00	5.069121e-04	
233	5.000000e+00	5.083731e-04	
234	5.050000e+00	5.099248e-04	
235	5.100000e+00	5.115729e-04	
236	5.150000e+00	5.133235e-04	
237	5.200000e+00	5.151826e-04	
238	5.250000e+00	5.171565e-04	
239	5.300000e+00	5.192516e-04	
240	5.350000e+00	5.214745e-04	
241	5.400000e+00	5.238321e-04	
242	5.450000e+00	5.263311e-04	
243	5.500000e+00	5.289786e-04	
244	5.550000e+00	5.317818e-04	
245	5.600000e+00	5.347481e-04	
246	5.650000e+00	5.378849e-04	
247	5.700000e+00	5.411997e-04	
248	5.750000e+00	5.447002e-04	
249	5.800000e+00	5.483942e-04	
250	5.850000e+00	5.522897e-04	
251	5.900000e+00	5.563947e-04	
252	5.950000e+00	5.607171e-04	
253	6.000000e+00	5.652653e-04	
254	6.050000e+00	5.700475e-04	
255	6.100000e+00	5.750720e-04	
256	6.150000e+00	5.803472e-04	
257	6.200000e+00	5.858816e-04	
258	6.250000e+00	5.916837e-04	
259	6.300000e+00	5.977621e-04	
260	6.350000e+00	6.041254e-04	
261	6.400000e+00	6.107823e-04	
262	6.450000e+00	6.177414e-04	
263	6.500000e+00	6.250116e-04	
264	6.550000e+00	6.326014e-04	
265	6.600000e+00	6.405197e-04	
266	0.000000e+00	7.906854e-20	
267	5.000000e-02	9.174493e-05	
268	1.000000e-01	1.782878e-04	
269	1.500000e-01	2.597943e-04	
270	2.000000e-01	3.364243e-04	
271	2.500000e-01	4.083323e-04	
272	3.000000e-01	4.756663e-04	
273	3.500000e-01	5.385683e-04	
274	4.000000e-01	5.971736e-04	
275	4.500000e-01	6.516107e-04	
276	5.000000e-01	7.020006e-04	
277	5.500000e-01	7.484547e-04	
278	6.000000e-01	7.910721e-04	
279	6.500000e-01	8.299331e-04	
280	7.000000e-01	8.650883e-04	
281	7.500000e-01	8.965404e-04	
282	8.000000e-01	9.242236e-04	
283	8.500000e-01	9.480054e-04	
284	9.000000e-01	9.677797e-04	
285	9.500000e-01	9.836726e-04	
286	1.000000e+00	9.961758e-04	

Index   v-sweep         -i(vds)         
--------------------------------------------------------------------------------
287	1.050000e+00	1.006006e-03	
288	1.100000e+00	1.013858e-03	
289	1.150000e+00	1.020274e-03	
290	1.200000e+00	1.025642e-03	
291	1.250000e+00	1.030228e-03	
292	1.300000e+00	1.034219e-03	
293	1.350000e+00	1.037746e-03	
294	1.400000e+00	1.040903e-03	
295	1.450000e+00	1.043761e-03	
296	1.500000e+00	1.046370e-03	
297	1.550000e+00	1.048773e-03	
298	1.600000e+00	1.051000e-03	
299	1.650000e+00	1.053076e-03	
300	1.700000e+00	1.055022e-03	
301	1.750000e+00	1.056853e-03	
302	1.800000e+00	1.058584e-03	
303	1.850000e+00	1.060226e-03	
304	1.900000e+00	1.061789e-03	
305	1.950000e+00	1.063280e-03	
306	2.000000e+00	1.064707e-03	
307	2.050000e+00	1.066076e-03	
308	2.100000e+00	1.067391e-03	
309	2.150000e+00	1.068657e-03	
310	2.200000e+00	1.069879e-03	
311	2.250000e+00	1.071060e-03	
312	2.300000e+00	1.072203e-03	
313	2.350000e+00	1.073311e-03	
314	2.400000e+00	1.074386e-03	
315	2.450000e+00	1.075431e-03	
316	2.500000e+00	1.076447e-03	
317	2.550000e+00	1.077436e-03	
318	2.600000e+00	1.078401e-03	
319	2.650000e+00	1.079342e-03	
320	2.700000e+00	1.080262e-03	
321	2.750000e+00	1.081160e-03	
322	2.800000e+00	1.082039e-03	
323	2.850000e+00	1.082900e-03	
324	2.900000e+00	1.083742e-03	
325	2.950000e+00	1.084569e-03	
326	3.000000e+00	1.085379e-03	
327	3.050000e+00	1.086175e-03	
328	3.100000e+00	1.086957e-03	
329	3.150000e+00	1.087725e-03	
330	3.200000e+00	1.088481e-03	
331	3.250000e+00	1.089225e-03	
332	3.300000e+00	1.089958e-03	
333	3.350000e+00	1.090681e-03	
334	3.400000e+00	1.091394e-03	
335	3.450000e+00	1.092099e-03	
336	3.500000e+00	1.092796e-03	
337	3.550000e+00	1.093486e-03	
338	3.600000e+00	1.094171e-03	
339	3.650000e+00	1.094850e-03	
340	3.700000e+00	1.095527e-03	
341	3.750000e+00	1.096202e-03	
342	3.800000e+00	1.096876e-03	
343	3.850000e+00	1.097552e-03	
344	3.900000e+00	1.098231e-03	

Index   v-sweep         -i(vds)         
--------------------------------------------------------------------------------
345	3.950000e+00	1.098915e-03	
346	4.000000e+00	1.099607e-03	
347	4.050000e+00	1.100309e-03	
348	4.100000e+00	1.101024e-03	
349	4.150000e+00	1.101755e-03	
350	4.200000e+00	1.102505e-03	
351	4.250000e+00	1.103278e-03	
352	4.300000e+00	1.104078e-03	
353	4.350000e+00	1.104908e-03	
354	4.400000e+00	1.105774e-03	
355	4.450000e+00	1.106681e-03	
356	4.500000e+00	1.107633e-03	
357	4.550000e+00	1.108636e-03	
358	4.600000e+00	1.109697e-03	
359	4.650000e+00	1.110821e-03	
360	4.700000e+00	1.112016e-03	
361	4.750000e+00	1.113288e-03	
362	4.800000e+00	1.114645e-03	
363	4.850000e+00	1.116095e-03	
364	4.900000e+00	1.117646e-03	
365	4.950000e+00	1.119307e-03	
366	5.000000e+00	1.121088e-03	
367	5.050000e+00	1.122997e-03	
368	5.100000e+00	1.125046e-03	
369	5.150000e+00	1.127243e-03	
370	5.200000e+00	1.129600e-03	
371	5.250000e+00	1.132129e-03	
372	5.300000e+00	1.134840e-03	
373	5.350000e+00	1.137745e-03	
374	5.400000e+00	1.140858e-03	
375	5.450000e+00	1.144190e-03	
376	5.500000e+00	1.147754e-03	
377	5.550000e+00	1.151564e-03	
378	5.600000e+00	1.155634e-03	
379	5.650000e+00	1.159978e-03	
380	5.700000e+00	1.164610e-03	
381	5.750000e+00	1.169544e-03	
382	5.800000e+00	1.174795e-03	
383	5.850000e+00	1.180380e-03	
384	5.900000e+00	1.186312e-03	
385	5.950000e+00	1.192608e-03	
386	6.000000e+00	1.199284e-03	
387	6.050000e+00	1.206356e-03	
388	6.100000e+00	1.213840e-03	
389	6.150000e+00	1.221753e-03	
390	6.200000e+00	1.230111e-03	
391	6.250000e+00	1.238932e-03	
392	6.300000e+00	1.248232e-03	
393	6.350000e+00	1.258029e-03	
394	6.400000e+00	1.268339e-03	
395	6.450000e+00	1.279180e-03	
396	6.500000e+00	1.290570e-03	
397	6.550000e+00	1.302525e-03	
398	6.600000e+00	1.315064e-03	
399	0.000000e+00	-7.50826e-35	
400	5.000000e-02	1.153384e-04	
401	1.000000e-01	2.256169e-04	
402	1.500000e-01	3.309761e-04	

Index   v-sweep         -i(vds)         
--------------------------------------------------------------------------------
403	2.000000e-01	4.315534e-04	
404	2.500000e-01	5.274818e-04	
405	3.000000e-01	6.188903e-04	
406	3.500000e-01	7.059035e-04	
407	4.000000e-01	7.886415e-04	
408	4.500000e-01	8.672199e-04	
409	5.000000e-01	9.417496e-04	
410	5.500000e-01	1.012337e-03	
411	6.000000e-01	1.079083e-03	
412	6.500000e-01	1.142085e-03	
413	7.000000e-01	1.201432e-03	
414	7.500000e-01	1.257210e-03	
415	8.000000e-01	1.309493e-03	
416	8.500000e-01	1.358341e-03	
417	9.000000e-01	1.403798e-03	
418	9.500000e-01	1.445874e-03	
419	1.000000e+00	1.484532e-03	
420	1.050000e+00	1.519666e-03	
421	1.100000e+00	1.551085e-03	
422	1.150000e+00	1.578540e-03	
423	1.200000e+00	1.601845e-03	
424	1.250000e+00	1.621072e-03	
425	1.300000e+00	1.636642e-03	
426	1.350000e+00	1.649206e-03	
427	1.400000e+00	1.659438e-03	
428	1.450000e+00	1.667906e-03	
429	1.500000e+00	1.675040e-03	
430	1.550000e+00	1.681158e-03	
431	1.600000e+00	1.686488e-03	
432	1.650000e+00	1.691195e-03	
433	1.700000e+00	1.695403e-03	
434	1.750000e+00	1.699202e-03	
435	1.800000e+00	1.702663e-03	
436	1.850000e+00	1.705841e-03	
437	1.900000e+00	1.708777e-03	
438	1.950000e+00	1.711507e-03	
439	2.000000e+00	1.714058e-03	
440	2.050000e+00	1.716451e-03	
441	2.100000e+00	1.718707e-03	
442	2.150000e+00	1.720840e-03	
443	2.200000e+00	1.722865e-03	
444	2.250000e+00	1.724791e-03	
445	2.300000e+00	1.726629e-03	
446	2.350000e+00	1.728387e-03	
447	2.400000e+00	1.730072e-03	
448	2.450000e+00	1.731690e-03	
449	2.500000e+00	1.733247e-03	
450	2.550000e+00	1.734749e-03	
451	2.600000e+00	1.736198e-03	
452	2.650000e+00	1.737599e-03	
453	2.700000e+00	1.738955e-03	
454	2.750000e+00	1.740271e-03	
455	2.800000e+00	1.741547e-03	
456	2.850000e+00	1.742787e-03	
457	2.900000e+00	1.743993e-03	
458	2.950000e+00	1.745168e-03	
459	3.000000e+00	1.746312e-03	
460	3.050000e+00	1.747428e-03	

Index   v-sweep         -i(vds)         
--------------------------------------------------------------------------------
461	3.100000e+00	1.748518e-03	
462	3.150000e+00	1.749582e-03	
463	3.200000e+00	1.750623e-03	
464	3.250000e+00	1.751641e-03	
465	3.300000e+00	1.752638e-03	
466	3.350000e+00	1.753615e-03	
467	3.400000e+00	1.754573e-03	
468	3.450000e+00	1.755513e-03	
469	3.500000e+00	1.756436e-03	
470	3.550000e+00	1.757344e-03	
471	3.600000e+00	1.758236e-03	
472	3.650000e+00	1.759116e-03	
473	3.700000e+00	1.759982e-03	
474	3.750000e+00	1.760838e-03	
475	3.800000e+00	1.761684e-03	
476	3.850000e+00	1.762522e-03	
477	3.900000e+00	1.763354e-03	
478	3.950000e+00	1.764180e-03	
479	4.000000e+00	1.765004e-03	
480	4.050000e+00	1.765827e-03	
481	4.100000e+00	1.766652e-03	
482	4.150000e+00	1.767482e-03	
483	4.200000e+00	1.768319e-03	
484	4.250000e+00	1.769167e-03	
485	4.300000e+00	1.770030e-03	
486	4.350000e+00	1.770911e-03	
487	4.400000e+00	1.771816e-03	
488	4.450000e+00	1.772748e-03	
489	4.500000e+00	1.773714e-03	
490	4.550000e+00	1.774719e-03	
491	4.600000e+00	1.775769e-03	
492	4.650000e+00	1.776871e-03	
493	4.700000e+00	1.778033e-03	
494	4.750000e+00	1.779262e-03	
495	4.800000e+00	1.780568e-03	
496	4.850000e+00	1.781958e-03	
497	4.900000e+00	1.783442e-03	
498	4.950000e+00	1.785032e-03	
499	5.000000e+00	1.786737e-03	
500	5.050000e+00	1.788569e-03	
501	5.100000e+00	1.790540e-03	
502	5.150000e+00	1.792663e-03	
503	5.200000e+00	1.794951e-03	
504	5.250000e+00	1.797419e-03	
505	5.300000e+00	1.800081e-03	
506	5.350000e+00	1.802952e-03	
507	5.400000e+00	1.806049e-03	
508	5.450000e+00	1.809387e-03	
509	5.500000e+00	1.812984e-03	
510	5.550000e+00	1.816857e-03	
511	5.600000e+00	1.821026e-03	
512	5.650000e+00	1.825509e-03	
513	5.700000e+00	1.830326e-03	
514	5.750000e+00	1.835495e-03	
515	5.800000e+00	1.841040e-03	
516	5.850000e+00	1.846979e-03	
517	5.900000e+00	1.853335e-03	
518	5.950000e+00	1.860130e-03	

Index   v-sweep         -i(vds)         
--------------------------------------------------------------------------------
519	6.000000e+00	1.867387e-03	
520	6.050000e+00	1.875128e-03	
521	6.100000e+00	1.883377e-03	
522	6.150000e+00	1.892158e-03	
523	6.200000e+00	1.901494e-03	
524	6.250000e+00	1.911410e-03	
525	6.300000e+00	1.921932e-03	
526	6.350000e+00	1.933083e-03	
527	6.400000e+00	1.944889e-03	
528	6.450000e+00	1.957377e-03	
529	6.500000e+00	1.970570e-03	
530	6.550000e+00	1.984497e-03	
531	6.600000e+00	1.999181e-03	
532	0.000000e+00	-1.71969e-20	
533	5.000000e-02	1.317487e-04	
534	1.000000e-01	2.587500e-04	
535	1.500000e-01	3.811187e-04	
536	2.000000e-01	4.989674e-04	
537	2.500000e-01	6.124061e-04	
538	3.000000e-01	7.215419e-04	
539	3.500000e-01	8.264792e-04	
540	4.000000e-01	9.273191e-04	
541	4.500000e-01	1.024160e-03	
542	5.000000e-01	1.117096e-03	
543	5.500000e-01	1.206220e-03	
544	6.000000e-01	1.291619e-03	
545	6.500000e-01	1.373379e-03	
546	7.000000e-01	1.451583e-03	
547	7.500000e-01	1.526310e-03	
548	8.000000e-01	1.597635e-03	
549	8.500000e-01	1.665630e-03	
550	9.000000e-01	1.730365e-03	
551	9.500000e-01	1.791904e-03	
552	1.000000e+00	1.850303e-03	
553	1.050000e+00	1.905611e-03	
554	1.100000e+00	1.957866e-03	
555	1.150000e+00	2.007085e-03	
556	1.200000e+00	2.053257e-03	
557	1.250000e+00	2.096331e-03	
558	1.300000e+00	2.136193e-03	
559	1.350000e+00	2.172652e-03	
560	1.400000e+00	2.205442e-03	
561	1.450000e+00	2.234280e-03	
562	1.500000e+00	2.259008e-03	
563	1.550000e+00	2.279734e-03	
564	1.600000e+00	2.296872e-03	
565	1.650000e+00	2.311010e-03	
566	1.700000e+00	2.322756e-03	
567	1.750000e+00	2.332637e-03	
568	1.800000e+00	2.341068e-03	
569	1.850000e+00	2.348368e-03	
570	1.900000e+00	2.354771e-03	
571	1.950000e+00	2.360455e-03	
572	2.000000e+00	2.365554e-03	
573	2.050000e+00	2.370171e-03	
574	2.100000e+00	2.374385e-03	
575	2.150000e+00	2.378258e-03	
576	2.200000e+00	2.381840e-03	

Index   v-sweep         -i(vds)         
--------------------------------------------------------------------------------
577	2.250000e+00	2.385171e-03	
578	2.300000e+00	2.388284e-03	
579	2.350000e+00	2.391205e-03	
580	2.400000e+00	2.393957e-03	
581	2.450000e+00	2.396558e-03	
582	2.500000e+00	2.399025e-03	
583	2.550000e+00	2.401372e-03	
584	2.600000e+00	2.403609e-03	
585	2.650000e+00	2.405747e-03	
586	2.700000e+00	2.407794e-03	
587	2.750000e+00	2.409759e-03	
588	2.800000e+00	2.411649e-03	
589	2.850000e+00	2.413468e-03	
590	2.900000e+00	2.415223e-03	
591	2.950000e+00	2.416918e-03	
592	3.000000e+00	2.418558e-03	
593	3.050000e+00	2.420146e-03	
594	3.100000e+00	2.421686e-03	
595	3.150000e+00	2.423180e-03	
596	3.200000e+00	2.424633e-03	
597	3.250000e+00	2.426045e-03	
598	3.300000e+00	2.427420e-03	
599	3.350000e+00	2.428760e-03	
600	3.400000e+00	2.430067e-03	
601	3.450000e+00	2.431342e-03	
602	3.500000e+00	2.432588e-03	
603	3.550000e+00	2.433806e-03	
604	3.600000e+00	2.434997e-03	
605	3.650000e+00	2.436164e-03	
606	3.700000e+00	2.437306e-03	
607	3.750000e+00	2.438427e-03	
608	3.800000e+00	2.439527e-03	
609	3.850000e+00	2.440607e-03	
610	3.900000e+00	2.441669e-03	
611	3.950000e+00	2.442715e-03	
612	4.000000e+00	2.443746e-03	
613	4.050000e+00	2.444764e-03	
614	4.100000e+00	2.445771e-03	
615	4.150000e+00	2.446769e-03	
616	4.200000e+00	2.447759e-03	
617	4.250000e+00	2.448746e-03	
618	4.300000e+00	2.449731e-03	
619	4.350000e+00	2.450717e-03	
620	4.400000e+00	2.451709e-03	
621	4.450000e+00	2.452709e-03	
622	4.500000e+00	2.453722e-03	
623	4.550000e+00	2.454754e-03	
624	4.600000e+00	2.455808e-03	
625	4.650000e+00	2.456892e-03	
626	4.700000e+00	2.458010e-03	
627	4.750000e+00	2.459171e-03	
628	4.800000e+00	2.460381e-03	
629	4.850000e+00	2.461649e-03	
630	4.900000e+00	2.462984e-03	
631	4.950000e+00	2.464396e-03	
632	5.000000e+00	2.465894e-03	
633	5.050000e+00	2.467489e-03	
634	5.100000e+00	2.469195e-03	

Index   v-sweep         -i(vds)         
--------------------------------------------------------------------------------
635	5.150000e+00	2.471023e-03	
636	5.200000e+00	2.472988e-03	
637	5.250000e+00	2.475102e-03	
638	5.300000e+00	2.477383e-03	
639	5.350000e+00	2.479845e-03	
640	5.400000e+00	2.482506e-03	
641	5.450000e+00	2.485384e-03	
642	5.500000e+00	2.488497e-03	
643	5.550000e+00	2.491865e-03	
644	5.600000e+00	2.495508e-03	
645	5.650000e+00	2.499448e-03	
646	5.700000e+00	2.503707e-03	
647	5.750000e+00	2.508307e-03	
648	5.800000e+00	2.513274e-03	
649	5.850000e+00	2.518630e-03	
650	5.900000e+00	2.524402e-03	
651	5.950000e+00	2.530616e-03	
652	6.000000e+00	2.537299e-03	
653	6.050000e+00	2.544479e-03	
654	6.100000e+00	2.552183e-03	
655	6.150000e+00	2.560441e-03	
656	6.200000e+00	2.569282e-03	
657	6.250000e+00	2.578737e-03	
658	6.300000e+00	2.588836e-03	
659	6.350000e+00	2.599611e-03	
660	6.400000e+00	2.611093e-03	
661	6.450000e+00	2.623316e-03	
662	6.500000e+00	2.636310e-03	
663	6.550000e+00	2.650111e-03	
664	6.600000e+00	2.664750e-03	
665	0.000000e+00	-3.63090e-19	
666	5.000000e-02	1.425900e-04	
667	1.000000e-01	2.808284e-04	
668	1.500000e-01	4.148072e-04	
669	2.000000e-01	5.446168e-04	
670	2.500000e-01	6.703460e-04	
671	3.000000e-01	7.920816e-04	
672	3.500000e-01	9.099086e-04	
673	4.000000e-01	1.023910e-03	
674	4.500000e-01	1.134167e-03	
675	5.000000e-01	1.240758e-03	
676	5.500000e-01	1.343759e-03	
677	6.000000e-01	1.443246e-03	
678	6.500000e-01	1.539290e-03	
679	7.000000e-01	1.631960e-03	
680	7.500000e-01	1.721326e-03	
681	8.000000e-01	1.807452e-03	
682	8.500000e-01	1.890402e-03	
683	9.000000e-01	1.970238e-03	
684	9.500000e-01	2.047020e-03	
685	1.000000e+00	2.120805e-03	
686	1.050000e+00	2.191648e-03	
687	1.100000e+00	2.259602e-03	
688	1.150000e+00	2.324717e-03	
689	1.200000e+00	2.387039e-03	
690	1.250000e+00	2.446607e-03	
691	1.300000e+00	2.503456e-03	
692	1.350000e+00	2.557606e-03	

Index   v-sweep         -i(vds)         
--------------------------------------------------------------------------------
693	1.400000e+00	2.609067e-03	
694	1.450000e+00	2.657820e-03	
695	1.500000e+00	2.703818e-03	
696	1.550000e+00	2.746963e-03	
697	1.600000e+00	2.787096e-03	
698	1.650000e+00	2.823983e-03	
699	1.700000e+00	2.857339e-03	
700	1.750000e+00	2.886899e-03	
701	1.800000e+00	2.912533e-03	
702	1.850000e+00	2.934362e-03	
703	1.900000e+00	2.952750e-03	
704	1.950000e+00	2.968211e-03	
705	2.000000e+00	2.981279e-03	
706	2.050000e+00	2.992431e-03	
707	2.100000e+00	3.002059e-03	
708	2.150000e+00	3.010470e-03	
709	2.200000e+00	3.017902e-03	
710	2.250000e+00	3.024536e-03	
711	2.300000e+00	3.030513e-03	
712	2.350000e+00	3.035943e-03	
713	2.400000e+00	3.040912e-03	
714	2.450000e+00	3.045489e-03	
715	2.500000e+00	3.049729e-03	
716	2.550000e+00	3.053676e-03	
717	2.600000e+00	3.057368e-03	
718	2.650000e+00	3.060836e-03	
719	2.700000e+00	3.064104e-03	
720	2.750000e+00	3.067195e-03	
721	2.800000e+00	3.070127e-03	
722	2.850000e+00	3.072915e-03	
723	2.900000e+00	3.075574e-03	
724	2.950000e+00	3.078115e-03	
725	3.000000e+00	3.080548e-03	
726	3.050000e+00	3.082883e-03	
727	3.100000e+00	3.085127e-03	
728	3.150000e+00	3.087288e-03	
729	3.200000e+00	3.089371e-03	
730	3.250000e+00	3.091383e-03	
731	3.300000e+00	3.093328e-03	
732	3.350000e+00	3.095211e-03	
733	3.400000e+00	3.097036e-03	
734	3.450000e+00	3.098807e-03	
735	3.500000e+00	3.100527e-03	
736	3.550000e+00	3.102199e-03	
737	3.600000e+00	3.103826e-03	
738	3.650000e+00	3.105411e-03	
739	3.700000e+00	3.106956e-03	
740	3.750000e+00	3.108463e-03	
741	3.800000e+00	3.109934e-03	
742	3.850000e+00	3.111371e-03	
743	3.900000e+00	3.112777e-03	
744	3.950000e+00	3.114152e-03	
745	4.000000e+00	3.115499e-03	
746	4.050000e+00	3.116820e-03	
747	4.100000e+00	3.118115e-03	
748	4.150000e+00	3.119387e-03	
749	4.200000e+00	3.120638e-03	
750	4.250000e+00	3.121869e-03	

Index   v-sweep         -i(vds)         
--------------------------------------------------------------------------------
751	4.300000e+00	3.123083e-03	
752	4.350000e+00	3.124282e-03	
753	4.400000e+00	3.125468e-03	
754	4.450000e+00	3.126643e-03	
755	4.500000e+00	3.127812e-03	
756	4.550000e+00	3.128976e-03	
757	4.600000e+00	3.130141e-03	
758	4.650000e+00	3.131309e-03	
759	4.700000e+00	3.132485e-03	
760	4.750000e+00	3.133674e-03	
761	4.800000e+00	3.134882e-03	
762	4.850000e+00	3.136116e-03	
763	4.900000e+00	3.137380e-03	
764	4.950000e+00	3.138685e-03	
765	5.000000e+00	3.140036e-03	
766	5.050000e+00	3.141444e-03	
767	5.100000e+00	3.142918e-03	
768	5.150000e+00	3.144469e-03	
769	5.200000e+00	3.146109e-03	
770	5.250000e+00	3.147849e-03	
771	5.300000e+00	3.149704e-03	
772	5.350000e+00	3.151687e-03	
773	5.400000e+00	3.153814e-03	
774	5.450000e+00	3.156102e-03	
775	5.500000e+00	3.158568e-03	
776	5.550000e+00	3.161230e-03	
777	5.600000e+00	3.164109e-03	
778	5.650000e+00	3.167224e-03	
779	5.700000e+00	3.170598e-03	
780	5.750000e+00	3.174254e-03	
781	5.800000e+00	3.178215e-03	
782	5.850000e+00	3.182507e-03	
783	5.900000e+00	3.187157e-03	
784	5.950000e+00	3.192190e-03	
785	6.000000e+00	3.197636e-03	
786	6.050000e+00	3.203523e-03	
787	6.100000e+00	3.209883e-03	
788	6.150000e+00	3.216747e-03	
789	6.200000e+00	3.224147e-03	
790	6.250000e+00	3.232116e-03	
791	6.300000e+00	3.240688e-03	
792	6.350000e+00	3.249899e-03	
793	6.400000e+00	3.259784e-03	
794	6.450000e+00	3.270380e-03	
795	6.500000e+00	3.281724e-03	
796	6.550000e+00	3.293855e-03	
797	6.600000e+00	3.306810e-03	
Note: No ".plot", ".print", or ".fourier" lines; no simulations run
