
Note: Compatibility modes selected: hs

Warning: m=xx on .subckt line will override multiplier m hierarchy!


Circuit: ***************************

Doing analysis at TEMP = 25.000000 and TNOM = 25.000000


No. of Data Rows : 798
                          ***************************
                          DC transfer characteristic  Mon Jan  9 13:58:36  2023
--------------------------------------------------------------------------------
Index   v-sweep         -i(vds)         
--------------------------------------------------------------------------------
0	0.000000e+00	3.294014e-31	
1	5.000000e-02	3.043850e-06	
2	1.000000e-01	5.433213e-06	
3	1.500000e-01	7.178732e-06	
4	2.000000e-01	8.308948e-06	
5	2.500000e-01	8.908683e-06	
6	3.000000e-01	9.160724e-06	
7	3.500000e-01	9.260089e-06	
8	4.000000e-01	9.306484e-06	
9	4.500000e-01	9.333596e-06	
10	5.000000e-01	9.352455e-06	
11	5.500000e-01	9.367191e-06	
12	6.000000e-01	9.379595e-06	
13	6.500000e-01	9.390550e-06	
14	7.000000e-01	9.400537e-06	
15	7.500000e-01	9.409838e-06	
16	8.000000e-01	9.418633e-06	
17	8.500000e-01	9.427040e-06	
18	9.000000e-01	9.435140e-06	
19	9.500000e-01	9.442993e-06	
20	1.000000e+00	9.450641e-06	
21	1.050000e+00	9.458119e-06	
22	1.100000e+00	9.465451e-06	
23	1.150000e+00	9.472657e-06	
24	1.200000e+00	9.479755e-06	
25	1.250000e+00	9.486758e-06	
26	1.300000e+00	9.493675e-06	
27	1.350000e+00	9.500518e-06	
28	1.400000e+00	9.507292e-06	
29	1.450000e+00	9.514006e-06	
30	1.500000e+00	9.520664e-06	
31	1.550000e+00	9.527272e-06	
32	1.600000e+00	9.533833e-06	
33	1.650000e+00	9.540353e-06	
34	1.700000e+00	9.546833e-06	
35	1.750000e+00	9.553277e-06	
36	1.800000e+00	9.559687e-06	
37	1.850000e+00	9.566066e-06	
38	1.900000e+00	9.572416e-06	
39	1.950000e+00	9.578739e-06	
40	2.000000e+00	9.585037e-06	
41	2.050000e+00	9.591311e-06	
42	2.100000e+00	9.597562e-06	
43	2.150000e+00	9.603792e-06	
44	2.200000e+00	9.610003e-06	
45	2.250000e+00	9.616195e-06	
46	2.300000e+00	9.622370e-06	
47	2.350000e+00	9.628529e-06	
48	2.400000e+00	9.634674e-06	
49	2.450000e+00	9.640806e-06	
50	2.500000e+00	9.646926e-06	
51	2.550000e+00	9.653037e-06	
52	2.600000e+00	9.659140e-06	
53	2.650000e+00	9.665238e-06	
54	2.700000e+00	9.671334e-06	

Index   v-sweep         -i(vds)         
--------------------------------------------------------------------------------
55	2.750000e+00	9.677431e-06	
56	2.800000e+00	9.683534e-06	
57	2.850000e+00	9.689646e-06	
58	2.900000e+00	9.695774e-06	
59	2.950000e+00	9.701924e-06	
60	3.000000e+00	9.708103e-06	
61	3.050000e+00	9.714321e-06	
62	3.100000e+00	9.720586e-06	
63	3.150000e+00	9.726911e-06	
64	3.200000e+00	9.733309e-06	
65	3.250000e+00	9.739794e-06	
66	3.300000e+00	9.746384e-06	
67	3.350000e+00	9.753095e-06	
68	3.400000e+00	9.759951e-06	
69	3.450000e+00	9.766973e-06	
70	3.500000e+00	9.774187e-06	
71	3.550000e+00	9.781621e-06	
72	3.600000e+00	9.789307e-06	
73	3.650000e+00	9.797277e-06	
74	3.700000e+00	9.805569e-06	
75	3.750000e+00	9.814222e-06	
76	3.800000e+00	9.823279e-06	
77	3.850000e+00	9.832786e-06	
78	3.900000e+00	9.842792e-06	
79	3.950000e+00	9.853352e-06	
80	4.000000e+00	9.864520e-06	
81	4.050000e+00	9.876357e-06	
82	4.100000e+00	9.888928e-06	
83	4.150000e+00	9.902299e-06	
84	4.200000e+00	9.916542e-06	
85	4.250000e+00	9.931731e-06	
86	4.300000e+00	9.947947e-06	
87	4.350000e+00	9.965270e-06	
88	4.400000e+00	9.983789e-06	
89	4.450000e+00	1.000359e-05	
90	4.500000e+00	1.002478e-05	
91	4.550000e+00	1.004744e-05	
92	4.600000e+00	1.007168e-05	
93	4.650000e+00	1.009760e-05	
94	4.700000e+00	1.012532e-05	
95	4.750000e+00	1.015495e-05	
96	4.800000e+00	1.018660e-05	
97	4.850000e+00	1.022039e-05	
98	4.900000e+00	1.025645e-05	
99	4.950000e+00	1.029491e-05	
100	5.000000e+00	1.033589e-05	
101	5.050000e+00	1.037953e-05	
102	5.100000e+00	1.042596e-05	
103	5.150000e+00	1.047533e-05	
104	5.200000e+00	1.052778e-05	
105	5.250000e+00	1.058345e-05	
106	5.300000e+00	1.064250e-05	
107	5.350000e+00	1.070506e-05	
108	5.400000e+00	1.077131e-05	
109	5.450000e+00	1.084139e-05	
110	5.500000e+00	1.091546e-05	
111	5.550000e+00	1.099369e-05	
112	5.600000e+00	1.107623e-05	

Index   v-sweep         -i(vds)         
--------------------------------------------------------------------------------
113	5.650000e+00	1.116326e-05	
114	5.700000e+00	1.125494e-05	
115	5.750000e+00	1.135143e-05	
116	5.800000e+00	1.145292e-05	
117	5.850000e+00	1.155957e-05	
118	5.900000e+00	1.167156e-05	
119	5.950000e+00	1.178906e-05	
120	6.000000e+00	1.191225e-05	
121	6.050000e+00	1.204130e-05	
122	6.100000e+00	1.217641e-05	
123	6.150000e+00	1.231774e-05	
124	6.200000e+00	1.246547e-05	
125	6.250000e+00	1.261980e-05	
126	6.300000e+00	1.278090e-05	
127	6.350000e+00	1.294895e-05	
128	6.400000e+00	1.312415e-05	
129	6.450000e+00	1.330666e-05	
130	6.500000e+00	1.349668e-05	
131	6.550000e+00	1.369440e-05	
132	6.600000e+00	1.389999e-05	
133	0.000000e+00	4.089840e-31	
134	5.000000e-02	1.311578e-05	
135	1.000000e-01	2.553579e-05	
136	1.500000e-01	3.726304e-05	
137	2.000000e-01	4.830052e-05	
138	2.500000e-01	5.865122e-05	
139	3.000000e-01	6.831816e-05	
140	3.500000e-01	7.730436e-05	
141	4.000000e-01	8.561287e-05	
142	4.500000e-01	9.324681e-05	
143	5.000000e-01	1.002094e-04	
144	5.500000e-01	1.065040e-04	
145	6.000000e-01	1.121345e-04	
146	6.500000e-01	1.171050e-04	
147	7.000000e-01	1.214209e-04	
148	7.500000e-01	1.250899e-04	
149	8.000000e-01	1.281234e-04	
150	8.500000e-01	1.305419e-04	
151	9.000000e-01	1.323819e-04	
152	9.500000e-01	1.337071e-04	
153	1.000000e+00	1.346138e-04	
154	1.050000e+00	1.352166e-04	
155	1.100000e+00	1.356204e-04	
156	1.150000e+00	1.359014e-04	
157	1.200000e+00	1.361070e-04	
158	1.250000e+00	1.362654e-04	
159	1.300000e+00	1.363930e-04	
160	1.350000e+00	1.364995e-04	
161	1.400000e+00	1.365912e-04	
162	1.450000e+00	1.366719e-04	
163	1.500000e+00	1.367444e-04	
164	1.550000e+00	1.368103e-04	
165	1.600000e+00	1.368712e-04	
166	1.650000e+00	1.369279e-04	
167	1.700000e+00	1.369812e-04	
168	1.750000e+00	1.370316e-04	
169	1.800000e+00	1.370796e-04	
170	1.850000e+00	1.371254e-04	

Index   v-sweep         -i(vds)         
--------------------------------------------------------------------------------
171	1.900000e+00	1.371695e-04	
172	1.950000e+00	1.372120e-04	
173	2.000000e+00	1.372530e-04	
174	2.050000e+00	1.372929e-04	
175	2.100000e+00	1.373316e-04	
176	2.150000e+00	1.373693e-04	
177	2.200000e+00	1.374062e-04	
178	2.250000e+00	1.374422e-04	
179	2.300000e+00	1.374775e-04	
180	2.350000e+00	1.375121e-04	
181	2.400000e+00	1.375460e-04	
182	2.450000e+00	1.375794e-04	
183	2.500000e+00	1.376123e-04	
184	2.550000e+00	1.376447e-04	
185	2.600000e+00	1.376766e-04	
186	2.650000e+00	1.377081e-04	
187	2.700000e+00	1.377392e-04	
188	2.750000e+00	1.377700e-04	
189	2.800000e+00	1.378003e-04	
190	2.850000e+00	1.378304e-04	
191	2.900000e+00	1.378602e-04	
192	2.950000e+00	1.378896e-04	
193	3.000000e+00	1.379188e-04	
194	3.050000e+00	1.379478e-04	
195	3.100000e+00	1.379765e-04	
196	3.150000e+00	1.380051e-04	
197	3.200000e+00	1.380334e-04	
198	3.250000e+00	1.380616e-04	
199	3.300000e+00	1.380897e-04	
200	3.350000e+00	1.381177e-04	
201	3.400000e+00	1.381456e-04	
202	3.450000e+00	1.381735e-04	
203	3.500000e+00	1.382015e-04	
204	3.550000e+00	1.382296e-04	
205	3.600000e+00	1.382579e-04	
206	3.650000e+00	1.382864e-04	
207	3.700000e+00	1.383153e-04	
208	3.750000e+00	1.383448e-04	
209	3.800000e+00	1.383748e-04	
210	3.850000e+00	1.384057e-04	
211	3.900000e+00	1.384375e-04	
212	3.950000e+00	1.384704e-04	
213	4.000000e+00	1.385048e-04	
214	4.050000e+00	1.385408e-04	
215	4.100000e+00	1.385788e-04	
216	4.150000e+00	1.386189e-04	
217	4.200000e+00	1.386617e-04	
218	4.250000e+00	1.387075e-04	
219	4.300000e+00	1.387566e-04	
220	4.350000e+00	1.388096e-04	
221	4.400000e+00	1.388670e-04	
222	4.450000e+00	1.389292e-04	
223	4.500000e+00	1.389969e-04	
224	4.550000e+00	1.390708e-04	
225	4.600000e+00	1.391514e-04	
226	4.650000e+00	1.392396e-04	
227	4.700000e+00	1.393360e-04	
228	4.750000e+00	1.394415e-04	

Index   v-sweep         -i(vds)         
--------------------------------------------------------------------------------
229	4.800000e+00	1.395570e-04	
230	4.850000e+00	1.396834e-04	
231	4.900000e+00	1.398217e-04	
232	4.950000e+00	1.399729e-04	
233	5.000000e+00	1.401380e-04	
234	5.050000e+00	1.403183e-04	
235	5.100000e+00	1.405148e-04	
236	5.150000e+00	1.407289e-04	
237	5.200000e+00	1.409617e-04	
238	5.250000e+00	1.412147e-04	
239	5.300000e+00	1.414892e-04	
240	5.350000e+00	1.417867e-04	
241	5.400000e+00	1.421086e-04	
242	5.450000e+00	1.424565e-04	
243	5.500000e+00	1.428320e-04	
244	5.550000e+00	1.432367e-04	
245	5.600000e+00	1.436722e-04	
246	5.650000e+00	1.441404e-04	
247	5.700000e+00	1.446429e-04	
248	5.750000e+00	1.451816e-04	
249	5.800000e+00	1.457583e-04	
250	5.850000e+00	1.463749e-04	
251	5.900000e+00	1.470334e-04	
252	5.950000e+00	1.477357e-04	
253	6.000000e+00	1.484839e-04	
254	6.050000e+00	1.492799e-04	
255	6.100000e+00	1.501258e-04	
256	6.150000e+00	1.510238e-04	
257	6.200000e+00	1.519760e-04	
258	6.250000e+00	1.529845e-04	
259	6.300000e+00	1.540515e-04	
260	6.350000e+00	1.551793e-04	
261	6.400000e+00	1.563700e-04	
262	6.450000e+00	1.576260e-04	
263	6.500000e+00	1.589495e-04	
264	6.550000e+00	1.603428e-04	
265	6.600000e+00	1.618083e-04	
266	0.000000e+00	6.211808e-30	
267	5.000000e-02	2.152967e-05	
268	1.000000e-01	4.239954e-05	
269	1.500000e-01	6.261253e-05	
270	2.000000e-01	8.217151e-05	
271	2.500000e-01	1.010794e-04	
272	3.000000e-01	1.193389e-04	
273	3.500000e-01	1.369530e-04	
274	4.000000e-01	1.539246e-04	
275	4.500000e-01	1.702563e-04	
276	5.000000e-01	1.859510e-04	
277	5.500000e-01	2.010115e-04	
278	6.000000e-01	2.154405e-04	
279	6.500000e-01	2.292409e-04	
280	7.000000e-01	2.424153e-04	
281	7.500000e-01	2.549665e-04	
282	8.000000e-01	2.668972e-04	
283	8.500000e-01	2.782100e-04	
284	9.000000e-01	2.889078e-04	
285	9.500000e-01	2.989931e-04	
286	1.000000e+00	3.084687e-04	

Index   v-sweep         -i(vds)         
--------------------------------------------------------------------------------
287	1.050000e+00	3.173372e-04	
288	1.100000e+00	3.256013e-04	
289	1.150000e+00	3.332638e-04	
290	1.200000e+00	3.403275e-04	
291	1.250000e+00	3.467951e-04	
292	1.300000e+00	3.526700e-04	
293	1.350000e+00	3.579556e-04	
294	1.400000e+00	3.626565e-04	
295	1.450000e+00	3.667785e-04	
296	1.500000e+00	3.703306e-04	
297	1.550000e+00	3.733272e-04	
298	1.600000e+00	3.757925e-04	
299	1.650000e+00	3.777648e-04	
300	1.700000e+00	3.793011e-04	
301	1.750000e+00	3.804743e-04	
302	1.800000e+00	3.813636e-04	
303	1.850000e+00	3.820423e-04	
304	1.900000e+00	3.825694e-04	
305	1.950000e+00	3.829886e-04	
306	2.000000e+00	3.833304e-04	
307	2.050000e+00	3.836159e-04	
308	2.100000e+00	3.838595e-04	
309	2.150000e+00	3.840715e-04	
310	2.200000e+00	3.842589e-04	
311	2.250000e+00	3.844269e-04	
312	2.300000e+00	3.845794e-04	
313	2.350000e+00	3.847191e-04	
314	2.400000e+00	3.848482e-04	
315	2.450000e+00	3.849686e-04	
316	2.500000e+00	3.850814e-04	
317	2.550000e+00	3.851878e-04	
318	2.600000e+00	3.852886e-04	
319	2.650000e+00	3.853846e-04	
320	2.700000e+00	3.854763e-04	
321	2.750000e+00	3.855642e-04	
322	2.800000e+00	3.856487e-04	
323	2.850000e+00	3.857302e-04	
324	2.900000e+00	3.858091e-04	
325	2.950000e+00	3.858854e-04	
326	3.000000e+00	3.859595e-04	
327	3.050000e+00	3.860316e-04	
328	3.100000e+00	3.861019e-04	
329	3.150000e+00	3.861704e-04	
330	3.200000e+00	3.862373e-04	
331	3.250000e+00	3.863028e-04	
332	3.300000e+00	3.863669e-04	
333	3.350000e+00	3.864298e-04	
334	3.400000e+00	3.864915e-04	
335	3.450000e+00	3.865521e-04	
336	3.500000e+00	3.866117e-04	
337	3.550000e+00	3.866703e-04	
338	3.600000e+00	3.867281e-04	
339	3.650000e+00	3.867850e-04	
340	3.700000e+00	3.868412e-04	
341	3.750000e+00	3.868966e-04	
342	3.800000e+00	3.869514e-04	
343	3.850000e+00	3.870055e-04	
344	3.900000e+00	3.870592e-04	

Index   v-sweep         -i(vds)         
--------------------------------------------------------------------------------
345	3.950000e+00	3.871123e-04	
346	4.000000e+00	3.871651e-04	
347	4.050000e+00	3.872176e-04	
348	4.100000e+00	3.872699e-04	
349	4.150000e+00	3.873221e-04	
350	4.200000e+00	3.873744e-04	
351	4.250000e+00	3.874270e-04	
352	4.300000e+00	3.874800e-04	
353	4.350000e+00	3.875337e-04	
354	4.400000e+00	3.875883e-04	
355	4.450000e+00	3.876442e-04	
356	4.500000e+00	3.877017e-04	
357	4.550000e+00	3.877613e-04	
358	4.600000e+00	3.878234e-04	
359	4.650000e+00	3.878885e-04	
360	4.700000e+00	3.879573e-04	
361	4.750000e+00	3.880304e-04	
362	4.800000e+00	3.881086e-04	
363	4.850000e+00	3.881928e-04	
364	4.900000e+00	3.882838e-04	
365	4.950000e+00	3.883827e-04	
366	5.000000e+00	3.884908e-04	
367	5.050000e+00	3.886091e-04	
368	5.100000e+00	3.887390e-04	
369	5.150000e+00	3.888821e-04	
370	5.200000e+00	3.890398e-04	
371	5.250000e+00	3.892140e-04	
372	5.300000e+00	3.894065e-04	
373	5.350000e+00	3.896191e-04	
374	5.400000e+00	3.898541e-04	
375	5.450000e+00	3.901137e-04	
376	5.500000e+00	3.904002e-04	
377	5.550000e+00	3.907162e-04	
378	5.600000e+00	3.910643e-04	
379	5.650000e+00	3.914473e-04	
380	5.700000e+00	3.918682e-04	
381	5.750000e+00	3.923300e-04	
382	5.800000e+00	3.928361e-04	
383	5.850000e+00	3.933897e-04	
384	5.900000e+00	3.939944e-04	
385	5.950000e+00	3.946539e-04	
386	6.000000e+00	3.953719e-04	
387	6.050000e+00	3.961524e-04	
388	6.100000e+00	3.969996e-04	
389	6.150000e+00	3.979175e-04	
390	6.200000e+00	3.989106e-04	
391	6.250000e+00	3.999834e-04	
392	6.300000e+00	4.011404e-04	
393	6.350000e+00	4.023864e-04	
394	6.400000e+00	4.037262e-04	
395	6.450000e+00	4.051649e-04	
396	6.500000e+00	4.067075e-04	
397	6.550000e+00	4.083592e-04	
398	6.600000e+00	4.101254e-04	
399	0.000000e+00	-4.08889e-30	
400	5.000000e-02	2.816447e-05	
401	1.000000e-01	5.572075e-05	
402	1.500000e-01	8.267142e-05	

Index   v-sweep         -i(vds)         
--------------------------------------------------------------------------------
403	2.000000e-01	1.090190e-04	
404	2.500000e-01	1.347661e-04	
405	3.000000e-01	1.599152e-04	
406	3.500000e-01	1.844689e-04	
407	4.000000e-01	2.084296e-04	
408	4.500000e-01	2.317999e-04	
409	5.000000e-01	2.545821e-04	
410	5.500000e-01	2.767789e-04	
411	6.000000e-01	2.983926e-04	
412	6.500000e-01	3.194257e-04	
413	7.000000e-01	3.398807e-04	
414	7.500000e-01	3.597598e-04	
415	8.000000e-01	3.790656e-04	
416	8.500000e-01	3.978005e-04	
417	9.000000e-01	4.159667e-04	
418	9.500000e-01	4.335668e-04	
419	1.000000e+00	4.506029e-04	
420	1.050000e+00	4.670776e-04	
421	1.100000e+00	4.829930e-04	
422	1.150000e+00	4.983515e-04	
423	1.200000e+00	5.131553e-04	
424	1.250000e+00	5.274069e-04	
425	1.300000e+00	5.411083e-04	
426	1.350000e+00	5.542619e-04	
427	1.400000e+00	5.668699e-04	
428	1.450000e+00	5.789344e-04	
429	1.500000e+00	5.904577e-04	
430	1.550000e+00	6.014419e-04	
431	1.600000e+00	6.118890e-04	
432	1.650000e+00	6.218012e-04	
433	1.700000e+00	6.311805e-04	
434	1.750000e+00	6.400290e-04	
435	1.800000e+00	6.483484e-04	
436	1.850000e+00	6.561408e-04	
437	1.900000e+00	6.634078e-04	
438	1.950000e+00	6.701514e-04	
439	2.000000e+00	6.763733e-04	
440	2.050000e+00	6.820752e-04	
441	2.100000e+00	6.872594e-04	
442	2.150000e+00	6.919283e-04	
443	2.200000e+00	6.960862e-04	
444	2.250000e+00	6.997395e-04	
445	2.300000e+00	7.028996e-04	
446	2.350000e+00	7.055856e-04	
447	2.400000e+00	7.078275e-04	
448	2.450000e+00	7.096680e-04	
449	2.500000e+00	7.111611e-04	
450	2.550000e+00	7.123661e-04	
451	2.600000e+00	7.133411e-04	
452	2.650000e+00	7.141367e-04	
453	2.700000e+00	7.147946e-04	
454	2.750000e+00	7.153467e-04	
455	2.800000e+00	7.158173e-04	
456	2.850000e+00	7.162245e-04	
457	2.900000e+00	7.165816e-04	
458	2.950000e+00	7.168988e-04	
459	3.000000e+00	7.171836e-04	
460	3.050000e+00	7.174419e-04	

Index   v-sweep         -i(vds)         
--------------------------------------------------------------------------------
461	3.100000e+00	7.176782e-04	
462	3.150000e+00	7.178960e-04	
463	3.200000e+00	7.180982e-04	
464	3.250000e+00	7.182869e-04	
465	3.300000e+00	7.184641e-04	
466	3.350000e+00	7.186311e-04	
467	3.400000e+00	7.187894e-04	
468	3.450000e+00	7.189398e-04	
469	3.500000e+00	7.190833e-04	
470	3.550000e+00	7.192207e-04	
471	3.600000e+00	7.193525e-04	
472	3.650000e+00	7.194793e-04	
473	3.700000e+00	7.196015e-04	
474	3.750000e+00	7.197197e-04	
475	3.800000e+00	7.198340e-04	
476	3.850000e+00	7.199450e-04	
477	3.900000e+00	7.200527e-04	
478	3.950000e+00	7.201576e-04	
479	4.000000e+00	7.202597e-04	
480	4.050000e+00	7.203594e-04	
481	4.100000e+00	7.204567e-04	
482	4.150000e+00	7.205519e-04	
483	4.200000e+00	7.206450e-04	
484	4.250000e+00	7.207363e-04	
485	4.300000e+00	7.208258e-04	
486	4.350000e+00	7.209137e-04	
487	4.400000e+00	7.210000e-04	
488	4.450000e+00	7.210849e-04	
489	4.500000e+00	7.211685e-04	
490	4.550000e+00	7.212509e-04	
491	4.600000e+00	7.213322e-04	
492	4.650000e+00	7.214125e-04	
493	4.700000e+00	7.214920e-04	
494	4.750000e+00	7.215709e-04	
495	4.800000e+00	7.216492e-04	
496	4.850000e+00	7.217272e-04	
497	4.900000e+00	7.218052e-04	
498	4.950000e+00	7.218835e-04	
499	5.000000e+00	7.219623e-04	
500	5.050000e+00	7.220421e-04	
501	5.100000e+00	7.221232e-04	
502	5.150000e+00	7.222064e-04	
503	5.200000e+00	7.222920e-04	
504	5.250000e+00	7.223810e-04	
505	5.300000e+00	7.224740e-04	
506	5.350000e+00	7.225719e-04	
507	5.400000e+00	7.226759e-04	
508	5.450000e+00	7.227870e-04	
509	5.500000e+00	7.229066e-04	
510	5.550000e+00	7.230362e-04	
511	5.600000e+00	7.231773e-04	
512	5.650000e+00	7.233318e-04	
513	5.700000e+00	7.235016e-04	
514	5.750000e+00	7.236890e-04	
515	5.800000e+00	7.238963e-04	
516	5.850000e+00	7.241260e-04	
517	5.900000e+00	7.243809e-04	
518	5.950000e+00	7.246642e-04	

Index   v-sweep         -i(vds)         
--------------------------------------------------------------------------------
519	6.000000e+00	7.249790e-04	
520	6.050000e+00	7.253288e-04	
521	6.100000e+00	7.257173e-04	
522	6.150000e+00	7.261486e-04	
523	6.200000e+00	7.266268e-04	
524	6.250000e+00	7.271565e-04	
525	6.300000e+00	7.277425e-04	
526	6.350000e+00	7.283896e-04	
527	6.400000e+00	7.291033e-04	
528	6.450000e+00	7.298890e-04	
529	6.500000e+00	7.307526e-04	
530	6.550000e+00	7.317001e-04	
531	6.600000e+00	7.327380e-04	
532	0.000000e+00	-1.21467e-29	
533	5.000000e-02	3.310588e-05	
534	1.000000e-01	6.566214e-05	
535	1.500000e-01	9.767094e-05	
536	2.000000e-01	1.291345e-04	
537	2.500000e-01	1.600548e-04	
538	3.000000e-01	1.904342e-04	
539	3.500000e-01	2.202747e-04	
540	4.000000e-01	2.495784e-04	
541	4.500000e-01	2.783474e-04	
542	5.000000e-01	3.065839e-04	
543	5.500000e-01	3.342899e-04	
544	6.000000e-01	3.614676e-04	
545	6.500000e-01	3.881189e-04	
546	7.000000e-01	4.142459e-04	
547	7.500000e-01	4.398507e-04	
548	8.000000e-01	4.649353e-04	
549	8.500000e-01	4.895017e-04	
550	9.000000e-01	5.135520e-04	
551	9.500000e-01	5.370882e-04	
552	1.000000e+00	5.601122e-04	
553	1.050000e+00	5.826261e-04	
554	1.100000e+00	6.046318e-04	
555	1.150000e+00	6.261313e-04	
556	1.200000e+00	6.471266e-04	
557	1.250000e+00	6.676195e-04	
558	1.300000e+00	6.876122e-04	
559	1.350000e+00	7.071063e-04	
560	1.400000e+00	7.261040e-04	
561	1.450000e+00	7.446071e-04	
562	1.500000e+00	7.626175e-04	
563	1.550000e+00	7.801370e-04	
564	1.600000e+00	7.971676e-04	
565	1.650000e+00	8.137110e-04	
566	1.700000e+00	8.297693e-04	
567	1.750000e+00	8.453441e-04	
568	1.800000e+00	8.604373e-04	
569	1.850000e+00	8.750506e-04	
570	1.900000e+00	8.891860e-04	
571	1.950000e+00	9.028451e-04	
572	2.000000e+00	9.160297e-04	
573	2.050000e+00	9.287415e-04	
574	2.100000e+00	9.409823e-04	
575	2.150000e+00	9.527535e-04	
576	2.200000e+00	9.640570e-04	

Index   v-sweep         -i(vds)         
--------------------------------------------------------------------------------
577	2.250000e+00	9.748943e-04	
578	2.300000e+00	9.852669e-04	
579	2.350000e+00	9.951763e-04	
580	2.400000e+00	1.004624e-03	
581	2.450000e+00	1.013611e-03	
582	2.500000e+00	1.022139e-03	
583	2.550000e+00	1.030209e-03	
584	2.600000e+00	1.037821e-03	
585	2.650000e+00	1.044977e-03	
586	2.700000e+00	1.051678e-03	
587	2.750000e+00	1.057923e-03	
588	2.800000e+00	1.063713e-03	
589	2.850000e+00	1.069048e-03	
590	2.900000e+00	1.073928e-03	
591	2.950000e+00	1.078354e-03	
592	3.000000e+00	1.082328e-03	
593	3.050000e+00	1.085857e-03	
594	3.100000e+00	1.088949e-03	
595	3.150000e+00	1.091624e-03	
596	3.200000e+00	1.093908e-03	
597	3.250000e+00	1.095837e-03	
598	3.300000e+00	1.097456e-03	
599	3.350000e+00	1.098812e-03	
600	3.400000e+00	1.099950e-03	
601	3.450000e+00	1.100912e-03	
602	3.500000e+00	1.101731e-03	
603	3.550000e+00	1.102437e-03	
604	3.600000e+00	1.103051e-03	
605	3.650000e+00	1.103592e-03	
606	3.700000e+00	1.104072e-03	
607	3.750000e+00	1.104503e-03	
608	3.800000e+00	1.104893e-03	
609	3.850000e+00	1.105249e-03	
610	3.900000e+00	1.105575e-03	
611	3.950000e+00	1.105877e-03	
612	4.000000e+00	1.106158e-03	
613	4.050000e+00	1.106421e-03	
614	4.100000e+00	1.106667e-03	
615	4.150000e+00	1.106899e-03	
616	4.200000e+00	1.107119e-03	
617	4.250000e+00	1.107328e-03	
618	4.300000e+00	1.107527e-03	
619	4.350000e+00	1.107717e-03	
620	4.400000e+00	1.107899e-03	
621	4.450000e+00	1.108074e-03	
622	4.500000e+00	1.108243e-03	
623	4.550000e+00	1.108405e-03	
624	4.600000e+00	1.108562e-03	
625	4.650000e+00	1.108714e-03	
626	4.700000e+00	1.108862e-03	
627	4.750000e+00	1.109005e-03	
628	4.800000e+00	1.109144e-03	
629	4.850000e+00	1.109279e-03	
630	4.900000e+00	1.109411e-03	
631	4.950000e+00	1.109540e-03	
632	5.000000e+00	1.109666e-03	
633	5.050000e+00	1.109789e-03	
634	5.100000e+00	1.109909e-03	

Index   v-sweep         -i(vds)         
--------------------------------------------------------------------------------
635	5.150000e+00	1.110027e-03	
636	5.200000e+00	1.110143e-03	
637	5.250000e+00	1.110257e-03	
638	5.300000e+00	1.110368e-03	
639	5.350000e+00	1.110478e-03	
640	5.400000e+00	1.110587e-03	
641	5.450000e+00	1.110694e-03	
642	5.500000e+00	1.110800e-03	
643	5.550000e+00	1.110905e-03	
644	5.600000e+00	1.111010e-03	
645	5.650000e+00	1.111114e-03	
646	5.700000e+00	1.111219e-03	
647	5.750000e+00	1.111325e-03	
648	5.800000e+00	1.111431e-03	
649	5.850000e+00	1.111540e-03	
650	5.900000e+00	1.111652e-03	
651	5.950000e+00	1.111767e-03	
652	6.000000e+00	1.111886e-03	
653	6.050000e+00	1.112012e-03	
654	6.100000e+00	1.112145e-03	
655	6.150000e+00	1.112287e-03	
656	6.200000e+00	1.112439e-03	
657	6.250000e+00	1.112604e-03	
658	6.300000e+00	1.112783e-03	
659	6.350000e+00	1.112979e-03	
660	6.400000e+00	1.113195e-03	
661	6.450000e+00	1.113434e-03	
662	6.500000e+00	1.113699e-03	
663	6.550000e+00	1.113993e-03	
664	6.600000e+00	1.114321e-03	
665	0.000000e+00	-2.84916e-30	
666	5.000000e-02	3.657164e-05	
667	1.000000e-01	7.265372e-05	
668	1.500000e-01	1.082480e-04	
669	2.000000e-01	1.433563e-04	
670	2.500000e-01	1.779804e-04	
671	3.000000e-01	2.121219e-04	
672	3.500000e-01	2.457826e-04	
673	4.000000e-01	2.789643e-04	
674	4.500000e-01	3.116687e-04	
675	5.000000e-01	3.438975e-04	
676	5.500000e-01	3.756525e-04	
677	6.000000e-01	4.069352e-04	
678	6.500000e-01	4.377474e-04	
679	7.000000e-01	4.680909e-04	
680	7.500000e-01	4.979672e-04	
681	8.000000e-01	5.273781e-04	
682	8.500000e-01	5.563253e-04	
683	9.000000e-01	5.848103e-04	
684	9.500000e-01	6.128348e-04	
685	1.000000e+00	6.404006e-04	
686	1.050000e+00	6.675092e-04	
687	1.100000e+00	6.941622e-04	
688	1.150000e+00	7.203613e-04	
689	1.200000e+00	7.461081e-04	
690	1.250000e+00	7.714042e-04	
691	1.300000e+00	7.962512e-04	
692	1.350000e+00	8.206507e-04	

Index   v-sweep         -i(vds)         
--------------------------------------------------------------------------------
693	1.400000e+00	8.446043e-04	
694	1.450000e+00	8.681136e-04	
695	1.500000e+00	8.911801e-04	
696	1.550000e+00	9.138055e-04	
697	1.600000e+00	9.359912e-04	
698	1.650000e+00	9.577388e-04	
699	1.700000e+00	9.790500e-04	
700	1.750000e+00	9.999261e-04	
701	1.800000e+00	1.020369e-03	
702	1.850000e+00	1.040379e-03	
703	1.900000e+00	1.059960e-03	
704	1.950000e+00	1.079111e-03	
705	2.000000e+00	1.097835e-03	
706	2.050000e+00	1.116133e-03	
707	2.100000e+00	1.134007e-03	
708	2.150000e+00	1.151457e-03	
709	2.200000e+00	1.168486e-03	
710	2.250000e+00	1.185095e-03	
711	2.300000e+00	1.201285e-03	
712	2.350000e+00	1.217059e-03	
713	2.400000e+00	1.232416e-03	
714	2.450000e+00	1.247359e-03	
715	2.500000e+00	1.261889e-03	
716	2.550000e+00	1.276007e-03	
717	2.600000e+00	1.289715e-03	
718	2.650000e+00	1.303015e-03	
719	2.700000e+00	1.315906e-03	
720	2.750000e+00	1.328392e-03	
721	2.800000e+00	1.340472e-03	
722	2.850000e+00	1.352149e-03	
723	2.900000e+00	1.363423e-03	
724	2.950000e+00	1.374295e-03	
725	3.000000e+00	1.384767e-03	
726	3.050000e+00	1.394840e-03	
727	3.100000e+00	1.404515e-03	
728	3.150000e+00	1.413792e-03	
729	3.200000e+00	1.422673e-03	
730	3.250000e+00	1.431158e-03	
731	3.300000e+00	1.439247e-03	
732	3.350000e+00	1.446941e-03	
733	3.400000e+00	1.454240e-03	
734	3.450000e+00	1.461144e-03	
735	3.500000e+00	1.467652e-03	
736	3.550000e+00	1.473763e-03	
737	3.600000e+00	1.479477e-03	
738	3.650000e+00	1.484792e-03	
739	3.700000e+00	1.489706e-03	
740	3.750000e+00	1.494218e-03	
741	3.800000e+00	1.498328e-03	
742	3.850000e+00	1.502038e-03	
743	3.900000e+00	1.505352e-03	
744	3.950000e+00	1.508283e-03	
745	4.000000e+00	1.510848e-03	
746	4.050000e+00	1.513073e-03	
747	4.100000e+00	1.514991e-03	
748	4.150000e+00	1.516638e-03	
749	4.200000e+00	1.518053e-03	
750	4.250000e+00	1.519272e-03	

Index   v-sweep         -i(vds)         
--------------------------------------------------------------------------------
751	4.300000e+00	1.520327e-03	
752	4.350000e+00	1.521247e-03	
753	4.400000e+00	1.522056e-03	
754	4.450000e+00	1.522772e-03	
755	4.500000e+00	1.523411e-03	
756	4.550000e+00	1.523986e-03	
757	4.600000e+00	1.524508e-03	
758	4.650000e+00	1.524984e-03	
759	4.700000e+00	1.525421e-03	
760	4.750000e+00	1.525825e-03	
761	4.800000e+00	1.526200e-03	
762	4.850000e+00	1.526550e-03	
763	4.900000e+00	1.526878e-03	
764	4.950000e+00	1.527187e-03	
765	5.000000e+00	1.527478e-03	
766	5.050000e+00	1.527755e-03	
767	5.100000e+00	1.528018e-03	
768	5.150000e+00	1.528268e-03	
769	5.200000e+00	1.528508e-03	
770	5.250000e+00	1.528737e-03	
771	5.300000e+00	1.528957e-03	
772	5.350000e+00	1.529169e-03	
773	5.400000e+00	1.529374e-03	
774	5.450000e+00	1.529571e-03	
775	5.500000e+00	1.529762e-03	
776	5.550000e+00	1.529947e-03	
777	5.600000e+00	1.530127e-03	
778	5.650000e+00	1.530301e-03	
779	5.700000e+00	1.530471e-03	
780	5.750000e+00	1.530636e-03	
781	5.800000e+00	1.530797e-03	
782	5.850000e+00	1.530954e-03	
783	5.900000e+00	1.531108e-03	
784	5.950000e+00	1.531258e-03	
785	6.000000e+00	1.531405e-03	
786	6.050000e+00	1.531550e-03	
787	6.100000e+00	1.531691e-03	
788	6.150000e+00	1.531830e-03	
789	6.200000e+00	1.531967e-03	
790	6.250000e+00	1.532102e-03	
791	6.300000e+00	1.532236e-03	
792	6.350000e+00	1.532368e-03	
793	6.400000e+00	1.532500e-03	
794	6.450000e+00	1.532631e-03	
795	6.500000e+00	1.532763e-03	
796	6.550000e+00	1.532895e-03	
797	6.600000e+00	1.533029e-03	
Note: No ".plot", ".print", or ".fourier" lines; no simulations run
