
Note: Compatibility modes selected: hs

Warning: m=xx on .subckt line will override multiplier m hierarchy!


Circuit: ***************************

Doing analysis at TEMP = 125.000000 and TNOM = 125.000000


No. of Data Rows : 798
                          ***************************
                          DC transfer characteristic  Mon Jan  9 13:58:37  2023
--------------------------------------------------------------------------------
Index   v-sweep         -i(vds)         
--------------------------------------------------------------------------------
0	0.000000e+00	2.227935e-27	
1	5.000000e-02	1.531468e-06	
2	1.000000e-01	2.776736e-06	
3	1.500000e-01	3.792815e-06	
4	2.000000e-01	4.595985e-06	
5	2.500000e-01	5.194125e-06	
6	3.000000e-01	5.598300e-06	
7	3.500000e-01	5.833936e-06	
8	4.000000e-01	5.950201e-06	
9	4.500000e-01	6.003717e-06	
10	5.000000e-01	6.030676e-06	
11	5.500000e-01	6.046643e-06	
12	6.000000e-01	6.057594e-06	
13	6.500000e-01	6.065959e-06	
14	7.000000e-01	6.072841e-06	
15	7.500000e-01	6.078794e-06	
16	8.000000e-01	6.084125e-06	
17	8.500000e-01	6.089015e-06	
18	9.000000e-01	6.093579e-06	
19	9.500000e-01	6.097893e-06	
20	1.000000e+00	6.102009e-06	
21	1.050000e+00	6.105967e-06	
22	1.100000e+00	6.109793e-06	
23	1.150000e+00	6.113510e-06	
24	1.200000e+00	6.117133e-06	
25	1.250000e+00	6.120676e-06	
26	1.300000e+00	6.124149e-06	
27	1.350000e+00	6.127561e-06	
28	1.400000e+00	6.130919e-06	
29	1.450000e+00	6.134229e-06	
30	1.500000e+00	6.137495e-06	
31	1.550000e+00	6.140722e-06	
32	1.600000e+00	6.143914e-06	
33	1.650000e+00	6.147074e-06	
34	1.700000e+00	6.150204e-06	
35	1.750000e+00	6.153307e-06	
36	1.800000e+00	6.156385e-06	
37	1.850000e+00	6.159440e-06	
38	1.900000e+00	6.162473e-06	
39	1.950000e+00	6.165487e-06	
40	2.000000e+00	6.168482e-06	
41	2.050000e+00	6.171460e-06	
42	2.100000e+00	6.174421e-06	
43	2.150000e+00	6.177368e-06	
44	2.200000e+00	6.180300e-06	
45	2.250000e+00	6.183218e-06	
46	2.300000e+00	6.186124e-06	
47	2.350000e+00	6.189019e-06	
48	2.400000e+00	6.191902e-06	
49	2.450000e+00	6.194775e-06	
50	2.500000e+00	6.197639e-06	
51	2.550000e+00	6.200495e-06	
52	2.600000e+00	6.203343e-06	
53	2.650000e+00	6.206184e-06	
54	2.700000e+00	6.209021e-06	

Index   v-sweep         -i(vds)         
--------------------------------------------------------------------------------
55	2.750000e+00	6.211855e-06	
56	2.800000e+00	6.214686e-06	
57	2.850000e+00	6.217519e-06	
58	2.900000e+00	6.220353e-06	
59	2.950000e+00	6.223194e-06	
60	3.000000e+00	6.226044e-06	
61	3.050000e+00	6.228907e-06	
62	3.100000e+00	6.231788e-06	
63	3.150000e+00	6.234691e-06	
64	3.200000e+00	6.237624e-06	
65	3.250000e+00	6.240593e-06	
66	3.300000e+00	6.243607e-06	
67	3.350000e+00	6.246674e-06	
68	3.400000e+00	6.249804e-06	
69	3.450000e+00	6.253010e-06	
70	3.500000e+00	6.256303e-06	
71	3.550000e+00	6.259699e-06	
72	3.600000e+00	6.263212e-06	
73	3.650000e+00	6.266861e-06	
74	3.700000e+00	6.270665e-06	
75	3.750000e+00	6.274643e-06	
76	3.800000e+00	6.278819e-06	
77	3.850000e+00	6.283217e-06	
78	3.900000e+00	6.287864e-06	
79	3.950000e+00	6.292788e-06	
80	4.000000e+00	6.298020e-06	
81	4.050000e+00	6.303592e-06	
82	4.100000e+00	6.309540e-06	
83	4.150000e+00	6.315901e-06	
84	4.200000e+00	6.322713e-06	
85	4.250000e+00	6.330019e-06	
86	4.300000e+00	6.337862e-06	
87	4.350000e+00	6.346290e-06	
88	4.400000e+00	6.355350e-06	
89	4.450000e+00	6.365095e-06	
90	4.500000e+00	6.375576e-06	
91	4.550000e+00	6.386851e-06	
92	4.600000e+00	6.398977e-06	
93	4.650000e+00	6.412015e-06	
94	4.700000e+00	6.426028e-06	
95	4.750000e+00	6.441081e-06	
96	4.800000e+00	6.457241e-06	
97	4.850000e+00	6.474579e-06	
98	4.900000e+00	6.493165e-06	
99	4.950000e+00	6.513075e-06	
100	5.000000e+00	6.534384e-06	
101	5.050000e+00	6.557170e-06	
102	5.100000e+00	6.581515e-06	
103	5.150000e+00	6.607501e-06	
104	5.200000e+00	6.635211e-06	
105	5.250000e+00	6.664733e-06	
106	5.300000e+00	6.696154e-06	
107	5.350000e+00	6.729563e-06	
108	5.400000e+00	6.765053e-06	
109	5.450000e+00	6.802717e-06	
110	5.500000e+00	6.842650e-06	
111	5.550000e+00	6.884946e-06	
112	5.600000e+00	6.929706e-06	

Index   v-sweep         -i(vds)         
--------------------------------------------------------------------------------
113	5.650000e+00	6.977026e-06	
114	5.700000e+00	7.027008e-06	
115	5.750000e+00	7.079754e-06	
116	5.800000e+00	7.135366e-06	
117	5.850000e+00	7.193948e-06	
118	5.900000e+00	7.255605e-06	
119	5.950000e+00	7.320443e-06	
120	6.000000e+00	7.388568e-06	
121	6.050000e+00	7.460089e-06	
122	6.100000e+00	7.535113e-06	
123	6.150000e+00	7.613750e-06	
124	6.200000e+00	7.696110e-06	
125	6.250000e+00	7.782302e-06	
126	6.300000e+00	7.872437e-06	
127	6.350000e+00	7.966627e-06	
128	6.400000e+00	8.064983e-06	
129	6.450000e+00	8.167617e-06	
130	6.500000e+00	8.274642e-06	
131	6.550000e+00	8.386168e-06	
132	6.600000e+00	8.502310e-06	
133	0.000000e+00	7.333191e-26	
134	5.000000e-02	4.708120e-06	
135	1.000000e-01	9.121595e-06	
136	1.500000e-01	1.329648e-05	
137	2.000000e-01	1.724774e-05	
138	2.500000e-01	2.097992e-05	
139	3.000000e-01	2.449495e-05	
140	3.500000e-01	2.779409e-05	
141	4.000000e-01	3.087845e-05	
142	4.500000e-01	3.374909e-05	
143	5.000000e-01	3.640707e-05	
144	5.500000e-01	3.885348e-05	
145	6.000000e-01	4.108944e-05	
146	6.500000e-01	4.311611e-05	
147	7.000000e-01	4.493479e-05	
148	7.500000e-01	4.654694e-05	
149	8.000000e-01	4.795437e-05	
150	8.500000e-01	4.915953e-05	
151	9.000000e-01	5.016609e-05	
152	9.500000e-01	5.098010e-05	
153	1.000000e+00	5.161202e-05	
154	1.050000e+00	5.207958e-05	
155	1.100000e+00	5.240962e-05	
156	1.150000e+00	5.263553e-05	
157	1.200000e+00	5.278996e-05	
158	1.250000e+00	5.289846e-05	
159	1.300000e+00	5.297807e-05	
160	1.350000e+00	5.303928e-05	
161	1.400000e+00	5.308839e-05	
162	1.450000e+00	5.312924e-05	
163	1.500000e+00	5.316423e-05	
164	1.550000e+00	5.319492e-05	
165	1.600000e+00	5.322236e-05	
166	1.650000e+00	5.324728e-05	
167	1.700000e+00	5.327019e-05	
168	1.750000e+00	5.329147e-05	
169	1.800000e+00	5.331142e-05	
170	1.850000e+00	5.333024e-05	

Index   v-sweep         -i(vds)         
--------------------------------------------------------------------------------
171	1.900000e+00	5.334811e-05	
172	1.950000e+00	5.336517e-05	
173	2.000000e+00	5.338152e-05	
174	2.050000e+00	5.339726e-05	
175	2.100000e+00	5.341245e-05	
176	2.150000e+00	5.342716e-05	
177	2.200000e+00	5.344144e-05	
178	2.250000e+00	5.345534e-05	
179	2.300000e+00	5.346888e-05	
180	2.350000e+00	5.348211e-05	
181	2.400000e+00	5.349505e-05	
182	2.450000e+00	5.350773e-05	
183	2.500000e+00	5.352017e-05	
184	2.550000e+00	5.353238e-05	
185	2.600000e+00	5.354439e-05	
186	2.650000e+00	5.355621e-05	
187	2.700000e+00	5.356785e-05	
188	2.750000e+00	5.357933e-05	
189	2.800000e+00	5.359065e-05	
190	2.850000e+00	5.360183e-05	
191	2.900000e+00	5.361287e-05	
192	2.950000e+00	5.362379e-05	
193	3.000000e+00	5.363458e-05	
194	3.050000e+00	5.364527e-05	
195	3.100000e+00	5.365586e-05	
196	3.150000e+00	5.366635e-05	
197	3.200000e+00	5.367675e-05	
198	3.250000e+00	5.368707e-05	
199	3.300000e+00	5.369732e-05	
200	3.350000e+00	5.370750e-05	
201	3.400000e+00	5.371764e-05	
202	3.450000e+00	5.372774e-05	
203	3.500000e+00	5.373782e-05	
204	3.550000e+00	5.374789e-05	
205	3.600000e+00	5.375797e-05	
206	3.650000e+00	5.376809e-05	
207	3.700000e+00	5.377828e-05	
208	3.750000e+00	5.378857e-05	
209	3.800000e+00	5.379899e-05	
210	3.850000e+00	5.380960e-05	
211	3.900000e+00	5.382044e-05	
212	3.950000e+00	5.383157e-05	
213	4.000000e+00	5.384305e-05	
214	4.050000e+00	5.385497e-05	
215	4.100000e+00	5.386741e-05	
216	4.150000e+00	5.388046e-05	
217	4.200000e+00	5.389423e-05	
218	4.250000e+00	5.390884e-05	
219	4.300000e+00	5.392442e-05	
220	4.350000e+00	5.394112e-05	
221	4.400000e+00	5.395909e-05	
222	4.450000e+00	5.397852e-05	
223	4.500000e+00	5.399959e-05	
224	4.550000e+00	5.402250e-05	
225	4.600000e+00	5.404748e-05	
226	4.650000e+00	5.407478e-05	
227	4.700000e+00	5.410464e-05	
228	4.750000e+00	5.413734e-05	

Index   v-sweep         -i(vds)         
--------------------------------------------------------------------------------
229	4.800000e+00	5.417318e-05	
230	4.850000e+00	5.421248e-05	
231	4.900000e+00	5.425556e-05	
232	4.950000e+00	5.430278e-05	
233	5.000000e+00	5.435451e-05	
234	5.050000e+00	5.441114e-05	
235	5.100000e+00	5.447309e-05	
236	5.150000e+00	5.454078e-05	
237	5.200000e+00	5.461468e-05	
238	5.250000e+00	5.469525e-05	
239	5.300000e+00	5.478298e-05	
240	5.350000e+00	5.487840e-05	
241	5.400000e+00	5.498203e-05	
242	5.450000e+00	5.509442e-05	
243	5.500000e+00	5.521615e-05	
244	5.550000e+00	5.534781e-05	
245	5.600000e+00	5.549000e-05	
246	5.650000e+00	5.564336e-05	
247	5.700000e+00	5.580853e-05	
248	5.750000e+00	5.598618e-05	
249	5.800000e+00	5.617697e-05	
250	5.850000e+00	5.638163e-05	
251	5.900000e+00	5.660085e-05	
252	5.950000e+00	5.683536e-05	
253	6.000000e+00	5.708592e-05	
254	6.050000e+00	5.735327e-05	
255	6.100000e+00	5.763820e-05	
256	6.150000e+00	5.794150e-05	
257	6.200000e+00	5.826395e-05	
258	6.250000e+00	5.860637e-05	
259	6.300000e+00	5.896959e-05	
260	6.350000e+00	5.935445e-05	
261	6.400000e+00	5.976178e-05	
262	6.450000e+00	6.019245e-05	
263	6.500000e+00	6.064731e-05	
264	6.550000e+00	6.112725e-05	
265	6.600000e+00	6.163315e-05	
266	0.000000e+00	-1.44175e-25	
267	5.000000e-02	7.329905e-06	
268	1.000000e-01	1.437734e-05	
269	1.500000e-01	2.119793e-05	
270	2.000000e-01	2.780648e-05	
271	2.500000e-01	3.420748e-05	
272	3.000000e-01	4.040274e-05	
273	3.500000e-01	4.639345e-05	
274	4.000000e-01	5.218058e-05	
275	4.500000e-01	5.776508e-05	
276	5.000000e-01	6.314788e-05	
277	5.500000e-01	6.832991e-05	
278	6.000000e-01	7.331206e-05	
279	6.500000e-01	7.809526e-05	
280	7.000000e-01	8.268040e-05	
281	7.500000e-01	8.706839e-05	
282	8.000000e-01	9.126012e-05	
283	8.500000e-01	9.525648e-05	
284	9.000000e-01	9.905836e-05	
285	9.500000e-01	1.026666e-04	
286	1.000000e+00	1.060822e-04	

Index   v-sweep         -i(vds)         
--------------------------------------------------------------------------------
287	1.050000e+00	1.093060e-04	
288	1.100000e+00	1.123387e-04	
289	1.150000e+00	1.151814e-04	
290	1.200000e+00	1.178350e-04	
291	1.250000e+00	1.203002e-04	
292	1.300000e+00	1.225781e-04	
293	1.350000e+00	1.246697e-04	
294	1.400000e+00	1.265758e-04	
295	1.450000e+00	1.282979e-04	
296	1.500000e+00	1.298372e-04	
297	1.550000e+00	1.311957e-04	
298	1.600000e+00	1.323761e-04	
299	1.650000e+00	1.333825e-04	
300	1.700000e+00	1.342214e-04	
301	1.750000e+00	1.349033e-04	
302	1.800000e+00	1.354436e-04	
303	1.850000e+00	1.358629e-04	
304	1.900000e+00	1.361847e-04	
305	1.950000e+00	1.364320e-04	
306	2.000000e+00	1.366245e-04	
307	2.050000e+00	1.367774e-04	
308	2.100000e+00	1.369018e-04	
309	2.150000e+00	1.370053e-04	
310	2.200000e+00	1.370934e-04	
311	2.250000e+00	1.371697e-04	
312	2.300000e+00	1.372370e-04	
313	2.350000e+00	1.372971e-04	
314	2.400000e+00	1.373516e-04	
315	2.450000e+00	1.374014e-04	
316	2.500000e+00	1.374473e-04	
317	2.550000e+00	1.374901e-04	
318	2.600000e+00	1.375301e-04	
319	2.650000e+00	1.375678e-04	
320	2.700000e+00	1.376034e-04	
321	2.750000e+00	1.376373e-04	
322	2.800000e+00	1.376697e-04	
323	2.850000e+00	1.377006e-04	
324	2.900000e+00	1.377304e-04	
325	2.950000e+00	1.377591e-04	
326	3.000000e+00	1.377868e-04	
327	3.050000e+00	1.378136e-04	
328	3.100000e+00	1.378397e-04	
329	3.150000e+00	1.378650e-04	
330	3.200000e+00	1.378896e-04	
331	3.250000e+00	1.379136e-04	
332	3.300000e+00	1.379370e-04	
333	3.350000e+00	1.379599e-04	
334	3.400000e+00	1.379824e-04	
335	3.450000e+00	1.380043e-04	
336	3.500000e+00	1.380259e-04	
337	3.550000e+00	1.380470e-04	
338	3.600000e+00	1.380678e-04	
339	3.650000e+00	1.380883e-04	
340	3.700000e+00	1.381084e-04	
341	3.750000e+00	1.381283e-04	
342	3.800000e+00	1.381478e-04	
343	3.850000e+00	1.381671e-04	
344	3.900000e+00	1.381862e-04	

Index   v-sweep         -i(vds)         
--------------------------------------------------------------------------------
345	3.950000e+00	1.382050e-04	
346	4.000000e+00	1.382237e-04	
347	4.050000e+00	1.382421e-04	
348	4.100000e+00	1.382605e-04	
349	4.150000e+00	1.382787e-04	
350	4.200000e+00	1.382968e-04	
351	4.250000e+00	1.383149e-04	
352	4.300000e+00	1.383330e-04	
353	4.350000e+00	1.383511e-04	
354	4.400000e+00	1.383694e-04	
355	4.450000e+00	1.383879e-04	
356	4.500000e+00	1.384067e-04	
357	4.550000e+00	1.384259e-04	
358	4.600000e+00	1.384457e-04	
359	4.650000e+00	1.384661e-04	
360	4.700000e+00	1.384873e-04	
361	4.750000e+00	1.385096e-04	
362	4.800000e+00	1.385330e-04	
363	4.850000e+00	1.385579e-04	
364	4.900000e+00	1.385846e-04	
365	4.950000e+00	1.386132e-04	
366	5.000000e+00	1.386441e-04	
367	5.050000e+00	1.386778e-04	
368	5.100000e+00	1.387144e-04	
369	5.150000e+00	1.387546e-04	
370	5.200000e+00	1.387988e-04	
371	5.250000e+00	1.388474e-04	
372	5.300000e+00	1.389010e-04	
373	5.350000e+00	1.389602e-04	
374	5.400000e+00	1.390257e-04	
375	5.450000e+00	1.390982e-04	
376	5.500000e+00	1.391782e-04	
377	5.550000e+00	1.392668e-04	
378	5.600000e+00	1.393646e-04	
379	5.650000e+00	1.394726e-04	
380	5.700000e+00	1.395916e-04	
381	5.750000e+00	1.397227e-04	
382	5.800000e+00	1.398669e-04	
383	5.850000e+00	1.400253e-04	
384	5.900000e+00	1.401989e-04	
385	5.950000e+00	1.403891e-04	
386	6.000000e+00	1.405970e-04	
387	6.050000e+00	1.408239e-04	
388	6.100000e+00	1.410712e-04	
389	6.150000e+00	1.413402e-04	
390	6.200000e+00	1.416324e-04	
391	6.250000e+00	1.419492e-04	
392	6.300000e+00	1.422923e-04	
393	6.350000e+00	1.426631e-04	
394	6.400000e+00	1.430633e-04	
395	6.450000e+00	1.434946e-04	
396	6.500000e+00	1.439588e-04	
397	6.550000e+00	1.444575e-04	
398	6.600000e+00	1.449925e-04	
399	0.000000e+00	-6.79819e-25	
400	5.000000e-02	9.395188e-06	
401	1.000000e-01	1.852482e-05	
402	1.500000e-01	2.744411e-05	

Index   v-sweep         -i(vds)         
--------------------------------------------------------------------------------
403	2.000000e-01	3.616771e-05	
404	2.500000e-01	4.469997e-05	
405	3.000000e-01	5.304260e-05	
406	3.500000e-01	6.119663e-05	
407	4.000000e-01	6.916293e-05	
408	4.500000e-01	7.694232e-05	
409	5.000000e-01	8.453560e-05	
410	5.500000e-01	9.194355e-05	
411	6.000000e-01	9.916699e-05	
412	6.500000e-01	1.062067e-04	
413	7.000000e-01	1.130634e-04	
414	7.500000e-01	1.197380e-04	
415	8.000000e-01	1.262311e-04	
416	8.500000e-01	1.325436e-04	
417	9.000000e-01	1.386762e-04	
418	9.500000e-01	1.446298e-04	
419	1.000000e+00	1.504049e-04	
420	1.050000e+00	1.560025e-04	
421	1.100000e+00	1.614231e-04	
422	1.150000e+00	1.666677e-04	
423	1.200000e+00	1.717369e-04	
424	1.250000e+00	1.766314e-04	
425	1.300000e+00	1.813521e-04	
426	1.350000e+00	1.858995e-04	
427	1.400000e+00	1.902745e-04	
428	1.450000e+00	1.944777e-04	
429	1.500000e+00	1.985098e-04	
430	1.550000e+00	2.023717e-04	
431	1.600000e+00	2.060638e-04	
432	1.650000e+00	2.095870e-04	
433	1.700000e+00	2.129420e-04	
434	1.750000e+00	2.161293e-04	
435	1.800000e+00	2.191497e-04	
436	1.850000e+00	2.220039e-04	
437	1.900000e+00	2.246924e-04	
438	1.950000e+00	2.272159e-04	
439	2.000000e+00	2.295751e-04	
440	2.050000e+00	2.317705e-04	
441	2.100000e+00	2.338029e-04	
442	2.150000e+00	2.356728e-04	
443	2.200000e+00	2.373811e-04	
444	2.250000e+00	2.389287e-04	
445	2.300000e+00	2.403168e-04	
446	2.350000e+00	2.415472e-04	
447	2.400000e+00	2.426231e-04	
448	2.450000e+00	2.435491e-04	
449	2.500000e+00	2.443328e-04	
450	2.550000e+00	2.449853e-04	
451	2.600000e+00	2.455212e-04	
452	2.650000e+00	2.459576e-04	
453	2.700000e+00	2.463124e-04	
454	2.750000e+00	2.466022e-04	
455	2.800000e+00	2.468415e-04	
456	2.850000e+00	2.470417e-04	
457	2.900000e+00	2.472116e-04	
458	2.950000e+00	2.473580e-04	
459	3.000000e+00	2.474858e-04	
460	3.050000e+00	2.475989e-04	

Index   v-sweep         -i(vds)         
--------------------------------------------------------------------------------
461	3.100000e+00	2.477000e-04	
462	3.150000e+00	2.477915e-04	
463	3.200000e+00	2.478749e-04	
464	3.250000e+00	2.479516e-04	
465	3.300000e+00	2.480227e-04	
466	3.350000e+00	2.480889e-04	
467	3.400000e+00	2.481509e-04	
468	3.450000e+00	2.482093e-04	
469	3.500000e+00	2.482645e-04	
470	3.550000e+00	2.483170e-04	
471	3.600000e+00	2.483669e-04	
472	3.650000e+00	2.484147e-04	
473	3.700000e+00	2.484605e-04	
474	3.750000e+00	2.485045e-04	
475	3.800000e+00	2.485469e-04	
476	3.850000e+00	2.485879e-04	
477	3.900000e+00	2.486275e-04	
478	3.950000e+00	2.486659e-04	
479	4.000000e+00	2.487032e-04	
480	4.050000e+00	2.487395e-04	
481	4.100000e+00	2.487748e-04	
482	4.150000e+00	2.488092e-04	
483	4.200000e+00	2.488428e-04	
484	4.250000e+00	2.488756e-04	
485	4.300000e+00	2.489077e-04	
486	4.350000e+00	2.489392e-04	
487	4.400000e+00	2.489700e-04	
488	4.450000e+00	2.490003e-04	
489	4.500000e+00	2.490300e-04	
490	4.550000e+00	2.490592e-04	
491	4.600000e+00	2.490880e-04	
492	4.650000e+00	2.491163e-04	
493	4.700000e+00	2.491442e-04	
494	4.750000e+00	2.491718e-04	
495	4.800000e+00	2.491990e-04	
496	4.850000e+00	2.492260e-04	
497	4.900000e+00	2.492528e-04	
498	4.950000e+00	2.492795e-04	
499	5.000000e+00	2.493061e-04	
500	5.050000e+00	2.493327e-04	
501	5.100000e+00	2.493594e-04	
502	5.150000e+00	2.493864e-04	
503	5.200000e+00	2.494138e-04	
504	5.250000e+00	2.494417e-04	
505	5.300000e+00	2.494704e-04	
506	5.350000e+00	2.495001e-04	
507	5.400000e+00	2.495310e-04	
508	5.450000e+00	2.495634e-04	
509	5.500000e+00	2.495977e-04	
510	5.550000e+00	2.496341e-04	
511	5.600000e+00	2.496733e-04	
512	5.650000e+00	2.497155e-04	
513	5.700000e+00	2.497614e-04	
514	5.750000e+00	2.498116e-04	
515	5.800000e+00	2.498666e-04	
516	5.850000e+00	2.499272e-04	
517	5.900000e+00	2.499941e-04	
518	5.950000e+00	2.500683e-04	

Index   v-sweep         -i(vds)         
--------------------------------------------------------------------------------
519	6.000000e+00	2.501505e-04	
520	6.050000e+00	2.502419e-04	
521	6.100000e+00	2.503435e-04	
522	6.150000e+00	2.504564e-04	
523	6.200000e+00	2.505819e-04	
524	6.250000e+00	2.507213e-04	
525	6.300000e+00	2.508760e-04	
526	6.350000e+00	2.510475e-04	
527	6.400000e+00	2.512374e-04	
528	6.450000e+00	2.514474e-04	
529	6.500000e+00	2.516792e-04	
530	6.550000e+00	2.519347e-04	
531	6.600000e+00	2.522159e-04	
532	0.000000e+00	3.205771e-25	
533	5.000000e-02	1.094566e-05	
534	1.000000e-01	2.164444e-05	
535	1.500000e-01	3.215123e-05	
536	2.000000e-01	4.248051e-05	
537	2.500000e-01	5.263650e-05	
538	3.000000e-01	6.262076e-05	
539	3.500000e-01	7.243421e-05	
540	4.000000e-01	8.207758e-05	
541	4.500000e-01	9.155155e-05	
542	5.000000e-01	1.008568e-04	
543	5.500000e-01	1.099940e-04	
544	6.000000e-01	1.189637e-04	
545	6.500000e-01	1.277668e-04	
546	7.000000e-01	1.364037e-04	
547	7.500000e-01	1.448752e-04	
548	8.000000e-01	1.531819e-04	
549	8.500000e-01	1.613244e-04	
550	9.000000e-01	1.693034e-04	
551	9.500000e-01	1.771196e-04	
552	1.000000e+00	1.847735e-04	
553	1.050000e+00	1.922659e-04	
554	1.100000e+00	1.995972e-04	
555	1.150000e+00	2.067682e-04	
556	1.200000e+00	2.137795e-04	
557	1.250000e+00	2.206316e-04	
558	1.300000e+00	2.273253e-04	
559	1.350000e+00	2.338611e-04	
560	1.400000e+00	2.402396e-04	
561	1.450000e+00	2.464614e-04	
562	1.500000e+00	2.525272e-04	
563	1.550000e+00	2.584375e-04	
564	1.600000e+00	2.641929e-04	
565	1.650000e+00	2.697941e-04	
566	1.700000e+00	2.752416e-04	
567	1.750000e+00	2.805360e-04	
568	1.800000e+00	2.856778e-04	
569	1.850000e+00	2.906677e-04	
570	1.900000e+00	2.955063e-04	
571	1.950000e+00	3.001940e-04	
572	2.000000e+00	3.047315e-04	
573	2.050000e+00	3.091193e-04	
574	2.100000e+00	3.133580e-04	
575	2.150000e+00	3.174481e-04	
576	2.200000e+00	3.213902e-04	

Index   v-sweep         -i(vds)         
--------------------------------------------------------------------------------
577	2.250000e+00	3.251848e-04	
578	2.300000e+00	3.288324e-04	
579	2.350000e+00	3.323336e-04	
580	2.400000e+00	3.356888e-04	
581	2.450000e+00	3.388985e-04	
582	2.500000e+00	3.419632e-04	
583	2.550000e+00	3.448835e-04	
584	2.600000e+00	3.476596e-04	
585	2.650000e+00	3.502920e-04	
586	2.700000e+00	3.527812e-04	
587	2.750000e+00	3.551274e-04	
588	2.800000e+00	3.573310e-04	
589	2.850000e+00	3.593922e-04	
590	2.900000e+00	3.613113e-04	
591	2.950000e+00	3.630885e-04	
592	3.000000e+00	3.647241e-04	
593	3.050000e+00	3.662184e-04	
594	3.100000e+00	3.675722e-04	
595	3.150000e+00	3.687866e-04	
596	3.200000e+00	3.698639e-04	
597	3.250000e+00	3.708081e-04	
598	3.300000e+00	3.716254e-04	
599	3.350000e+00	3.723247e-04	
600	3.400000e+00	3.729175e-04	
601	3.450000e+00	3.734173e-04	
602	3.500000e+00	3.738383e-04	
603	3.550000e+00	3.741938e-04	
604	3.600000e+00	3.744961e-04	
605	3.650000e+00	3.747553e-04	
606	3.700000e+00	3.749799e-04	
607	3.750000e+00	3.751765e-04	
608	3.800000e+00	3.753503e-04	
609	3.850000e+00	3.755054e-04	
610	3.900000e+00	3.756452e-04	
611	3.950000e+00	3.757721e-04	
612	4.000000e+00	3.758883e-04	
613	4.050000e+00	3.759954e-04	
614	4.100000e+00	3.760946e-04	
615	4.150000e+00	3.761870e-04	
616	4.200000e+00	3.762736e-04	
617	4.250000e+00	3.763551e-04	
618	4.300000e+00	3.764321e-04	
619	4.350000e+00	3.765051e-04	
620	4.400000e+00	3.765745e-04	
621	4.450000e+00	3.766408e-04	
622	4.500000e+00	3.767042e-04	
623	4.550000e+00	3.767650e-04	
624	4.600000e+00	3.768234e-04	
625	4.650000e+00	3.768798e-04	
626	4.700000e+00	3.769341e-04	
627	4.750000e+00	3.769867e-04	
628	4.800000e+00	3.770377e-04	
629	4.850000e+00	3.770871e-04	
630	4.900000e+00	3.771351e-04	
631	4.950000e+00	3.771818e-04	
632	5.000000e+00	3.772273e-04	
633	5.050000e+00	3.772717e-04	
634	5.100000e+00	3.773151e-04	

Index   v-sweep         -i(vds)         
--------------------------------------------------------------------------------
635	5.150000e+00	3.773574e-04	
636	5.200000e+00	3.773988e-04	
637	5.250000e+00	3.774394e-04	
638	5.300000e+00	3.774792e-04	
639	5.350000e+00	3.775182e-04	
640	5.400000e+00	3.775566e-04	
641	5.450000e+00	3.775943e-04	
642	5.500000e+00	3.776314e-04	
643	5.550000e+00	3.776681e-04	
644	5.600000e+00	3.777043e-04	
645	5.650000e+00	3.777401e-04	
646	5.700000e+00	3.777757e-04	
647	5.750000e+00	3.778111e-04	
648	5.800000e+00	3.778464e-04	
649	5.850000e+00	3.778819e-04	
650	5.900000e+00	3.779177e-04	
651	5.950000e+00	3.779539e-04	
652	6.000000e+00	3.779908e-04	
653	6.050000e+00	3.780287e-04	
654	6.100000e+00	3.780679e-04	
655	6.150000e+00	3.781087e-04	
656	6.200000e+00	3.781516e-04	
657	6.250000e+00	3.781970e-04	
658	6.300000e+00	3.782455e-04	
659	6.350000e+00	3.782976e-04	
660	6.400000e+00	3.783540e-04	
661	6.450000e+00	3.784155e-04	
662	6.500000e+00	3.784829e-04	
663	6.550000e+00	3.785571e-04	
664	6.600000e+00	3.786392e-04	
665	0.000000e+00	-3.07068e-25	
666	5.000000e-02	1.205283e-05	
667	1.000000e-01	2.387762e-05	
668	1.500000e-01	3.552897e-05	
669	2.000000e-01	4.702124e-05	
670	2.500000e-01	5.835850e-05	
671	3.000000e-01	6.954221e-05	
672	3.500000e-01	8.057314e-05	
673	4.000000e-01	9.145191e-05	
674	4.500000e-01	1.021791e-04	
675	5.000000e-01	1.127552e-04	
676	5.500000e-01	1.231808e-04	
677	6.000000e-01	1.334564e-04	
678	6.500000e-01	1.435826e-04	
679	7.000000e-01	1.535599e-04	
680	7.500000e-01	1.633888e-04	
681	8.000000e-01	1.730699e-04	
682	8.500000e-01	1.826037e-04	
683	9.000000e-01	1.919907e-04	
684	9.500000e-01	2.012315e-04	
685	1.000000e+00	2.103265e-04	
686	1.050000e+00	2.192762e-04	
687	1.100000e+00	2.280813e-04	
688	1.150000e+00	2.367422e-04	
689	1.200000e+00	2.452594e-04	
690	1.250000e+00	2.536334e-04	
691	1.300000e+00	2.618648e-04	
692	1.350000e+00	2.699540e-04	

Index   v-sweep         -i(vds)         
--------------------------------------------------------------------------------
693	1.400000e+00	2.779016e-04	
694	1.450000e+00	2.857080e-04	
695	1.500000e+00	2.933737e-04	
696	1.550000e+00	3.008993e-04	
697	1.600000e+00	3.082852e-04	
698	1.650000e+00	3.155320e-04	
699	1.700000e+00	3.226400e-04	
700	1.750000e+00	3.296099e-04	
701	1.800000e+00	3.364420e-04	
702	1.850000e+00	3.431369e-04	
703	1.900000e+00	3.496951e-04	
704	1.950000e+00	3.561169e-04	
705	2.000000e+00	3.624030e-04	
706	2.050000e+00	3.685537e-04	
707	2.100000e+00	3.745695e-04	
708	2.150000e+00	3.804510e-04	
709	2.200000e+00	3.861985e-04	
710	2.250000e+00	3.918126e-04	
711	2.300000e+00	3.972936e-04	
712	2.350000e+00	4.026421e-04	
713	2.400000e+00	4.078585e-04	
714	2.450000e+00	4.129433e-04	
715	2.500000e+00	4.178968e-04	
716	2.550000e+00	4.227196e-04	
717	2.600000e+00	4.274120e-04	
718	2.650000e+00	4.319746e-04	
719	2.700000e+00	4.364077e-04	
720	2.750000e+00	4.407118e-04	
721	2.800000e+00	4.448873e-04	
722	2.850000e+00	4.489346e-04	
723	2.900000e+00	4.528542e-04	
724	2.950000e+00	4.566463e-04	
725	3.000000e+00	4.603115e-04	
726	3.050000e+00	4.638500e-04	
727	3.100000e+00	4.672624e-04	
728	3.150000e+00	4.705488e-04	
729	3.200000e+00	4.737098e-04	
730	3.250000e+00	4.767455e-04	
731	3.300000e+00	4.796564e-04	
732	3.350000e+00	4.824426e-04	
733	3.400000e+00	4.851044e-04	
734	3.450000e+00	4.876421e-04	
735	3.500000e+00	4.900557e-04	
736	3.550000e+00	4.923454e-04	
737	3.600000e+00	4.945112e-04	
738	3.650000e+00	4.965532e-04	
739	3.700000e+00	4.984711e-04	
740	3.750000e+00	5.002648e-04	
741	3.800000e+00	5.019341e-04	
742	3.850000e+00	5.034788e-04	
743	3.900000e+00	5.048987e-04	
744	3.950000e+00	5.061941e-04	
745	4.000000e+00	5.073659e-04	
746	4.050000e+00	5.084159e-04	
747	4.100000e+00	5.093477e-04	
748	4.150000e+00	5.101666e-04	
749	4.200000e+00	5.108804e-04	
750	4.250000e+00	5.114986e-04	

Index   v-sweep         -i(vds)         
--------------------------------------------------------------------------------
751	4.300000e+00	5.120322e-04	
752	4.350000e+00	5.124925e-04	
753	4.400000e+00	5.128907e-04	
754	4.450000e+00	5.132366e-04	
755	4.500000e+00	5.135392e-04	
756	4.550000e+00	5.138057e-04	
757	4.600000e+00	5.140423e-04	
758	4.650000e+00	5.142540e-04	
759	4.700000e+00	5.144448e-04	
760	4.750000e+00	5.146181e-04	
761	4.800000e+00	5.147765e-04	
762	4.850000e+00	5.149221e-04	
763	4.900000e+00	5.150568e-04	
764	4.950000e+00	5.151820e-04	
765	5.000000e+00	5.152990e-04	
766	5.050000e+00	5.154087e-04	
767	5.100000e+00	5.155121e-04	
768	5.150000e+00	5.156098e-04	
769	5.200000e+00	5.157025e-04	
770	5.250000e+00	5.157907e-04	
771	5.300000e+00	5.158748e-04	
772	5.350000e+00	5.159553e-04	
773	5.400000e+00	5.160324e-04	
774	5.450000e+00	5.161065e-04	
775	5.500000e+00	5.161779e-04	
776	5.550000e+00	5.162467e-04	
777	5.600000e+00	5.163132e-04	
778	5.650000e+00	5.163775e-04	
779	5.700000e+00	5.164399e-04	
780	5.750000e+00	5.165004e-04	
781	5.800000e+00	5.165593e-04	
782	5.850000e+00	5.166165e-04	
783	5.900000e+00	5.166723e-04	
784	5.950000e+00	5.167266e-04	
785	6.000000e+00	5.167797e-04	
786	6.050000e+00	5.168316e-04	
787	6.100000e+00	5.168824e-04	
788	6.150000e+00	5.169321e-04	
789	6.200000e+00	5.169808e-04	
790	6.250000e+00	5.170286e-04	
791	6.300000e+00	5.170757e-04	
792	6.350000e+00	5.171219e-04	
793	6.400000e+00	5.171676e-04	
794	6.450000e+00	5.172127e-04	
795	6.500000e+00	5.172574e-04	
796	6.550000e+00	5.173018e-04	
797	6.600000e+00	5.173461e-04	
Note: No ".plot", ".print", or ".fourier" lines; no simulations run
