
Note: Compatibility modes selected: hs

Warning: m=xx on .subckt line will override multiplier m hierarchy!


Circuit: ***************************

Doing analysis at TEMP = 125.000000 and TNOM = 125.000000


No. of Data Rows : 798
                          ***************************
                          DC transfer characteristic  Mon Jan  9 13:58:36  2023
--------------------------------------------------------------------------------
Index   v-sweep         -i(vds)         
--------------------------------------------------------------------------------
0	0.000000e+00	-2.79282e-22	
1	5.000000e-02	1.623821e-06	
2	1.000000e-01	2.894893e-06	
3	1.500000e-01	3.925322e-06	
4	2.000000e-01	4.744673e-06	
5	2.500000e-01	5.363268e-06	
6	3.000000e-01	5.790812e-06	
7	3.500000e-01	6.047998e-06	
8	4.000000e-01	6.177624e-06	
9	4.500000e-01	6.235656e-06	
10	5.000000e-01	6.262621e-06	
11	5.500000e-01	6.277131e-06	
12	6.000000e-01	6.286311e-06	
13	6.500000e-01	6.292948e-06	
14	7.000000e-01	6.298237e-06	
15	7.500000e-01	6.302745e-06	
16	8.000000e-01	6.306767e-06	
17	8.500000e-01	6.310468e-06	
18	9.000000e-01	6.313946e-06	
19	9.500000e-01	6.317265e-06	
20	1.000000e+00	6.320464e-06	
21	1.050000e+00	6.323572e-06	
22	1.100000e+00	6.326608e-06	
23	1.150000e+00	6.329587e-06	
24	1.200000e+00	6.332518e-06	
25	1.250000e+00	6.335410e-06	
26	1.300000e+00	6.338270e-06	
27	1.350000e+00	6.341101e-06	
28	1.400000e+00	6.343909e-06	
29	1.450000e+00	6.346696e-06	
30	1.500000e+00	6.349465e-06	
31	1.550000e+00	6.352217e-06	
32	1.600000e+00	6.354956e-06	
33	1.650000e+00	6.357681e-06	
34	1.700000e+00	6.360395e-06	
35	1.750000e+00	6.363099e-06	
36	1.800000e+00	6.365793e-06	
37	1.850000e+00	6.368479e-06	
38	1.900000e+00	6.371157e-06	
39	1.950000e+00	6.373828e-06	
40	2.000000e+00	6.376492e-06	
41	2.050000e+00	6.379149e-06	
42	2.100000e+00	6.381802e-06	
43	2.150000e+00	6.384448e-06	
44	2.200000e+00	6.387090e-06	
45	2.250000e+00	6.389728e-06	
46	2.300000e+00	6.392361e-06	
47	2.350000e+00	6.394990e-06	
48	2.400000e+00	6.397617e-06	
49	2.450000e+00	6.400240e-06	
50	2.500000e+00	6.402860e-06	
51	2.550000e+00	6.405479e-06	
52	2.600000e+00	6.408096e-06	
53	2.650000e+00	6.410714e-06	
54	2.700000e+00	6.413331e-06	

Index   v-sweep         -i(vds)         
--------------------------------------------------------------------------------
55	2.750000e+00	6.415951e-06	
56	2.800000e+00	6.418573e-06	
57	2.850000e+00	6.421201e-06	
58	2.900000e+00	6.423836e-06	
59	2.950000e+00	6.426481e-06	
60	3.000000e+00	6.429139e-06	
61	3.050000e+00	6.431814e-06	
62	3.100000e+00	6.434510e-06	
63	3.150000e+00	6.437232e-06	
64	3.200000e+00	6.439986e-06	
65	3.250000e+00	6.442779e-06	
66	3.300000e+00	6.445618e-06	
67	3.350000e+00	6.448513e-06	
68	3.400000e+00	6.451473e-06	
69	3.450000e+00	6.454510e-06	
70	3.500000e+00	6.457636e-06	
71	3.550000e+00	6.460865e-06	
72	3.600000e+00	6.464212e-06	
73	3.650000e+00	6.467696e-06	
74	3.700000e+00	6.471333e-06	
75	3.750000e+00	6.475146e-06	
76	3.800000e+00	6.479156e-06	
77	3.850000e+00	6.483387e-06	
78	3.900000e+00	6.487867e-06	
79	3.950000e+00	6.492622e-06	
80	4.000000e+00	6.497684e-06	
81	4.050000e+00	6.503085e-06	
82	4.100000e+00	6.508860e-06	
83	4.150000e+00	6.515046e-06	
84	4.200000e+00	6.521681e-06	
85	4.250000e+00	6.528808e-06	
86	4.300000e+00	6.536471e-06	
87	4.350000e+00	6.544716e-06	
88	4.400000e+00	6.553591e-06	
89	4.450000e+00	6.563147e-06	
90	4.500000e+00	6.573439e-06	
91	4.550000e+00	6.584521e-06	
92	4.600000e+00	6.596453e-06	
93	4.650000e+00	6.609295e-06	
94	4.700000e+00	6.623109e-06	
95	4.750000e+00	6.637961e-06	
96	4.800000e+00	6.653919e-06	
97	4.850000e+00	6.671053e-06	
98	4.900000e+00	6.689435e-06	
99	4.950000e+00	6.709138e-06	
100	5.000000e+00	6.730241e-06	
101	5.050000e+00	6.752821e-06	
102	5.100000e+00	6.776959e-06	
103	5.150000e+00	6.802739e-06	
104	5.200000e+00	6.830244e-06	
105	5.250000e+00	6.859561e-06	
106	5.300000e+00	6.890780e-06	
107	5.350000e+00	6.923990e-06	
108	5.400000e+00	6.959283e-06	
109	5.450000e+00	6.996754e-06	
110	5.500000e+00	7.036497e-06	
111	5.550000e+00	7.078610e-06	
112	5.600000e+00	7.123191e-06	

Index   v-sweep         -i(vds)         
--------------------------------------------------------------------------------
113	5.650000e+00	7.170339e-06	
114	5.700000e+00	7.220156e-06	
115	5.750000e+00	7.272744e-06	
116	5.800000e+00	7.328207e-06	
117	5.850000e+00	7.386649e-06	
118	5.900000e+00	7.448177e-06	
119	5.950000e+00	7.512897e-06	
120	6.000000e+00	7.580916e-06	
121	6.050000e+00	7.652343e-06	
122	6.100000e+00	7.727288e-06	
123	6.150000e+00	7.805861e-06	
124	6.200000e+00	7.888172e-06	
125	6.250000e+00	7.974332e-06	
126	6.300000e+00	8.064454e-06	
127	6.350000e+00	8.158649e-06	
128	6.400000e+00	8.257030e-06	
129	6.450000e+00	8.359710e-06	
130	6.500000e+00	8.466803e-06	
131	6.550000e+00	8.578421e-06	
132	6.600000e+00	8.694679e-06	
133	0.000000e+00	3.903113e-26	
134	5.000000e-02	4.767708e-06	
135	1.000000e-01	9.178418e-06	
136	1.500000e-01	1.334331e-05	
137	2.000000e-01	1.729078e-05	
138	2.500000e-01	2.102837e-05	
139	3.000000e-01	2.455837e-05	
140	3.500000e-01	2.788174e-05	
141	4.000000e-01	3.099913e-05	
142	4.500000e-01	3.391112e-05	
143	5.000000e-01	3.661825e-05	
144	5.500000e-01	3.912111e-05	
145	6.000000e-01	4.142031e-05	
146	6.500000e-01	4.351651e-05	
147	7.000000e-01	4.541044e-05	
148	7.500000e-01	4.710301e-05	
149	8.000000e-01	4.859534e-05	
150	8.500000e-01	4.988902e-05	
151	9.000000e-01	5.098645e-05	
152	9.500000e-01	5.189158e-05	
153	1.000000e+00	5.261124e-05	
154	1.050000e+00	5.315739e-05	
155	1.100000e+00	5.354976e-05	
156	1.150000e+00	5.381690e-05	
157	1.200000e+00	5.399233e-05	
158	1.250000e+00	5.410703e-05	
159	1.300000e+00	5.418411e-05	
160	1.350000e+00	5.423841e-05	
161	1.400000e+00	5.427875e-05	
162	1.450000e+00	5.431030e-05	
163	1.500000e+00	5.433608e-05	
164	1.550000e+00	5.435795e-05	
165	1.600000e+00	5.437706e-05	
166	1.650000e+00	5.439417e-05	
167	1.700000e+00	5.440977e-05	
168	1.750000e+00	5.442423e-05	
169	1.800000e+00	5.443778e-05	
170	1.850000e+00	5.445062e-05	

Index   v-sweep         -i(vds)         
--------------------------------------------------------------------------------
171	1.900000e+00	5.446287e-05	
172	1.950000e+00	5.447463e-05	
173	2.000000e+00	5.448600e-05	
174	2.050000e+00	5.449702e-05	
175	2.100000e+00	5.450775e-05	
176	2.150000e+00	5.451823e-05	
177	2.200000e+00	5.452850e-05	
178	2.250000e+00	5.453857e-05	
179	2.300000e+00	5.454847e-05	
180	2.350000e+00	5.455822e-05	
181	2.400000e+00	5.456784e-05	
182	2.450000e+00	5.457733e-05	
183	2.500000e+00	5.458672e-05	
184	2.550000e+00	5.459601e-05	
185	2.600000e+00	5.460520e-05	
186	2.650000e+00	5.461432e-05	
187	2.700000e+00	5.462336e-05	
188	2.750000e+00	5.463233e-05	
189	2.800000e+00	5.464123e-05	
190	2.850000e+00	5.465008e-05	
191	2.900000e+00	5.465887e-05	
192	2.950000e+00	5.466762e-05	
193	3.000000e+00	5.467631e-05	
194	3.050000e+00	5.468496e-05	
195	3.100000e+00	5.469357e-05	
196	3.150000e+00	5.470215e-05	
197	3.200000e+00	5.471070e-05	
198	3.250000e+00	5.471921e-05	
199	3.300000e+00	5.472771e-05	
200	3.350000e+00	5.473619e-05	
201	3.400000e+00	5.474467e-05	
202	3.450000e+00	5.475314e-05	
203	3.500000e+00	5.476163e-05	
204	3.550000e+00	5.477014e-05	
205	3.600000e+00	5.477869e-05	
206	3.650000e+00	5.478731e-05	
207	3.700000e+00	5.479601e-05	
208	3.750000e+00	5.480482e-05	
209	3.800000e+00	5.481377e-05	
210	3.850000e+00	5.482290e-05	
211	3.900000e+00	5.483226e-05	
212	3.950000e+00	5.484190e-05	
213	4.000000e+00	5.485187e-05	
214	4.050000e+00	5.486225e-05	
215	4.100000e+00	5.487311e-05	
216	4.150000e+00	5.488453e-05	
217	4.200000e+00	5.489663e-05	
218	4.250000e+00	5.490949e-05	
219	4.300000e+00	5.492326e-05	
220	4.350000e+00	5.493806e-05	
221	4.400000e+00	5.495404e-05	
222	4.450000e+00	5.497136e-05	
223	4.500000e+00	5.499020e-05	
224	4.550000e+00	5.501077e-05	
225	4.600000e+00	5.503326e-05	
226	4.650000e+00	5.505791e-05	
227	4.700000e+00	5.508496e-05	
228	4.750000e+00	5.511467e-05	

Index   v-sweep         -i(vds)         
--------------------------------------------------------------------------------
229	4.800000e+00	5.514734e-05	
230	4.850000e+00	5.518325e-05	
231	4.900000e+00	5.522274e-05	
232	4.950000e+00	5.526614e-05	
233	5.000000e+00	5.531381e-05	
234	5.050000e+00	5.536614e-05	
235	5.100000e+00	5.542352e-05	
236	5.150000e+00	5.548638e-05	
237	5.200000e+00	5.555515e-05	
238	5.250000e+00	5.563031e-05	
239	5.300000e+00	5.571233e-05	
240	5.350000e+00	5.580172e-05	
241	5.400000e+00	5.589900e-05	
242	5.450000e+00	5.600472e-05	
243	5.500000e+00	5.611943e-05	
244	5.550000e+00	5.624373e-05	
245	5.600000e+00	5.637821e-05	
246	5.650000e+00	5.652351e-05	
247	5.700000e+00	5.668025e-05	
248	5.750000e+00	5.684909e-05	
249	5.800000e+00	5.703072e-05	
250	5.850000e+00	5.722583e-05	
251	5.900000e+00	5.743513e-05	
252	5.950000e+00	5.765935e-05	
253	6.000000e+00	5.789923e-05	
254	6.050000e+00	5.815553e-05	
255	6.100000e+00	5.842903e-05	
256	6.150000e+00	5.872050e-05	
257	6.200000e+00	5.903077e-05	
258	6.250000e+00	5.936063e-05	
259	6.300000e+00	5.971093e-05	
260	6.350000e+00	6.008249e-05	
261	6.400000e+00	6.047618e-05	
262	6.450000e+00	6.089284e-05	
263	6.500000e+00	6.133336e-05	
264	6.550000e+00	6.179862e-05	
265	6.600000e+00	6.228950e-05	
266	0.000000e+00	-3.79840e-25	
267	5.000000e-02	7.393632e-06	
268	1.000000e-01	1.444516e-05	
269	1.500000e-01	2.126535e-05	
270	2.000000e-01	2.788250e-05	
271	2.500000e-01	3.430411e-05	
272	3.000000e-01	4.053241e-05	
273	3.500000e-01	4.656830e-05	
274	4.000000e-01	5.241236e-05	
275	4.500000e-01	5.806507e-05	
276	5.000000e-01	6.352690e-05	
277	5.500000e-01	6.879830e-05	
278	6.000000e-01	7.387974e-05	
279	6.500000e-01	7.877167e-05	
280	7.000000e-01	8.347453e-05	
281	7.500000e-01	8.798879e-05	
282	8.000000e-01	9.231489e-05	
283	8.500000e-01	9.645330e-05	
284	9.000000e-01	1.004045e-04	
285	9.500000e-01	1.041688e-04	
286	1.000000e+00	1.077469e-04	

Index   v-sweep         -i(vds)         
--------------------------------------------------------------------------------
287	1.050000e+00	1.111390e-04	
288	1.100000e+00	1.143457e-04	
289	1.150000e+00	1.173675e-04	
290	1.200000e+00	1.202048e-04	
291	1.250000e+00	1.228582e-04	
292	1.300000e+00	1.253281e-04	
293	1.350000e+00	1.276151e-04	
294	1.400000e+00	1.297199e-04	
295	1.450000e+00	1.316431e-04	
296	1.500000e+00	1.333855e-04	
297	1.550000e+00	1.349484e-04	
298	1.600000e+00	1.363331e-04	
299	1.650000e+00	1.375419e-04	
300	1.700000e+00	1.385780e-04	
301	1.750000e+00	1.394466e-04	
302	1.800000e+00	1.401559e-04	
303	1.850000e+00	1.407183e-04	
304	1.900000e+00	1.411509e-04	
305	1.950000e+00	1.414756e-04	
306	2.000000e+00	1.417157e-04	
307	2.050000e+00	1.418934e-04	
308	2.100000e+00	1.420267e-04	
309	2.150000e+00	1.421291e-04	
310	2.200000e+00	1.422098e-04	
311	2.250000e+00	1.422755e-04	
312	2.300000e+00	1.423302e-04	
313	2.350000e+00	1.423771e-04	
314	2.400000e+00	1.424180e-04	
315	2.450000e+00	1.424544e-04	
316	2.500000e+00	1.424873e-04	
317	2.550000e+00	1.425174e-04	
318	2.600000e+00	1.425453e-04	
319	2.650000e+00	1.425714e-04	
320	2.700000e+00	1.425960e-04	
321	2.750000e+00	1.426193e-04	
322	2.800000e+00	1.426416e-04	
323	2.850000e+00	1.426629e-04	
324	2.900000e+00	1.426835e-04	
325	2.950000e+00	1.427034e-04	
326	3.000000e+00	1.427226e-04	
327	3.050000e+00	1.427414e-04	
328	3.100000e+00	1.427597e-04	
329	3.150000e+00	1.427776e-04	
330	3.200000e+00	1.427951e-04	
331	3.250000e+00	1.428123e-04	
332	3.300000e+00	1.428291e-04	
333	3.350000e+00	1.428457e-04	
334	3.400000e+00	1.428621e-04	
335	3.450000e+00	1.428782e-04	
336	3.500000e+00	1.428941e-04	
337	3.550000e+00	1.429098e-04	
338	3.600000e+00	1.429253e-04	
339	3.650000e+00	1.429407e-04	
340	3.700000e+00	1.429559e-04	
341	3.750000e+00	1.429710e-04	
342	3.800000e+00	1.429859e-04	
343	3.850000e+00	1.430007e-04	
344	3.900000e+00	1.430155e-04	

Index   v-sweep         -i(vds)         
--------------------------------------------------------------------------------
345	3.950000e+00	1.430301e-04	
346	4.000000e+00	1.430446e-04	
347	4.050000e+00	1.430590e-04	
348	4.100000e+00	1.430734e-04	
349	4.150000e+00	1.430878e-04	
350	4.200000e+00	1.431021e-04	
351	4.250000e+00	1.431165e-04	
352	4.300000e+00	1.431309e-04	
353	4.350000e+00	1.431453e-04	
354	4.400000e+00	1.431599e-04	
355	4.450000e+00	1.431747e-04	
356	4.500000e+00	1.431897e-04	
357	4.550000e+00	1.432050e-04	
358	4.600000e+00	1.432207e-04	
359	4.650000e+00	1.432370e-04	
360	4.700000e+00	1.432539e-04	
361	4.750000e+00	1.432715e-04	
362	4.800000e+00	1.432901e-04	
363	4.850000e+00	1.433099e-04	
364	4.900000e+00	1.433310e-04	
365	4.950000e+00	1.433536e-04	
366	5.000000e+00	1.433781e-04	
367	5.050000e+00	1.434048e-04	
368	5.100000e+00	1.434339e-04	
369	5.150000e+00	1.434659e-04	
370	5.200000e+00	1.435011e-04	
371	5.250000e+00	1.435400e-04	
372	5.300000e+00	1.435831e-04	
373	5.350000e+00	1.436309e-04	
374	5.400000e+00	1.436840e-04	
375	5.450000e+00	1.437429e-04	
376	5.500000e+00	1.438084e-04	
377	5.550000e+00	1.438811e-04	
378	5.600000e+00	1.439618e-04	
379	5.650000e+00	1.440513e-04	
380	5.700000e+00	1.441505e-04	
381	5.750000e+00	1.442603e-04	
382	5.800000e+00	1.443816e-04	
383	5.850000e+00	1.445154e-04	
384	5.900000e+00	1.446629e-04	
385	5.950000e+00	1.448251e-04	
386	6.000000e+00	1.450032e-04	
387	6.050000e+00	1.451985e-04	
388	6.100000e+00	1.454122e-04	
389	6.150000e+00	1.456456e-04	
390	6.200000e+00	1.459001e-04	
391	6.250000e+00	1.461773e-04	
392	6.300000e+00	1.464784e-04	
393	6.350000e+00	1.468052e-04	
394	6.400000e+00	1.471592e-04	
395	6.450000e+00	1.475420e-04	
396	6.500000e+00	1.479553e-04	
397	6.550000e+00	1.484008e-04	
398	6.600000e+00	1.488804e-04	
399	0.000000e+00	-7.58315e-25	
400	5.000000e-02	9.485256e-06	
401	1.000000e-01	1.864674e-05	
402	1.500000e-01	2.759487e-05	

Index   v-sweep         -i(vds)         
--------------------------------------------------------------------------------
403	2.000000e-01	3.635786e-05	
404	2.500000e-01	4.494312e-05	
405	3.000000e-01	5.335283e-05	
406	3.500000e-01	6.158782e-05	
407	4.000000e-01	6.964861e-05	
408	4.500000e-01	7.753561e-05	
409	5.000000e-01	8.524922e-05	
410	5.500000e-01	9.278984e-05	
411	6.000000e-01	1.001578e-04	
412	6.500000e-01	1.073536e-04	
413	7.000000e-01	1.143776e-04	
414	7.500000e-01	1.212301e-04	
415	8.000000e-01	1.279115e-04	
416	8.500000e-01	1.344223e-04	
417	9.000000e-01	1.407627e-04	
418	9.500000e-01	1.469332e-04	
419	1.000000e+00	1.529342e-04	
420	1.050000e+00	1.587661e-04	
421	1.100000e+00	1.644291e-04	
422	1.150000e+00	1.699237e-04	
423	1.200000e+00	1.752503e-04	
424	1.250000e+00	1.804093e-04	
425	1.300000e+00	1.854009e-04	
426	1.350000e+00	1.902257e-04	
427	1.400000e+00	1.948839e-04	
428	1.450000e+00	1.993759e-04	
429	1.500000e+00	2.037021e-04	
430	1.550000e+00	2.078629e-04	
431	1.600000e+00	2.118586e-04	
432	1.650000e+00	2.156896e-04	
433	1.700000e+00	2.193562e-04	
434	1.750000e+00	2.228589e-04	
435	1.800000e+00	2.261980e-04	
436	1.850000e+00	2.293738e-04	
437	1.900000e+00	2.323867e-04	
438	1.950000e+00	2.352372e-04	
439	2.000000e+00	2.379255e-04	
440	2.050000e+00	2.404522e-04	
441	2.100000e+00	2.428174e-04	
442	2.150000e+00	2.450219e-04	
443	2.200000e+00	2.470659e-04	
444	2.250000e+00	2.489501e-04	
445	2.300000e+00	2.506752e-04	
446	2.350000e+00	2.522420e-04	
447	2.400000e+00	2.536518e-04	
448	2.450000e+00	2.549062e-04	
449	2.500000e+00	2.560079e-04	
450	2.550000e+00	2.569605e-04	
451	2.600000e+00	2.577700e-04	
452	2.650000e+00	2.584447e-04	
453	2.700000e+00	2.589961e-04	
454	2.750000e+00	2.594389e-04	
455	2.800000e+00	2.597901e-04	
456	2.850000e+00	2.600671e-04	
457	2.900000e+00	2.602861e-04	
458	2.950000e+00	2.604610e-04	
459	3.000000e+00	2.606027e-04	
460	3.050000e+00	2.607195e-04	

Index   v-sweep         -i(vds)         
--------------------------------------------------------------------------------
461	3.100000e+00	2.608175e-04	
462	3.150000e+00	2.609013e-04	
463	3.200000e+00	2.609742e-04	
464	3.250000e+00	2.610385e-04	
465	3.300000e+00	2.610960e-04	
466	3.350000e+00	2.611481e-04	
467	3.400000e+00	2.611958e-04	
468	3.450000e+00	2.612399e-04	
469	3.500000e+00	2.612809e-04	
470	3.550000e+00	2.613194e-04	
471	3.600000e+00	2.613558e-04	
472	3.650000e+00	2.613903e-04	
473	3.700000e+00	2.614232e-04	
474	3.750000e+00	2.614547e-04	
475	3.800000e+00	2.614850e-04	
476	3.850000e+00	2.615143e-04	
477	3.900000e+00	2.615426e-04	
478	3.950000e+00	2.615700e-04	
479	4.000000e+00	2.615967e-04	
480	4.050000e+00	2.616228e-04	
481	4.100000e+00	2.616482e-04	
482	4.150000e+00	2.616730e-04	
483	4.200000e+00	2.616973e-04	
484	4.250000e+00	2.617212e-04	
485	4.300000e+00	2.617446e-04	
486	4.350000e+00	2.617677e-04	
487	4.400000e+00	2.617904e-04	
488	4.450000e+00	2.618127e-04	
489	4.500000e+00	2.618348e-04	
490	4.550000e+00	2.618565e-04	
491	4.600000e+00	2.618780e-04	
492	4.650000e+00	2.618993e-04	
493	4.700000e+00	2.619203e-04	
494	4.750000e+00	2.619412e-04	
495	4.800000e+00	2.619618e-04	
496	4.850000e+00	2.619823e-04	
497	4.900000e+00	2.620027e-04	
498	4.950000e+00	2.620230e-04	
499	5.000000e+00	2.620432e-04	
500	5.050000e+00	2.620634e-04	
501	5.100000e+00	2.620836e-04	
502	5.150000e+00	2.621040e-04	
503	5.200000e+00	2.621245e-04	
504	5.250000e+00	2.621453e-04	
505	5.300000e+00	2.621665e-04	
506	5.350000e+00	2.621882e-04	
507	5.400000e+00	2.622106e-04	
508	5.450000e+00	2.622339e-04	
509	5.500000e+00	2.622582e-04	
510	5.550000e+00	2.622838e-04	
511	5.600000e+00	2.623110e-04	
512	5.650000e+00	2.623402e-04	
513	5.700000e+00	2.623717e-04	
514	5.750000e+00	2.624058e-04	
515	5.800000e+00	2.624432e-04	
516	5.850000e+00	2.624842e-04	
517	5.900000e+00	2.625296e-04	
518	5.950000e+00	2.625798e-04	

Index   v-sweep         -i(vds)         
--------------------------------------------------------------------------------
519	6.000000e+00	2.626357e-04	
520	6.050000e+00	2.626980e-04	
521	6.100000e+00	2.627676e-04	
522	6.150000e+00	2.628454e-04	
523	6.200000e+00	2.629324e-04	
524	6.250000e+00	2.630296e-04	
525	6.300000e+00	2.631384e-04	
526	6.350000e+00	2.632598e-04	
527	6.400000e+00	2.633954e-04	
528	6.450000e+00	2.635464e-04	
529	6.500000e+00	2.637145e-04	
530	6.550000e+00	2.639012e-04	
531	6.600000e+00	2.641083e-04	
532	0.000000e+00	-1.00517e-24	
533	5.000000e-02	1.107422e-05	
534	1.000000e-01	2.184371e-05	
535	1.500000e-01	3.241861e-05	
536	2.000000e-01	4.282703e-05	
537	2.500000e-01	5.307634e-05	
538	3.000000e-01	6.316863e-05	
539	3.500000e-01	7.310467e-05	
540	4.000000e-01	8.288492e-05	
541	4.500000e-01	9.250971e-05	
542	5.000000e-01	1.019794e-04	
543	5.500000e-01	1.112943e-04	
544	6.000000e-01	1.204547e-04	
545	6.500000e-01	1.294609e-04	
546	7.000000e-01	1.383134e-04	
547	7.500000e-01	1.470123e-04	
548	8.000000e-01	1.555580e-04	
549	8.500000e-01	1.639508e-04	
550	9.000000e-01	1.721911e-04	
551	9.500000e-01	1.802792e-04	
552	1.000000e+00	1.882153e-04	
553	1.050000e+00	1.959998e-04	
554	1.100000e+00	2.036330e-04	
555	1.150000e+00	2.111152e-04	
556	1.200000e+00	2.184468e-04	
557	1.250000e+00	2.256279e-04	
558	1.300000e+00	2.326590e-04	
559	1.350000e+00	2.395404e-04	
560	1.400000e+00	2.462723e-04	
561	1.450000e+00	2.528551e-04	
562	1.500000e+00	2.592891e-04	
563	1.550000e+00	2.655746e-04	
564	1.600000e+00	2.717118e-04	
565	1.650000e+00	2.777011e-04	
566	1.700000e+00	2.835428e-04	
567	1.750000e+00	2.892372e-04	
568	1.800000e+00	2.947846e-04	
569	1.850000e+00	3.001853e-04	
570	1.900000e+00	3.054396e-04	
571	1.950000e+00	3.105478e-04	
572	2.000000e+00	3.155101e-04	
573	2.050000e+00	3.203269e-04	
574	2.100000e+00	3.249985e-04	
575	2.150000e+00	3.295251e-04	
576	2.200000e+00	3.339071e-04	

Index   v-sweep         -i(vds)         
--------------------------------------------------------------------------------
577	2.250000e+00	3.381448e-04	
578	2.300000e+00	3.422383e-04	
579	2.350000e+00	3.461881e-04	
580	2.400000e+00	3.499943e-04	
581	2.450000e+00	3.536574e-04	
582	2.500000e+00	3.571775e-04	
583	2.550000e+00	3.605549e-04	
584	2.600000e+00	3.637899e-04	
585	2.650000e+00	3.668829e-04	
586	2.700000e+00	3.698339e-04	
587	2.750000e+00	3.726434e-04	
588	2.800000e+00	3.753116e-04	
589	2.850000e+00	3.778387e-04	
590	2.900000e+00	3.802250e-04	
591	2.950000e+00	3.824709e-04	
592	3.000000e+00	3.845766e-04	
593	3.050000e+00	3.865424e-04	
594	3.100000e+00	3.883687e-04	
595	3.150000e+00	3.900560e-04	
596	3.200000e+00	3.916049e-04	
597	3.250000e+00	3.930162e-04	
598	3.300000e+00	3.942911e-04	
599	3.350000e+00	3.954315e-04	
600	3.400000e+00	3.964399e-04	
601	3.450000e+00	3.973204e-04	
602	3.500000e+00	3.980786e-04	
603	3.550000e+00	3.987225e-04	
604	3.600000e+00	3.992620e-04	
605	3.650000e+00	3.997094e-04	
606	3.700000e+00	4.000778e-04	
607	3.750000e+00	4.003806e-04	
608	3.800000e+00	4.006303e-04	
609	3.850000e+00	4.008377e-04	
610	3.900000e+00	4.010116e-04	
611	3.950000e+00	4.011593e-04	
612	4.000000e+00	4.012863e-04	
613	4.050000e+00	4.013969e-04	
614	4.100000e+00	4.014945e-04	
615	4.150000e+00	4.015815e-04	
616	4.200000e+00	4.016599e-04	
617	4.250000e+00	4.017312e-04	
618	4.300000e+00	4.017967e-04	
619	4.350000e+00	4.018573e-04	
620	4.400000e+00	4.019138e-04	
621	4.450000e+00	4.019667e-04	
622	4.500000e+00	4.020165e-04	
623	4.550000e+00	4.020638e-04	
624	4.600000e+00	4.021087e-04	
625	4.650000e+00	4.021516e-04	
626	4.700000e+00	4.021928e-04	
627	4.750000e+00	4.022324e-04	
628	4.800000e+00	4.022705e-04	
629	4.850000e+00	4.023075e-04	
630	4.900000e+00	4.023433e-04	
631	4.950000e+00	4.023780e-04	
632	5.000000e+00	4.024119e-04	
633	5.050000e+00	4.024448e-04	
634	5.100000e+00	4.024771e-04	

Index   v-sweep         -i(vds)         
--------------------------------------------------------------------------------
635	5.150000e+00	4.025086e-04	
636	5.200000e+00	4.025394e-04	
637	5.250000e+00	4.025697e-04	
638	5.300000e+00	4.025994e-04	
639	5.350000e+00	4.026286e-04	
640	5.400000e+00	4.026574e-04	
641	5.450000e+00	4.026857e-04	
642	5.500000e+00	4.027135e-04	
643	5.550000e+00	4.027411e-04	
644	5.600000e+00	4.027683e-04	
645	5.650000e+00	4.027951e-04	
646	5.700000e+00	4.028218e-04	
647	5.750000e+00	4.028481e-04	
648	5.800000e+00	4.028744e-04	
649	5.850000e+00	4.029005e-04	
650	5.900000e+00	4.029265e-04	
651	5.950000e+00	4.029525e-04	
652	6.000000e+00	4.029787e-04	
653	6.050000e+00	4.030051e-04	
654	6.100000e+00	4.030319e-04	
655	6.150000e+00	4.030592e-04	
656	6.200000e+00	4.030871e-04	
657	6.250000e+00	4.031161e-04	
658	6.300000e+00	4.031462e-04	
659	6.350000e+00	4.031779e-04	
660	6.400000e+00	4.032114e-04	
661	6.450000e+00	4.032472e-04	
662	6.500000e+00	4.032858e-04	
663	6.550000e+00	4.033277e-04	
664	6.600000e+00	4.033735e-04	
665	0.000000e+00	-7.31982e-25	
666	5.000000e-02	1.222426e-05	
667	1.000000e-01	2.416226e-05	
668	1.500000e-01	3.592391e-05	
669	2.000000e-01	4.753726e-05	
670	2.500000e-01	5.900959e-05	
671	3.000000e-01	7.034294e-05	
672	3.500000e-01	8.153805e-05	
673	4.000000e-01	9.259527e-05	
674	4.500000e-01	1.035149e-04	
675	5.000000e-01	1.142972e-04	
676	5.500000e-01	1.249425e-04	
677	6.000000e-01	1.354509e-04	
678	6.500000e-01	1.458229e-04	
679	7.000000e-01	1.560585e-04	
680	7.500000e-01	1.661582e-04	
681	8.000000e-01	1.761221e-04	
682	8.500000e-01	1.859505e-04	
683	9.000000e-01	1.956436e-04	
684	9.500000e-01	2.052018e-04	
685	1.000000e+00	2.146253e-04	
686	1.050000e+00	2.239142e-04	
687	1.100000e+00	2.330690e-04	
688	1.150000e+00	2.420898e-04	
689	1.200000e+00	2.509769e-04	
690	1.250000e+00	2.597305e-04	
691	1.300000e+00	2.683510e-04	
692	1.350000e+00	2.768385e-04	

Index   v-sweep         -i(vds)         
--------------------------------------------------------------------------------
693	1.400000e+00	2.851932e-04	
694	1.450000e+00	2.934156e-04	
695	1.500000e+00	3.015057e-04	
696	1.550000e+00	3.094639e-04	
697	1.600000e+00	3.172904e-04	
698	1.650000e+00	3.249854e-04	
699	1.700000e+00	3.325493e-04	
700	1.750000e+00	3.399821e-04	
701	1.800000e+00	3.472843e-04	
702	1.850000e+00	3.544560e-04	
703	1.900000e+00	3.614974e-04	
704	1.950000e+00	3.684089e-04	
705	2.000000e+00	3.751907e-04	
706	2.050000e+00	3.818429e-04	
707	2.100000e+00	3.883659e-04	
708	2.150000e+00	3.947599e-04	
709	2.200000e+00	4.010252e-04	
710	2.250000e+00	4.071619e-04	
711	2.300000e+00	4.131703e-04	
712	2.350000e+00	4.190507e-04	
713	2.400000e+00	4.248032e-04	
714	2.450000e+00	4.304282e-04	
715	2.500000e+00	4.359258e-04	
716	2.550000e+00	4.412963e-04	
717	2.600000e+00	4.465400e-04	
718	2.650000e+00	4.516570e-04	
719	2.700000e+00	4.566475e-04	
720	2.750000e+00	4.615120e-04	
721	2.800000e+00	4.662504e-04	
722	2.850000e+00	4.708632e-04	
723	2.900000e+00	4.753504e-04	
724	2.950000e+00	4.797124e-04	
725	3.000000e+00	4.839493e-04	
726	3.050000e+00	4.880614e-04	
727	3.100000e+00	4.920489e-04	
728	3.150000e+00	4.959120e-04	
729	3.200000e+00	4.996509e-04	
730	3.250000e+00	5.032659e-04	
731	3.300000e+00	5.067571e-04	
732	3.350000e+00	5.101248e-04	
733	3.400000e+00	5.133691e-04	
734	3.450000e+00	5.164902e-04	
735	3.500000e+00	5.194884e-04	
736	3.550000e+00	5.223639e-04	
737	3.600000e+00	5.251167e-04	
738	3.650000e+00	5.277471e-04	
739	3.700000e+00	5.302553e-04	
740	3.750000e+00	5.326414e-04	
741	3.800000e+00	5.349056e-04	
742	3.850000e+00	5.370480e-04	
743	3.900000e+00	5.390688e-04	
744	3.950000e+00	5.409682e-04	
745	4.000000e+00	5.427463e-04	
746	4.050000e+00	5.444035e-04	
747	4.100000e+00	5.459399e-04	
748	4.150000e+00	5.473561e-04	
749	4.200000e+00	5.486529e-04	
750	4.250000e+00	5.498311e-04	

Index   v-sweep         -i(vds)         
--------------------------------------------------------------------------------
751	4.300000e+00	5.508926e-04	
752	4.350000e+00	5.518398e-04	
753	4.400000e+00	5.526762e-04	
754	4.450000e+00	5.534070e-04	
755	4.500000e+00	5.540389e-04	
756	4.550000e+00	5.545801e-04	
757	4.600000e+00	5.550404e-04	
758	4.650000e+00	5.554302e-04	
759	4.700000e+00	5.557600e-04	
760	4.750000e+00	5.560396e-04	
761	4.800000e+00	5.562780e-04	
762	4.850000e+00	5.564827e-04	
763	4.900000e+00	5.566600e-04	
764	4.950000e+00	5.568150e-04	
765	5.000000e+00	5.569518e-04	
766	5.050000e+00	5.570736e-04	
767	5.100000e+00	5.571832e-04	
768	5.150000e+00	5.572826e-04	
769	5.200000e+00	5.573733e-04	
770	5.250000e+00	5.574569e-04	
771	5.300000e+00	5.575343e-04	
772	5.350000e+00	5.576065e-04	
773	5.400000e+00	5.576742e-04	
774	5.450000e+00	5.577379e-04	
775	5.500000e+00	5.577982e-04	
776	5.550000e+00	5.578555e-04	
777	5.600000e+00	5.579101e-04	
778	5.650000e+00	5.579624e-04	
779	5.700000e+00	5.580126e-04	
780	5.750000e+00	5.580608e-04	
781	5.800000e+00	5.581074e-04	
782	5.850000e+00	5.581525e-04	
783	5.900000e+00	5.581962e-04	
784	5.950000e+00	5.582386e-04	
785	6.000000e+00	5.582798e-04	
786	6.050000e+00	5.583200e-04	
787	6.100000e+00	5.583593e-04	
788	6.150000e+00	5.583976e-04	
789	6.200000e+00	5.584351e-04	
790	6.250000e+00	5.584719e-04	
791	6.300000e+00	5.585079e-04	
792	6.350000e+00	5.585433e-04	
793	6.400000e+00	5.585781e-04	
794	6.450000e+00	5.586123e-04	
795	6.500000e+00	5.586461e-04	
796	6.550000e+00	5.586793e-04	
797	6.600000e+00	5.587122e-04	
Note: No ".plot", ".print", or ".fourier" lines; no simulations run
