
Note: Compatibility modes selected: hs

Warning: m=xx on .subckt line will override multiplier m hierarchy!


Circuit: ***************************

Doing analysis at TEMP = 25.000000 and TNOM = 25.000000


No. of Data Rows : 798
                          ***************************
                          DC transfer characteristic  Mon Jan  9 13:58:36  2023
--------------------------------------------------------------------------------
Index   v-sweep         -i(vds)         
--------------------------------------------------------------------------------
0	0.000000e+00	8.523485e-32	
1	5.000000e-02	7.521074e-06	
2	1.000000e-01	1.302947e-05	
3	1.500000e-01	1.663077e-05	
4	2.000000e-01	1.859962e-05	
5	2.500000e-01	1.952938e-05	
6	3.000000e-01	2.002016e-05	
7	3.500000e-01	2.034646e-05	
8	4.000000e-01	2.059718e-05	
9	4.500000e-01	2.080469e-05	
10	5.000000e-01	2.098376e-05	
11	5.500000e-01	2.114246e-05	
12	6.000000e-01	2.128572e-05	
13	6.500000e-01	2.141681e-05	
14	7.000000e-01	2.153807e-05	
15	7.500000e-01	2.165117e-05	
16	8.000000e-01	2.175742e-05	
17	8.500000e-01	2.185780e-05	
18	9.000000e-01	2.195311e-05	
19	9.500000e-01	2.204401e-05	
20	1.000000e+00	2.213100e-05	
21	1.050000e+00	2.221453e-05	
22	1.100000e+00	2.229497e-05	
23	1.150000e+00	2.237264e-05	
24	1.200000e+00	2.244778e-05	
25	1.250000e+00	2.252065e-05	
26	1.300000e+00	2.259144e-05	
27	1.350000e+00	2.266031e-05	
28	1.400000e+00	2.272744e-05	
29	1.450000e+00	2.279295e-05	
30	1.500000e+00	2.285696e-05	
31	1.550000e+00	2.291958e-05	
32	1.600000e+00	2.298091e-05	
33	1.650000e+00	2.304104e-05	
34	1.700000e+00	2.310004e-05	
35	1.750000e+00	2.315799e-05	
36	1.800000e+00	2.321495e-05	
37	1.850000e+00	2.327098e-05	
38	1.900000e+00	2.332613e-05	
39	1.950000e+00	2.338045e-05	
40	2.000000e+00	2.343400e-05	
41	2.050000e+00	2.348680e-05	
42	2.100000e+00	2.353890e-05	
43	2.150000e+00	2.359033e-05	
44	2.200000e+00	2.364114e-05	
45	2.250000e+00	2.369134e-05	
46	2.300000e+00	2.374097e-05	
47	2.350000e+00	2.379006e-05	
48	2.400000e+00	2.383864e-05	
49	2.450000e+00	2.388672e-05	
50	2.500000e+00	2.393433e-05	
51	2.550000e+00	2.398151e-05	
52	2.600000e+00	2.402826e-05	
53	2.650000e+00	2.407462e-05	
54	2.700000e+00	2.412061e-05	

Index   v-sweep         -i(vds)         
--------------------------------------------------------------------------------
55	2.750000e+00	2.416625e-05	
56	2.800000e+00	2.421157e-05	
57	2.850000e+00	2.425659e-05	
58	2.900000e+00	2.430136e-05	
59	2.950000e+00	2.434589e-05	
60	3.000000e+00	2.439021e-05	
61	3.050000e+00	2.443438e-05	
62	3.100000e+00	2.447842e-05	
63	3.150000e+00	2.452237e-05	
64	3.200000e+00	2.456629e-05	
65	3.250000e+00	2.461023e-05	
66	3.300000e+00	2.465423e-05	
67	3.350000e+00	2.469837e-05	
68	3.400000e+00	2.474271e-05	
69	3.450000e+00	2.478733e-05	
70	3.500000e+00	2.483229e-05	
71	3.550000e+00	2.487769e-05	
72	3.600000e+00	2.492363e-05	
73	3.650000e+00	2.497020e-05	
74	3.700000e+00	2.501751e-05	
75	3.750000e+00	2.506567e-05	
76	3.800000e+00	2.511483e-05	
77	3.850000e+00	2.516510e-05	
78	3.900000e+00	2.521663e-05	
79	3.950000e+00	2.526957e-05	
80	4.000000e+00	2.532409e-05	
81	4.050000e+00	2.538036e-05	
82	4.100000e+00	2.543856e-05	
83	4.150000e+00	2.549888e-05	
84	4.200000e+00	2.556152e-05	
85	4.250000e+00	2.562670e-05	
86	4.300000e+00	2.569463e-05	
87	4.350000e+00	2.576555e-05	
88	4.400000e+00	2.583971e-05	
89	4.450000e+00	2.591735e-05	
90	4.500000e+00	2.599874e-05	
91	4.550000e+00	2.608415e-05	
92	4.600000e+00	2.617388e-05	
93	4.650000e+00	2.626820e-05	
94	4.700000e+00	2.636744e-05	
95	4.750000e+00	2.647190e-05	
96	4.800000e+00	2.658191e-05	
97	4.850000e+00	2.669780e-05	
98	4.900000e+00	2.681993e-05	
99	4.950000e+00	2.694863e-05	
100	5.000000e+00	2.708429e-05	
101	5.050000e+00	2.722726e-05	
102	5.100000e+00	2.737793e-05	
103	5.150000e+00	2.753670e-05	
104	5.200000e+00	2.770395e-05	
105	5.250000e+00	2.788010e-05	
106	5.300000e+00	2.806556e-05	
107	5.350000e+00	2.826075e-05	
108	5.400000e+00	2.846611e-05	
109	5.450000e+00	2.868207e-05	
110	5.500000e+00	2.890908e-05	
111	5.550000e+00	2.914759e-05	
112	5.600000e+00	2.939804e-05	

Index   v-sweep         -i(vds)         
--------------------------------------------------------------------------------
113	5.650000e+00	2.966092e-05	
114	5.700000e+00	2.993668e-05	
115	5.750000e+00	3.022581e-05	
116	5.800000e+00	3.052878e-05	
117	5.850000e+00	3.084608e-05	
118	5.900000e+00	3.117820e-05	
119	5.950000e+00	3.152563e-05	
120	6.000000e+00	3.188887e-05	
121	6.050000e+00	3.226843e-05	
122	6.100000e+00	3.266481e-05	
123	6.150000e+00	3.307852e-05	
124	6.200000e+00	3.351008e-05	
125	6.250000e+00	3.395999e-05	
126	6.300000e+00	3.442879e-05	
127	6.350000e+00	3.491698e-05	
128	6.400000e+00	3.542509e-05	
129	6.450000e+00	3.595365e-05	
130	6.500000e+00	3.650318e-05	
131	6.550000e+00	3.707422e-05	
132	6.600000e+00	3.766727e-05	
133	0.000000e+00	-7.05366e-30	
134	5.000000e-02	3.282814e-05	
135	1.000000e-01	6.338348e-05	
136	1.500000e-01	9.171149e-05	
137	2.000000e-01	1.178568e-04	
138	2.500000e-01	1.418630e-04	
139	3.000000e-01	1.637732e-04	
140	3.500000e-01	1.836296e-04	
141	4.000000e-01	2.014740e-04	
142	4.500000e-01	2.173480e-04	
143	5.000000e-01	2.312939e-04	
144	5.500000e-01	2.433560e-04	
145	6.000000e-01	2.535844e-04	
146	6.500000e-01	2.620446e-04	
147	7.000000e-01	2.688382e-04	
148	7.500000e-01	2.741382e-04	
149	8.000000e-01	2.782067e-04	
150	8.500000e-01	2.813490e-04	
151	9.000000e-01	2.838348e-04	
152	9.500000e-01	2.858610e-04	
153	1.000000e+00	2.875597e-04	
154	1.050000e+00	2.890181e-04	
155	1.100000e+00	2.902943e-04	
156	1.150000e+00	2.914288e-04	
157	1.200000e+00	2.924500e-04	
158	1.250000e+00	2.933791e-04	
159	1.300000e+00	2.942317e-04	
160	1.350000e+00	2.950199e-04	
161	1.400000e+00	2.957532e-04	
162	1.450000e+00	2.964391e-04	
163	1.500000e+00	2.970837e-04	
164	1.550000e+00	2.976921e-04	
165	1.600000e+00	2.982684e-04	
166	1.650000e+00	2.988160e-04	
167	1.700000e+00	2.993379e-04	
168	1.750000e+00	2.998367e-04	
169	1.800000e+00	3.003145e-04	
170	1.850000e+00	3.007731e-04	

Index   v-sweep         -i(vds)         
--------------------------------------------------------------------------------
171	1.900000e+00	3.012143e-04	
172	1.950000e+00	3.016394e-04	
173	2.000000e+00	3.020498e-04	
174	2.050000e+00	3.024465e-04	
175	2.100000e+00	3.028305e-04	
176	2.150000e+00	3.032028e-04	
177	2.200000e+00	3.035641e-04	
178	2.250000e+00	3.039152e-04	
179	2.300000e+00	3.042568e-04	
180	2.350000e+00	3.045893e-04	
181	2.400000e+00	3.049134e-04	
182	2.450000e+00	3.052295e-04	
183	2.500000e+00	3.055382e-04	
184	2.550000e+00	3.058397e-04	
185	2.600000e+00	3.061346e-04	
186	2.650000e+00	3.064232e-04	
187	2.700000e+00	3.067057e-04	
188	2.750000e+00	3.069825e-04	
189	2.800000e+00	3.072539e-04	
190	2.850000e+00	3.075201e-04	
191	2.900000e+00	3.077815e-04	
192	2.950000e+00	3.080382e-04	
193	3.000000e+00	3.082905e-04	
194	3.050000e+00	3.085386e-04	
195	3.100000e+00	3.087828e-04	
196	3.150000e+00	3.090233e-04	
197	3.200000e+00	3.092604e-04	
198	3.250000e+00	3.094942e-04	
199	3.300000e+00	3.097251e-04	
200	3.350000e+00	3.099534e-04	
201	3.400000e+00	3.101792e-04	
202	3.450000e+00	3.104030e-04	
203	3.500000e+00	3.106252e-04	
204	3.550000e+00	3.108460e-04	
205	3.600000e+00	3.110659e-04	
206	3.650000e+00	3.112854e-04	
207	3.700000e+00	3.115050e-04	
208	3.750000e+00	3.117252e-04	
209	3.800000e+00	3.119468e-04	
210	3.850000e+00	3.121703e-04	
211	3.900000e+00	3.123965e-04	
212	3.950000e+00	3.126262e-04	
213	4.000000e+00	3.128604e-04	
214	4.050000e+00	3.130999e-04	
215	4.100000e+00	3.133460e-04	
216	4.150000e+00	3.135996e-04	
217	4.200000e+00	3.138622e-04	
218	4.250000e+00	3.141349e-04	
219	4.300000e+00	3.144192e-04	
220	4.350000e+00	3.147167e-04	
221	4.400000e+00	3.150290e-04	
222	4.450000e+00	3.153579e-04	
223	4.500000e+00	3.157052e-04	
224	4.550000e+00	3.160729e-04	
225	4.600000e+00	3.164631e-04	
226	4.650000e+00	3.168780e-04	
227	4.700000e+00	3.173199e-04	
228	4.750000e+00	3.177912e-04	

Index   v-sweep         -i(vds)         
--------------------------------------------------------------------------------
229	4.800000e+00	3.182945e-04	
230	4.850000e+00	3.188325e-04	
231	4.900000e+00	3.194079e-04	
232	4.950000e+00	3.200238e-04	
233	5.000000e+00	3.206830e-04	
234	5.050000e+00	3.213887e-04	
235	5.100000e+00	3.221443e-04	
236	5.150000e+00	3.229530e-04	
237	5.200000e+00	3.238183e-04	
238	5.250000e+00	3.247439e-04	
239	5.300000e+00	3.257334e-04	
240	5.350000e+00	3.267907e-04	
241	5.400000e+00	3.279197e-04	
242	5.450000e+00	3.291243e-04	
243	5.500000e+00	3.304088e-04	
244	5.550000e+00	3.317772e-04	
245	5.600000e+00	3.332340e-04	
246	5.650000e+00	3.347834e-04	
247	5.700000e+00	3.364300e-04	
248	5.750000e+00	3.381783e-04	
249	5.800000e+00	3.400330e-04	
250	5.850000e+00	3.419988e-04	
251	5.900000e+00	3.440804e-04	
252	5.950000e+00	3.462828e-04	
253	6.000000e+00	3.486108e-04	
254	6.050000e+00	3.510694e-04	
255	6.100000e+00	3.536637e-04	
256	6.150000e+00	3.563987e-04	
257	6.200000e+00	3.592796e-04	
258	6.250000e+00	3.623116e-04	
259	6.300000e+00	3.654998e-04	
260	6.350000e+00	3.688496e-04	
261	6.400000e+00	3.723663e-04	
262	6.450000e+00	3.760552e-04	
263	6.500000e+00	3.799216e-04	
264	6.550000e+00	3.839710e-04	
265	6.600000e+00	3.882086e-04	
266	0.000000e+00	-1.08437e-29	
267	5.000000e-02	5.169587e-05	
268	1.000000e-01	1.011091e-04	
269	1.500000e-01	1.482828e-04	
270	2.000000e-01	1.932595e-04	
271	2.500000e-01	2.360807e-04	
272	3.000000e-01	2.767871e-04	
273	3.500000e-01	3.154184e-04	
274	4.000000e-01	3.520135e-04	
275	4.500000e-01	3.866106e-04	
276	5.000000e-01	4.192469e-04	
277	5.500000e-01	4.499588e-04	
278	6.000000e-01	4.787817e-04	
279	6.500000e-01	5.057502e-04	
280	7.000000e-01	5.308979e-04	
281	7.500000e-01	5.542571e-04	
282	8.000000e-01	5.758588e-04	
283	8.500000e-01	5.957320e-04	
284	9.000000e-01	6.139031e-04	
285	9.500000e-01	6.303948e-04	
286	1.000000e+00	6.452244e-04	

Index   v-sweep         -i(vds)         
--------------------------------------------------------------------------------
287	1.050000e+00	6.584028e-04	
288	1.100000e+00	6.699370e-04	
289	1.150000e+00	6.798431e-04	
290	1.200000e+00	6.881773e-04	
291	1.250000e+00	6.950698e-04	
292	1.300000e+00	7.007276e-04	
293	1.350000e+00	7.053906e-04	
294	1.400000e+00	7.092813e-04	
295	1.450000e+00	7.125801e-04	
296	1.500000e+00	7.154231e-04	
297	1.550000e+00	7.179106e-04	
298	1.600000e+00	7.201162e-04	
299	1.650000e+00	7.220945e-04	
300	1.700000e+00	7.238865e-04	
301	1.750000e+00	7.255235e-04	
302	1.800000e+00	7.270300e-04	
303	1.850000e+00	7.284251e-04	
304	1.900000e+00	7.297243e-04	
305	1.950000e+00	7.309401e-04	
306	2.000000e+00	7.320826e-04	
307	2.050000e+00	7.331605e-04	
308	2.100000e+00	7.341808e-04	
309	2.150000e+00	7.351496e-04	
310	2.200000e+00	7.360720e-04	
311	2.250000e+00	7.369525e-04	
312	2.300000e+00	7.377948e-04	
313	2.350000e+00	7.386024e-04	
314	2.400000e+00	7.393780e-04	
315	2.450000e+00	7.401244e-04	
316	2.500000e+00	7.408437e-04	
317	2.550000e+00	7.415380e-04	
318	2.600000e+00	7.422090e-04	
319	2.650000e+00	7.428585e-04	
320	2.700000e+00	7.434878e-04	
321	2.750000e+00	7.440982e-04	
322	2.800000e+00	7.446911e-04	
323	2.850000e+00	7.452673e-04	
324	2.900000e+00	7.458280e-04	
325	2.950000e+00	7.463741e-04	
326	3.000000e+00	7.469062e-04	
327	3.050000e+00	7.474253e-04	
328	3.100000e+00	7.479321e-04	
329	3.150000e+00	7.484271e-04	
330	3.200000e+00	7.489109e-04	
331	3.250000e+00	7.493843e-04	
332	3.300000e+00	7.498477e-04	
333	3.350000e+00	7.503015e-04	
334	3.400000e+00	7.507464e-04	
335	3.450000e+00	7.511829e-04	
336	3.500000e+00	7.516113e-04	
337	3.550000e+00	7.520321e-04	
338	3.600000e+00	7.524460e-04	
339	3.650000e+00	7.528533e-04	
340	3.700000e+00	7.532547e-04	
341	3.750000e+00	7.536506e-04	
342	3.800000e+00	7.540417e-04	
343	3.850000e+00	7.544287e-04	
344	3.900000e+00	7.548123e-04	

Index   v-sweep         -i(vds)         
--------------------------------------------------------------------------------
345	3.950000e+00	7.551933e-04	
346	4.000000e+00	7.555725e-04	
347	4.050000e+00	7.559510e-04	
348	4.100000e+00	7.563298e-04	
349	4.150000e+00	7.567102e-04	
350	4.200000e+00	7.570934e-04	
351	4.250000e+00	7.574809e-04	
352	4.300000e+00	7.578744e-04	
353	4.350000e+00	7.582755e-04	
354	4.400000e+00	7.586864e-04	
355	4.450000e+00	7.591090e-04	
356	4.500000e+00	7.595458e-04	
357	4.550000e+00	7.599993e-04	
358	4.600000e+00	7.604721e-04	
359	4.650000e+00	7.609673e-04	
360	4.700000e+00	7.614881e-04	
361	4.750000e+00	7.620378e-04	
362	4.800000e+00	7.626203e-04	
363	4.850000e+00	7.632393e-04	
364	4.900000e+00	7.638992e-04	
365	4.950000e+00	7.646043e-04	
366	5.000000e+00	7.653594e-04	
367	5.050000e+00	7.661695e-04	
368	5.100000e+00	7.670398e-04	
369	5.150000e+00	7.679759e-04	
370	5.200000e+00	7.689836e-04	
371	5.250000e+00	7.700690e-04	
372	5.300000e+00	7.712385e-04	
373	5.350000e+00	7.724988e-04	
374	5.400000e+00	7.738568e-04	
375	5.450000e+00	7.753197e-04	
376	5.500000e+00	7.768949e-04	
377	5.550000e+00	7.785904e-04	
378	5.600000e+00	7.804140e-04	
379	5.650000e+00	7.823741e-04	
380	5.700000e+00	7.844791e-04	
381	5.750000e+00	7.867380e-04	
382	5.800000e+00	7.891596e-04	
383	5.850000e+00	7.917533e-04	
384	5.900000e+00	7.945286e-04	
385	5.950000e+00	7.974952e-04	
386	6.000000e+00	8.006630e-04	
387	6.050000e+00	8.040422e-04	
388	6.100000e+00	8.076431e-04	
389	6.150000e+00	8.114762e-04	
390	6.200000e+00	8.155523e-04	
391	6.250000e+00	8.198821e-04	
392	6.300000e+00	8.244768e-04	
393	6.350000e+00	8.293475e-04	
394	6.400000e+00	8.345056e-04	
395	6.450000e+00	8.399624e-04	
396	6.500000e+00	8.457297e-04	
397	6.550000e+00	8.518191e-04	
398	6.600000e+00	8.582423e-04	
399	0.000000e+00	-2.88404e-29	
400	5.000000e-02	6.550022e-05	
401	1.000000e-01	1.288085e-04	
402	1.500000e-01	1.899624e-04	

Index   v-sweep         -i(vds)         
--------------------------------------------------------------------------------
403	2.000000e-01	2.489991e-04	
404	2.500000e-01	3.059546e-04	
405	3.000000e-01	3.608648e-04	
406	3.500000e-01	4.137645e-04	
407	4.000000e-01	4.646881e-04	
408	4.500000e-01	5.136692e-04	
409	5.000000e-01	5.607408e-04	
410	5.500000e-01	6.059352e-04	
411	6.000000e-01	6.492841e-04	
412	6.500000e-01	6.908186e-04	
413	7.000000e-01	7.305691e-04	
414	7.500000e-01	7.685652e-04	
415	8.000000e-01	8.048362e-04	
416	8.500000e-01	8.394103e-04	
417	9.000000e-01	8.723153e-04	
418	9.500000e-01	9.035780e-04	
419	1.000000e+00	9.332246e-04	
420	1.050000e+00	9.612798e-04	
421	1.100000e+00	9.877675e-04	
422	1.150000e+00	1.012709e-03	
423	1.200000e+00	1.036125e-03	
424	1.250000e+00	1.058030e-03	
425	1.300000e+00	1.078436e-03	
426	1.350000e+00	1.097347e-03	
427	1.400000e+00	1.114757e-03	
428	1.450000e+00	1.130646e-03	
429	1.500000e+00	1.144981e-03	
430	1.550000e+00	1.157726e-03	
431	1.600000e+00	1.168863e-03	
432	1.650000e+00	1.178435e-03	
433	1.700000e+00	1.186560e-03	
434	1.750000e+00	1.193428e-03	
435	1.800000e+00	1.199252e-03	
436	1.850000e+00	1.204232e-03	
437	1.900000e+00	1.208540e-03	
438	1.950000e+00	1.212310e-03	
439	2.000000e+00	1.215648e-03	
440	2.050000e+00	1.218634e-03	
441	2.100000e+00	1.221331e-03	
442	2.150000e+00	1.223786e-03	
443	2.200000e+00	1.226037e-03	
444	2.250000e+00	1.228115e-03	
445	2.300000e+00	1.230044e-03	
446	2.350000e+00	1.231843e-03	
447	2.400000e+00	1.233529e-03	
448	2.450000e+00	1.235115e-03	
449	2.500000e+00	1.236612e-03	
450	2.550000e+00	1.238029e-03	
451	2.600000e+00	1.239375e-03	
452	2.650000e+00	1.240657e-03	
453	2.700000e+00	1.241881e-03	
454	2.750000e+00	1.243051e-03	
455	2.800000e+00	1.244173e-03	
456	2.850000e+00	1.245250e-03	
457	2.900000e+00	1.246286e-03	
458	2.950000e+00	1.247284e-03	
459	3.000000e+00	1.248247e-03	
460	3.050000e+00	1.249177e-03	

Index   v-sweep         -i(vds)         
--------------------------------------------------------------------------------
461	3.100000e+00	1.250077e-03	
462	3.150000e+00	1.250949e-03	
463	3.200000e+00	1.251793e-03	
464	3.250000e+00	1.252613e-03	
465	3.300000e+00	1.253410e-03	
466	3.350000e+00	1.254184e-03	
467	3.400000e+00	1.254938e-03	
468	3.450000e+00	1.255672e-03	
469	3.500000e+00	1.256388e-03	
470	3.550000e+00	1.257086e-03	
471	3.600000e+00	1.257768e-03	
472	3.650000e+00	1.258434e-03	
473	3.700000e+00	1.259085e-03	
474	3.750000e+00	1.259722e-03	
475	3.800000e+00	1.260345e-03	
476	3.850000e+00	1.260956e-03	
477	3.900000e+00	1.261555e-03	
478	3.950000e+00	1.262143e-03	
479	4.000000e+00	1.262720e-03	
480	4.050000e+00	1.263288e-03	
481	4.100000e+00	1.263847e-03	
482	4.150000e+00	1.264398e-03	
483	4.200000e+00	1.264942e-03	
484	4.250000e+00	1.265480e-03	
485	4.300000e+00	1.266014e-03	
486	4.350000e+00	1.266544e-03	
487	4.400000e+00	1.267071e-03	
488	4.450000e+00	1.267598e-03	
489	4.500000e+00	1.268126e-03	
490	4.550000e+00	1.268657e-03	
491	4.600000e+00	1.269193e-03	
492	4.650000e+00	1.269737e-03	
493	4.700000e+00	1.270290e-03	
494	4.750000e+00	1.270856e-03	
495	4.800000e+00	1.271439e-03	
496	4.850000e+00	1.272040e-03	
497	4.900000e+00	1.272665e-03	
498	4.950000e+00	1.273317e-03	
499	5.000000e+00	1.274001e-03	
500	5.050000e+00	1.274721e-03	
501	5.100000e+00	1.275483e-03	
502	5.150000e+00	1.276292e-03	
503	5.200000e+00	1.277155e-03	
504	5.250000e+00	1.278077e-03	
505	5.300000e+00	1.279065e-03	
506	5.350000e+00	1.280127e-03	
507	5.400000e+00	1.281271e-03	
508	5.450000e+00	1.282504e-03	
509	5.500000e+00	1.283835e-03	
510	5.550000e+00	1.285274e-03	
511	5.600000e+00	1.286829e-03	
512	5.650000e+00	1.288510e-03	
513	5.700000e+00	1.290329e-03	
514	5.750000e+00	1.292296e-03	
515	5.800000e+00	1.294423e-03	
516	5.850000e+00	1.296720e-03	
517	5.900000e+00	1.299201e-03	
518	5.950000e+00	1.301878e-03	

Index   v-sweep         -i(vds)         
--------------------------------------------------------------------------------
519	6.000000e+00	1.304765e-03	
520	6.050000e+00	1.307874e-03	
521	6.100000e+00	1.311220e-03	
522	6.150000e+00	1.314817e-03	
523	6.200000e+00	1.318680e-03	
524	6.250000e+00	1.322824e-03	
525	6.300000e+00	1.327264e-03	
526	6.350000e+00	1.332017e-03	
527	6.400000e+00	1.337099e-03	
528	6.450000e+00	1.342525e-03	
529	6.500000e+00	1.348314e-03	
530	6.550000e+00	1.354481e-03	
531	6.600000e+00	1.361045e-03	
532	0.000000e+00	4.777434e-29	
533	5.000000e-02	7.512208e-05	
534	1.000000e-01	1.482067e-04	
535	1.500000e-01	2.192850e-04	
536	2.000000e-01	2.883877e-04	
537	2.500000e-01	3.555450e-04	
538	3.000000e-01	4.207867e-04	
539	3.500000e-01	4.841420e-04	
540	4.000000e-01	5.456398e-04	
541	4.500000e-01	6.053083e-04	
542	5.000000e-01	6.631754e-04	
543	5.500000e-01	7.192683e-04	
544	6.000000e-01	7.736140e-04	
545	6.500000e-01	8.262389e-04	
546	7.000000e-01	8.771689e-04	
547	7.500000e-01	9.264294e-04	
548	8.000000e-01	9.740456e-04	
549	8.500000e-01	1.020042e-03	
550	9.000000e-01	1.064442e-03	
551	9.500000e-01	1.107271e-03	
552	1.000000e+00	1.148550e-03	
553	1.050000e+00	1.188303e-03	
554	1.100000e+00	1.226552e-03	
555	1.150000e+00	1.263319e-03	
556	1.200000e+00	1.298626e-03	
557	1.250000e+00	1.332492e-03	
558	1.300000e+00	1.364937e-03	
559	1.350000e+00	1.395982e-03	
560	1.400000e+00	1.425644e-03	
561	1.450000e+00	1.453940e-03	
562	1.500000e+00	1.480885e-03	
563	1.550000e+00	1.506493e-03	
564	1.600000e+00	1.530774e-03	
565	1.650000e+00	1.553732e-03	
566	1.700000e+00	1.575368e-03	
567	1.750000e+00	1.595671e-03	
568	1.800000e+00	1.614619e-03	
569	1.850000e+00	1.632175e-03	
570	1.900000e+00	1.648287e-03	
571	1.950000e+00	1.662894e-03	
572	2.000000e+00	1.675948e-03	
573	2.050000e+00	1.687441e-03	
574	2.100000e+00	1.697439e-03	
575	2.150000e+00	1.706072e-03	
576	2.200000e+00	1.713518e-03	

Index   v-sweep         -i(vds)         
--------------------------------------------------------------------------------
577	2.250000e+00	1.719966e-03	
578	2.300000e+00	1.725590e-03	
579	2.350000e+00	1.730539e-03	
580	2.400000e+00	1.734934e-03	
581	2.450000e+00	1.738872e-03	
582	2.500000e+00	1.742430e-03	
583	2.550000e+00	1.745670e-03	
584	2.600000e+00	1.748639e-03	
585	2.650000e+00	1.751378e-03	
586	2.700000e+00	1.753918e-03	
587	2.750000e+00	1.756285e-03	
588	2.800000e+00	1.758500e-03	
589	2.850000e+00	1.760582e-03	
590	2.900000e+00	1.762545e-03	
591	2.950000e+00	1.764401e-03	
592	3.000000e+00	1.766162e-03	
593	3.050000e+00	1.767838e-03	
594	3.100000e+00	1.769435e-03	
595	3.150000e+00	1.770961e-03	
596	3.200000e+00	1.772423e-03	
597	3.250000e+00	1.773824e-03	
598	3.300000e+00	1.775172e-03	
599	3.350000e+00	1.776468e-03	
600	3.400000e+00	1.777718e-03	
601	3.450000e+00	1.778924e-03	
602	3.500000e+00	1.780089e-03	
603	3.550000e+00	1.781217e-03	
604	3.600000e+00	1.782310e-03	
605	3.650000e+00	1.783369e-03	
606	3.700000e+00	1.784398e-03	
607	3.750000e+00	1.785397e-03	
608	3.800000e+00	1.786368e-03	
609	3.850000e+00	1.787314e-03	
610	3.900000e+00	1.788235e-03	
611	3.950000e+00	1.789133e-03	
612	4.000000e+00	1.790009e-03	
613	4.050000e+00	1.790864e-03	
614	4.100000e+00	1.791699e-03	
615	4.150000e+00	1.792516e-03	
616	4.200000e+00	1.793315e-03	
617	4.250000e+00	1.794097e-03	
618	4.300000e+00	1.794864e-03	
619	4.350000e+00	1.795616e-03	
620	4.400000e+00	1.796354e-03	
621	4.450000e+00	1.797080e-03	
622	4.500000e+00	1.797794e-03	
623	4.550000e+00	1.798497e-03	
624	4.600000e+00	1.799192e-03	
625	4.650000e+00	1.799878e-03	
626	4.700000e+00	1.800559e-03	
627	4.750000e+00	1.801235e-03	
628	4.800000e+00	1.801908e-03	
629	4.850000e+00	1.802581e-03	
630	4.900000e+00	1.803256e-03	
631	4.950000e+00	1.803935e-03	
632	5.000000e+00	1.804622e-03	
633	5.050000e+00	1.805319e-03	
634	5.100000e+00	1.806030e-03	

Index   v-sweep         -i(vds)         
--------------------------------------------------------------------------------
635	5.150000e+00	1.806759e-03	
636	5.200000e+00	1.807511e-03	
637	5.250000e+00	1.808289e-03	
638	5.300000e+00	1.809100e-03	
639	5.350000e+00	1.809949e-03	
640	5.400000e+00	1.810843e-03	
641	5.450000e+00	1.811787e-03	
642	5.500000e+00	1.812789e-03	
643	5.550000e+00	1.813856e-03	
644	5.600000e+00	1.814998e-03	
645	5.650000e+00	1.816223e-03	
646	5.700000e+00	1.817541e-03	
647	5.750000e+00	1.818961e-03	
648	5.800000e+00	1.820494e-03	
649	5.850000e+00	1.822152e-03	
650	5.900000e+00	1.823947e-03	
651	5.950000e+00	1.825892e-03	
652	6.000000e+00	1.827999e-03	
653	6.050000e+00	1.830283e-03	
654	6.100000e+00	1.832758e-03	
655	6.150000e+00	1.835440e-03	
656	6.200000e+00	1.838344e-03	
657	6.250000e+00	1.841487e-03	
658	6.300000e+00	1.844886e-03	
659	6.350000e+00	1.848558e-03	
660	6.400000e+00	1.852523e-03	
661	6.450000e+00	1.856798e-03	
662	6.500000e+00	1.861404e-03	
663	6.550000e+00	1.866360e-03	
664	6.600000e+00	1.871688e-03	
665	0.000000e+00	9.369901e-20	
666	5.000000e-02	8.142936e-05	
667	1.000000e-01	1.610057e-04	
668	1.500000e-01	2.387541e-04	
669	2.000000e-01	3.146996e-04	
670	2.500000e-01	3.888665e-04	
671	3.000000e-01	4.612790e-04	
672	3.500000e-01	5.319609e-04	
673	4.000000e-01	6.009357e-04	
674	4.500000e-01	6.682266e-04	
675	5.000000e-01	7.338564e-04	
676	5.500000e-01	7.978475e-04	
677	6.000000e-01	8.602220e-04	
678	6.500000e-01	9.210017e-04	
679	7.000000e-01	9.802082e-04	
680	7.500000e-01	1.037862e-03	
681	8.000000e-01	1.093985e-03	
682	8.500000e-01	1.148597e-03	
683	9.000000e-01	1.201718e-03	
684	9.500000e-01	1.253368e-03	
685	1.000000e+00	1.303566e-03	
686	1.050000e+00	1.352332e-03	
687	1.100000e+00	1.399685e-03	
688	1.150000e+00	1.445643e-03	
689	1.200000e+00	1.490224e-03	
690	1.250000e+00	1.533447e-03	
691	1.300000e+00	1.575328e-03	
692	1.350000e+00	1.615886e-03	

Index   v-sweep         -i(vds)         
--------------------------------------------------------------------------------
693	1.400000e+00	1.655138e-03	
694	1.450000e+00	1.693099e-03	
695	1.500000e+00	1.729787e-03	
696	1.550000e+00	1.765217e-03	
697	1.600000e+00	1.799405e-03	
698	1.650000e+00	1.832366e-03	
699	1.700000e+00	1.864113e-03	
700	1.750000e+00	1.894661e-03	
701	1.800000e+00	1.924022e-03	
702	1.850000e+00	1.952207e-03	
703	1.900000e+00	1.979226e-03	
704	1.950000e+00	2.005085e-03	
705	2.000000e+00	2.029788e-03	
706	2.050000e+00	2.053334e-03	
707	2.100000e+00	2.075716e-03	
708	2.150000e+00	2.096919e-03	
709	2.200000e+00	2.116913e-03	
710	2.250000e+00	2.135658e-03	
711	2.300000e+00	2.153095e-03	
712	2.350000e+00	2.169157e-03	
713	2.400000e+00	2.183779e-03	
714	2.450000e+00	2.196922e-03	
715	2.500000e+00	2.208597e-03	
716	2.550000e+00	2.218878e-03	
717	2.600000e+00	2.227892e-03	
718	2.650000e+00	2.235796e-03	
719	2.700000e+00	2.242751e-03	
720	2.750000e+00	2.248908e-03	
721	2.800000e+00	2.254398e-03	
722	2.850000e+00	2.259328e-03	
723	2.900000e+00	2.263788e-03	
724	2.950000e+00	2.267851e-03	
725	3.000000e+00	2.271576e-03	
726	3.050000e+00	2.275010e-03	
727	3.100000e+00	2.278193e-03	
728	3.150000e+00	2.281157e-03	
729	3.200000e+00	2.283930e-03	
730	3.250000e+00	2.286532e-03	
731	3.300000e+00	2.288985e-03	
732	3.350000e+00	2.291302e-03	
733	3.400000e+00	2.293499e-03	
734	3.450000e+00	2.295587e-03	
735	3.500000e+00	2.297576e-03	
736	3.550000e+00	2.299475e-03	
737	3.600000e+00	2.301292e-03	
738	3.650000e+00	2.303034e-03	
739	3.700000e+00	2.304707e-03	
740	3.750000e+00	2.306315e-03	
741	3.800000e+00	2.307864e-03	
742	3.850000e+00	2.309359e-03	
743	3.900000e+00	2.310802e-03	
744	3.950000e+00	2.312197e-03	
745	4.000000e+00	2.313548e-03	
746	4.050000e+00	2.314858e-03	
747	4.100000e+00	2.316128e-03	
748	4.150000e+00	2.317361e-03	
749	4.200000e+00	2.318560e-03	
750	4.250000e+00	2.319726e-03	

Index   v-sweep         -i(vds)         
--------------------------------------------------------------------------------
751	4.300000e+00	2.320860e-03	
752	4.350000e+00	2.321966e-03	
753	4.400000e+00	2.323044e-03	
754	4.450000e+00	2.324096e-03	
755	4.500000e+00	2.325123e-03	
756	4.550000e+00	2.326127e-03	
757	4.600000e+00	2.327108e-03	
758	4.650000e+00	2.328069e-03	
759	4.700000e+00	2.329009e-03	
760	4.750000e+00	2.329931e-03	
761	4.800000e+00	2.330836e-03	
762	4.850000e+00	2.331725e-03	
763	4.900000e+00	2.332599e-03	
764	4.950000e+00	2.333459e-03	
765	5.000000e+00	2.334308e-03	
766	5.050000e+00	2.335147e-03	
767	5.100000e+00	2.335978e-03	
768	5.150000e+00	2.336803e-03	
769	5.200000e+00	2.337625e-03	
770	5.250000e+00	2.338445e-03	
771	5.300000e+00	2.339267e-03	
772	5.350000e+00	2.340094e-03	
773	5.400000e+00	2.340929e-03	
774	5.450000e+00	2.341777e-03	
775	5.500000e+00	2.342642e-03	
776	5.550000e+00	2.343529e-03	
777	5.600000e+00	2.344443e-03	
778	5.650000e+00	2.345390e-03	
779	5.700000e+00	2.346376e-03	
780	5.750000e+00	2.347409e-03	
781	5.800000e+00	2.348497e-03	
782	5.850000e+00	2.349647e-03	
783	5.900000e+00	2.350869e-03	
784	5.950000e+00	2.352173e-03	
785	6.000000e+00	2.353568e-03	
786	6.050000e+00	2.355066e-03	
787	6.100000e+00	2.356680e-03	
788	6.150000e+00	2.358421e-03	
789	6.200000e+00	2.360304e-03	
790	6.250000e+00	2.362343e-03	
791	6.300000e+00	2.364552e-03	
792	6.350000e+00	2.366949e-03	
793	6.400000e+00	2.369549e-03	
794	6.450000e+00	2.372371e-03	
795	6.500000e+00	2.375432e-03	
796	6.550000e+00	2.378753e-03	
797	6.600000e+00	2.382353e-03	
Note: No ".plot", ".print", or ".fourier" lines; no simulations run
