
Note: Compatibility modes selected: hs

Warning: m=xx on .subckt line will override multiplier m hierarchy!


Circuit: ***************************

Doing analysis at TEMP = 25.000000 and TNOM = 25.000000


No. of Data Rows : 798
                          ***************************
                          DC transfer characteristic  Mon Jan  9 13:58:36  2023
--------------------------------------------------------------------------------
Index   v-sweep         -i(vds)         
--------------------------------------------------------------------------------
0	0.000000e+00	-2.92794e-30	
1	5.000000e-02	1.140758e-05	
2	1.000000e-01	1.960968e-05	
3	1.500000e-01	2.484316e-05	
4	2.000000e-01	2.769094e-05	
5	2.500000e-01	2.919650e-05	
6	3.000000e-01	3.017227e-05	
7	3.500000e-01	3.092786e-05	
8	4.000000e-01	3.156518e-05	
9	4.500000e-01	3.212643e-05	
10	5.000000e-01	3.263360e-05	
11	5.500000e-01	3.309995e-05	
12	6.000000e-01	3.353426e-05	
13	6.500000e-01	3.394270e-05	
14	7.000000e-01	3.432980e-05	
15	7.500000e-01	3.469897e-05	
16	8.000000e-01	3.505290e-05	
17	8.500000e-01	3.539368e-05	
18	9.000000e-01	3.572304e-05	
19	9.500000e-01	3.604236e-05	
20	1.000000e+00	3.635281e-05	
21	1.050000e+00	3.665536e-05	
22	1.100000e+00	3.695083e-05	
23	1.150000e+00	3.723994e-05	
24	1.200000e+00	3.752328e-05	
25	1.250000e+00	3.780138e-05	
26	1.300000e+00	3.807470e-05	
27	1.350000e+00	3.834364e-05	
28	1.400000e+00	3.860856e-05	
29	1.450000e+00	3.886977e-05	
30	1.500000e+00	3.912756e-05	
31	1.550000e+00	3.938217e-05	
32	1.600000e+00	3.963383e-05	
33	1.650000e+00	3.988274e-05	
34	1.700000e+00	4.012909e-05	
35	1.750000e+00	4.037305e-05	
36	1.800000e+00	4.061475e-05	
37	1.850000e+00	4.085436e-05	
38	1.900000e+00	4.109198e-05	
39	1.950000e+00	4.132773e-05	
40	2.000000e+00	4.156173e-05	
41	2.050000e+00	4.179407e-05	
42	2.100000e+00	4.202484e-05	
43	2.150000e+00	4.225413e-05	
44	2.200000e+00	4.248201e-05	
45	2.250000e+00	4.270856e-05	
46	2.300000e+00	4.293384e-05	
47	2.350000e+00	4.315793e-05	
48	2.400000e+00	4.338088e-05	
49	2.450000e+00	4.360275e-05	
50	2.500000e+00	4.382360e-05	
51	2.550000e+00	4.404348e-05	
52	2.600000e+00	4.426245e-05	
53	2.650000e+00	4.448056e-05	
54	2.700000e+00	4.469787e-05	

Index   v-sweep         -i(vds)         
--------------------------------------------------------------------------------
55	2.750000e+00	4.491442e-05	
56	2.800000e+00	4.513028e-05	
57	2.850000e+00	4.534551e-05	
58	2.900000e+00	4.556016e-05	
59	2.950000e+00	4.577431e-05	
60	3.000000e+00	4.598802e-05	
61	3.050000e+00	4.620137e-05	
62	3.100000e+00	4.641445e-05	
63	3.150000e+00	4.662734e-05	
64	3.200000e+00	4.684014e-05	
65	3.250000e+00	4.705296e-05	
66	3.300000e+00	4.726593e-05	
67	3.350000e+00	4.747915e-05	
68	3.400000e+00	4.769279e-05	
69	3.450000e+00	4.790698e-05	
70	3.500000e+00	4.812190e-05	
71	3.550000e+00	4.833773e-05	
72	3.600000e+00	4.855467e-05	
73	3.650000e+00	4.877293e-05	
74	3.700000e+00	4.899274e-05	
75	3.750000e+00	4.921435e-05	
76	3.800000e+00	4.943803e-05	
77	3.850000e+00	4.966406e-05	
78	3.900000e+00	4.989275e-05	
79	3.950000e+00	5.012444e-05	
80	4.000000e+00	5.035947e-05	
81	4.050000e+00	5.059822e-05	
82	4.100000e+00	5.084107e-05	
83	4.150000e+00	5.108845e-05	
84	4.200000e+00	5.134081e-05	
85	4.250000e+00	5.159860e-05	
86	4.300000e+00	5.186232e-05	
87	4.350000e+00	5.213249e-05	
88	4.400000e+00	5.240964e-05	
89	4.450000e+00	5.269434e-05	
90	4.500000e+00	5.298720e-05	
91	4.550000e+00	5.328881e-05	
92	4.600000e+00	5.359984e-05	
93	4.650000e+00	5.392094e-05	
94	4.700000e+00	5.425282e-05	
95	4.750000e+00	5.459620e-05	
96	4.800000e+00	5.495182e-05	
97	4.850000e+00	5.532046e-05	
98	4.900000e+00	5.570292e-05	
99	4.950000e+00	5.610002e-05	
100	5.000000e+00	5.651262e-05	
101	5.050000e+00	5.694159e-05	
102	5.100000e+00	5.738783e-05	
103	5.150000e+00	5.785226e-05	
104	5.200000e+00	5.833584e-05	
105	5.250000e+00	5.883954e-05	
106	5.300000e+00	5.936436e-05	
107	5.350000e+00	5.991131e-05	
108	5.400000e+00	6.048144e-05	
109	5.450000e+00	6.107581e-05	
110	5.500000e+00	6.169551e-05	
111	5.550000e+00	6.234164e-05	
112	5.600000e+00	6.301535e-05	

Index   v-sweep         -i(vds)         
--------------------------------------------------------------------------------
113	5.650000e+00	6.371777e-05	
114	5.700000e+00	6.445008e-05	
115	5.750000e+00	6.521346e-05	
116	5.800000e+00	6.600912e-05	
117	5.850000e+00	6.683829e-05	
118	5.900000e+00	6.770221e-05	
119	5.950000e+00	6.860214e-05	
120	6.000000e+00	6.953936e-05	
121	6.050000e+00	7.051517e-05	
122	6.100000e+00	7.153087e-05	
123	6.150000e+00	7.258778e-05	
124	6.200000e+00	7.368725e-05	
125	6.250000e+00	7.483063e-05	
126	6.300000e+00	7.601927e-05	
127	6.350000e+00	7.725458e-05	
128	6.400000e+00	7.853792e-05	
129	6.450000e+00	7.987070e-05	
130	6.500000e+00	8.125435e-05	
131	6.550000e+00	8.269027e-05	
132	6.600000e+00	8.417991e-05	
133	0.000000e+00	4.049785e-30	
134	5.000000e-02	4.724413e-05	
135	1.000000e-01	9.087454e-05	
136	1.500000e-01	1.309906e-04	
137	2.000000e-01	1.676890e-04	
138	2.500000e-01	2.010641e-04	
139	3.000000e-01	2.312077e-04	
140	3.500000e-01	2.582098e-04	
141	4.000000e-01	2.821588e-04	
142	4.500000e-01	3.031431e-04	
143	5.000000e-01	3.212528e-04	
144	5.500000e-01	3.365861e-04	
145	6.000000e-01	3.492664e-04	
146	6.500000e-01	3.594830e-04	
147	7.000000e-01	3.675499e-04	
148	7.500000e-01	3.739023e-04	
149	8.000000e-01	3.789891e-04	
150	8.500000e-01	3.831714e-04	
151	9.000000e-01	3.867029e-04	
152	9.500000e-01	3.897546e-04	
153	1.000000e+00	3.924424e-04	
154	1.050000e+00	3.948464e-04	
155	1.100000e+00	3.970240e-04	
156	1.150000e+00	3.990170e-04	
157	1.200000e+00	4.008571e-04	
158	1.250000e+00	4.025682e-04	
159	1.300000e+00	4.041696e-04	
160	1.350000e+00	4.056761e-04	
161	1.400000e+00	4.071002e-04	
162	1.450000e+00	4.084518e-04	
163	1.500000e+00	4.097392e-04	
164	1.550000e+00	4.109694e-04	
165	1.600000e+00	4.121483e-04	
166	1.650000e+00	4.132811e-04	
167	1.700000e+00	4.143719e-04	
168	1.750000e+00	4.154245e-04	
169	1.800000e+00	4.164424e-04	
170	1.850000e+00	4.174282e-04	

Index   v-sweep         -i(vds)         
--------------------------------------------------------------------------------
171	1.900000e+00	4.183846e-04	
172	1.950000e+00	4.193138e-04	
173	2.000000e+00	4.202178e-04	
174	2.050000e+00	4.210984e-04	
175	2.100000e+00	4.219573e-04	
176	2.150000e+00	4.227957e-04	
177	2.200000e+00	4.236152e-04	
178	2.250000e+00	4.244168e-04	
179	2.300000e+00	4.252016e-04	
180	2.350000e+00	4.259706e-04	
181	2.400000e+00	4.267248e-04	
182	2.450000e+00	4.274649e-04	
183	2.500000e+00	4.281917e-04	
184	2.550000e+00	4.289060e-04	
185	2.600000e+00	4.296083e-04	
186	2.650000e+00	4.302993e-04	
187	2.700000e+00	4.309795e-04	
188	2.750000e+00	4.316495e-04	
189	2.800000e+00	4.323098e-04	
190	2.850000e+00	4.329609e-04	
191	2.900000e+00	4.336032e-04	
192	2.950000e+00	4.342371e-04	
193	3.000000e+00	4.348631e-04	
194	3.050000e+00	4.354816e-04	
195	3.100000e+00	4.360931e-04	
196	3.150000e+00	4.366979e-04	
197	3.200000e+00	4.372965e-04	
198	3.250000e+00	4.378894e-04	
199	3.300000e+00	4.384770e-04	
200	3.350000e+00	4.390599e-04	
201	3.400000e+00	4.396385e-04	
202	3.450000e+00	4.402136e-04	
203	3.500000e+00	4.407856e-04	
204	3.550000e+00	4.413553e-04	
205	3.600000e+00	4.419235e-04	
206	3.650000e+00	4.424910e-04	
207	3.700000e+00	4.430586e-04	
208	3.750000e+00	4.436273e-04	
209	3.800000e+00	4.441983e-04	
210	3.850000e+00	4.447727e-04	
211	3.900000e+00	4.453517e-04	
212	3.950000e+00	4.459368e-04	
213	4.000000e+00	4.465295e-04	
214	4.050000e+00	4.471313e-04	
215	4.100000e+00	4.477441e-04	
216	4.150000e+00	4.483697e-04	
217	4.200000e+00	4.490102e-04	
218	4.250000e+00	4.496678e-04	
219	4.300000e+00	4.503447e-04	
220	4.350000e+00	4.510436e-04	
221	4.400000e+00	4.517669e-04	
222	4.450000e+00	4.525176e-04	
223	4.500000e+00	4.532986e-04	
224	4.550000e+00	4.541130e-04	
225	4.600000e+00	4.549642e-04	
226	4.650000e+00	4.558557e-04	
227	4.700000e+00	4.567911e-04	
228	4.750000e+00	4.577742e-04	

Index   v-sweep         -i(vds)         
--------------------------------------------------------------------------------
229	4.800000e+00	4.588090e-04	
230	4.850000e+00	4.598998e-04	
231	4.900000e+00	4.610509e-04	
232	4.950000e+00	4.622668e-04	
233	5.000000e+00	4.635523e-04	
234	5.050000e+00	4.649121e-04	
235	5.100000e+00	4.663514e-04	
236	5.150000e+00	4.678753e-04	
237	5.200000e+00	4.694893e-04	
238	5.250000e+00	4.711988e-04	
239	5.300000e+00	4.730096e-04	
240	5.350000e+00	4.749275e-04	
241	5.400000e+00	4.769586e-04	
242	5.450000e+00	4.791088e-04	
243	5.500000e+00	4.813847e-04	
244	5.550000e+00	4.837925e-04	
245	5.600000e+00	4.863388e-04	
246	5.650000e+00	4.890304e-04	
247	5.700000e+00	4.918741e-04	
248	5.750000e+00	4.948767e-04	
249	5.800000e+00	4.980454e-04	
250	5.850000e+00	5.013873e-04	
251	5.900000e+00	5.049097e-04	
252	5.950000e+00	5.086199e-04	
253	6.000000e+00	5.125253e-04	
254	6.050000e+00	5.166336e-04	
255	6.100000e+00	5.209524e-04	
256	6.150000e+00	5.254892e-04	
257	6.200000e+00	5.302520e-04	
258	6.250000e+00	5.352486e-04	
259	6.300000e+00	5.404867e-04	
260	6.350000e+00	5.459744e-04	
261	6.400000e+00	5.517197e-04	
262	6.450000e+00	5.577306e-04	
263	6.500000e+00	5.640152e-04	
264	6.550000e+00	5.705815e-04	
265	6.600000e+00	5.774377e-04	
266	0.000000e+00	1.536962e-19	
267	5.000000e-02	7.259448e-05	
268	1.000000e-01	1.415496e-04	
269	1.500000e-01	2.069562e-04	
270	2.000000e-01	2.689032e-04	
271	2.500000e-01	3.274768e-04	
272	3.000000e-01	3.827612e-04	
273	3.500000e-01	4.348380e-04	
274	4.000000e-01	4.837867e-04	
275	4.500000e-01	5.296842e-04	
276	5.000000e-01	5.726051e-04	
277	5.500000e-01	6.126217e-04	
278	6.000000e-01	6.498035e-04	
279	6.500000e-01	6.842169e-04	
280	7.000000e-01	7.159248e-04	
281	7.500000e-01	7.449841e-04	
282	8.000000e-01	7.714438e-04	
283	8.500000e-01	7.953400e-04	
284	9.000000e-01	8.166900e-04	
285	9.500000e-01	8.354898e-04	
286	1.000000e+00	8.517318e-04	

Index   v-sweep         -i(vds)         
--------------------------------------------------------------------------------
287	1.050000e+00	8.654645e-04	
288	1.100000e+00	8.768722e-04	
289	1.150000e+00	8.862863e-04	
290	1.200000e+00	8.941006e-04	
291	1.250000e+00	9.006775e-04	
292	1.300000e+00	9.063060e-04	
293	1.350000e+00	9.112025e-04	
294	1.400000e+00	9.155255e-04	
295	1.450000e+00	9.193913e-04	
296	1.500000e+00	9.228864e-04	
297	1.550000e+00	9.260761e-04	
298	1.600000e+00	9.290104e-04	
299	1.650000e+00	9.317286e-04	
300	1.700000e+00	9.342616e-04	
301	1.750000e+00	9.366344e-04	
302	1.800000e+00	9.388674e-04	
303	1.850000e+00	9.409774e-04	
304	1.900000e+00	9.429783e-04	
305	1.950000e+00	9.448818e-04	
306	2.000000e+00	9.466981e-04	
307	2.050000e+00	9.484355e-04	
308	2.100000e+00	9.501015e-04	
309	2.150000e+00	9.517025e-04	
310	2.200000e+00	9.532440e-04	
311	2.250000e+00	9.547309e-04	
312	2.300000e+00	9.561676e-04	
313	2.350000e+00	9.575578e-04	
314	2.400000e+00	9.589050e-04	
315	2.450000e+00	9.602123e-04	
316	2.500000e+00	9.614824e-04	
317	2.550000e+00	9.627177e-04	
318	2.600000e+00	9.639204e-04	
319	2.650000e+00	9.650927e-04	
320	2.700000e+00	9.662364e-04	
321	2.750000e+00	9.673531e-04	
322	2.800000e+00	9.684444e-04	
323	2.850000e+00	9.695117e-04	
324	2.900000e+00	9.705563e-04	
325	2.950000e+00	9.715794e-04	
326	3.000000e+00	9.725821e-04	
327	3.050000e+00	9.735655e-04	
328	3.100000e+00	9.745306e-04	
329	3.150000e+00	9.754782e-04	
330	3.200000e+00	9.764093e-04	
331	3.250000e+00	9.773247e-04	
332	3.300000e+00	9.782252e-04	
333	3.350000e+00	9.791116e-04	
334	3.400000e+00	9.799847e-04	
335	3.450000e+00	9.808452e-04	
336	3.500000e+00	9.816941e-04	
337	3.550000e+00	9.825321e-04	
338	3.600000e+00	9.833600e-04	
339	3.650000e+00	9.841789e-04	
340	3.700000e+00	9.849897e-04	
341	3.750000e+00	9.857934e-04	
342	3.800000e+00	9.865913e-04	
343	3.850000e+00	9.873845e-04	
344	3.900000e+00	9.881745e-04	

Index   v-sweep         -i(vds)         
--------------------------------------------------------------------------------
345	3.950000e+00	9.889627e-04	
346	4.000000e+00	9.897509e-04	
347	4.050000e+00	9.905409e-04	
348	4.100000e+00	9.913346e-04	
349	4.150000e+00	9.921343e-04	
350	4.200000e+00	9.929424e-04	
351	4.250000e+00	9.937615e-04	
352	4.300000e+00	9.945946e-04	
353	4.350000e+00	9.954448e-04	
354	4.400000e+00	9.963154e-04	
355	4.450000e+00	9.972102e-04	
356	4.500000e+00	9.981331e-04	
357	4.550000e+00	9.990884e-04	
358	4.600000e+00	1.000081e-03	
359	4.650000e+00	1.001115e-03	
360	4.700000e+00	1.002196e-03	
361	4.750000e+00	1.003331e-03	
362	4.800000e+00	1.004524e-03	
363	4.850000e+00	1.005782e-03	
364	4.900000e+00	1.007111e-03	
365	4.950000e+00	1.008520e-03	
366	5.000000e+00	1.010014e-03	
367	5.050000e+00	1.011602e-03	
368	5.100000e+00	1.013292e-03	
369	5.150000e+00	1.015093e-03	
370	5.200000e+00	1.017013e-03	
371	5.250000e+00	1.019061e-03	
372	5.300000e+00	1.021248e-03	
373	5.350000e+00	1.023582e-03	
374	5.400000e+00	1.026075e-03	
375	5.450000e+00	1.028737e-03	
376	5.500000e+00	1.031579e-03	
377	5.550000e+00	1.034613e-03	
378	5.600000e+00	1.037849e-03	
379	5.650000e+00	1.041301e-03	
380	5.700000e+00	1.044980e-03	
381	5.750000e+00	1.048899e-03	
382	5.800000e+00	1.053071e-03	
383	5.850000e+00	1.057508e-03	
384	5.900000e+00	1.062226e-03	
385	5.950000e+00	1.067237e-03	
386	6.000000e+00	1.072554e-03	
387	6.050000e+00	1.078194e-03	
388	6.100000e+00	1.084169e-03	
389	6.150000e+00	1.090494e-03	
390	6.200000e+00	1.097185e-03	
391	6.250000e+00	1.104257e-03	
392	6.300000e+00	1.111723e-03	
393	6.350000e+00	1.119601e-03	
394	6.400000e+00	1.127905e-03	
395	6.450000e+00	1.136651e-03	
396	6.500000e+00	1.145854e-03	
397	6.550000e+00	1.155531e-03	
398	6.600000e+00	1.165697e-03	
399	0.000000e+00	2.632288e-19	
400	5.000000e-02	9.065581e-05	
401	1.000000e-01	1.778185e-04	
402	1.500000e-01	2.615652e-04	

Index   v-sweep         -i(vds)         
--------------------------------------------------------------------------------
403	2.000000e-01	3.419711e-04	
404	2.500000e-01	4.191102e-04	
405	3.000000e-01	4.930545e-04	
406	3.500000e-01	5.638744e-04	
407	4.000000e-01	6.316385e-04	
408	4.500000e-01	6.964138e-04	
409	5.000000e-01	7.582654e-04	
410	5.500000e-01	8.172568e-04	
411	6.000000e-01	8.734498e-04	
412	6.500000e-01	9.269044e-04	
413	7.000000e-01	9.776789e-04	
414	7.500000e-01	1.025830e-03	
415	8.000000e-01	1.071412e-03	
416	8.500000e-01	1.114478e-03	
417	9.000000e-01	1.155077e-03	
418	9.500000e-01	1.193256e-03	
419	1.000000e+00	1.229057e-03	
420	1.050000e+00	1.262513e-03	
421	1.100000e+00	1.293650e-03	
422	1.150000e+00	1.322473e-03	
423	1.200000e+00	1.348965e-03	
424	1.250000e+00	1.373077e-03	
425	1.300000e+00	1.394725e-03	
426	1.350000e+00	1.413824e-03	
427	1.400000e+00	1.430356e-03	
428	1.450000e+00	1.444440e-03	
429	1.500000e+00	1.456350e-03	
430	1.550000e+00	1.466438e-03	
431	1.600000e+00	1.475055e-03	
432	1.650000e+00	1.482503e-03	
433	1.700000e+00	1.489023e-03	
434	1.750000e+00	1.494799e-03	
435	1.800000e+00	1.499975e-03	
436	1.850000e+00	1.504656e-03	
437	1.900000e+00	1.508927e-03	
438	1.950000e+00	1.512853e-03	
439	2.000000e+00	1.516486e-03	
440	2.050000e+00	1.519866e-03	
441	2.100000e+00	1.523027e-03	
442	2.150000e+00	1.525997e-03	
443	2.200000e+00	1.528797e-03	
444	2.250000e+00	1.531448e-03	
445	2.300000e+00	1.533965e-03	
446	2.350000e+00	1.536362e-03	
447	2.400000e+00	1.538650e-03	
448	2.450000e+00	1.540840e-03	
449	2.500000e+00	1.542940e-03	
450	2.550000e+00	1.544958e-03	
451	2.600000e+00	1.546901e-03	
452	2.650000e+00	1.548775e-03	
453	2.700000e+00	1.550585e-03	
454	2.750000e+00	1.552335e-03	
455	2.800000e+00	1.554030e-03	
456	2.850000e+00	1.555674e-03	
457	2.900000e+00	1.557270e-03	
458	2.950000e+00	1.558821e-03	
459	3.000000e+00	1.560330e-03	
460	3.050000e+00	1.561799e-03	

Index   v-sweep         -i(vds)         
--------------------------------------------------------------------------------
461	3.100000e+00	1.563232e-03	
462	3.150000e+00	1.564629e-03	
463	3.200000e+00	1.565993e-03	
464	3.250000e+00	1.567326e-03	
465	3.300000e+00	1.568629e-03	
466	3.350000e+00	1.569905e-03	
467	3.400000e+00	1.571153e-03	
468	3.450000e+00	1.572377e-03	
469	3.500000e+00	1.573576e-03	
470	3.550000e+00	1.574753e-03	
471	3.600000e+00	1.575908e-03	
472	3.650000e+00	1.577042e-03	
473	3.700000e+00	1.578158e-03	
474	3.750000e+00	1.579255e-03	
475	3.800000e+00	1.580335e-03	
476	3.850000e+00	1.581400e-03	
477	3.900000e+00	1.582450e-03	
478	3.950000e+00	1.583486e-03	
479	4.000000e+00	1.584511e-03	
480	4.050000e+00	1.585526e-03	
481	4.100000e+00	1.586532e-03	
482	4.150000e+00	1.587531e-03	
483	4.200000e+00	1.588525e-03	
484	4.250000e+00	1.589516e-03	
485	4.300000e+00	1.590507e-03	
486	4.350000e+00	1.591501e-03	
487	4.400000e+00	1.592500e-03	
488	4.450000e+00	1.593507e-03	
489	4.500000e+00	1.594526e-03	
490	4.550000e+00	1.595561e-03	
491	4.600000e+00	1.596616e-03	
492	4.650000e+00	1.597696e-03	
493	4.700000e+00	1.598806e-03	
494	4.750000e+00	1.599951e-03	
495	4.800000e+00	1.601138e-03	
496	4.850000e+00	1.602372e-03	
497	4.900000e+00	1.603661e-03	
498	4.950000e+00	1.605011e-03	
499	5.000000e+00	1.606432e-03	
500	5.050000e+00	1.607930e-03	
501	5.100000e+00	1.609516e-03	
502	5.150000e+00	1.611199e-03	
503	5.200000e+00	1.612989e-03	
504	5.250000e+00	1.614896e-03	
505	5.300000e+00	1.616932e-03	
506	5.350000e+00	1.619109e-03	
507	5.400000e+00	1.621438e-03	
508	5.450000e+00	1.623934e-03	
509	5.500000e+00	1.626609e-03	
510	5.550000e+00	1.629478e-03	
511	5.600000e+00	1.632555e-03	
512	5.650000e+00	1.635856e-03	
513	5.700000e+00	1.639396e-03	
514	5.750000e+00	1.643192e-03	
515	5.800000e+00	1.647260e-03	
516	5.850000e+00	1.651619e-03	
517	5.900000e+00	1.656285e-03	
518	5.950000e+00	1.661278e-03	

Index   v-sweep         -i(vds)         
--------------------------------------------------------------------------------
519	6.000000e+00	1.666616e-03	
520	6.050000e+00	1.672319e-03	
521	6.100000e+00	1.678407e-03	
522	6.150000e+00	1.684899e-03	
523	6.200000e+00	1.691816e-03	
524	6.250000e+00	1.699180e-03	
525	6.300000e+00	1.707012e-03	
526	6.350000e+00	1.715333e-03	
527	6.400000e+00	1.724166e-03	
528	6.450000e+00	1.733532e-03	
529	6.500000e+00	1.743456e-03	
530	6.550000e+00	1.753959e-03	
531	6.600000e+00	1.765064e-03	
532	0.000000e+00	2.299562e-20	
533	5.000000e-02	1.029917e-04	
534	1.000000e-01	2.027411e-04	
535	1.500000e-01	2.993106e-04	
536	2.000000e-01	3.927617e-04	
537	2.500000e-01	4.831548e-04	
538	3.000000e-01	5.705492e-04	
539	3.500000e-01	6.550028e-04	
540	4.000000e-01	7.365725e-04	
541	4.500000e-01	8.153140e-04	
542	5.000000e-01	8.912818e-04	
543	5.500000e-01	9.645291e-04	
544	6.000000e-01	1.035108e-03	
545	6.500000e-01	1.103069e-03	
546	7.000000e-01	1.168462e-03	
547	7.500000e-01	1.231335e-03	
548	8.000000e-01	1.291735e-03	
549	8.500000e-01	1.349710e-03	
550	9.000000e-01	1.405303e-03	
551	9.500000e-01	1.458558e-03	
552	1.000000e+00	1.509519e-03	
553	1.050000e+00	1.558226e-03	
554	1.100000e+00	1.604720e-03	
555	1.150000e+00	1.649036e-03	
556	1.200000e+00	1.691212e-03	
557	1.250000e+00	1.731278e-03	
558	1.300000e+00	1.769262e-03	
559	1.350000e+00	1.805182e-03	
560	1.400000e+00	1.839048e-03	
561	1.450000e+00	1.870852e-03	
562	1.500000e+00	1.900565e-03	
563	1.550000e+00	1.928124e-03	
564	1.600000e+00	1.953430e-03	
565	1.650000e+00	1.976363e-03	
566	1.700000e+00	1.996814e-03	
567	1.750000e+00	2.014759e-03	
568	1.800000e+00	2.030311e-03	
569	1.850000e+00	2.043707e-03	
570	1.900000e+00	2.055258e-03	
571	1.950000e+00	2.065280e-03	
572	2.000000e+00	2.074052e-03	
573	2.050000e+00	2.081807e-03	
574	2.100000e+00	2.088731e-03	
575	2.150000e+00	2.094970e-03	
576	2.200000e+00	2.100639e-03	

Index   v-sweep         -i(vds)         
--------------------------------------------------------------------------------
577	2.250000e+00	2.105829e-03	
578	2.300000e+00	2.110611e-03	
579	2.350000e+00	2.115044e-03	
580	2.400000e+00	2.119175e-03	
581	2.450000e+00	2.123042e-03	
582	2.500000e+00	2.126678e-03	
583	2.550000e+00	2.130108e-03	
584	2.600000e+00	2.133356e-03	
585	2.650000e+00	2.136439e-03	
586	2.700000e+00	2.139376e-03	
587	2.750000e+00	2.142179e-03	
588	2.800000e+00	2.144860e-03	
589	2.850000e+00	2.147431e-03	
590	2.900000e+00	2.149901e-03	
591	2.950000e+00	2.152278e-03	
592	3.000000e+00	2.154568e-03	
593	3.050000e+00	2.156779e-03	
594	3.100000e+00	2.158916e-03	
595	3.150000e+00	2.160985e-03	
596	3.200000e+00	2.162990e-03	
597	3.250000e+00	2.164935e-03	
598	3.300000e+00	2.166824e-03	
599	3.350000e+00	2.168661e-03	
600	3.400000e+00	2.170448e-03	
601	3.450000e+00	2.172189e-03	
602	3.500000e+00	2.173886e-03	
603	3.550000e+00	2.175541e-03	
604	3.600000e+00	2.177158e-03	
605	3.650000e+00	2.178737e-03	
606	3.700000e+00	2.180281e-03	
607	3.750000e+00	2.181792e-03	
608	3.800000e+00	2.183271e-03	
609	3.850000e+00	2.184720e-03	
610	3.900000e+00	2.186141e-03	
611	3.950000e+00	2.187535e-03	
612	4.000000e+00	2.188903e-03	
613	4.050000e+00	2.190247e-03	
614	4.100000e+00	2.191569e-03	
615	4.150000e+00	2.192870e-03	
616	4.200000e+00	2.194151e-03	
617	4.250000e+00	2.195415e-03	
618	4.300000e+00	2.196663e-03	
619	4.350000e+00	2.197896e-03	
620	4.400000e+00	2.199118e-03	
621	4.450000e+00	2.200330e-03	
622	4.500000e+00	2.201535e-03	
623	4.550000e+00	2.202736e-03	
624	4.600000e+00	2.203935e-03	
625	4.650000e+00	2.205136e-03	
626	4.700000e+00	2.206343e-03	
627	4.750000e+00	2.207560e-03	
628	4.800000e+00	2.208792e-03	
629	4.850000e+00	2.210042e-03	
630	4.900000e+00	2.211318e-03	
631	4.950000e+00	2.212625e-03	
632	5.000000e+00	2.213969e-03	
633	5.050000e+00	2.215358e-03	
634	5.100000e+00	2.216800e-03	

Index   v-sweep         -i(vds)         
--------------------------------------------------------------------------------
635	5.150000e+00	2.218302e-03	
636	5.200000e+00	2.219874e-03	
637	5.250000e+00	2.221525e-03	
638	5.300000e+00	2.223266e-03	
639	5.350000e+00	2.225108e-03	
640	5.400000e+00	2.227063e-03	
641	5.450000e+00	2.229143e-03	
642	5.500000e+00	2.231362e-03	
643	5.550000e+00	2.233734e-03	
644	5.600000e+00	2.236273e-03	
645	5.650000e+00	2.238996e-03	
646	5.700000e+00	2.241919e-03	
647	5.750000e+00	2.245059e-03	
648	5.800000e+00	2.248435e-03	
649	5.850000e+00	2.252064e-03	
650	5.900000e+00	2.255967e-03	
651	5.950000e+00	2.260165e-03	
652	6.000000e+00	2.264677e-03	
653	6.050000e+00	2.269526e-03	
654	6.100000e+00	2.274736e-03	
655	6.150000e+00	2.280328e-03	
656	6.200000e+00	2.286326e-03	
657	6.250000e+00	2.292757e-03	
658	6.300000e+00	2.299644e-03	
659	6.350000e+00	2.307014e-03	
660	6.400000e+00	2.314894e-03	
661	6.450000e+00	2.323309e-03	
662	6.500000e+00	2.332289e-03	
663	6.550000e+00	2.341861e-03	
664	6.600000e+00	2.352053e-03	
665	0.000000e+00	-1.44335e-19	
666	5.000000e-02	1.109259e-04	
667	1.000000e-01	2.189057e-04	
668	1.500000e-01	3.239892e-04	
669	2.000000e-01	4.262255e-04	
670	2.500000e-01	5.256629e-04	
671	3.000000e-01	6.223491e-04	
672	3.500000e-01	7.163306e-04	
673	4.000000e-01	8.076536e-04	
674	4.500000e-01	8.963633e-04	
675	5.000000e-01	9.825038e-04	
676	5.500000e-01	1.066119e-03	
677	6.000000e-01	1.147251e-03	
678	6.500000e-01	1.225942e-03	
679	7.000000e-01	1.302233e-03	
680	7.500000e-01	1.376164e-03	
681	8.000000e-01	1.447774e-03	
682	8.500000e-01	1.517102e-03	
683	9.000000e-01	1.584185e-03	
684	9.500000e-01	1.649061e-03	
685	1.000000e+00	1.711766e-03	
686	1.050000e+00	1.772335e-03	
687	1.100000e+00	1.830802e-03	
688	1.150000e+00	1.887203e-03	
689	1.200000e+00	1.941570e-03	
690	1.250000e+00	1.993935e-03	
691	1.300000e+00	2.044329e-03	
692	1.350000e+00	2.092784e-03	

Index   v-sweep         -i(vds)         
--------------------------------------------------------------------------------
693	1.400000e+00	2.139329e-03	
694	1.450000e+00	2.183989e-03	
695	1.500000e+00	2.226792e-03	
696	1.550000e+00	2.267758e-03	
697	1.600000e+00	2.306905e-03	
698	1.650000e+00	2.344246e-03	
699	1.700000e+00	2.379782e-03	
700	1.750000e+00	2.413505e-03	
701	1.800000e+00	2.445384e-03	
702	1.850000e+00	2.475367e-03	
703	1.900000e+00	2.503366e-03	
704	1.950000e+00	2.529266e-03	
705	2.000000e+00	2.552934e-03	
706	2.050000e+00	2.574265e-03	
707	2.100000e+00	2.593231e-03	
708	2.150000e+00	2.609922e-03	
709	2.200000e+00	2.624534e-03	
710	2.250000e+00	2.637329e-03	
711	2.300000e+00	2.648580e-03	
712	2.350000e+00	2.658539e-03	
713	2.400000e+00	2.667425e-03	
714	2.450000e+00	2.675417e-03	
715	2.500000e+00	2.682660e-03	
716	2.550000e+00	2.689272e-03	
717	2.600000e+00	2.695348e-03	
718	2.650000e+00	2.700964e-03	
719	2.700000e+00	2.706182e-03	
720	2.750000e+00	2.711055e-03	
721	2.800000e+00	2.715623e-03	
722	2.850000e+00	2.719923e-03	
723	2.900000e+00	2.723985e-03	
724	2.950000e+00	2.727833e-03	
725	3.000000e+00	2.731490e-03	
726	3.050000e+00	2.734973e-03	
727	3.100000e+00	2.738300e-03	
728	3.150000e+00	2.741483e-03	
729	3.200000e+00	2.744536e-03	
730	3.250000e+00	2.747469e-03	
731	3.300000e+00	2.750291e-03	
732	3.350000e+00	2.753011e-03	
733	3.400000e+00	2.755637e-03	
734	3.450000e+00	2.758174e-03	
735	3.500000e+00	2.760630e-03	
736	3.550000e+00	2.763009e-03	
737	3.600000e+00	2.765317e-03	
738	3.650000e+00	2.767559e-03	
739	3.700000e+00	2.769737e-03	
740	3.750000e+00	2.771856e-03	
741	3.800000e+00	2.773919e-03	
742	3.850000e+00	2.775930e-03	
743	3.900000e+00	2.777891e-03	
744	3.950000e+00	2.779805e-03	
745	4.000000e+00	2.781675e-03	
746	4.050000e+00	2.783502e-03	
747	4.100000e+00	2.785289e-03	
748	4.150000e+00	2.787038e-03	
749	4.200000e+00	2.788751e-03	
750	4.250000e+00	2.790430e-03	

Index   v-sweep         -i(vds)         
--------------------------------------------------------------------------------
751	4.300000e+00	2.792076e-03	
752	4.350000e+00	2.793692e-03	
753	4.400000e+00	2.795279e-03	
754	4.450000e+00	2.796839e-03	
755	4.500000e+00	2.798373e-03	
756	4.550000e+00	2.799885e-03	
757	4.600000e+00	2.801376e-03	
758	4.650000e+00	2.802848e-03	
759	4.700000e+00	2.804304e-03	
760	4.750000e+00	2.805746e-03	
761	4.800000e+00	2.807178e-03	
762	4.850000e+00	2.808602e-03	
763	4.900000e+00	2.810022e-03	
764	4.950000e+00	2.811442e-03	
765	5.000000e+00	2.812866e-03	
766	5.050000e+00	2.814299e-03	
767	5.100000e+00	2.815747e-03	
768	5.150000e+00	2.817215e-03	
769	5.200000e+00	2.818710e-03	
770	5.250000e+00	2.820239e-03	
771	5.300000e+00	2.821809e-03	
772	5.350000e+00	2.823430e-03	
773	5.400000e+00	2.825109e-03	
774	5.450000e+00	2.826858e-03	
775	5.500000e+00	2.828687e-03	
776	5.550000e+00	2.830607e-03	
777	5.600000e+00	2.832631e-03	
778	5.650000e+00	2.834772e-03	
779	5.700000e+00	2.837046e-03	
780	5.750000e+00	2.839466e-03	
781	5.800000e+00	2.842048e-03	
782	5.850000e+00	2.844811e-03	
783	5.900000e+00	2.847773e-03	
784	5.950000e+00	2.850951e-03	
785	6.000000e+00	2.854367e-03	
786	6.050000e+00	2.858041e-03	
787	6.100000e+00	2.861995e-03	
788	6.150000e+00	2.866253e-03	
789	6.200000e+00	2.870839e-03	
790	6.250000e+00	2.875777e-03	
791	6.300000e+00	2.881093e-03	
792	6.350000e+00	2.886814e-03	
793	6.400000e+00	2.892968e-03	
794	6.450000e+00	2.899584e-03	
795	6.500000e+00	2.906690e-03	
796	6.550000e+00	2.914318e-03	
797	6.600000e+00	2.922499e-03	
Note: No ".plot", ".print", or ".fourier" lines; no simulations run
