
Note: Compatibility modes selected: hs

Warning: m=xx on .subckt line will override multiplier m hierarchy!


Circuit: ***************************

Doing analysis at TEMP = 25.000000 and TNOM = 25.000000


No. of Data Rows : 798
                          ***************************
                          DC transfer characteristic  Mon Jan  9 13:58:36  2023
--------------------------------------------------------------------------------
Index   v-sweep         -i(vds)         
--------------------------------------------------------------------------------
0	0.000000e+00	-2.22902e-32	
1	5.000000e-02	1.570107e-06	
2	1.000000e-01	2.740280e-06	
3	1.500000e-01	3.528696e-06	
4	2.000000e-01	3.980614e-06	
5	2.500000e-01	4.201213e-06	
6	3.000000e-01	4.315280e-06	
7	3.500000e-01	4.388883e-06	
8	4.000000e-01	4.444493e-06	
9	4.500000e-01	4.490106e-06	
10	5.000000e-01	4.529257e-06	
11	5.500000e-01	4.563826e-06	
12	6.000000e-01	4.594947e-06	
13	6.500000e-01	4.623366e-06	
14	7.000000e-01	4.649604e-06	
15	7.500000e-01	4.674043e-06	
16	8.000000e-01	4.696968e-06	
17	8.500000e-01	4.718603e-06	
18	9.000000e-01	4.739125e-06	
19	9.500000e-01	4.758675e-06	
20	1.000000e+00	4.777370e-06	
21	1.050000e+00	4.795307e-06	
22	1.100000e+00	4.812566e-06	
23	1.150000e+00	4.829218e-06	
24	1.200000e+00	4.845319e-06	
25	1.250000e+00	4.860922e-06	
26	1.300000e+00	4.876069e-06	
27	1.350000e+00	4.890800e-06	
28	1.400000e+00	4.905148e-06	
29	1.450000e+00	4.919144e-06	
30	1.500000e+00	4.932812e-06	
31	1.550000e+00	4.946178e-06	
32	1.600000e+00	4.959263e-06	
33	1.650000e+00	4.972084e-06	
34	1.700000e+00	4.984661e-06	
35	1.750000e+00	4.997007e-06	
36	1.800000e+00	5.009138e-06	
37	1.850000e+00	5.021066e-06	
38	1.900000e+00	5.032804e-06	
39	1.950000e+00	5.044360e-06	
40	2.000000e+00	5.055747e-06	
41	2.050000e+00	5.066973e-06	
42	2.100000e+00	5.078045e-06	
43	2.150000e+00	5.088973e-06	
44	2.200000e+00	5.099764e-06	
45	2.250000e+00	5.110424e-06	
46	2.300000e+00	5.120959e-06	
47	2.350000e+00	5.131376e-06	
48	2.400000e+00	5.141681e-06	
49	2.450000e+00	5.151879e-06	
50	2.500000e+00	5.161975e-06	
51	2.550000e+00	5.171974e-06	
52	2.600000e+00	5.181883e-06	
53	2.650000e+00	5.191705e-06	
54	2.700000e+00	5.201445e-06	

Index   v-sweep         -i(vds)         
--------------------------------------------------------------------------------
55	2.750000e+00	5.211110e-06	
56	2.800000e+00	5.220705e-06	
57	2.850000e+00	5.230236e-06	
58	2.900000e+00	5.239707e-06	
59	2.950000e+00	5.249128e-06	
60	3.000000e+00	5.258503e-06	
61	3.050000e+00	5.267841e-06	
62	3.100000e+00	5.277150e-06	
63	3.150000e+00	5.286440e-06	
64	3.200000e+00	5.295720e-06	
65	3.250000e+00	5.305001e-06	
66	3.300000e+00	5.314295e-06	
67	3.350000e+00	5.323614e-06	
68	3.400000e+00	5.332974e-06	
69	3.450000e+00	5.342389e-06	
70	3.500000e+00	5.351877e-06	
71	3.550000e+00	5.361456e-06	
72	3.600000e+00	5.371145e-06	
73	3.650000e+00	5.380966e-06	
74	3.700000e+00	5.390942e-06	
75	3.750000e+00	5.401098e-06	
76	3.800000e+00	5.411461e-06	
77	3.850000e+00	5.422058e-06	
78	3.900000e+00	5.432922e-06	
79	3.950000e+00	5.444083e-06	
80	4.000000e+00	5.455577e-06	
81	4.050000e+00	5.467440e-06	
82	4.100000e+00	5.479711e-06	
83	4.150000e+00	5.492431e-06	
84	4.200000e+00	5.505642e-06	
85	4.250000e+00	5.519391e-06	
86	4.300000e+00	5.533723e-06	
87	4.350000e+00	5.548690e-06	
88	4.400000e+00	5.564342e-06	
89	4.450000e+00	5.580734e-06	
90	4.500000e+00	5.597923e-06	
91	4.550000e+00	5.615966e-06	
92	4.600000e+00	5.634925e-06	
93	4.650000e+00	5.654863e-06	
94	4.700000e+00	5.675845e-06	
95	4.750000e+00	5.697939e-06	
96	4.800000e+00	5.721213e-06	
97	4.850000e+00	5.745740e-06	
98	4.900000e+00	5.771593e-06	
99	4.950000e+00	5.798848e-06	
100	5.000000e+00	5.827582e-06	
101	5.050000e+00	5.857877e-06	
102	5.100000e+00	5.889812e-06	
103	5.150000e+00	5.923472e-06	
104	5.200000e+00	5.958942e-06	
105	5.250000e+00	5.996310e-06	
106	5.300000e+00	6.035663e-06	
107	5.350000e+00	6.077093e-06	
108	5.400000e+00	6.120691e-06	
109	5.450000e+00	6.166551e-06	
110	5.500000e+00	6.214770e-06	
111	5.550000e+00	6.265442e-06	
112	5.600000e+00	6.318666e-06	

Index   v-sweep         -i(vds)         
--------------------------------------------------------------------------------
113	5.650000e+00	6.374542e-06	
114	5.700000e+00	6.433170e-06	
115	5.750000e+00	6.494651e-06	
116	5.800000e+00	6.559090e-06	
117	5.850000e+00	6.626589e-06	
118	5.900000e+00	6.697253e-06	
119	5.950000e+00	6.771190e-06	
120	6.000000e+00	6.848505e-06	
121	6.050000e+00	6.929307e-06	
122	6.100000e+00	7.013704e-06	
123	6.150000e+00	7.101805e-06	
124	6.200000e+00	7.193720e-06	
125	6.250000e+00	7.289560e-06	
126	6.300000e+00	7.389435e-06	
127	6.350000e+00	7.493458e-06	
128	6.400000e+00	7.601740e-06	
129	6.450000e+00	7.714394e-06	
130	6.500000e+00	7.831533e-06	
131	6.550000e+00	7.953268e-06	
132	6.600000e+00	8.079715e-06	
133	0.000000e+00	-6.49743e-31	
134	5.000000e-02	6.588444e-06	
135	1.000000e-01	1.272965e-05	
136	1.500000e-01	1.843233e-05	
137	2.000000e-01	2.370500e-05	
138	2.500000e-01	2.855604e-05	
139	3.000000e-01	3.299366e-05	
140	3.500000e-01	3.702596e-05	
141	4.000000e-01	4.066094e-05	
142	4.500000e-01	4.390657e-05	
143	5.000000e-01	4.677093e-05	
144	5.500000e-01	4.926242e-05	
145	6.000000e-01	5.139043e-05	
146	6.500000e-01	5.316677e-05	
147	7.000000e-01	5.460900e-05	
148	7.500000e-01	5.574662e-05	
149	8.000000e-01	5.662617e-05	
150	8.500000e-01	5.730616e-05	
151	9.000000e-01	5.784226e-05	
152	9.500000e-01	5.827714e-05	
153	1.000000e+00	5.864004e-05	
154	1.050000e+00	5.895035e-05	
155	1.100000e+00	5.922104e-05	
156	1.150000e+00	5.946102e-05	
157	1.200000e+00	5.967660e-05	
158	1.250000e+00	5.987236e-05	
159	1.300000e+00	6.005174e-05	
160	1.350000e+00	6.021736e-05	
161	1.400000e+00	6.037127e-05	
162	1.450000e+00	6.051510e-05	
163	1.500000e+00	6.065017e-05	
164	1.550000e+00	6.077754e-05	
165	1.600000e+00	6.089811e-05	
166	1.650000e+00	6.101262e-05	
167	1.700000e+00	6.112171e-05	
168	1.750000e+00	6.122590e-05	
169	1.800000e+00	6.132567e-05	
170	1.850000e+00	6.142140e-05	

Index   v-sweep         -i(vds)         
--------------------------------------------------------------------------------
171	1.900000e+00	6.151345e-05	
172	1.950000e+00	6.160212e-05	
173	2.000000e+00	6.168768e-05	
174	2.050000e+00	6.177037e-05	
175	2.100000e+00	6.185041e-05	
176	2.150000e+00	6.192797e-05	
177	2.200000e+00	6.200322e-05	
178	2.250000e+00	6.207634e-05	
179	2.300000e+00	6.214744e-05	
180	2.350000e+00	6.221665e-05	
181	2.400000e+00	6.228410e-05	
182	2.450000e+00	6.234988e-05	
183	2.500000e+00	6.241409e-05	
184	2.550000e+00	6.247682e-05	
185	2.600000e+00	6.253814e-05	
186	2.650000e+00	6.259814e-05	
187	2.700000e+00	6.265687e-05	
188	2.750000e+00	6.271441e-05	
189	2.800000e+00	6.277082e-05	
190	2.850000e+00	6.282615e-05	
191	2.900000e+00	6.288045e-05	
192	2.950000e+00	6.293378e-05	
193	3.000000e+00	6.298618e-05	
194	3.050000e+00	6.303772e-05	
195	3.100000e+00	6.308842e-05	
196	3.150000e+00	6.313835e-05	
197	3.200000e+00	6.318754e-05	
198	3.250000e+00	6.323606e-05	
199	3.300000e+00	6.328396e-05	
200	3.350000e+00	6.333128e-05	
201	3.400000e+00	6.337809e-05	
202	3.450000e+00	6.342446e-05	
203	3.500000e+00	6.347045e-05	
204	3.550000e+00	6.351615e-05	
205	3.600000e+00	6.356163e-05	
206	3.650000e+00	6.360699e-05	
207	3.700000e+00	6.365232e-05	
208	3.750000e+00	6.369776e-05	
209	3.800000e+00	6.374340e-05	
210	3.850000e+00	6.378940e-05	
211	3.900000e+00	6.383591e-05	
212	3.950000e+00	6.388307e-05	
213	4.000000e+00	6.393108e-05	
214	4.050000e+00	6.398013e-05	
215	4.100000e+00	6.403044e-05	
216	4.150000e+00	6.408222e-05	
217	4.200000e+00	6.413572e-05	
218	4.250000e+00	6.419123e-05	
219	4.300000e+00	6.424901e-05	
220	4.350000e+00	6.430939e-05	
221	4.400000e+00	6.437269e-05	
222	4.450000e+00	6.443926e-05	
223	4.500000e+00	6.450948e-05	
224	4.550000e+00	6.458374e-05	
225	4.600000e+00	6.466246e-05	
226	4.650000e+00	6.474609e-05	
227	4.700000e+00	6.483509e-05	
228	4.750000e+00	6.492995e-05	

Index   v-sweep         -i(vds)         
--------------------------------------------------------------------------------
229	4.800000e+00	6.503120e-05	
230	4.850000e+00	6.513936e-05	
231	4.900000e+00	6.525500e-05	
232	4.950000e+00	6.537871e-05	
233	5.000000e+00	6.551111e-05	
234	5.050000e+00	6.565282e-05	
235	5.100000e+00	6.580450e-05	
236	5.150000e+00	6.596685e-05	
237	5.200000e+00	6.614055e-05	
238	5.250000e+00	6.632635e-05	
239	5.300000e+00	6.652500e-05	
240	5.350000e+00	6.673726e-05	
241	5.400000e+00	6.696392e-05	
242	5.450000e+00	6.720582e-05	
243	5.500000e+00	6.746377e-05	
244	5.550000e+00	6.773864e-05	
245	5.600000e+00	6.803130e-05	
246	5.650000e+00	6.834264e-05	
247	5.700000e+00	6.867357e-05	
248	5.750000e+00	6.902503e-05	
249	5.800000e+00	6.939795e-05	
250	5.850000e+00	6.979329e-05	
251	5.900000e+00	7.021204e-05	
252	5.950000e+00	7.065517e-05	
253	6.000000e+00	7.112370e-05	
254	6.050000e+00	7.161864e-05	
255	6.100000e+00	7.214101e-05	
256	6.150000e+00	7.269186e-05	
257	6.200000e+00	7.327223e-05	
258	6.250000e+00	7.388318e-05	
259	6.300000e+00	7.452578e-05	
260	6.350000e+00	7.520111e-05	
261	6.400000e+00	7.591025e-05	
262	6.450000e+00	7.665429e-05	
263	6.500000e+00	7.743432e-05	
264	6.550000e+00	7.825145e-05	
265	6.600000e+00	7.910677e-05	
266	0.000000e+00	-6.86130e-32	
267	5.000000e-02	1.035237e-05	
268	1.000000e-01	2.025556e-05	
269	1.500000e-01	2.971791e-05	
270	2.000000e-01	3.874759e-05	
271	2.500000e-01	4.735258e-05	
272	3.000000e-01	5.554072e-05	
273	3.500000e-01	6.331967e-05	
274	4.000000e-01	7.069694e-05	
275	4.500000e-01	7.767986e-05	
276	5.000000e-01	8.427562e-05	
277	5.500000e-01	9.049124e-05	
278	6.000000e-01	9.633356e-05	
279	6.500000e-01	1.018093e-04	
280	7.000000e-01	1.069249e-04	
281	7.500000e-01	1.116867e-04	
282	8.000000e-01	1.161008e-04	
283	8.500000e-01	1.201730e-04	
284	9.000000e-01	1.239085e-04	
285	9.500000e-01	1.273123e-04	
286	1.000000e+00	1.303882e-04	

Index   v-sweep         -i(vds)         
--------------------------------------------------------------------------------
287	1.050000e+00	1.331392e-04	
288	1.100000e+00	1.355673e-04	
289	1.150000e+00	1.376750e-04	
290	1.200000e+00	1.394695e-04	
291	1.250000e+00	1.409693e-04	
292	1.300000e+00	1.422084e-04	
293	1.350000e+00	1.432311e-04	
294	1.400000e+00	1.440828e-04	
295	1.450000e+00	1.448021e-04	
296	1.500000e+00	1.454195e-04	
297	1.550000e+00	1.459574e-04	
298	1.600000e+00	1.464326e-04	
299	1.650000e+00	1.468575e-04	
300	1.700000e+00	1.472413e-04	
301	1.750000e+00	1.475911e-04	
302	1.800000e+00	1.479123e-04	
303	1.850000e+00	1.482092e-04	
304	1.900000e+00	1.484852e-04	
305	1.950000e+00	1.487432e-04	
306	2.000000e+00	1.489853e-04	
307	2.050000e+00	1.492135e-04	
308	2.100000e+00	1.494293e-04	
309	2.150000e+00	1.496340e-04	
310	2.200000e+00	1.498287e-04	
311	2.250000e+00	1.500145e-04	
312	2.300000e+00	1.501921e-04	
313	2.350000e+00	1.503622e-04	
314	2.400000e+00	1.505256e-04	
315	2.450000e+00	1.506827e-04	
316	2.500000e+00	1.508340e-04	
317	2.550000e+00	1.509800e-04	
318	2.600000e+00	1.511210e-04	
319	2.650000e+00	1.512575e-04	
320	2.700000e+00	1.513897e-04	
321	2.750000e+00	1.515179e-04	
322	2.800000e+00	1.516423e-04	
323	2.850000e+00	1.517632e-04	
324	2.900000e+00	1.518809e-04	
325	2.950000e+00	1.519954e-04	
326	3.000000e+00	1.521070e-04	
327	3.050000e+00	1.522158e-04	
328	3.100000e+00	1.523220e-04	
329	3.150000e+00	1.524257e-04	
330	3.200000e+00	1.525271e-04	
331	3.250000e+00	1.526262e-04	
332	3.300000e+00	1.527233e-04	
333	3.350000e+00	1.528183e-04	
334	3.400000e+00	1.529114e-04	
335	3.450000e+00	1.530027e-04	
336	3.500000e+00	1.530923e-04	
337	3.550000e+00	1.531804e-04	
338	3.600000e+00	1.532669e-04	
339	3.650000e+00	1.533520e-04	
340	3.700000e+00	1.534358e-04	
341	3.750000e+00	1.535184e-04	
342	3.800000e+00	1.536000e-04	
343	3.850000e+00	1.536807e-04	
344	3.900000e+00	1.537606e-04	

Index   v-sweep         -i(vds)         
--------------------------------------------------------------------------------
345	3.950000e+00	1.538398e-04	
346	4.000000e+00	1.539186e-04	
347	4.050000e+00	1.539971e-04	
348	4.100000e+00	1.540756e-04	
349	4.150000e+00	1.541542e-04	
350	4.200000e+00	1.542333e-04	
351	4.250000e+00	1.543132e-04	
352	4.300000e+00	1.543940e-04	
353	4.350000e+00	1.544763e-04	
354	4.400000e+00	1.545603e-04	
355	4.450000e+00	1.546465e-04	
356	4.500000e+00	1.547353e-04	
357	4.550000e+00	1.548273e-04	
358	4.600000e+00	1.549230e-04	
359	4.650000e+00	1.550229e-04	
360	4.700000e+00	1.551278e-04	
361	4.750000e+00	1.552382e-04	
362	4.800000e+00	1.553549e-04	
363	4.850000e+00	1.554786e-04	
364	4.900000e+00	1.556103e-04	
365	4.950000e+00	1.557508e-04	
366	5.000000e+00	1.559010e-04	
367	5.050000e+00	1.560620e-04	
368	5.100000e+00	1.562347e-04	
369	5.150000e+00	1.564203e-04	
370	5.200000e+00	1.566199e-04	
371	5.250000e+00	1.568348e-04	
372	5.300000e+00	1.570662e-04	
373	5.350000e+00	1.573155e-04	
374	5.400000e+00	1.575840e-04	
375	5.450000e+00	1.578733e-04	
376	5.500000e+00	1.581847e-04	
377	5.550000e+00	1.585199e-04	
378	5.600000e+00	1.588805e-04	
379	5.650000e+00	1.592681e-04	
380	5.700000e+00	1.596845e-04	
381	5.750000e+00	1.601314e-04	
382	5.800000e+00	1.606106e-04	
383	5.850000e+00	1.611241e-04	
384	5.900000e+00	1.616737e-04	
385	5.950000e+00	1.622614e-04	
386	6.000000e+00	1.628892e-04	
387	6.050000e+00	1.635591e-04	
388	6.100000e+00	1.642733e-04	
389	6.150000e+00	1.650339e-04	
390	6.200000e+00	1.658430e-04	
391	6.250000e+00	1.667029e-04	
392	6.300000e+00	1.676158e-04	
393	6.350000e+00	1.685839e-04	
394	6.400000e+00	1.696096e-04	
395	6.450000e+00	1.706952e-04	
396	6.500000e+00	1.718430e-04	
397	6.550000e+00	1.730555e-04	
398	6.600000e+00	1.743350e-04	
399	0.000000e+00	3.209837e-30	
400	5.000000e-02	1.313088e-05	
401	1.000000e-01	2.582958e-05	
402	1.500000e-01	3.810341e-05	

Index   v-sweep         -i(vds)         
--------------------------------------------------------------------------------
403	2.000000e-01	4.995953e-05	
404	2.500000e-01	6.140497e-05	
405	3.000000e-01	7.244666e-05	
406	3.500000e-01	8.309137e-05	
407	4.000000e-01	9.334575e-05	
408	4.500000e-01	1.032163e-04	
409	5.000000e-01	1.127095e-04	
410	5.500000e-01	1.218315e-04	
411	6.000000e-01	1.305885e-04	
412	6.500000e-01	1.389865e-04	
413	7.000000e-01	1.470314e-04	
414	7.500000e-01	1.547290e-04	
415	8.000000e-01	1.620849e-04	
416	8.500000e-01	1.691047e-04	
417	9.000000e-01	1.757937e-04	
418	9.500000e-01	1.821572e-04	
419	1.000000e+00	1.882003e-04	
420	1.050000e+00	1.939278e-04	
421	1.100000e+00	1.993446e-04	
422	1.150000e+00	2.044551e-04	
423	1.200000e+00	2.092633e-04	
424	1.250000e+00	2.137727e-04	
425	1.300000e+00	2.179862e-04	
426	1.350000e+00	2.219056e-04	
427	1.400000e+00	2.255309e-04	
428	1.450000e+00	2.288605e-04	
429	1.500000e+00	2.318898e-04	
430	1.550000e+00	2.346124e-04	
431	1.600000e+00	2.370225e-04	
432	1.650000e+00	2.391208e-04	
433	1.700000e+00	2.409210e-04	
434	1.750000e+00	2.424516e-04	
435	1.800000e+00	2.437512e-04	
436	1.850000e+00	2.448605e-04	
437	1.900000e+00	2.458164e-04	
438	1.950000e+00	2.466493e-04	
439	2.000000e+00	2.473834e-04	
440	2.050000e+00	2.480373e-04	
441	2.100000e+00	2.486255e-04	
442	2.150000e+00	2.491592e-04	
443	2.200000e+00	2.496472e-04	
444	2.250000e+00	2.500963e-04	
445	2.300000e+00	2.505122e-04	
446	2.350000e+00	2.508993e-04	
447	2.400000e+00	2.512613e-04	
448	2.450000e+00	2.516012e-04	
449	2.500000e+00	2.519216e-04	
450	2.550000e+00	2.522247e-04	
451	2.600000e+00	2.525121e-04	
452	2.650000e+00	2.527855e-04	
453	2.700000e+00	2.530461e-04	
454	2.750000e+00	2.532952e-04	
455	2.800000e+00	2.535338e-04	
456	2.850000e+00	2.537627e-04	
457	2.900000e+00	2.539826e-04	
458	2.950000e+00	2.541944e-04	
459	3.000000e+00	2.543986e-04	
460	3.050000e+00	2.545958e-04	

Index   v-sweep         -i(vds)         
--------------------------------------------------------------------------------
461	3.100000e+00	2.547864e-04	
462	3.150000e+00	2.549709e-04	
463	3.200000e+00	2.551497e-04	
464	3.250000e+00	2.553231e-04	
465	3.300000e+00	2.554915e-04	
466	3.350000e+00	2.556552e-04	
467	3.400000e+00	2.558145e-04	
468	3.450000e+00	2.559696e-04	
469	3.500000e+00	2.561207e-04	
470	3.550000e+00	2.562680e-04	
471	3.600000e+00	2.564118e-04	
472	3.650000e+00	2.565522e-04	
473	3.700000e+00	2.566895e-04	
474	3.750000e+00	2.568237e-04	
475	3.800000e+00	2.569551e-04	
476	3.850000e+00	2.570838e-04	
477	3.900000e+00	2.572099e-04	
478	3.950000e+00	2.573336e-04	
479	4.000000e+00	2.574550e-04	
480	4.050000e+00	2.575743e-04	
481	4.100000e+00	2.576918e-04	
482	4.150000e+00	2.578074e-04	
483	4.200000e+00	2.579215e-04	
484	4.250000e+00	2.580342e-04	
485	4.300000e+00	2.581457e-04	
486	4.350000e+00	2.582563e-04	
487	4.400000e+00	2.583663e-04	
488	4.450000e+00	2.584759e-04	
489	4.500000e+00	2.585855e-04	
490	4.550000e+00	2.586954e-04	
491	4.600000e+00	2.588060e-04	
492	4.650000e+00	2.589178e-04	
493	4.700000e+00	2.590314e-04	
494	4.750000e+00	2.591471e-04	
495	4.800000e+00	2.592657e-04	
496	4.850000e+00	2.593877e-04	
497	4.900000e+00	2.595140e-04	
498	4.950000e+00	2.596453e-04	
499	5.000000e+00	2.597825e-04	
500	5.050000e+00	2.599265e-04	
501	5.100000e+00	2.600783e-04	
502	5.150000e+00	2.602390e-04	
503	5.200000e+00	2.604097e-04	
504	5.250000e+00	2.605918e-04	
505	5.300000e+00	2.607866e-04	
506	5.350000e+00	2.609955e-04	
507	5.400000e+00	2.612199e-04	
508	5.450000e+00	2.614616e-04	
509	5.500000e+00	2.617222e-04	
510	5.550000e+00	2.620034e-04	
511	5.600000e+00	2.623073e-04	
512	5.650000e+00	2.626357e-04	
513	5.700000e+00	2.629908e-04	
514	5.750000e+00	2.633747e-04	
515	5.800000e+00	2.637896e-04	
516	5.850000e+00	2.642380e-04	
517	5.900000e+00	2.647222e-04	
518	5.950000e+00	2.652448e-04	

Index   v-sweep         -i(vds)         
--------------------------------------------------------------------------------
519	6.000000e+00	2.658085e-04	
520	6.050000e+00	2.664159e-04	
521	6.100000e+00	2.670698e-04	
522	6.150000e+00	2.677732e-04	
523	6.200000e+00	2.685290e-04	
524	6.250000e+00	2.693402e-04	
525	6.300000e+00	2.702099e-04	
526	6.350000e+00	2.711414e-04	
527	6.400000e+00	2.721380e-04	
528	6.450000e+00	2.732029e-04	
529	6.500000e+00	2.743396e-04	
530	6.550000e+00	2.755515e-04	
531	6.600000e+00	2.768422e-04	
532	0.000000e+00	6.515661e-30	
533	5.000000e-02	1.509350e-05	
534	1.000000e-01	2.978404e-05	
535	1.500000e-01	4.407772e-05	
536	2.000000e-01	5.798053e-05	
537	2.500000e-01	7.149839e-05	
538	3.000000e-01	8.463709e-05	
539	3.500000e-01	9.740235e-05	
540	4.000000e-01	1.097998e-04	
541	4.500000e-01	1.218349e-04	
542	5.000000e-01	1.335132e-04	
543	5.500000e-01	1.448399e-04	
544	6.000000e-01	1.558203e-04	
545	6.500000e-01	1.664596e-04	
546	7.000000e-01	1.767628e-04	
547	7.500000e-01	1.867348e-04	
548	8.000000e-01	1.963806e-04	
549	8.500000e-01	2.057049e-04	
550	9.000000e-01	2.147124e-04	
551	9.500000e-01	2.234077e-04	
552	1.000000e+00	2.317955e-04	
553	1.050000e+00	2.398800e-04	
554	1.100000e+00	2.476656e-04	
555	1.150000e+00	2.551567e-04	
556	1.200000e+00	2.623573e-04	
557	1.250000e+00	2.692716e-04	
558	1.300000e+00	2.759035e-04	
559	1.350000e+00	2.822568e-04	
560	1.400000e+00	2.883353e-04	
561	1.450000e+00	2.941422e-04	
562	1.500000e+00	2.996810e-04	
563	1.550000e+00	3.049544e-04	
564	1.600000e+00	3.099649e-04	
565	1.650000e+00	3.147143e-04	
566	1.700000e+00	3.192035e-04	
567	1.750000e+00	3.234319e-04	
568	1.800000e+00	3.273974e-04	
569	1.850000e+00	3.310954e-04	
570	1.900000e+00	3.345181e-04	
571	1.950000e+00	3.376553e-04	
572	2.000000e+00	3.404958e-04	
573	2.050000e+00	3.430318e-04	
574	2.100000e+00	3.452650e-04	
575	2.150000e+00	3.472103e-04	
576	2.200000e+00	3.488952e-04	

Index   v-sweep         -i(vds)         
--------------------------------------------------------------------------------
577	2.250000e+00	3.503546e-04	
578	2.300000e+00	3.516242e-04	
579	2.350000e+00	3.527368e-04	
580	2.400000e+00	3.537204e-04	
581	2.450000e+00	3.545975e-04	
582	2.500000e+00	3.553865e-04	
583	2.550000e+00	3.561017e-04	
584	2.600000e+00	3.567549e-04	
585	2.650000e+00	3.573552e-04	
586	2.700000e+00	3.579102e-04	
587	2.750000e+00	3.584259e-04	
588	2.800000e+00	3.589074e-04	
589	2.850000e+00	3.593587e-04	
590	2.900000e+00	3.597835e-04	
591	2.950000e+00	3.601845e-04	
592	3.000000e+00	3.605643e-04	
593	3.050000e+00	3.609250e-04	
594	3.100000e+00	3.612685e-04	
595	3.150000e+00	3.615962e-04	
596	3.200000e+00	3.619097e-04	
597	3.250000e+00	3.622100e-04	
598	3.300000e+00	3.624984e-04	
599	3.350000e+00	3.627756e-04	
600	3.400000e+00	3.630426e-04	
601	3.450000e+00	3.633002e-04	
602	3.500000e+00	3.635488e-04	
603	3.550000e+00	3.637893e-04	
604	3.600000e+00	3.640221e-04	
605	3.650000e+00	3.642476e-04	
606	3.700000e+00	3.644665e-04	
607	3.750000e+00	3.646790e-04	
608	3.800000e+00	3.648855e-04	
609	3.850000e+00	3.650864e-04	
610	3.900000e+00	3.652820e-04	
611	3.950000e+00	3.654726e-04	
612	4.000000e+00	3.656585e-04	
613	4.050000e+00	3.658398e-04	
614	4.100000e+00	3.660169e-04	
615	4.150000e+00	3.661900e-04	
616	4.200000e+00	3.663592e-04	
617	4.250000e+00	3.665248e-04	
618	4.300000e+00	3.666870e-04	
619	4.350000e+00	3.668460e-04	
620	4.400000e+00	3.670020e-04	
621	4.450000e+00	3.671552e-04	
622	4.500000e+00	3.673058e-04	
623	4.550000e+00	3.674540e-04	
624	4.600000e+00	3.676001e-04	
625	4.650000e+00	3.677444e-04	
626	4.700000e+00	3.678871e-04	
627	4.750000e+00	3.680286e-04	
628	4.800000e+00	3.681692e-04	
629	4.850000e+00	3.683094e-04	
630	4.900000e+00	3.684495e-04	
631	4.950000e+00	3.685900e-04	
632	5.000000e+00	3.687316e-04	
633	5.050000e+00	3.688748e-04	
634	5.100000e+00	3.690202e-04	

Index   v-sweep         -i(vds)         
--------------------------------------------------------------------------------
635	5.150000e+00	3.691687e-04	
636	5.200000e+00	3.693210e-04	
637	5.250000e+00	3.694781e-04	
638	5.300000e+00	3.696409e-04	
639	5.350000e+00	3.698105e-04	
640	5.400000e+00	3.699881e-04	
641	5.450000e+00	3.701751e-04	
642	5.500000e+00	3.703727e-04	
643	5.550000e+00	3.705825e-04	
644	5.600000e+00	3.708060e-04	
645	5.650000e+00	3.710451e-04	
646	5.700000e+00	3.713016e-04	
647	5.750000e+00	3.715774e-04	
648	5.800000e+00	3.718746e-04	
649	5.850000e+00	3.721955e-04	
650	5.900000e+00	3.725424e-04	
651	5.950000e+00	3.729178e-04	
652	6.000000e+00	3.733244e-04	
653	6.050000e+00	3.737648e-04	
654	6.100000e+00	3.742420e-04	
655	6.150000e+00	3.747589e-04	
656	6.200000e+00	3.753188e-04	
657	6.250000e+00	3.759248e-04	
658	6.300000e+00	3.765805e-04	
659	6.350000e+00	3.772892e-04	
660	6.400000e+00	3.780548e-04	
661	6.450000e+00	3.788809e-04	
662	6.500000e+00	3.797715e-04	
663	6.550000e+00	3.807305e-04	
664	6.600000e+00	3.817622e-04	
665	0.000000e+00	9.845149e-21	
666	5.000000e-02	1.640573e-05	
667	1.000000e-01	3.244367e-05	
668	1.500000e-01	4.811879e-05	
669	2.000000e-01	6.343597e-05	
670	2.500000e-01	7.840001e-05	
671	3.000000e-01	9.301569e-05	
672	3.500000e-01	1.072877e-04	
673	4.000000e-01	1.212206e-04	
674	4.500000e-01	1.348189e-04	
675	5.000000e-01	1.480872e-04	
676	5.500000e-01	1.610299e-04	
677	6.000000e-01	1.736512e-04	
678	6.500000e-01	1.859555e-04	
679	7.000000e-01	1.979470e-04	
680	7.500000e-01	2.096298e-04	
681	8.000000e-01	2.210080e-04	
682	8.500000e-01	2.320856e-04	
683	9.000000e-01	2.428666e-04	
684	9.500000e-01	2.533548e-04	
685	1.000000e+00	2.635540e-04	
686	1.050000e+00	2.734680e-04	
687	1.100000e+00	2.831005e-04	
688	1.150000e+00	2.924552e-04	
689	1.200000e+00	3.015356e-04	
690	1.250000e+00	3.103452e-04	
691	1.300000e+00	3.188875e-04	
692	1.350000e+00	3.271660e-04	

Index   v-sweep         -i(vds)         
--------------------------------------------------------------------------------
693	1.400000e+00	3.351839e-04	
694	1.450000e+00	3.429445e-04	
695	1.500000e+00	3.504512e-04	
696	1.550000e+00	3.577069e-04	
697	1.600000e+00	3.647149e-04	
698	1.650000e+00	3.714781e-04	
699	1.700000e+00	3.779993e-04	
700	1.750000e+00	3.842813e-04	
701	1.800000e+00	3.903268e-04	
702	1.850000e+00	3.961381e-04	
703	1.900000e+00	4.017174e-04	
704	1.950000e+00	4.070665e-04	
705	2.000000e+00	4.121867e-04	
706	2.050000e+00	4.170788e-04	
707	2.100000e+00	4.217424e-04	
708	2.150000e+00	4.261763e-04	
709	2.200000e+00	4.303771e-04	
710	2.250000e+00	4.343394e-04	
711	2.300000e+00	4.380551e-04	
712	2.350000e+00	4.415131e-04	
713	2.400000e+00	4.447006e-04	
714	2.450000e+00	4.476055e-04	
715	2.500000e+00	4.502207e-04	
716	2.550000e+00	4.525490e-04	
717	2.600000e+00	4.546051e-04	
718	2.650000e+00	4.564135e-04	
719	2.700000e+00	4.580044e-04	
720	2.750000e+00	4.594090e-04	
721	2.800000e+00	4.606561e-04	
722	2.850000e+00	4.617709e-04	
723	2.900000e+00	4.627747e-04	
724	2.950000e+00	4.636847e-04	
725	3.000000e+00	4.645152e-04	
726	3.050000e+00	4.652779e-04	
727	3.100000e+00	4.659821e-04	
728	3.150000e+00	4.666356e-04	
729	3.200000e+00	4.672450e-04	
730	3.250000e+00	4.678155e-04	
731	3.300000e+00	4.683516e-04	
732	3.350000e+00	4.688572e-04	
733	3.400000e+00	4.693354e-04	
734	3.450000e+00	4.697890e-04	
735	3.500000e+00	4.702203e-04	
736	3.550000e+00	4.706315e-04	
737	3.600000e+00	4.710244e-04	
738	3.650000e+00	4.714004e-04	
739	3.700000e+00	4.717610e-04	
740	3.750000e+00	4.721074e-04	
741	3.800000e+00	4.724407e-04	
742	3.850000e+00	4.727618e-04	
743	3.900000e+00	4.730717e-04	
744	3.950000e+00	4.733711e-04	
745	4.000000e+00	4.736606e-04	
746	4.050000e+00	4.739410e-04	
747	4.100000e+00	4.742128e-04	
748	4.150000e+00	4.744766e-04	
749	4.200000e+00	4.747327e-04	
750	4.250000e+00	4.749817e-04	

Index   v-sweep         -i(vds)         
--------------------------------------------------------------------------------
751	4.300000e+00	4.752240e-04	
752	4.350000e+00	4.754599e-04	
753	4.400000e+00	4.756898e-04	
754	4.450000e+00	4.759139e-04	
755	4.500000e+00	4.761327e-04	
756	4.550000e+00	4.763463e-04	
757	4.600000e+00	4.765551e-04	
758	4.650000e+00	4.767593e-04	
759	4.700000e+00	4.769591e-04	
760	4.750000e+00	4.771548e-04	
761	4.800000e+00	4.773468e-04	
762	4.850000e+00	4.775351e-04	
763	4.900000e+00	4.777201e-04	
764	4.950000e+00	4.779021e-04	
765	5.000000e+00	4.780813e-04	
766	5.050000e+00	4.782581e-04	
767	5.100000e+00	4.784329e-04	
768	5.150000e+00	4.786060e-04	
769	5.200000e+00	4.787778e-04	
770	5.250000e+00	4.789489e-04	
771	5.300000e+00	4.791197e-04	
772	5.350000e+00	4.792910e-04	
773	5.400000e+00	4.794632e-04	
774	5.450000e+00	4.796372e-04	
775	5.500000e+00	4.798138e-04	
776	5.550000e+00	4.799939e-04	
777	5.600000e+00	4.801785e-04	
778	5.650000e+00	4.803687e-04	
779	5.700000e+00	4.805657e-04	
780	5.750000e+00	4.807710e-04	
781	5.800000e+00	4.809858e-04	
782	5.850000e+00	4.812118e-04	
783	5.900000e+00	4.814508e-04	
784	5.950000e+00	4.817046e-04	
785	6.000000e+00	4.819752e-04	
786	6.050000e+00	4.822647e-04	
787	6.100000e+00	4.825755e-04	
788	6.150000e+00	4.829100e-04	
789	6.200000e+00	4.832709e-04	
790	6.250000e+00	4.836609e-04	
791	6.300000e+00	4.840830e-04	
792	6.350000e+00	4.845403e-04	
793	6.400000e+00	4.850362e-04	
794	6.450000e+00	4.855740e-04	
795	6.500000e+00	4.861574e-04	
796	6.550000e+00	4.867903e-04	
797	6.600000e+00	4.874765e-04	
Note: No ".plot", ".print", or ".fourier" lines; no simulations run
