
Note: Compatibility modes selected: hs

Warning: m=xx on .subckt line will override multiplier m hierarchy!


Circuit: ***************************

Doing analysis at TEMP = 25.000000 and TNOM = 25.000000


No. of Data Rows : 67
                          ***************************
                          DC transfer characteristic  Mon Jan  9 13:57:30  2023
--------------------------------------------------------------------------------
Index   v-sweep         rds             
--------------------------------------------------------------------------------
0	0.000000e+00	1.803250e+06	
1	-5.00000e-02	4.402862e+06	
2	-1.00000e-01	2.230049e+07	
3	-1.50000e-01	1.054328e+08	
4	-2.00000e-01	2.609630e+08	
5	-2.50000e-01	4.183657e+08	
6	-3.00000e-01	5.416068e+08	
7	-3.50000e-01	6.344723e+08	
8	-4.00000e-01	7.075663e+08	
9	-4.50000e-01	7.684564e+08	
10	-5.00000e-01	8.216277e+08	
11	-5.50000e-01	8.696712e+08	
12	-6.00000e-01	9.141142e+08	
13	-6.50000e-01	9.558897e+08	
14	-7.00000e-01	9.955900e+08	
15	-7.50000e-01	1.033606e+09	
16	-8.00000e-01	1.070206e+09	
17	-8.50000e-01	1.105579e+09	
18	-9.00000e-01	1.139865e+09	
19	-9.50000e-01	1.173170e+09	
20	-1.00000e+00	1.205575e+09	
21	-1.05000e+00	1.237148e+09	
22	-1.10000e+00	1.267941e+09	
23	-1.15000e+00	1.297999e+09	
24	-1.20000e+00	1.327362e+09	
25	-1.25000e+00	1.356064e+09	
26	-1.30000e+00	1.384133e+09	
27	-1.35000e+00	1.411596e+09	
28	-1.40000e+00	1.438477e+09	
29	-1.45000e+00	1.464798e+09	
30	-1.50000e+00	1.490579e+09	
31	-1.55000e+00	1.515838e+09	
32	-1.60000e+00	1.540592e+09	
33	-1.65000e+00	1.564856e+09	
34	-1.70000e+00	1.588643e+09	
35	-1.75000e+00	1.611965e+09	
36	-1.80000e+00	1.634829e+09	
37	-1.85000e+00	1.657242e+09	
38	-1.90000e+00	1.679205e+09	
39	-1.95000e+00	1.700714e+09	
40	-2.00000e+00	1.721759e+09	
41	-2.05000e+00	1.742323e+09	
42	-2.10000e+00	1.762378e+09	
43	-2.15000e+00	1.781884e+09	
44	-2.20000e+00	1.800789e+09	
45	-2.25000e+00	1.819025e+09	
46	-2.30000e+00	1.836503e+09	
47	-2.35000e+00	1.853117e+09	
48	-2.40000e+00	1.868738e+09	
49	-2.45000e+00	1.883209e+09	
50	-2.50000e+00	1.896351e+09	
51	-2.55000e+00	1.907959e+09	
52	-2.60000e+00	1.917798e+09	
53	-2.65000e+00	1.925613e+09	
54	-2.70000e+00	1.931125e+09	

Index   v-sweep         rds             
--------------------------------------------------------------------------------
55	-2.75000e+00	1.934039e+09	
56	-2.80000e+00	1.934046e+09	
57	-2.85000e+00	1.930840e+09	
58	-2.90000e+00	1.924117e+09	
59	-2.95000e+00	1.913595e+09	
60	-3.00000e+00	1.899022e+09	
61	-3.05000e+00	1.880194e+09	
62	-3.10000e+00	1.856962e+09	
63	-3.15000e+00	1.829252e+09	
64	-3.20000e+00	1.797066e+09	
65	-3.25000e+00	1.760496e+09	
66	-3.30000e+00	1.719725e+09	
Reset re-loads circuit ***************************

Circuit: ***************************

Doing analysis at TEMP = 25.000000 and TNOM = 25.000000


No. of Data Rows : 67
                          ***************************
                          DC transfer characteristic  Mon Jan  9 13:57:30  2023
--------------------------------------------------------------------------------
Index   v-sweep         rds             
--------------------------------------------------------------------------------
0	0.000000e+00	2.133519e+05	
1	-5.00000e-02	2.425802e+05	
2	-1.00000e-01	2.807991e+05	
3	-1.50000e-01	3.328391e+05	
4	-2.00000e-01	4.076145e+05	
5	-2.50000e-01	5.232339e+05	
6	-3.00000e-01	7.209575e+05	
7	-3.50000e-01	1.105837e+06	
8	-4.00000e-01	1.949790e+06	
9	-4.50000e-01	3.777645e+06	
10	-5.00000e-01	6.912394e+06	
11	-5.50000e-01	1.075328e+07	
12	-6.00000e-01	1.440116e+07	
13	-6.50000e-01	1.749672e+07	
14	-7.00000e-01	2.008728e+07	
15	-7.50000e-01	2.231551e+07	
16	-8.00000e-01	2.430080e+07	
17	-8.50000e-01	2.612390e+07	
18	-9.00000e-01	2.783644e+07	
19	-9.50000e-01	2.947124e+07	
20	-1.00000e+00	3.104947e+07	
21	-1.05000e+00	3.258506e+07	
22	-1.10000e+00	3.408744e+07	
23	-1.15000e+00	3.556310e+07	
24	-1.20000e+00	3.701664e+07	
25	-1.25000e+00	3.845138e+07	
26	-1.30000e+00	3.986975e+07	
27	-1.35000e+00	4.127360e+07	
28	-1.40000e+00	4.266433e+07	
29	-1.45000e+00	4.404301e+07	
30	-1.50000e+00	4.541051e+07	
31	-1.55000e+00	4.676751e+07	
32	-1.60000e+00	4.811457e+07	
33	-1.65000e+00	4.945214e+07	
34	-1.70000e+00	5.078061e+07	
35	-1.75000e+00	5.210029e+07	
36	-1.80000e+00	5.341145e+07	
37	-1.85000e+00	5.471430e+07	
38	-1.90000e+00	5.600904e+07	
39	-1.95000e+00	5.729579e+07	
40	-2.00000e+00	5.857464e+07	
41	-2.05000e+00	5.984560e+07	
42	-2.10000e+00	6.110859e+07	
43	-2.15000e+00	6.236339e+07	
44	-2.20000e+00	6.360964e+07	
45	-2.25000e+00	6.484671e+07	
46	-2.30000e+00	6.607366e+07	
47	-2.35000e+00	6.728916e+07	
48	-2.40000e+00	6.849135e+07	
49	-2.45000e+00	6.967771e+07	
50	-2.50000e+00	7.084493e+07	
51	-2.55000e+00	7.198871e+07	
52	-2.60000e+00	7.310361e+07	
53	-2.65000e+00	7.418287e+07	
54	-2.70000e+00	7.521819e+07	

Index   v-sweep         rds             
--------------------------------------------------------------------------------
55	-2.75000e+00	7.619961e+07	
56	-2.80000e+00	7.711533e+07	
57	-2.85000e+00	7.795168e+07	
58	-2.90000e+00	7.869303e+07	
59	-2.95000e+00	7.932196e+07	
60	-3.00000e+00	7.981944e+07	
61	-3.05000e+00	8.016517e+07	
62	-3.10000e+00	8.033816e+07	
63	-3.15000e+00	8.031747e+07	
64	-3.20000e+00	8.008304e+07	
65	-3.25000e+00	7.961681e+07	
66	-3.30000e+00	7.890380e+07	
Reset re-loads circuit ***************************

Circuit: ***************************

Doing analysis at TEMP = 25.000000 and TNOM = 25.000000


No. of Data Rows : 67
                          ***************************
                          DC transfer characteristic  Mon Jan  9 13:57:30  2023
--------------------------------------------------------------------------------
Index   v-sweep         rds             
--------------------------------------------------------------------------------
0	0.000000e+00	1.138219e+05	
1	-5.00000e-02	1.217328e+05	
2	-1.00000e-01	1.307750e+05	
3	-1.50000e-01	1.412093e+05	
4	-2.00000e-01	1.533825e+05	
5	-2.50000e-01	1.677667e+05	
6	-3.00000e-01	1.850199e+05	
7	-3.50000e-01	2.060864e+05	
8	-4.00000e-01	2.323676e+05	
9	-4.50000e-01	2.660271e+05	
10	-5.00000e-01	3.105607e+05	
11	-5.50000e-01	3.719182e+05	
12	-6.00000e-01	4.607984e+05	
13	-6.50000e-01	5.973617e+05	
14	-7.00000e-01	8.199019e+05	
15	-7.50000e-01	1.193964e+06	
16	-8.00000e-01	1.795791e+06	
17	-8.50000e-01	2.634676e+06	
18	-9.00000e-01	3.596355e+06	
19	-9.50000e-01	4.533633e+06	
20	-1.00000e+00	5.372420e+06	
21	-1.05000e+00	6.107904e+06	
22	-1.10000e+00	6.761459e+06	
23	-1.15000e+00	7.356102e+06	
24	-1.20000e+00	7.909554e+06	
25	-1.25000e+00	8.434115e+06	
26	-1.30000e+00	8.938061e+06	
27	-1.35000e+00	9.426944e+06	
28	-1.40000e+00	9.904528e+06	
29	-1.45000e+00	1.037341e+07	
30	-1.50000e+00	1.083540e+07	
31	-1.55000e+00	1.129180e+07	
32	-1.60000e+00	1.174356e+07	
33	-1.65000e+00	1.219137e+07	
34	-1.70000e+00	1.263576e+07	
35	-1.75000e+00	1.307713e+07	
36	-1.80000e+00	1.351578e+07	
37	-1.85000e+00	1.395197e+07	
38	-1.90000e+00	1.438589e+07	
39	-1.95000e+00	1.481767e+07	
40	-2.00000e+00	1.524747e+07	
41	-2.05000e+00	1.567536e+07	
42	-2.10000e+00	1.610145e+07	
43	-2.15000e+00	1.652579e+07	
44	-2.20000e+00	1.694845e+07	
45	-2.25000e+00	1.736947e+07	
46	-2.30000e+00	1.778888e+07	
47	-2.35000e+00	1.820669e+07	
48	-2.40000e+00	1.862289e+07	
49	-2.45000e+00	1.903746e+07	
50	-2.50000e+00	1.945031e+07	
51	-2.55000e+00	1.986131e+07	
52	-2.60000e+00	2.027025e+07	
53	-2.65000e+00	2.067684e+07	
54	-2.70000e+00	2.108062e+07	

Index   v-sweep         rds             
--------------------------------------------------------------------------------
55	-2.75000e+00	2.148098e+07	
56	-2.80000e+00	2.187710e+07	
57	-2.85000e+00	2.226787e+07	
58	-2.90000e+00	2.265187e+07	
59	-2.95000e+00	2.302729e+07	
60	-3.00000e+00	2.339185e+07	
61	-3.05000e+00	2.374276e+07	
62	-3.10000e+00	2.407664e+07	
63	-3.15000e+00	2.438949e+07	
64	-3.20000e+00	2.467663e+07	
65	-3.25000e+00	2.493272e+07	
66	-3.30000e+00	2.515174e+07	
Reset re-loads circuit ***************************

Circuit: ***************************

Doing analysis at TEMP = 25.000000 and TNOM = 25.000000


No. of Data Rows : 67
                          ***************************
                          DC transfer characteristic  Mon Jan  9 13:57:30  2023
--------------------------------------------------------------------------------
Index   v-sweep         rds             
--------------------------------------------------------------------------------
0	0.000000e+00	7.962538e+04	
1	-5.00000e-02	8.333130e+04	
2	-1.00000e-01	8.737825e+04	
3	-1.50000e-01	9.181550e+04	
4	-2.00000e-01	9.670227e+04	
5	-2.50000e-01	1.021104e+05	
6	-3.00000e-01	1.081278e+05	
7	-3.50000e-01	1.148633e+05	
8	-4.00000e-01	1.224532e+05	
9	-4.50000e-01	1.310704e+05	
10	-5.00000e-01	1.409374e+05	
11	-5.50000e-01	1.523455e+05	
12	-6.00000e-01	1.656830e+05	
13	-6.50000e-01	1.814783e+05	
14	-7.00000e-01	2.004678e+05	
15	-7.50000e-01	2.237050e+05	
16	-8.00000e-01	2.527420e+05	
17	-8.50000e-01	2.899384e+05	
18	-9.00000e-01	3.389975e+05	
19	-9.50000e-01	4.058849e+05	
20	-1.00000e+00	5.002841e+05	
21	-1.05000e+00	6.373074e+05	
22	-1.10000e+00	8.372731e+05	
23	-1.15000e+00	1.117822e+06	
24	-1.20000e+00	1.475944e+06	
25	-1.25000e+00	1.878435e+06	
26	-1.30000e+00	2.281583e+06	
27	-1.35000e+00	2.657604e+06	
28	-1.40000e+00	2.999235e+06	
29	-1.45000e+00	3.310369e+06	
30	-1.50000e+00	3.597869e+06	
31	-1.55000e+00	3.867992e+06	
32	-1.60000e+00	4.125517e+06	
33	-1.65000e+00	4.373867e+06	
34	-1.70000e+00	4.615433e+06	
35	-1.75000e+00	4.851890e+06	
36	-1.80000e+00	5.084412e+06	
37	-1.85000e+00	5.313839e+06	
38	-1.90000e+00	5.540776e+06	
39	-1.95000e+00	5.765666e+06	
40	-2.00000e+00	5.988840e+06	
41	-2.05000e+00	6.210545e+06	
42	-2.10000e+00	6.430973e+06	
43	-2.15000e+00	6.650270e+06	
44	-2.20000e+00	6.868553e+06	
45	-2.25000e+00	7.085912e+06	
46	-2.30000e+00	7.302420e+06	
47	-2.35000e+00	7.518137e+06	
48	-2.40000e+00	7.733110e+06	
49	-2.45000e+00	7.947380e+06	
50	-2.50000e+00	8.160979e+06	
51	-2.55000e+00	8.373932e+06	
52	-2.60000e+00	8.586260e+06	
53	-2.65000e+00	8.797977e+06	
54	-2.70000e+00	9.009089e+06	

Index   v-sweep         rds             
--------------------------------------------------------------------------------
55	-2.75000e+00	9.219593e+06	
56	-2.80000e+00	9.429473e+06	
57	-2.85000e+00	9.638694e+06	
58	-2.90000e+00	9.847193e+06	
59	-2.95000e+00	1.005487e+07	
60	-3.00000e+00	1.026159e+07	
61	-3.05000e+00	1.046714e+07	
62	-3.10000e+00	1.067122e+07	
63	-3.15000e+00	1.087343e+07	
64	-3.20000e+00	1.107325e+07	
65	-3.25000e+00	1.126997e+07	
66	-3.30000e+00	1.146272e+07	
Reset re-loads circuit ***************************

Circuit: ***************************

Doing analysis at TEMP = 25.000000 and TNOM = 25.000000


No. of Data Rows : 67
                          ***************************
                          DC transfer characteristic  Mon Jan  9 13:57:30  2023
--------------------------------------------------------------------------------
Index   v-sweep         rds             
--------------------------------------------------------------------------------
0	0.000000e+00	6.245883e+04	
1	-5.00000e-02	6.464143e+04	
2	-1.00000e-01	6.697074e+04	
3	-1.50000e-01	6.946203e+04	
4	-2.00000e-01	7.213280e+04	
5	-2.50000e-01	7.500314e+04	
6	-3.00000e-01	7.809625e+04	
7	-3.50000e-01	8.143909e+04	
8	-4.00000e-01	8.506310e+04	
9	-4.50000e-01	8.900526e+04	
10	-5.00000e-01	9.330931e+04	
11	-5.50000e-01	9.802734e+04	
12	-6.00000e-01	1.032219e+05	
13	-6.50000e-01	1.089689e+05	
14	-7.00000e-01	1.153610e+05	
15	-7.50000e-01	1.225126e+05	
16	-8.00000e-01	1.305670e+05	
17	-8.50000e-01	1.397052e+05	
18	-9.00000e-01	1.501597e+05	
19	-9.50000e-01	1.622330e+05	
20	-1.00000e+00	1.763261e+05	
21	-1.05000e+00	1.929803e+05	
22	-1.10000e+00	2.129402e+05	
23	-1.15000e+00	2.372523e+05	
24	-1.20000e+00	2.674176e+05	
25	-1.25000e+00	3.056261e+05	
26	-1.30000e+00	3.550997e+05	
27	-1.35000e+00	4.205191e+05	
28	-1.40000e+00	5.083028e+05	
29	-1.45000e+00	6.259809e+05	
30	-1.50000e+00	7.793258e+05	
31	-1.55000e+00	9.671257e+05	
32	-1.60000e+00	1.178083e+06	
33	-1.65000e+00	1.395453e+06	
34	-1.70000e+00	1.605766e+06	
35	-1.75000e+00	1.802886e+06	
36	-1.80000e+00	1.986311e+06	
37	-1.85000e+00	2.158070e+06	
38	-1.90000e+00	2.320707e+06	
39	-1.95000e+00	2.476461e+06	
40	-2.00000e+00	2.627072e+06	
41	-2.05000e+00	2.773821e+06	
42	-2.10000e+00	2.917637e+06	
43	-2.15000e+00	3.059187e+06	
44	-2.20000e+00	3.198958e+06	
45	-2.25000e+00	3.337303e+06	
46	-2.30000e+00	3.474484e+06	
47	-2.35000e+00	3.610697e+06	
48	-2.40000e+00	3.746091e+06	
49	-2.45000e+00	3.880779e+06	
50	-2.50000e+00	4.014849e+06	
51	-2.55000e+00	4.148370e+06	
52	-2.60000e+00	4.281398e+06	
53	-2.65000e+00	4.413975e+06	
54	-2.70000e+00	4.546137e+06	

Index   v-sweep         rds             
--------------------------------------------------------------------------------
55	-2.75000e+00	4.677913e+06	
56	-2.80000e+00	4.809325e+06	
57	-2.85000e+00	4.940395e+06	
58	-2.90000e+00	5.071136e+06	
59	-2.95000e+00	5.201561e+06	
60	-3.00000e+00	5.331679e+06	
61	-3.05000e+00	5.461495e+06	
62	-3.10000e+00	5.591008e+06	
63	-3.15000e+00	5.720209e+06	
64	-3.20000e+00	5.849082e+06	
65	-3.25000e+00	5.977594e+06	
66	-3.30000e+00	6.105693e+06	
Reset re-loads circuit ***************************

Circuit: ***************************

Doing analysis at TEMP = 25.000000 and TNOM = 25.000000


No. of Data Rows : 67
                          ***************************
                          DC transfer characteristic  Mon Jan  9 13:57:30  2023
--------------------------------------------------------------------------------
Index   v-sweep         rds             
--------------------------------------------------------------------------------
0	0.000000e+00	5.220413e+04	
1	-5.00000e-02	5.366208e+04	
2	-1.00000e-01	5.519662e+04	
3	-1.50000e-01	5.681396e+04	
4	-2.00000e-01	5.852095e+04	
5	-2.50000e-01	6.032528e+04	
6	-3.00000e-01	6.223548e+04	
7	-3.50000e-01	6.426115e+04	
8	-4.00000e-01	6.641307e+04	
9	-4.50000e-01	6.870341e+04	
10	-5.00000e-01	7.114595e+04	
11	-5.50000e-01	7.375636e+04	
12	-6.00000e-01	7.655253e+04	
13	-6.50000e-01	7.955499e+04	
14	-7.00000e-01	8.278739e+04	
15	-7.50000e-01	8.627716e+04	
16	-8.00000e-01	9.005622e+04	
17	-8.50000e-01	9.416201e+04	
18	-9.00000e-01	9.863869e+04	
19	-9.50000e-01	1.035387e+05	
20	-1.00000e+00	1.089248e+05	
21	-1.05000e+00	1.148727e+05	
22	-1.10000e+00	1.214747e+05	
23	-1.15000e+00	1.288439e+05	
24	-1.20000e+00	1.371212e+05	
25	-1.25000e+00	1.464832e+05	
26	-1.30000e+00	1.571548e+05	
27	-1.35000e+00	1.694254e+05	
28	-1.40000e+00	1.836736e+05	
29	-1.45000e+00	2.004009e+05	
30	-1.50000e+00	2.202819e+05	
31	-1.55000e+00	2.442355e+05	
32	-1.60000e+00	2.735231e+05	
33	-1.65000e+00	3.098755e+05	
34	-1.70000e+00	3.556202e+05	
35	-1.75000e+00	4.137115e+05	
36	-1.80000e+00	4.874228e+05	
37	-1.85000e+00	5.793331e+05	
38	-1.90000e+00	6.895463e+05	
39	-1.95000e+00	8.142345e+05	
40	-2.00000e+00	9.463955e+05	
41	-2.05000e+00	1.078850e+06	
42	-2.10000e+00	1.206860e+06	
43	-2.15000e+00	1.328589e+06	
44	-2.20000e+00	1.444114e+06	
45	-2.25000e+00	1.554341e+06	
46	-2.30000e+00	1.660342e+06	
47	-2.35000e+00	1.763068e+06	
48	-2.40000e+00	1.863282e+06	
49	-2.45000e+00	1.961563e+06	
50	-2.50000e+00	2.058341e+06	
51	-2.55000e+00	2.153938e+06	
52	-2.60000e+00	2.248589e+06	
53	-2.65000e+00	2.342473e+06	
54	-2.70000e+00	2.435722e+06	

Index   v-sweep         rds             
--------------------------------------------------------------------------------
55	-2.75000e+00	2.528439e+06	
56	-2.80000e+00	2.620701e+06	
57	-2.85000e+00	2.712568e+06	
58	-2.90000e+00	2.804089e+06	
59	-2.95000e+00	2.895299e+06	
60	-3.00000e+00	2.986231e+06	
61	-3.05000e+00	3.076907e+06	
62	-3.10000e+00	3.167347e+06	
63	-3.15000e+00	3.257567e+06	
64	-3.20000e+00	3.347581e+06	
65	-3.25000e+00	3.437399e+06	
66	-3.30000e+00	3.527029e+06	
Reset re-loads circuit ***************************

Circuit: ***************************

Note: No ".plot", ".print", or ".fourier" lines; no simulations run
