
Note: Compatibility modes selected: hs

Warning: m=xx on .subckt line will override multiplier m hierarchy!


Circuit: ***************************

Doing analysis at TEMP = 25.000000 and TNOM = 25.000000


No. of Data Rows : 67
                          ***************************
                          DC transfer characteristic  Mon Jan  9 13:57:30  2023
--------------------------------------------------------------------------------
Index   v-sweep         rds             
--------------------------------------------------------------------------------
0	0.000000e+00	6.023646e+04	
1	-5.00000e-02	1.901532e+05	
2	-1.00000e-01	1.283738e+06	
3	-1.50000e-01	5.520730e+06	
4	-2.00000e-01	1.219562e+07	
5	-2.50000e-01	1.859854e+07	
6	-3.00000e-01	2.375932e+07	
7	-3.50000e-01	2.786045e+07	
8	-4.00000e-01	3.123878e+07	
9	-4.50000e-01	3.413695e+07	
10	-5.00000e-01	3.670561e+07	
11	-5.50000e-01	3.903677e+07	
12	-6.00000e-01	4.118798e+07	
13	-6.50000e-01	4.319656e+07	
14	-7.00000e-01	4.508775e+07	
15	-7.50000e-01	4.687930e+07	
16	-8.00000e-01	4.858418e+07	
17	-8.50000e-01	5.021223e+07	
18	-9.00000e-01	5.177112e+07	
19	-9.50000e-01	5.326706e+07	
20	-1.00000e+00	5.470513e+07	
21	-1.05000e+00	5.608962e+07	
22	-1.10000e+00	5.742423e+07	
23	-1.15000e+00	5.871216e+07	
24	-1.20000e+00	5.995624e+07	
25	-1.25000e+00	6.115899e+07	
26	-1.30000e+00	6.232270e+07	
27	-1.35000e+00	6.344942e+07	
28	-1.40000e+00	6.454103e+07	
29	-1.45000e+00	6.559927e+07	
30	-1.50000e+00	6.662570e+07	
31	-1.55000e+00	6.762180e+07	
32	-1.60000e+00	6.858889e+07	
33	-1.65000e+00	6.952818e+07	
34	-1.70000e+00	7.044076e+07	
35	-1.75000e+00	7.132757e+07	
36	-1.80000e+00	7.218939e+07	
37	-1.85000e+00	7.302681e+07	
38	-1.90000e+00	7.384019e+07	
39	-1.95000e+00	7.462962e+07	
40	-2.00000e+00	7.539484e+07	
41	-2.05000e+00	7.613518e+07	
42	-2.10000e+00	7.684951e+07	
43	-2.15000e+00	7.753612e+07	
44	-2.20000e+00	7.819265e+07	
45	-2.25000e+00	7.881598e+07	
46	-2.30000e+00	7.940217e+07	
47	-2.35000e+00	7.994632e+07	
48	-2.40000e+00	8.044258e+07	
49	-2.45000e+00	8.088398e+07	
50	-2.50000e+00	8.126253e+07	
51	-2.55000e+00	8.156912e+07	
52	-2.60000e+00	8.179362e+07	
53	-2.65000e+00	8.192502e+07	
54	-2.70000e+00	8.195152e+07	

Index   v-sweep         rds             
--------------------------------------------------------------------------------
55	-2.75000e+00	8.186085e+07	
56	-2.80000e+00	8.164059e+07	
57	-2.85000e+00	8.127852e+07	
58	-2.90000e+00	8.076311e+07	
59	-2.95000e+00	8.008407e+07	
60	-3.00000e+00	7.923285e+07	
61	-3.05000e+00	7.820321e+07	
62	-3.10000e+00	7.699173e+07	
63	-3.15000e+00	7.559824e+07	
64	-3.20000e+00	7.402610e+07	
65	-3.25000e+00	7.228234e+07	
66	-3.30000e+00	7.037768e+07	
Reset re-loads circuit ***************************

Circuit: ***************************

Doing analysis at TEMP = 25.000000 and TNOM = 25.000000


No. of Data Rows : 67
                          ***************************
                          DC transfer characteristic  Mon Jan  9 13:57:30  2023
--------------------------------------------------------------------------------
Index   v-sweep         rds             
--------------------------------------------------------------------------------
0	0.000000e+00	5.195301e+03	
1	-5.00000e-02	5.935178e+03	
2	-1.00000e-01	6.912706e+03	
3	-1.50000e-01	8.262112e+03	
4	-2.00000e-01	1.023776e+04	
5	-2.50000e-01	1.337440e+04	
6	-3.00000e-01	1.894192e+04	
7	-3.50000e-01	3.029755e+04	
8	-4.00000e-01	5.609358e+04	
9	-4.50000e-01	1.113259e+05	
10	-5.00000e-01	2.019380e+05	
11	-5.50000e-01	3.107511e+05	
12	-6.00000e-01	4.169725e+05	
13	-6.50000e-01	5.122704e+05	
14	-7.00000e-01	5.967909e+05	
15	-7.50000e-01	6.729957e+05	
16	-8.00000e-01	7.432051e+05	
17	-8.50000e-01	8.091172e+05	
18	-9.00000e-01	8.718898e+05	
19	-9.50000e-01	9.323008e+05	
20	-1.00000e+00	9.908769e+05	
21	-1.05000e+00	1.047981e+06	
22	-1.10000e+00	1.103868e+06	
23	-1.15000e+00	1.158720e+06	
24	-1.20000e+00	1.212671e+06	
25	-1.25000e+00	1.265822e+06	
26	-1.30000e+00	1.318248e+06	
27	-1.35000e+00	1.370010e+06	
28	-1.40000e+00	1.421153e+06	
29	-1.45000e+00	1.471716e+06	
30	-1.50000e+00	1.521729e+06	
31	-1.55000e+00	1.571219e+06	
32	-1.60000e+00	1.620205e+06	
33	-1.65000e+00	1.668708e+06	
34	-1.70000e+00	1.716743e+06	
35	-1.75000e+00	1.764322e+06	
36	-1.80000e+00	1.811460e+06	
37	-1.85000e+00	1.858165e+06	
38	-1.90000e+00	1.904446e+06	
39	-1.95000e+00	1.950311e+06	
40	-2.00000e+00	1.995763e+06	
41	-2.05000e+00	2.040803e+06	
42	-2.10000e+00	2.085428e+06	
43	-2.15000e+00	2.129628e+06	
44	-2.20000e+00	2.173383e+06	
45	-2.25000e+00	2.216665e+06	
46	-2.30000e+00	2.259426e+06	
47	-2.35000e+00	2.301601e+06	
48	-2.40000e+00	2.343100e+06	
49	-2.45000e+00	2.383799e+06	
50	-2.50000e+00	2.423538e+06	
51	-2.55000e+00	2.462109e+06	
52	-2.60000e+00	2.499252e+06	
53	-2.65000e+00	2.534644e+06	
54	-2.70000e+00	2.567894e+06	

Index   v-sweep         rds             
--------------------------------------------------------------------------------
55	-2.75000e+00	2.598538e+06	
56	-2.80000e+00	2.626034e+06	
57	-2.85000e+00	2.649762e+06	
58	-2.90000e+00	2.669032e+06	
59	-2.95000e+00	2.683090e+06	
60	-3.00000e+00	2.691142e+06	
61	-3.05000e+00	2.692376e+06	
62	-3.10000e+00	2.685998e+06	
63	-3.15000e+00	2.671272e+06	
64	-3.20000e+00	2.647572e+06	
65	-3.25000e+00	2.614426e+06	
66	-3.30000e+00	2.571565e+06	
Reset re-loads circuit ***************************

Circuit: ***************************

Doing analysis at TEMP = 25.000000 and TNOM = 25.000000


No. of Data Rows : 67
                          ***************************
                          DC transfer characteristic  Mon Jan  9 13:57:30  2023
--------------------------------------------------------------------------------
Index   v-sweep         rds             
--------------------------------------------------------------------------------
0	0.000000e+00	2.803167e+03	
1	-5.00000e-02	2.999449e+03	
2	-1.00000e-01	3.223989e+03	
3	-1.50000e-01	3.483346e+03	
4	-2.00000e-01	3.786264e+03	
5	-2.50000e-01	4.144666e+03	
6	-3.00000e-01	4.575219e+03	
7	-3.50000e-01	5.101916e+03	
8	-4.00000e-01	5.760499e+03	
9	-4.50000e-01	6.606395e+03	
10	-5.00000e-01	7.729666e+03	
11	-5.50000e-01	9.284652e+03	
12	-6.00000e-01	1.155122e+04	
13	-6.50000e-01	1.506207e+04	
14	-7.00000e-01	2.084093e+04	
15	-7.50000e-01	3.066828e+04	
16	-8.00000e-01	4.671069e+04	
17	-8.50000e-01	6.960502e+04	
18	-9.00000e-01	9.691237e+04	
19	-9.50000e-01	1.250038e+05	
20	-1.00000e+00	1.516387e+05	
21	-1.05000e+00	1.762184e+05	
22	-1.10000e+00	1.989426e+05	
23	-1.15000e+00	2.202077e+05	
24	-1.20000e+00	2.403763e+05	
25	-1.25000e+00	2.597258e+05	
26	-1.30000e+00	2.784561e+05	
27	-1.35000e+00	2.967087e+05	
28	-1.40000e+00	3.145840e+05	
29	-1.45000e+00	3.321536e+05	
30	-1.50000e+00	3.494696e+05	
31	-1.55000e+00	3.665703e+05	
32	-1.60000e+00	3.834844e+05	
33	-1.65000e+00	4.002335e+05	
34	-1.70000e+00	4.168343e+05	
35	-1.75000e+00	4.333000e+05	
36	-1.80000e+00	4.496409e+05	
37	-1.85000e+00	4.658652e+05	
38	-1.90000e+00	4.819798e+05	
39	-1.95000e+00	4.979901e+05	
40	-2.00000e+00	5.139007e+05	
41	-2.05000e+00	5.297156e+05	
42	-2.10000e+00	5.454379e+05	
43	-2.15000e+00	5.610704e+05	
44	-2.20000e+00	5.766153e+05	
45	-2.25000e+00	5.920745e+05	
46	-2.30000e+00	6.074490e+05	
47	-2.35000e+00	6.227395e+05	
48	-2.40000e+00	6.379455e+05	
49	-2.45000e+00	6.530650e+05	
50	-2.50000e+00	6.680945e+05	
51	-2.55000e+00	6.830273e+05	
52	-2.60000e+00	6.978535e+05	
53	-2.65000e+00	7.125578e+05	
54	-2.70000e+00	7.271187e+05	

Index   v-sweep         rds             
--------------------------------------------------------------------------------
55	-2.75000e+00	7.415063e+05	
56	-2.80000e+00	7.556799e+05	
57	-2.85000e+00	7.695858e+05	
58	-2.90000e+00	7.831548e+05	
59	-2.95000e+00	7.962984e+05	
60	-3.00000e+00	8.089068e+05	
61	-3.05000e+00	8.208456e+05	
62	-3.10000e+00	8.319534e+05	
63	-3.15000e+00	8.420407e+05	
64	-3.20000e+00	8.508888e+05	
65	-3.25000e+00	8.582519e+05	
66	-3.30000e+00	8.638602e+05	
Reset re-loads circuit ***************************

Circuit: ***************************

Doing analysis at TEMP = 25.000000 and TNOM = 25.000000


No. of Data Rows : 67
                          ***************************
                          DC transfer characteristic  Mon Jan  9 13:57:30  2023
--------------------------------------------------------------------------------
Index   v-sweep         rds             
--------------------------------------------------------------------------------
0	0.000000e+00	2.016340e+03	
1	-5.00000e-02	2.109535e+03	
2	-1.00000e-01	2.211241e+03	
3	-1.50000e-01	2.322677e+03	
4	-2.00000e-01	2.445307e+03	
5	-2.50000e-01	2.580903e+03	
6	-3.00000e-01	2.731634e+03	
7	-3.50000e-01	2.900176e+03	
8	-4.00000e-01	3.089874e+03	
9	-4.50000e-01	3.304962e+03	
10	-5.00000e-01	3.550877e+03	
11	-5.50000e-01	3.834714e+03	
12	-6.00000e-01	4.165904e+03	
13	-6.50000e-01	4.557234e+03	
14	-7.00000e-01	5.026457e+03	
15	-7.50000e-01	5.598863e+03	
16	-8.00000e-01	6.311555e+03	
17	-8.50000e-01	7.220718e+03	
18	-9.00000e-01	8.414299e+03	
19	-9.50000e-01	1.003415e+04	
20	-1.00000e+00	1.231300e+04	
21	-1.05000e+00	1.562597e+04	
22	-1.10000e+00	2.052176e+04	
23	-1.15000e+00	2.761033e+04	
24	-1.20000e+00	3.716565e+04	
25	-1.25000e+00	4.870064e+04	
26	-1.30000e+00	6.115321e+04	
27	-1.35000e+00	7.355967e+04	
28	-1.40000e+00	8.542359e+04	
29	-1.45000e+00	9.662954e+04	
30	-1.50000e+00	1.072410e+05	
31	-1.55000e+00	1.173703e+05	
32	-1.60000e+00	1.271237e+05	
33	-1.65000e+00	1.365868e+05	
34	-1.70000e+00	1.458244e+05	
35	-1.75000e+00	1.548841e+05	
36	-1.80000e+00	1.638011e+05	
37	-1.85000e+00	1.726010e+05	
38	-1.90000e+00	1.813033e+05	
39	-1.95000e+00	1.899222e+05	
40	-2.00000e+00	1.984688e+05	
41	-2.05000e+00	2.069516e+05	
42	-2.10000e+00	2.153771e+05	
43	-2.15000e+00	2.237505e+05	
44	-2.20000e+00	2.320761e+05	
45	-2.25000e+00	2.403570e+05	
46	-2.30000e+00	2.485960e+05	
47	-2.35000e+00	2.567955e+05	
48	-2.40000e+00	2.649571e+05	
49	-2.45000e+00	2.730825e+05	
50	-2.50000e+00	2.811729e+05	
51	-2.55000e+00	2.892294e+05	
52	-2.60000e+00	2.972529e+05	
53	-2.65000e+00	3.052439e+05	
54	-2.70000e+00	3.132027e+05	

Index   v-sweep         rds             
--------------------------------------------------------------------------------
55	-2.75000e+00	3.211291e+05	
56	-2.80000e+00	3.290224e+05	
57	-2.85000e+00	3.368811e+05	
58	-2.90000e+00	3.447023e+05	
59	-2.95000e+00	3.524818e+05	
60	-3.00000e+00	3.602127e+05	
61	-3.05000e+00	3.678854e+05	
62	-3.10000e+00	3.754863e+05	
63	-3.15000e+00	3.829967e+05	
64	-3.20000e+00	3.903916e+05	
65	-3.25000e+00	3.976384e+05	
66	-3.30000e+00	4.046949e+05	
Reset re-loads circuit ***************************

Circuit: ***************************

Doing analysis at TEMP = 25.000000 and TNOM = 25.000000


No. of Data Rows : 67
                          ***************************
                          DC transfer characteristic  Mon Jan  9 13:57:30  2023
--------------------------------------------------------------------------------
Index   v-sweep         rds             
--------------------------------------------------------------------------------
0	0.000000e+00	1.630972e+03	
1	-5.00000e-02	1.686947e+03	
2	-1.00000e-01	1.746618e+03	
3	-1.50000e-01	1.810366e+03	
4	-2.00000e-01	1.878622e+03	
5	-2.50000e-01	1.951881e+03	
6	-3.00000e-01	2.030713e+03	
7	-3.50000e-01	2.115779e+03	
8	-4.00000e-01	2.207847e+03	
9	-4.50000e-01	2.307817e+03	
10	-5.00000e-01	2.416752e+03	
11	-5.50000e-01	2.535909e+03	
12	-6.00000e-01	2.666796e+03	
13	-6.50000e-01	2.811230e+03	
14	-7.00000e-01	2.971419e+03	
15	-7.50000e-01	3.150081e+03	
16	-8.00000e-01	3.350588e+03	
17	-8.50000e-01	3.577182e+03	
18	-9.00000e-01	3.835265e+03	
19	-9.50000e-01	4.131818e+03	
20	-1.00000e+00	4.476012e+03	
21	-1.05000e+00	4.880105e+03	
22	-1.10000e+00	5.360808e+03	
23	-1.15000e+00	5.941382e+03	
24	-1.20000e+00	6.654908e+03	
25	-1.25000e+00	7.549440e+03	
26	-1.30000e+00	8.695963e+03	
27	-1.35000e+00	1.019997e+04	
28	-1.40000e+00	1.221537e+04	
29	-1.45000e+00	1.495180e+04	
30	-1.50000e+00	1.864903e+04	
31	-1.55000e+00	2.348144e+04	
32	-1.60000e+00	2.940975e+04	
33	-1.65000e+00	3.612169e+04	
34	-1.70000e+00	4.317453e+04	
35	-1.75000e+00	5.020646e+04	
36	-1.80000e+00	5.702590e+04	
37	-1.85000e+00	6.357701e+04	
38	-1.90000e+00	6.987422e+04	
39	-1.95000e+00	7.595641e+04	
40	-2.00000e+00	8.186482e+04	
41	-2.05000e+00	8.763495e+04	
42	-2.10000e+00	9.329508e+04	
43	-2.15000e+00	9.886691e+04	
44	-2.20000e+00	1.043669e+05	
45	-2.25000e+00	1.098075e+05	
46	-2.30000e+00	1.151982e+05	
47	-2.35000e+00	1.205461e+05	
48	-2.40000e+00	1.258570e+05	
49	-2.45000e+00	1.311351e+05	
50	-2.50000e+00	1.363838e+05	
51	-2.55000e+00	1.416059e+05	
52	-2.60000e+00	1.468036e+05	
53	-2.65000e+00	1.519786e+05	
54	-2.70000e+00	1.571323e+05	

Index   v-sweep         rds             
--------------------------------------------------------------------------------
55	-2.75000e+00	1.622660e+05	
56	-2.80000e+00	1.673806e+05	
57	-2.85000e+00	1.724770e+05	
58	-2.90000e+00	1.775557e+05	
59	-2.95000e+00	1.826175e+05	
60	-3.00000e+00	1.876626e+05	
61	-3.05000e+00	1.926913e+05	
62	-3.10000e+00	1.977037e+05	
63	-3.15000e+00	2.026996e+05	
64	-3.20000e+00	2.076783e+05	
65	-3.25000e+00	2.126386e+05	
66	-3.30000e+00	2.175786e+05	
Reset re-loads circuit ***************************

Circuit: ***************************

Doing analysis at TEMP = 25.000000 and TNOM = 25.000000


No. of Data Rows : 67
                          ***************************
                          DC transfer characteristic  Mon Jan  9 13:57:30  2023
--------------------------------------------------------------------------------
Index   v-sweep         rds             
--------------------------------------------------------------------------------
0	0.000000e+00	1.405809e+03	
1	-5.00000e-02	1.443970e+03	
2	-1.00000e-01	1.484086e+03	
3	-1.50000e-01	1.526310e+03	
4	-2.00000e-01	1.570812e+03	
5	-2.50000e-01	1.617783e+03	
6	-3.00000e-01	1.667433e+03	
7	-3.50000e-01	1.719998e+03	
8	-4.00000e-01	1.775742e+03	
9	-4.50000e-01	1.834962e+03	
10	-5.00000e-01	1.897993e+03	
11	-5.50000e-01	1.965215e+03	
12	-6.00000e-01	2.037059e+03	
13	-6.50000e-01	2.114019e+03	
14	-7.00000e-01	2.196660e+03	
15	-7.50000e-01	2.285634e+03	
16	-8.00000e-01	2.381698e+03	
17	-8.50000e-01	2.485730e+03	
18	-9.00000e-01	2.598764e+03	
19	-9.50000e-01	2.722017e+03	
20	-1.00000e+00	2.856935e+03	
21	-1.05000e+00	3.005250e+03	
22	-1.10000e+00	3.169052e+03	
23	-1.15000e+00	3.350883e+03	
24	-1.20000e+00	3.553874e+03	
25	-1.25000e+00	3.781910e+03	
26	-1.30000e+00	4.039875e+03	
27	-1.35000e+00	4.333986e+03	
28	-1.40000e+00	4.672260e+03	
29	-1.45000e+00	5.065186e+03	
30	-1.50000e+00	5.526700e+03	
31	-1.55000e+00	6.075599e+03	
32	-1.60000e+00	6.737600e+03	
33	-1.65000e+00	7.548291e+03	
34	-1.70000e+00	8.557123e+03	
35	-1.75000e+00	9.832115e+03	
36	-1.80000e+00	1.146331e+04	
37	-1.85000e+00	1.355936e+04	
38	-1.90000e+00	1.622697e+04	
39	-1.95000e+00	1.952517e+04	
40	-2.00000e+00	2.341166e+04	
41	-2.05000e+00	2.773084e+04	
42	-2.10000e+00	3.227222e+04	
43	-2.15000e+00	3.685331e+04	
44	-2.20000e+00	4.136247e+04	
45	-2.25000e+00	4.575310e+04	
46	-2.30000e+00	5.001869e+04	
47	-2.35000e+00	5.417107e+04	
48	-2.40000e+00	5.822760e+04	
49	-2.45000e+00	6.220531e+04	
50	-2.50000e+00	6.611883e+04	
51	-2.55000e+00	6.997993e+04	
52	-2.60000e+00	7.379792e+04	
53	-2.65000e+00	7.757998e+04	
54	-2.70000e+00	8.133173e+04	

Index   v-sweep         rds             
--------------------------------------------------------------------------------
55	-2.75000e+00	8.505750e+04	
56	-2.80000e+00	8.876069e+04	
57	-2.85000e+00	9.244397e+04	
58	-2.90000e+00	9.610946e+04	
59	-2.95000e+00	9.975886e+04	
60	-3.00000e+00	1.033935e+05	
61	-3.05000e+00	1.070146e+05	
62	-3.10000e+00	1.106229e+05	
63	-3.15000e+00	1.142192e+05	
64	-3.20000e+00	1.178042e+05	
65	-3.25000e+00	1.213783e+05	
66	-3.30000e+00	1.249421e+05	
Reset re-loads circuit ***************************

Circuit: ***************************

Note: No ".plot", ".print", or ".fourier" lines; no simulations run
