
Note: Compatibility modes selected: hs

Warning: m=xx on .subckt line will override multiplier m hierarchy!


Circuit: ***************************

Doing analysis at TEMP = -40.000000 and TNOM = -40.000000


No. of Data Rows : 67
                          ***************************
                          DC transfer characteristic  Mon Jan  9 13:57:31  2023
--------------------------------------------------------------------------------
Index   v-sweep         rds             
--------------------------------------------------------------------------------
0	0.000000e+00	8.800277e+06	
1	-5.00000e-02	1.039969e+08	
2	-1.00000e-01	9.598254e+08	
3	-1.50000e-01	3.464299e+09	
4	-2.00000e-01	7.541115e+09	
5	-2.50000e-01	1.229373e+10	
6	-3.00000e-01	1.687213e+10	
7	-3.50000e-01	2.087447e+10	
8	-4.00000e-01	2.423545e+10	
9	-4.50000e-01	2.703202e+10	
10	-5.00000e-01	2.937259e+10	
11	-5.50000e-01	3.135527e+10	
12	-6.00000e-01	3.305816e+10	
13	-6.50000e-01	3.454059e+10	
14	-7.00000e-01	3.584702e+10	
15	-7.50000e-01	3.701086e+10	
16	-8.00000e-01	3.805744e+10	
17	-8.50000e-01	3.900619e+10	
18	-9.00000e-01	3.987227e+10	
19	-9.50000e-01	4.066763e+10	
20	-1.00000e+00	4.140186e+10	
21	-1.05000e+00	4.208273e+10	
22	-1.10000e+00	4.271665e+10	
23	-1.15000e+00	4.330891e+10	
24	-1.20000e+00	4.386399e+10	
25	-1.25000e+00	4.438568e+10	
26	-1.30000e+00	4.487721e+10	
27	-1.35000e+00	4.534138e+10	
28	-1.40000e+00	4.578061e+10	
29	-1.45000e+00	4.619704e+10	
30	-1.50000e+00	4.659251e+10	
31	-1.55000e+00	4.696867e+10	
32	-1.60000e+00	4.732696e+10	
33	-1.65000e+00	4.766868e+10	
34	-1.70000e+00	4.799495e+10	
35	-1.75000e+00	4.830675e+10	
36	-1.80000e+00	4.860493e+10	
37	-1.85000e+00	4.889020e+10	
38	-1.90000e+00	4.916313e+10	
39	-1.95000e+00	4.942415e+10	
40	-2.00000e+00	4.967353e+10	
41	-2.05000e+00	4.991135e+10	
42	-2.10000e+00	5.013754e+10	
43	-2.15000e+00	5.035180e+10	
44	-2.20000e+00	5.055361e+10	
45	-2.25000e+00	5.074221e+10	
46	-2.30000e+00	5.091657e+10	
47	-2.35000e+00	5.107540e+10	
48	-2.40000e+00	5.121708e+10	
49	-2.45000e+00	5.133971e+10	
50	-2.50000e+00	5.144105e+10	
51	-2.55000e+00	5.151857e+10	
52	-2.60000e+00	5.156941e+10	
53	-2.65000e+00	5.159043e+10	
54	-2.70000e+00	5.157821e+10	

Index   v-sweep         rds             
--------------------------------------------------------------------------------
55	-2.75000e+00	5.152913e+10	
56	-2.80000e+00	5.143937e+10	
57	-2.85000e+00	5.130502e+10	
58	-2.90000e+00	5.112213e+10	
59	-2.95000e+00	5.088683e+10	
60	-3.00000e+00	5.059540e+10	
61	-3.05000e+00	5.024440e+10	
62	-3.10000e+00	4.983079e+10	
63	-3.15000e+00	4.935205e+10	
64	-3.20000e+00	4.880628e+10	
65	-3.25000e+00	4.819232e+10	
66	-3.30000e+00	4.750982e+10	
Reset re-loads circuit ***************************

Circuit: ***************************

Doing analysis at TEMP = -40.000000 and TNOM = -40.000000


No. of Data Rows : 67
                          ***************************
                          DC transfer characteristic  Mon Jan  9 13:57:31  2023
--------------------------------------------------------------------------------
Index   v-sweep         rds             
--------------------------------------------------------------------------------
0	0.000000e+00	2.421071e+05	
1	-5.00000e-02	2.869553e+05	
2	-1.00000e-01	3.518403e+05	
3	-1.50000e-01	4.534686e+05	
4	-2.00000e-01	6.321136e+05	
5	-2.50000e-01	1.003057e+06	
6	-3.00000e-01	1.944989e+06	
7	-3.50000e-01	4.608621e+06	
8	-4.00000e-01	1.125618e+07	
9	-4.50000e-01	2.400399e+07	
10	-5.00000e-01	4.302274e+07	
11	-5.50000e-01	6.654975e+07	
12	-6.00000e-01	9.225065e+07	
13	-6.50000e-01	1.182927e+08	
14	-7.00000e-01	1.436135e+08	
15	-7.50000e-01	1.677463e+08	
16	-8.00000e-01	1.905728e+08	
17	-8.50000e-01	2.121442e+08	
18	-9.00000e-01	2.325777e+08	
19	-9.50000e-01	2.520059e+08	
20	-1.00000e+00	2.705544e+08	
21	-1.05000e+00	2.883338e+08	
22	-1.10000e+00	3.054378e+08	
23	-1.15000e+00	3.219449e+08	
24	-1.20000e+00	3.379206e+08	
25	-1.25000e+00	3.534188e+08	
26	-1.30000e+00	3.684850e+08	
27	-1.35000e+00	3.831569e+08	
28	-1.40000e+00	3.974665e+08	
29	-1.45000e+00	4.114409e+08	
30	-1.50000e+00	4.251034e+08	
31	-1.55000e+00	4.384740e+08	
32	-1.60000e+00	4.515700e+08	
33	-1.65000e+00	4.644066e+08	
34	-1.70000e+00	4.769973e+08	
35	-1.75000e+00	4.893539e+08	
36	-1.80000e+00	5.014867e+08	
37	-1.85000e+00	5.134048e+08	
38	-1.90000e+00	5.251162e+08	
39	-1.95000e+00	5.366275e+08	
40	-2.00000e+00	5.479437e+08	
41	-2.05000e+00	5.590681e+08	
42	-2.10000e+00	5.700019e+08	
43	-2.15000e+00	5.807436e+08	
44	-2.20000e+00	5.912879e+08	
45	-2.25000e+00	6.016256e+08	
46	-2.30000e+00	6.117418e+08	
47	-2.35000e+00	6.216150e+08	
48	-2.40000e+00	6.312156e+08	
49	-2.45000e+00	6.405046e+08	
50	-2.50000e+00	6.494317e+08	
51	-2.55000e+00	6.579338e+08	
52	-2.60000e+00	6.659338e+08	
53	-2.65000e+00	6.733391e+08	
54	-2.70000e+00	6.800405e+08	

Index   v-sweep         rds             
--------------------------------------------------------------------------------
55	-2.75000e+00	6.859125e+08	
56	-2.80000e+00	6.908133e+08	
57	-2.85000e+00	6.945867e+08	
58	-2.90000e+00	6.970648e+08	
59	-2.95000e+00	6.980725e+08	
60	-3.00000e+00	6.974333e+08	
61	-3.05000e+00	6.949769e+08	
62	-3.10000e+00	6.905480e+08	
63	-3.15000e+00	6.840157e+08	
64	-3.20000e+00	6.752843e+08	
65	-3.25000e+00	6.643015e+08	
66	-3.30000e+00	6.510675e+08	
Reset re-loads circuit ***************************

Circuit: ***************************

Doing analysis at TEMP = -40.000000 and TNOM = -40.000000


No. of Data Rows : 67
                          ***************************
                          DC transfer characteristic  Mon Jan  9 13:57:31  2023
--------------------------------------------------------------------------------
Index   v-sweep         rds             
--------------------------------------------------------------------------------
0	0.000000e+00	1.206040e+05	
1	-5.00000e-02	1.304700e+05	
2	-1.00000e-01	1.420760e+05	
3	-1.50000e-01	1.559249e+05	
4	-2.00000e-01	1.727324e+05	
5	-2.50000e-01	1.935517e+05	
6	-3.00000e-01	2.199942e+05	
7	-3.50000e-01	2.546460e+05	
8	-4.00000e-01	3.018998e+05	
9	-4.50000e-01	3.697444e+05	
10	-5.00000e-01	4.739071e+05	
11	-5.50000e-01	6.480266e+05	
12	-6.00000e-01	9.686629e+05	
13	-6.50000e-01	1.607571e+06	
14	-7.00000e-01	2.890734e+06	
15	-7.50000e-01	5.244458e+06	
16	-8.00000e-01	8.949882e+06	
17	-8.50000e-01	1.393256e+07	
18	-9.00000e-01	1.982461e+07	
19	-9.50000e-01	2.618700e+07	
20	-1.00000e+00	3.267223e+07	
21	-1.05000e+00	3.906662e+07	
22	-1.10000e+00	4.526461e+07	
23	-1.15000e+00	5.122863e+07	
24	-1.20000e+00	5.695756e+07	
25	-1.25000e+00	6.246702e+07	
26	-1.30000e+00	6.777869e+07	
27	-1.35000e+00	7.291491e+07	
28	-1.40000e+00	7.789638e+07	
29	-1.45000e+00	8.274131e+07	
30	-1.50000e+00	8.746530e+07	
31	-1.55000e+00	9.208157e+07	
32	-1.60000e+00	9.660120e+07	
33	-1.65000e+00	1.010335e+08	
34	-1.70000e+00	1.053864e+08	
35	-1.75000e+00	1.096665e+08	
36	-1.80000e+00	1.138793e+08	
37	-1.85000e+00	1.180298e+08	
38	-1.90000e+00	1.221219e+08	
39	-1.95000e+00	1.261593e+08	
40	-2.00000e+00	1.301449e+08	
41	-2.05000e+00	1.340815e+08	
42	-2.10000e+00	1.379713e+08	
43	-2.15000e+00	1.418163e+08	
44	-2.20000e+00	1.456183e+08	
45	-2.25000e+00	1.493785e+08	
46	-2.30000e+00	1.530979e+08	
47	-2.35000e+00	1.567772e+08	
48	-2.40000e+00	1.604162e+08	
49	-2.45000e+00	1.640143e+08	
50	-2.50000e+00	1.675699e+08	
51	-2.55000e+00	1.710799e+08	
52	-2.60000e+00	1.745400e+08	
53	-2.65000e+00	1.779438e+08	
54	-2.70000e+00	1.812824e+08	

Index   v-sweep         rds             
--------------------------------------------------------------------------------
55	-2.75000e+00	1.845439e+08	
56	-2.80000e+00	1.877128e+08	
57	-2.85000e+00	1.907694e+08	
58	-2.90000e+00	1.936893e+08	
59	-2.95000e+00	1.964426e+08	
60	-3.00000e+00	1.989935e+08	
61	-3.05000e+00	2.013001e+08	
62	-3.10000e+00	2.033142e+08	
63	-3.15000e+00	2.049819e+08	
64	-3.20000e+00	2.062441e+08	
65	-3.25000e+00	2.070382e+08	
66	-3.30000e+00	2.073000e+08	
Reset re-loads circuit ***************************

Circuit: ***************************

Doing analysis at TEMP = -40.000000 and TNOM = -40.000000


No. of Data Rows : 67
                          ***************************
                          DC transfer characteristic  Mon Jan  9 13:57:31  2023
--------------------------------------------------------------------------------
Index   v-sweep         rds             
--------------------------------------------------------------------------------
0	0.000000e+00	8.386112e+04	
1	-5.00000e-02	8.818387e+04	
2	-1.00000e-01	9.297065e+04	
3	-1.50000e-01	9.830031e+04	
4	-2.00000e-01	1.042706e+05	
5	-2.50000e-01	1.110042e+05	
6	-3.00000e-01	1.186569e+05	
7	-3.50000e-01	1.274303e+05	
8	-4.00000e-01	1.375886e+05	
9	-4.50000e-01	1.494859e+05	
10	-5.00000e-01	1.636068e+05	
11	-5.50000e-01	1.806319e+05	
12	-6.00000e-01	2.015450e+05	
13	-6.50000e-01	2.278183e+05	
14	-7.00000e-01	2.617428e+05	
15	-7.50000e-01	3.070485e+05	
16	-8.00000e-01	3.701221e+05	
17	-8.50000e-01	4.624855e+05	
18	-9.00000e-01	6.058874e+05	
19	-9.50000e-01	8.421465e+05	
20	-1.00000e+00	1.248301e+06	
21	-1.05000e+00	1.946669e+06	
22	-1.10000e+00	3.081014e+06	
23	-1.15000e+00	4.745888e+06	
24	-1.20000e+00	6.923279e+06	
25	-1.25000e+00	9.491812e+06	
26	-1.30000e+00	1.229191e+07	
27	-1.35000e+00	1.518476e+07	
28	-1.40000e+00	1.807580e+07	
29	-1.45000e+00	2.091178e+07	
30	-1.50000e+00	2.366844e+07	
31	-1.55000e+00	2.633883e+07	
32	-1.60000e+00	2.892507e+07	
33	-1.65000e+00	3.143341e+07	
34	-1.70000e+00	3.387149e+07	
35	-1.75000e+00	3.624697e+07	
36	-1.80000e+00	3.856692e+07	
37	-1.85000e+00	4.083759e+07	
38	-1.90000e+00	4.306438e+07	
39	-1.95000e+00	4.525190e+07	
40	-2.00000e+00	4.740406e+07	
41	-2.05000e+00	4.952420e+07	
42	-2.10000e+00	5.161514e+07	
43	-2.15000e+00	5.367925e+07	
44	-2.20000e+00	5.571860e+07	
45	-2.25000e+00	5.773493e+07	
46	-2.30000e+00	5.972974e+07	
47	-2.35000e+00	6.170434e+07	
48	-2.40000e+00	6.365984e+07	
49	-2.45000e+00	6.559720e+07	
50	-2.50000e+00	6.751726e+07	
51	-2.55000e+00	6.942070e+07	
52	-2.60000e+00	7.130805e+07	
53	-2.65000e+00	7.317971e+07	
54	-2.70000e+00	7.503582e+07	

Index   v-sweep         rds             
--------------------------------------------------------------------------------
55	-2.75000e+00	7.687632e+07	
56	-2.80000e+00	7.870074e+07	
57	-2.85000e+00	8.050821e+07	
58	-2.90000e+00	8.229723e+07	
59	-2.95000e+00	8.406552e+07	
60	-3.00000e+00	8.580984e+07	
61	-3.05000e+00	8.752568e+07	
62	-3.10000e+00	8.920702e+07	
63	-3.15000e+00	9.084600e+07	
64	-3.20000e+00	9.243257e+07	
65	-3.25000e+00	9.395418e+07	
66	-3.30000e+00	9.539543e+07	
Reset re-loads circuit ***************************

Circuit: ***************************

Doing analysis at TEMP = -40.000000 and TNOM = -40.000000


No. of Data Rows : 67
                          ***************************
                          DC transfer characteristic  Mon Jan  9 13:57:31  2023
--------------------------------------------------------------------------------
Index   v-sweep         rds             
--------------------------------------------------------------------------------
0	0.000000e+00	6.658210e+04	
1	-5.00000e-02	6.905218e+04	
2	-1.00000e-01	7.170967e+04	
3	-1.50000e-01	7.457675e+04	
4	-2.00000e-01	7.767919e+04	
5	-2.50000e-01	8.104721e+04	
6	-3.00000e-01	8.471637e+04	
7	-3.50000e-01	8.872892e+04	
8	-4.00000e-01	9.313534e+04	
9	-4.50000e-01	9.799653e+04	
10	-5.00000e-01	1.033866e+05	
11	-5.50000e-01	1.093964e+05	
12	-6.00000e-01	1.161393e+05	
13	-6.50000e-01	1.237573e+05	
14	-7.00000e-01	1.324318e+05	
15	-7.50000e-01	1.423975e+05	
16	-8.00000e-01	1.539634e+05	
17	-8.50000e-01	1.675439e+05	
18	-9.00000e-01	1.837075e+05	
19	-9.50000e-01	2.032532e+05	
20	-1.00000e+00	2.273352e+05	
21	-1.05000e+00	2.576737e+05	
22	-1.10000e+00	2.969222e+05	
23	-1.15000e+00	3.493261e+05	
24	-1.20000e+00	4.219250e+05	
25	-1.25000e+00	5.267329e+05	
26	-1.30000e+00	6.844460e+05	
27	-1.35000e+00	9.296413e+05	
28	-1.40000e+00	1.314618e+06	
29	-1.45000e+00	1.903877e+06	
30	-1.50000e+00	2.751859e+06	
31	-1.55000e+00	3.873510e+06	
32	-1.60000e+00	5.233036e+06	
33	-1.65000e+00	6.761062e+06	
34	-1.70000e+00	8.383066e+06	
35	-1.75000e+00	1.003898e+07	
36	-1.80000e+00	1.168896e+07	
37	-1.85000e+00	1.331058e+07	
38	-1.90000e+00	1.489351e+07	
39	-1.95000e+00	1.643471e+07	
40	-2.00000e+00	1.793511e+07	
41	-2.05000e+00	1.939749e+07	
42	-2.10000e+00	2.082534e+07	
43	-2.15000e+00	2.222222e+07	
44	-2.20000e+00	2.359147e+07	
45	-2.25000e+00	2.493607e+07	
46	-2.30000e+00	2.625865e+07	
47	-2.35000e+00	2.756148e+07	
48	-2.40000e+00	2.884648e+07	
49	-2.45000e+00	3.011532e+07	
50	-2.50000e+00	3.136942e+07	
51	-2.55000e+00	3.260999e+07	
52	-2.60000e+00	3.383808e+07	
53	-2.65000e+00	3.505456e+07	
54	-2.70000e+00	3.626022e+07	

Index   v-sweep         rds             
--------------------------------------------------------------------------------
55	-2.75000e+00	3.745572e+07	
56	-2.80000e+00	3.864163e+07	
57	-2.85000e+00	3.981845e+07	
58	-2.90000e+00	4.098658e+07	
59	-2.95000e+00	4.214636e+07	
60	-3.00000e+00	4.329803e+07	
61	-3.05000e+00	4.444173e+07	
62	-3.10000e+00	4.557745e+07	
63	-3.15000e+00	4.670502e+07	
64	-3.20000e+00	4.782401e+07	
65	-3.25000e+00	4.893368e+07	
66	-3.30000e+00	5.003287e+07	
Reset re-loads circuit ***************************

Circuit: ***************************

Doing analysis at TEMP = -40.000000 and TNOM = -40.000000


No. of Data Rows : 67
                          ***************************
                          DC transfer characteristic  Mon Jan  9 13:57:31  2023
--------------------------------------------------------------------------------
Index   v-sweep         rds             
--------------------------------------------------------------------------------
0	0.000000e+00	5.681219e+04	
1	-5.00000e-02	5.843853e+04	
2	-1.00000e-01	6.015898e+04	
3	-1.50000e-01	6.198196e+04	
4	-2.00000e-01	6.391690e+04	
5	-2.50000e-01	6.597445e+04	
6	-3.00000e-01	6.816662e+04	
7	-3.50000e-01	7.050709e+04	
8	-4.00000e-01	7.301139e+04	
9	-4.50000e-01	7.569736e+04	
10	-5.00000e-01	7.858548e+04	
11	-5.50000e-01	8.169944e+04	
12	-6.00000e-01	8.506677e+04	
13	-6.50000e-01	8.871968e+04	
14	-7.00000e-01	9.269602e+04	
15	-7.50000e-01	9.704067e+04	
16	-8.00000e-01	1.018072e+05	
17	-8.50000e-01	1.070599e+05	
18	-9.00000e-01	1.128770e+05	
19	-9.50000e-01	1.193542e+05	
20	-1.00000e+00	1.266102e+05	
21	-1.05000e+00	1.347933e+05	
22	-1.10000e+00	1.440921e+05	
23	-1.15000e+00	1.547491e+05	
24	-1.20000e+00	1.670815e+05	
25	-1.25000e+00	1.815114e+05	
26	-1.30000e+00	1.986120e+05	
27	-1.35000e+00	2.191781e+05	
28	-1.40000e+00	2.443395e+05	
29	-1.45000e+00	2.757439e+05	
30	-1.50000e+00	3.158610e+05	
31	-1.55000e+00	3.684933e+05	
32	-1.60000e+00	4.396318e+05	
33	-1.65000e+00	5.388336e+05	
34	-1.70000e+00	6.812106e+05	
35	-1.75000e+00	8.895596e+05	
36	-1.80000e+00	1.194748e+06	
37	-1.85000e+00	1.630918e+06	
38	-1.90000e+00	2.223824e+06	
39	-1.95000e+00	2.977804e+06	
40	-2.00000e+00	3.871724e+06	
41	-2.05000e+00	4.867434e+06	
42	-2.10000e+00	5.923477e+06	
43	-2.15000e+00	7.005204e+06	
44	-2.20000e+00	8.088437e+06	
45	-2.25000e+00	9.158635e+06	
46	-2.30000e+00	1.020836e+07	
47	-2.35000e+00	1.123472e+07	
48	-2.40000e+00	1.223749e+07	
49	-2.45000e+00	1.321780e+07	
50	-2.50000e+00	1.417740e+07	
51	-2.55000e+00	1.511824e+07	
52	-2.60000e+00	1.604222e+07	
53	-2.65000e+00	1.695108e+07	
54	-2.70000e+00	1.784640e+07	

Index   v-sweep         rds             
--------------------------------------------------------------------------------
55	-2.75000e+00	1.872955e+07	
56	-2.80000e+00	1.960172e+07	
57	-2.85000e+00	2.046394e+07	
58	-2.90000e+00	2.131710e+07	
59	-2.95000e+00	2.216196e+07	
60	-3.00000e+00	2.299918e+07	
61	-3.05000e+00	2.382932e+07	
62	-3.10000e+00	2.465287e+07	
63	-3.15000e+00	2.547026e+07	
64	-3.20000e+00	2.628185e+07	
65	-3.25000e+00	2.708795e+07	
66	-3.30000e+00	2.788883e+07	
Reset re-loads circuit ***************************

Circuit: ***************************

Note: No ".plot", ".print", or ".fourier" lines; no simulations run
