
Note: Compatibility modes selected: hs

Warning: m=xx on .subckt line will override multiplier m hierarchy!


Circuit: ***************************

Doing analysis at TEMP = -40.000000 and TNOM = -40.000000


No. of Data Rows : 67
                          ***************************
                          DC transfer characteristic  Mon Jan  9 13:57:31  2023
--------------------------------------------------------------------------------
Index   v-sweep         rds             
--------------------------------------------------------------------------------
0	0.000000e+00	1.503559e+06	
1	-5.00000e-02	1.037942e+07	
2	-1.00000e-01	7.690871e+07	
3	-1.50000e-01	1.853349e+08	
4	-2.00000e-01	2.625947e+08	
5	-2.50000e-01	3.104344e+08	
6	-3.00000e-01	3.431576e+08	
7	-3.50000e-01	3.681669e+08	
8	-4.00000e-01	3.887955e+08	
9	-4.50000e-01	4.066278e+08	
10	-5.00000e-01	4.224875e+08	
11	-5.50000e-01	4.368443e+08	
12	-6.00000e-01	4.499899e+08	
13	-6.50000e-01	4.621197e+08	
14	-7.00000e-01	4.733731e+08	
15	-7.50000e-01	4.838554e+08	
16	-8.00000e-01	4.936490e+08	
17	-8.50000e-01	5.028214e+08	
18	-9.00000e-01	5.114287e+08	
19	-9.50000e-01	5.195189e+08	
20	-1.00000e+00	5.271334e+08	
21	-1.05000e+00	5.343088e+08	
22	-1.10000e+00	5.410773e+08	
23	-1.15000e+00	5.474680e+08	
24	-1.20000e+00	5.535067e+08	
25	-1.25000e+00	5.592170e+08	
26	-1.30000e+00	5.646203e+08	
27	-1.35000e+00	5.697359e+08	
28	-1.40000e+00	5.745818e+08	
29	-1.45000e+00	5.791743e+08	
30	-1.50000e+00	5.835282e+08	
31	-1.55000e+00	5.876574e+08	
32	-1.60000e+00	5.915744e+08	
33	-1.65000e+00	5.952908e+08	
34	-1.70000e+00	5.988168e+08	
35	-1.75000e+00	6.021619e+08	
36	-1.80000e+00	6.053341e+08	
37	-1.85000e+00	6.083404e+08	
38	-1.90000e+00	6.111862e+08	
39	-1.95000e+00	6.138756e+08	
40	-2.00000e+00	6.164107e+08	
41	-2.05000e+00	6.187919e+08	
42	-2.10000e+00	6.210172e+08	
43	-2.15000e+00	6.230820e+08	
44	-2.20000e+00	6.249791e+08	
45	-2.25000e+00	6.266981e+08	
46	-2.30000e+00	6.282252e+08	
47	-2.35000e+00	6.295428e+08	
48	-2.40000e+00	6.306295e+08	
49	-2.45000e+00	6.314598e+08	
50	-2.50000e+00	6.320039e+08	
51	-2.55000e+00	6.322277e+08	
52	-2.60000e+00	6.320930e+08	
53	-2.65000e+00	6.315578e+08	
54	-2.70000e+00	6.305762e+08	

Index   v-sweep         rds             
--------------------------------------------------------------------------------
55	-2.75000e+00	6.290997e+08	
56	-2.80000e+00	6.270774e+08	
57	-2.85000e+00	6.244572e+08	
58	-2.90000e+00	6.211867e+08	
59	-2.95000e+00	6.172151e+08	
60	-3.00000e+00	6.124942e+08	
61	-3.05000e+00	6.069802e+08	
62	-3.10000e+00	6.006355e+08	
63	-3.15000e+00	5.934306e+08	
64	-3.20000e+00	5.853453e+08	
65	-3.25000e+00	5.763703e+08	
66	-3.30000e+00	5.665090e+08	
Reset re-loads circuit ***************************

Circuit: ***************************

Doing analysis at TEMP = -40.000000 and TNOM = -40.000000


No. of Data Rows : 67
                          ***************************
                          DC transfer characteristic  Mon Jan  9 13:57:31  2023
--------------------------------------------------------------------------------
Index   v-sweep         rds             
--------------------------------------------------------------------------------
0	0.000000e+00	4.717923e+04	
1	-5.00000e-02	5.420136e+04	
2	-1.00000e-01	6.351963e+04	
3	-1.50000e-01	7.645580e+04	
4	-2.00000e-01	9.553531e+04	
5	-2.50000e-01	1.260981e+05	
6	-3.00000e-01	1.807098e+05	
7	-3.50000e-01	2.903263e+05	
8	-4.00000e-01	5.154171e+05	
9	-4.50000e-01	8.889897e+05	
10	-5.00000e-01	1.318568e+06	
11	-5.50000e-01	1.697946e+06	
12	-6.00000e-01	2.008415e+06	
13	-6.50000e-01	2.269166e+06	
14	-7.00000e-01	2.498740e+06	
15	-7.50000e-01	2.708793e+06	
16	-8.00000e-01	2.906047e+06	
17	-8.50000e-01	3.094387e+06	
18	-9.00000e-01	3.276120e+06	
19	-9.50000e-01	3.452673e+06	
20	-1.00000e+00	3.624959e+06	
21	-1.05000e+00	3.793590e+06	
22	-1.10000e+00	3.958990e+06	
23	-1.15000e+00	4.121460e+06	
24	-1.20000e+00	4.281226e+06	
25	-1.25000e+00	4.438459e+06	
26	-1.30000e+00	4.593295e+06	
27	-1.35000e+00	4.745843e+06	
28	-1.40000e+00	4.896195e+06	
29	-1.45000e+00	5.044428e+06	
30	-1.50000e+00	5.190609e+06	
31	-1.55000e+00	5.334797e+06	
32	-1.60000e+00	5.477045e+06	
33	-1.65000e+00	5.617402e+06	
34	-1.70000e+00	5.755912e+06	
35	-1.75000e+00	5.892617e+06	
36	-1.80000e+00	6.027552e+06	
37	-1.85000e+00	6.160754e+06	
38	-1.90000e+00	6.292253e+06	
39	-1.95000e+00	6.422076e+06	
40	-2.00000e+00	6.550243e+06	
41	-2.05000e+00	6.676767e+06	
42	-2.10000e+00	6.801648e+06	
43	-2.15000e+00	6.924873e+06	
44	-2.20000e+00	7.046404e+06	
45	-2.25000e+00	7.166178e+06	
46	-2.30000e+00	7.284093e+06	
47	-2.35000e+00	7.400000e+06	
48	-2.40000e+00	7.513688e+06	
49	-2.45000e+00	7.624876e+06	
50	-2.50000e+00	7.733190e+06	
51	-2.55000e+00	7.838153e+06	
52	-2.60000e+00	7.939163e+06	
53	-2.65000e+00	8.035479e+06	
54	-2.70000e+00	8.126205e+06	

Index   v-sweep         rds             
--------------------------------------------------------------------------------
55	-2.75000e+00	8.210276e+06	
56	-2.80000e+00	8.286448e+06	
57	-2.85000e+00	8.353298e+06	
58	-2.90000e+00	8.409225e+06	
59	-2.95000e+00	8.452475e+06	
60	-3.00000e+00	8.481160e+06	
61	-3.05000e+00	8.493314e+06	
62	-3.10000e+00	8.486946e+06	
63	-3.15000e+00	8.460122e+06	
64	-3.20000e+00	8.411056e+06	
65	-3.25000e+00	8.338213e+06	
66	-3.30000e+00	8.240413e+06	
Reset re-loads circuit ***************************

Circuit: ***************************

Doing analysis at TEMP = -40.000000 and TNOM = -40.000000


No. of Data Rows : 67
                          ***************************
                          DC transfer characteristic  Mon Jan  9 13:57:31  2023
--------------------------------------------------------------------------------
Index   v-sweep         rds             
--------------------------------------------------------------------------------
0	0.000000e+00	2.458168e+04	
1	-5.00000e-02	2.635461e+04	
2	-1.00000e-01	2.837709e+04	
3	-1.50000e-01	3.070559e+04	
4	-2.00000e-01	3.341491e+04	
5	-2.50000e-01	3.660619e+04	
6	-3.00000e-01	4.041948e+04	
7	-3.50000e-01	4.505406e+04	
8	-4.00000e-01	5.080255e+04	
9	-4.50000e-01	5.811037e+04	
10	-5.00000e-01	6.768333e+04	
11	-5.50000e-01	8.068840e+04	
12	-6.00000e-01	9.912710e+04	
13	-6.50000e-01	1.264634e+05	
14	-7.00000e-01	1.682477e+05	
15	-7.50000e-01	2.309121e+05	
16	-8.00000e-01	3.154537e+05	
17	-8.50000e-01	4.113726e+05	
18	-9.00000e-01	5.045591e+05	
19	-9.50000e-01	5.884487e+05	
20	-1.00000e+00	6.633175e+05	
21	-1.05000e+00	7.315017e+05	
22	-1.10000e+00	7.951086e+05	
23	-1.15000e+00	8.555954e+05	
24	-1.20000e+00	9.138959e+05	
25	-1.25000e+00	9.706008e+05	
26	-1.30000e+00	1.026088e+06	
27	-1.35000e+00	1.080605e+06	
28	-1.40000e+00	1.134318e+06	
29	-1.45000e+00	1.187339e+06	
30	-1.50000e+00	1.239751e+06	
31	-1.55000e+00	1.291610e+06	
32	-1.60000e+00	1.342961e+06	
33	-1.65000e+00	1.393835e+06	
34	-1.70000e+00	1.444259e+06	
35	-1.75000e+00	1.494251e+06	
36	-1.80000e+00	1.543829e+06	
37	-1.85000e+00	1.593006e+06	
38	-1.90000e+00	1.641793e+06	
39	-1.95000e+00	1.690199e+06	
40	-2.00000e+00	1.738233e+06	
41	-2.05000e+00	1.785903e+06	
42	-2.10000e+00	1.833213e+06	
43	-2.15000e+00	1.880171e+06	
44	-2.20000e+00	1.926781e+06	
45	-2.25000e+00	1.973047e+06	
46	-2.30000e+00	2.018972e+06	
47	-2.35000e+00	2.064556e+06	
48	-2.40000e+00	2.109799e+06	
49	-2.45000e+00	2.154696e+06	
50	-2.50000e+00	2.199237e+06	
51	-2.55000e+00	2.243405e+06	
52	-2.60000e+00	2.287173e+06	
53	-2.65000e+00	2.330503e+06	
54	-2.70000e+00	2.373339e+06	

Index   v-sweep         rds             
--------------------------------------------------------------------------------
55	-2.75000e+00	2.415604e+06	
56	-2.80000e+00	2.457193e+06	
57	-2.85000e+00	2.497969e+06	
58	-2.90000e+00	2.537756e+06	
59	-2.95000e+00	2.576330e+06	
60	-3.00000e+00	2.613412e+06	
61	-3.05000e+00	2.648664e+06	
62	-3.10000e+00	2.681679e+06	
63	-3.15000e+00	2.711978e+06	
64	-3.20000e+00	2.739008e+06	
65	-3.25000e+00	2.762145e+06	
66	-3.30000e+00	2.780697e+06	
Reset re-loads circuit ***************************

Circuit: ***************************

Doing analysis at TEMP = -40.000000 and TNOM = -40.000000


No. of Data Rows : 67
                          ***************************
                          DC transfer characteristic  Mon Jan  9 13:57:31  2023
--------------------------------------------------------------------------------
Index   v-sweep         rds             
--------------------------------------------------------------------------------
0	0.000000e+00	1.762713e+04	
1	-5.00000e-02	1.848103e+04	
2	-1.00000e-01	1.941127e+04	
3	-1.50000e-01	2.042855e+04	
4	-2.00000e-01	2.154565e+04	
5	-2.50000e-01	2.277795e+04	
6	-3.00000e-01	2.414420e+04	
7	-3.50000e-01	2.566739e+04	
8	-4.00000e-01	2.737609e+04	
9	-4.50000e-01	2.930622e+04	
10	-5.00000e-01	3.150349e+04	
11	-5.50000e-01	3.402704e+04	
12	-6.00000e-01	3.695459e+04	
13	-6.50000e-01	4.039015e+04	
14	-7.00000e-01	4.447580e+04	
15	-7.50000e-01	4.940990e+04	
16	-8.00000e-01	5.547569e+04	
17	-8.50000e-01	6.308661e+04	
18	-9.00000e-01	7.285560e+04	
19	-9.50000e-01	8.569035e+04	
20	-1.00000e+00	1.028781e+05	
21	-1.05000e+00	1.259964e+05	
22	-1.10000e+00	1.562714e+05	
23	-1.15000e+00	1.932338e+05	
24	-1.20000e+00	2.340006e+05	
25	-1.25000e+00	2.748853e+05	
26	-1.30000e+00	3.136320e+05	
27	-1.35000e+00	3.497445e+05	
28	-1.40000e+00	3.836034e+05	
29	-1.45000e+00	4.157655e+05	
30	-1.50000e+00	4.466991e+05	
31	-1.55000e+00	4.767404e+05	
32	-1.60000e+00	5.061189e+05	
33	-1.65000e+00	5.349888e+05	
34	-1.70000e+00	5.634544e+05	
35	-1.75000e+00	5.915873e+05	
36	-1.80000e+00	6.194374e+05	
37	-1.85000e+00	6.470403e+05	
38	-1.90000e+00	6.744217e+05	
39	-1.95000e+00	7.016009e+05	
40	-2.00000e+00	7.285920e+05	
41	-2.05000e+00	7.554062e+05	
42	-2.10000e+00	7.820521e+05	
43	-2.15000e+00	8.085366e+05	
44	-2.20000e+00	8.348651e+05	
45	-2.25000e+00	8.610423e+05	
46	-2.30000e+00	8.870719e+05	
47	-2.35000e+00	9.129572e+05	
48	-2.40000e+00	9.387008e+05	
49	-2.45000e+00	9.643053e+05	
50	-2.50000e+00	9.897724e+05	
51	-2.55000e+00	1.015104e+06	
52	-2.60000e+00	1.040301e+06	
53	-2.65000e+00	1.065364e+06	
54	-2.70000e+00	1.090294e+06	

Index   v-sweep         rds             
--------------------------------------------------------------------------------
55	-2.75000e+00	1.115088e+06	
56	-2.80000e+00	1.139743e+06	
57	-2.85000e+00	1.164253e+06	
58	-2.90000e+00	1.188610e+06	
59	-2.95000e+00	1.212797e+06	
60	-3.00000e+00	1.236794e+06	
61	-3.05000e+00	1.260568e+06	
62	-3.10000e+00	1.284079e+06	
63	-3.15000e+00	1.307267e+06	
64	-3.20000e+00	1.330057e+06	
65	-3.25000e+00	1.352351e+06	
66	-3.30000e+00	1.374021e+06	
Reset re-loads circuit ***************************

Circuit: ***************************

Doing analysis at TEMP = -40.000000 and TNOM = -40.000000


No. of Data Rows : 67
                          ***************************
                          DC transfer characteristic  Mon Jan  9 13:57:31  2023
--------------------------------------------------------------------------------
Index   v-sweep         rds             
--------------------------------------------------------------------------------
0	0.000000e+00	1.430430e+04	
1	-5.00000e-02	1.483002e+04	
2	-1.00000e-01	1.539008e+04	
3	-1.50000e-01	1.598795e+04	
4	-2.00000e-01	1.662757e+04	
5	-2.50000e-01	1.731346e+04	
6	-3.00000e-01	1.805081e+04	
7	-3.50000e-01	1.884563e+04	
8	-4.00000e-01	1.970487e+04	
9	-4.50000e-01	2.063667e+04	
10	-5.00000e-01	2.165061e+04	
11	-5.50000e-01	2.275799e+04	
12	-6.00000e-01	2.397231e+04	
13	-6.50000e-01	2.530977e+04	
14	-7.00000e-01	2.678998e+04	
15	-7.50000e-01	2.843697e+04	
16	-8.00000e-01	3.028037e+04	
17	-8.50000e-01	3.235721e+04	
18	-9.00000e-01	3.471427e+04	
19	-9.50000e-01	3.741146e+04	
20	-1.00000e+00	4.052652e+04	
21	-1.05000e+00	4.416177e+04	
22	-1.10000e+00	4.845386e+04	
23	-1.15000e+00	5.358741e+04	
24	-1.20000e+00	5.981386e+04	
25	-1.25000e+00	6.747431e+04	
26	-1.30000e+00	7.701884e+04	
27	-1.35000e+00	8.899554e+04	
28	-1.40000e+00	1.039477e+05	
29	-1.45000e+00	1.221435e+05	
30	-1.50000e+00	1.432050e+05	
31	-1.55000e+00	1.660179e+05	
32	-1.60000e+00	1.892281e+05	
33	-1.65000e+00	2.118848e+05	
34	-1.70000e+00	2.336245e+05	
35	-1.75000e+00	2.544636e+05	
36	-1.80000e+00	2.745595e+05	
37	-1.85000e+00	2.940816e+05	
38	-1.90000e+00	3.131683e+05	
39	-1.95000e+00	3.319219e+05	
40	-2.00000e+00	3.504149e+05	
41	-2.05000e+00	3.686986e+05	
42	-2.10000e+00	3.868092e+05	
43	-2.15000e+00	4.047723e+05	
44	-2.20000e+00	4.226064e+05	
45	-2.25000e+00	4.403253e+05	
46	-2.30000e+00	4.579391e+05	
47	-2.35000e+00	4.754553e+05	
48	-2.40000e+00	4.928799e+05	
49	-2.45000e+00	5.102175e+05	
50	-2.50000e+00	5.274717e+05	
51	-2.55000e+00	5.446454e+05	
52	-2.60000e+00	5.617409e+05	
53	-2.65000e+00	5.787603e+05	
54	-2.70000e+00	5.957052e+05	

Index   v-sweep         rds             
--------------------------------------------------------------------------------
55	-2.75000e+00	6.125769e+05	
56	-2.80000e+00	6.293767e+05	
57	-2.85000e+00	6.461054e+05	
58	-2.90000e+00	6.627639e+05	
59	-2.95000e+00	6.793526e+05	
60	-3.00000e+00	6.958717e+05	
61	-3.05000e+00	7.123207e+05	
62	-3.10000e+00	7.286985e+05	
63	-3.15000e+00	7.450026e+05	
64	-3.20000e+00	7.612291e+05	
65	-3.25000e+00	7.773712e+05	
66	-3.30000e+00	7.934191e+05	
Reset re-loads circuit ***************************

Circuit: ***************************

Doing analysis at TEMP = -40.000000 and TNOM = -40.000000


No. of Data Rows : 67
                          ***************************
                          DC transfer characteristic  Mon Jan  9 13:57:31  2023
--------------------------------------------------------------------------------
Index   v-sweep         rds             
--------------------------------------------------------------------------------
0	0.000000e+00	1.238929e+04	
1	-5.00000e-02	1.275729e+04	
2	-1.00000e-01	1.314416e+04	
3	-1.50000e-01	1.355139e+04	
4	-2.00000e-01	1.398061e+04	
5	-2.50000e-01	1.443367e+04	
6	-3.00000e-01	1.491258e+04	
7	-3.50000e-01	1.541962e+04	
8	-4.00000e-01	1.595733e+04	
9	-4.50000e-01	1.652857e+04	
10	-5.00000e-01	1.713657e+04	
11	-5.50000e-01	1.778499e+04	
12	-6.00000e-01	1.847797e+04	
13	-6.50000e-01	1.922026e+04	
14	-7.00000e-01	2.001730e+04	
15	-7.50000e-01	2.087534e+04	
16	-8.00000e-01	2.180166e+04	
17	-8.50000e-01	2.280470e+04	
18	-9.00000e-01	2.389436e+04	
19	-9.50000e-01	2.508230e+04	
20	-1.00000e+00	2.638237e+04	
21	-1.05000e+00	2.781112e+04	
22	-1.10000e+00	2.938849e+04	
23	-1.15000e+00	3.113870e+04	
24	-1.20000e+00	3.309142e+04	
25	-1.25000e+00	3.528339e+04	
26	-1.30000e+00	3.776046e+04	
27	-1.35000e+00	4.058050e+04	
28	-1.40000e+00	4.381717e+04	
29	-1.45000e+00	4.756499e+04	
30	-1.50000e+00	5.194569e+04	
31	-1.55000e+00	5.711559e+04	
32	-1.60000e+00	6.327179e+04	
33	-1.65000e+00	7.065153e+04	
34	-1.70000e+00	7.951124e+04	
35	-1.75000e+00	9.006438e+04	
36	-1.80000e+00	1.023662e+05	
37	-1.85000e+00	1.161913e+05	
38	-1.90000e+00	1.310287e+05	
39	-1.95000e+00	1.462665e+05	
40	-2.00000e+00	1.614281e+05	
41	-2.05000e+00	1.762697e+05	
42	-2.10000e+00	1.907306e+05	
43	-2.15000e+00	2.048417e+05	
44	-2.20000e+00	2.186630e+05	
45	-2.25000e+00	2.322527e+05	
46	-2.30000e+00	2.456587e+05	
47	-2.35000e+00	2.589174e+05	
48	-2.40000e+00	2.720555e+05	
49	-2.45000e+00	2.850925e+05	
50	-2.50000e+00	2.980427e+05	
51	-2.55000e+00	3.109166e+05	
52	-2.60000e+00	3.237219e+05	
53	-2.65000e+00	3.364645e+05	
54	-2.70000e+00	3.491487e+05	

Index   v-sweep         rds             
--------------------------------------------------------------------------------
55	-2.75000e+00	3.617782e+05	
56	-2.80000e+00	3.743554e+05	
57	-2.85000e+00	3.868826e+05	
58	-2.90000e+00	3.993614e+05	
59	-2.95000e+00	4.117932e+05	
60	-3.00000e+00	4.241791e+05	
61	-3.05000e+00	4.365201e+05	
62	-3.10000e+00	4.488170e+05	
63	-3.15000e+00	4.610704e+05	
64	-3.20000e+00	4.732809e+05	
65	-3.25000e+00	4.854489e+05	
66	-3.30000e+00	4.975745e+05	
Reset re-loads circuit ***************************

Circuit: ***************************

Note: No ".plot", ".print", or ".fourier" lines; no simulations run
