
Note: Compatibility modes selected: hs

Warning: m=xx on .subckt line will override multiplier m hierarchy!


Circuit: ***************************

Doing analysis at TEMP = -40.000000 and TNOM = -40.000000


No. of Data Rows : 67
                          ***************************
                          DC transfer characteristic  Mon Jan  9 13:57:30  2023
--------------------------------------------------------------------------------
Index   v-sweep         rds             
--------------------------------------------------------------------------------
0	0.000000e+00	8.440438e+05	
1	-5.00000e-02	9.955528e+06	
2	-1.00000e-01	9.177921e+07	
3	-1.50000e-01	3.306427e+08	
4	-2.00000e-01	7.186026e+08	
5	-2.50000e-01	1.170759e+09	
6	-3.00000e-01	1.607181e+09	
7	-3.50000e-01	1.989928e+09	
8	-4.00000e-01	2.312490e+09	
9	-4.50000e-01	2.581756e+09	
10	-5.00000e-01	2.807704e+09	
11	-5.50000e-01	2.999466e+09	
12	-6.00000e-01	3.164369e+09	
13	-6.50000e-01	3.308017e+09	
14	-7.00000e-01	3.434636e+09	
15	-7.50000e-01	3.547417e+09	
16	-8.00000e-01	3.648791e+09	
17	-8.50000e-01	3.740633e+09	
18	-9.00000e-01	3.824408e+09	
19	-9.50000e-01	3.901277e+09	
20	-1.00000e+00	3.972172e+09	
21	-1.05000e+00	4.037854e+09	
22	-1.10000e+00	4.098946e+09	
23	-1.15000e+00	4.155969e+09	
24	-1.20000e+00	4.209360e+09	
25	-1.25000e+00	4.259492e+09	
26	-1.30000e+00	4.306681e+09	
27	-1.35000e+00	4.351204e+09	
28	-1.40000e+00	4.393297e+09	
29	-1.45000e+00	4.433169e+09	
30	-1.50000e+00	4.471004e+09	
31	-1.55000e+00	4.506963e+09	
32	-1.60000e+00	4.541187e+09	
33	-1.65000e+00	4.573802e+09	
34	-1.70000e+00	4.604920e+09	
35	-1.75000e+00	4.634637e+09	
36	-1.80000e+00	4.663037e+09	
37	-1.85000e+00	4.690188e+09	
38	-1.90000e+00	4.716148e+09	
39	-1.95000e+00	4.740958e+09	
40	-2.00000e+00	4.764646e+09	
41	-2.05000e+00	4.787221e+09	
42	-2.10000e+00	4.808677e+09	
43	-2.15000e+00	4.828985e+09	
44	-2.20000e+00	4.848098e+09	
45	-2.25000e+00	4.865942e+09	
46	-2.30000e+00	4.882420e+09	
47	-2.35000e+00	4.897408e+09	
48	-2.40000e+00	4.910752e+09	
49	-2.45000e+00	4.922270e+09	
50	-2.50000e+00	4.931748e+09	
51	-2.55000e+00	4.938944e+09	
52	-2.60000e+00	4.943585e+09	
53	-2.65000e+00	4.945370e+09	
54	-2.70000e+00	4.943972e+09	

Index   v-sweep         rds             
--------------------------------------------------------------------------------
55	-2.75000e+00	4.939045e+09	
56	-2.80000e+00	4.930225e+09	
57	-2.85000e+00	4.917136e+09	
58	-2.90000e+00	4.899402e+09	
59	-2.95000e+00	4.876653e+09	
60	-3.00000e+00	4.848532e+09	
61	-3.05000e+00	4.814713e+09	
62	-3.10000e+00	4.774904e+09	
63	-3.15000e+00	4.728865e+09	
64	-3.20000e+00	4.676415e+09	
65	-3.25000e+00	4.617443e+09	
66	-3.30000e+00	4.551917e+09	
Reset re-loads circuit ***************************

Circuit: ***************************

Doing analysis at TEMP = -40.000000 and TNOM = -40.000000


No. of Data Rows : 67
                          ***************************
                          DC transfer characteristic  Mon Jan  9 13:57:30  2023
--------------------------------------------------------------------------------
Index   v-sweep         rds             
--------------------------------------------------------------------------------
0	0.000000e+00	2.306878e+04	
1	-5.00000e-02	2.730970e+04	
2	-1.00000e-01	3.342749e+04	
3	-1.50000e-01	4.296930e+04	
4	-2.00000e-01	5.963589e+04	
5	-2.50000e-01	9.392017e+04	
6	-3.00000e-01	1.800440e+05	
7	-3.50000e-01	4.224366e+05	
8	-4.00000e-01	1.030098e+06	
9	-4.50000e-01	2.204490e+06	
10	-5.00000e-01	3.969743e+06	
11	-5.50000e-01	6.168599e+06	
12	-6.00000e-01	8.586449e+06	
13	-6.50000e-01	1.105149e+07	
14	-7.00000e-01	1.346157e+07	
15	-7.50000e-01	1.576958e+07	
16	-8.00000e-01	1.796139e+07	
17	-8.50000e-01	2.003935e+07	
18	-9.00000e-01	2.201272e+07	
19	-9.50000e-01	2.389269e+07	
20	-1.00000e+00	2.569020e+07	
21	-1.05000e+00	2.741505e+07	
22	-1.10000e+00	2.907569e+07	
23	-1.15000e+00	3.067925e+07	
24	-1.20000e+00	3.223171e+07	
25	-1.25000e+00	3.373807e+07	
26	-1.30000e+00	3.520255e+07	
27	-1.35000e+00	3.662867e+07	
28	-1.40000e+00	3.801945e+07	
29	-1.45000e+00	3.937744e+07	
30	-1.50000e+00	4.070486e+07	
31	-1.55000e+00	4.200361e+07	
32	-1.60000e+00	4.327536e+07	
33	-1.65000e+00	4.452158e+07	
34	-1.70000e+00	4.574355e+07	
35	-1.75000e+00	4.694242e+07	
36	-1.80000e+00	4.811920e+07	
37	-1.85000e+00	4.927479e+07	
38	-1.90000e+00	5.040995e+07	
39	-1.95000e+00	5.152534e+07	
40	-2.00000e+00	5.262146e+07	
41	-2.05000e+00	5.369865e+07	
42	-2.10000e+00	5.475703e+07	
43	-2.15000e+00	5.579647e+07	
44	-2.20000e+00	5.681650e+07	
45	-2.25000e+00	5.781621e+07	
46	-2.30000e+00	5.879420e+07	
47	-2.35000e+00	5.974838e+07	
48	-2.40000e+00	6.067593e+07	
49	-2.45000e+00	6.157306e+07	
50	-2.50000e+00	6.243492e+07	
51	-2.55000e+00	6.325541e+07	
52	-2.60000e+00	6.402706e+07	
53	-2.65000e+00	6.474089e+07	
54	-2.70000e+00	6.538633e+07	

Index   v-sweep         rds             
--------------------------------------------------------------------------------
55	-2.75000e+00	6.595120e+07	
56	-2.80000e+00	6.642175e+07	
57	-2.85000e+00	6.678282e+07	
58	-2.90000e+00	6.701814e+07	
59	-2.95000e+00	6.711074e+07	
60	-3.00000e+00	6.704352e+07	
61	-3.05000e+00	6.680001e+07	
62	-3.10000e+00	6.636521e+07	
63	-3.15000e+00	6.572657e+07	
64	-3.20000e+00	6.487492e+07	
65	-3.25000e+00	6.380542e+07	
66	-3.30000e+00	6.251829e+07	
Reset re-loads circuit ***************************

Circuit: ***************************

Doing analysis at TEMP = -40.000000 and TNOM = -40.000000


No. of Data Rows : 67
                          ***************************
                          DC transfer characteristic  Mon Jan  9 13:57:30  2023
--------------------------------------------------------------------------------
Index   v-sweep         rds             
--------------------------------------------------------------------------------
0	0.000000e+00	1.162713e+04	
1	-5.00000e-02	1.257203e+04	
2	-1.00000e-01	1.368229e+04	
3	-1.50000e-01	1.500529e+04	
4	-2.00000e-01	1.660831e+04	
5	-2.50000e-01	1.858999e+04	
6	-3.00000e-01	2.110071e+04	
7	-3.50000e-01	2.438063e+04	
8	-4.00000e-01	2.883532e+04	
9	-4.50000e-01	3.519723e+04	
10	-5.00000e-01	4.489631e+04	
11	-5.50000e-01	6.096424e+04	
12	-6.00000e-01	9.025583e+04	
13	-6.50000e-01	1.481698e+05	
14	-7.00000e-01	2.643926e+05	
15	-7.50000e-01	4.790859e+05	
16	-8.00000e-01	8.208469e+05	
17	-8.50000e-01	1.285792e+06	
18	-9.00000e-01	1.841447e+06	
19	-9.50000e-01	2.446949e+06	
20	-1.00000e+00	3.068855e+06	
21	-1.05000e+00	3.685880e+06	
22	-1.10000e+00	4.286961e+06	
23	-1.15000e+00	4.867662e+06	
24	-1.20000e+00	5.427222e+06	
25	-1.25000e+00	5.966660e+06	
26	-1.30000e+00	6.487709e+06	
27	-1.35000e+00	6.992271e+06	
28	-1.40000e+00	7.482164e+06	
29	-1.45000e+00	7.959017e+06	
30	-1.50000e+00	8.424246e+06	
31	-1.55000e+00	8.879059e+06	
32	-1.60000e+00	9.324484e+06	
33	-1.65000e+00	9.761388e+06	
34	-1.70000e+00	1.019051e+07	
35	-1.75000e+00	1.061246e+07	
36	-1.80000e+00	1.102779e+07	
37	-1.85000e+00	1.143694e+07	
38	-1.90000e+00	1.184031e+07	
39	-1.95000e+00	1.223824e+07	
40	-2.00000e+00	1.263102e+07	
41	-2.05000e+00	1.301890e+07	
42	-2.10000e+00	1.340211e+07	
43	-2.15000e+00	1.378084e+07	
44	-2.20000e+00	1.415526e+07	
45	-2.25000e+00	1.452550e+07	
46	-2.30000e+00	1.489166e+07	
47	-2.35000e+00	1.525380e+07	
48	-2.40000e+00	1.561191e+07	
49	-2.45000e+00	1.596593e+07	
50	-2.50000e+00	1.631571e+07	
51	-2.55000e+00	1.666097e+07	
52	-2.60000e+00	1.700127e+07	
53	-2.65000e+00	1.733600e+07	
54	-2.70000e+00	1.766430e+07	

Index   v-sweep         rds             
--------------------------------------------------------------------------------
55	-2.75000e+00	1.798501e+07	
56	-2.80000e+00	1.829663e+07	
57	-2.85000e+00	1.859723e+07	
58	-2.90000e+00	1.888441e+07	
59	-2.95000e+00	1.915526e+07	
60	-3.00000e+00	1.940626e+07	
61	-3.05000e+00	1.963330e+07	
62	-3.10000e+00	1.983164e+07	
63	-3.15000e+00	1.999598e+07	
64	-3.20000e+00	2.012050e+07	
65	-3.25000e+00	2.019904e+07	
66	-3.30000e+00	2.022524e+07	
Reset re-loads circuit ***************************

Circuit: ***************************

Doing analysis at TEMP = -40.000000 and TNOM = -40.000000


No. of Data Rows : 67
                          ***************************
                          DC transfer characteristic  Mon Jan  9 13:57:30  2023
--------------------------------------------------------------------------------
Index   v-sweep         rds             
--------------------------------------------------------------------------------
0	0.000000e+00	8.163909e+03	
1	-5.00000e-02	8.582014e+03	
2	-1.00000e-01	9.044665e+03	
3	-1.50000e-01	9.559370e+03	
4	-2.00000e-01	1.013542e+04	
5	-2.50000e-01	1.078446e+04	
6	-3.00000e-01	1.152126e+04	
7	-3.50000e-01	1.236485e+04	
8	-4.00000e-01	1.334015e+04	
9	-4.50000e-01	1.448044e+04	
10	-5.00000e-01	1.583111e+04	
11	-5.50000e-01	1.745565e+04	
12	-6.00000e-01	1.944545e+04	
13	-6.50000e-01	2.193652e+04	
14	-7.00000e-01	2.513921e+04	
15	-7.50000e-01	2.939351e+04	
16	-8.00000e-01	3.527688e+04	
17	-8.50000e-01	4.382218e+04	
18	-9.00000e-01	5.696449e+04	
19	-9.50000e-01	7.841260e+04	
20	-1.00000e+00	1.150426e+05	
21	-1.05000e+00	1.780189e+05	
22	-1.10000e+00	2.810856e+05	
23	-1.15000e+00	4.343143e+05	
24	-1.20000e+00	6.376507e+05	
25	-1.25000e+00	8.808148e+05	
26	-1.30000e+00	1.149005e+06	
27	-1.35000e+00	1.428693e+06	
28	-1.40000e+00	1.710271e+06	
29	-1.45000e+00	1.988059e+06	
30	-1.50000e+00	2.259252e+06	
31	-1.55000e+00	2.522827e+06	
32	-1.60000e+00	2.778739e+06	
33	-1.65000e+00	3.027415e+06	
34	-1.70000e+00	3.269474e+06	
35	-1.75000e+00	3.505575e+06	
36	-1.80000e+00	3.736344e+06	
37	-1.85000e+00	3.962347e+06	
38	-1.90000e+00	4.184082e+06	
39	-1.95000e+00	4.401976e+06	
40	-2.00000e+00	4.616396e+06	
41	-2.05000e+00	4.827656e+06	
42	-2.10000e+00	5.036022e+06	
43	-2.15000e+00	5.241724e+06	
44	-2.20000e+00	5.444957e+06	
45	-2.25000e+00	5.645889e+06	
46	-2.30000e+00	5.844665e+06	
47	-2.35000e+00	6.041411e+06	
48	-2.40000e+00	6.236236e+06	
49	-2.45000e+00	6.429235e+06	
50	-2.50000e+00	6.620487e+06	
51	-2.55000e+00	6.810060e+06	
52	-2.60000e+00	6.998009e+06	
53	-2.65000e+00	7.184371e+06	
54	-2.70000e+00	7.369165e+06	

Index   v-sweep         rds             
--------------------------------------------------------------------------------
55	-2.75000e+00	7.552384e+06	
56	-2.80000e+00	7.733988e+06	
57	-2.85000e+00	7.913892e+06	
58	-2.90000e+00	8.091955e+06	
59	-2.95000e+00	8.267959e+06	
60	-3.00000e+00	8.441589e+06	
61	-3.05000e+00	8.612410e+06	
62	-3.10000e+00	8.779837e+06	
63	-3.15000e+00	8.943103e+06	
64	-3.20000e+00	9.101226e+06	
65	-3.25000e+00	9.252977e+06	
66	-3.30000e+00	9.396842e+06	
Reset re-loads circuit ***************************

Circuit: ***************************

Doing analysis at TEMP = -40.000000 and TNOM = -40.000000


No. of Data Rows : 67
                          ***************************
                          DC transfer characteristic  Mon Jan  9 13:57:30  2023
--------------------------------------------------------------------------------
Index   v-sweep         rds             
--------------------------------------------------------------------------------
0	0.000000e+00	6.534266e+03	
1	-5.00000e-02	6.775078e+03	
2	-1.00000e-01	7.034022e+03	
3	-1.50000e-01	7.313226e+03	
4	-2.00000e-01	7.615161e+03	
5	-2.50000e-01	7.942719e+03	
6	-3.00000e-01	8.299303e+03	
7	-3.50000e-01	8.688945e+03	
8	-4.00000e-01	9.116458e+03	
9	-4.50000e-01	9.587636e+03	
10	-5.00000e-01	1.010951e+04	
11	-5.50000e-01	1.069072e+04	
12	-6.00000e-01	1.134195e+04	
13	-6.50000e-01	1.207661e+04	
14	-7.00000e-01	1.291176e+04	
15	-7.50000e-01	1.386938e+04	
16	-8.00000e-01	1.497834e+04	
17	-8.50000e-01	1.627717e+04	
18	-9.00000e-01	1.781851e+04	
19	-9.50000e-01	1.967589e+04	
20	-1.00000e+00	2.195491e+04	
21	-1.05000e+00	2.481187e+04	
22	-1.10000e+00	2.848602e+04	
23	-1.15000e+00	3.335690e+04	
24	-1.20000e+00	4.004874e+04	
25	-1.25000e+00	4.961964e+04	
26	-1.30000e+00	6.388791e+04	
27	-1.35000e+00	8.591097e+04	
28	-1.40000e+00	1.204144e+05	
29	-1.45000e+00	1.734961e+05	
30	-1.50000e+00	2.508018e+05	
31	-1.55000e+00	3.547013e+05	
32	-1.60000e+00	4.827483e+05	
33	-1.65000e+00	6.288437e+05	
34	-1.70000e+00	7.858612e+05	
35	-1.75000e+00	9.477265e+05	
36	-1.80000e+00	1.110204e+06	
37	-1.85000e+00	1.270767e+06	
38	-1.90000e+00	1.428137e+06	
39	-1.95000e+00	1.581819e+06	
40	-2.00000e+00	1.731762e+06	
41	-2.05000e+00	1.878146e+06	
42	-2.10000e+00	2.021245e+06	
43	-2.15000e+00	2.161366e+06	
44	-2.20000e+00	2.298805e+06	
45	-2.25000e+00	2.433836e+06	
46	-2.30000e+00	2.566701e+06	
47	-2.35000e+00	2.697613e+06	
48	-2.40000e+00	2.826757e+06	
49	-2.45000e+00	2.954289e+06	
50	-2.50000e+00	3.080347e+06	
51	-2.55000e+00	3.205047e+06	
52	-2.60000e+00	3.328491e+06	
53	-2.65000e+00	3.450765e+06	
54	-2.70000e+00	3.571945e+06	

Index   v-sweep         rds             
--------------------------------------------------------------------------------
55	-2.75000e+00	3.692096e+06	
56	-2.80000e+00	3.811273e+06	
57	-2.85000e+00	3.929527e+06	
58	-2.90000e+00	4.046897e+06	
59	-2.95000e+00	4.163417e+06	
60	-3.00000e+00	4.279113e+06	
61	-3.05000e+00	4.393998e+06	
62	-3.10000e+00	4.508074e+06	
63	-3.15000e+00	4.621326e+06	
64	-3.20000e+00	4.733716e+06	
65	-3.25000e+00	4.845174e+06	
66	-3.30000e+00	4.955591e+06	
Reset re-loads circuit ***************************

Circuit: ***************************

Doing analysis at TEMP = -40.000000 and TNOM = -40.000000


No. of Data Rows : 67
                          ***************************
                          DC transfer characteristic  Mon Jan  9 13:57:30  2023
--------------------------------------------------------------------------------
Index   v-sweep         rds             
--------------------------------------------------------------------------------
0	0.000000e+00	5.612293e+03	
1	-5.00000e-02	5.771850e+03	
2	-1.00000e-01	5.940568e+03	
3	-1.50000e-01	6.119258e+03	
4	-2.00000e-01	6.308832e+03	
5	-2.50000e-01	6.510314e+03	
6	-3.00000e-01	6.724861e+03	
7	-3.50000e-01	6.953787e+03	
8	-4.00000e-01	7.198586e+03	
9	-4.50000e-01	7.460968e+03	
10	-5.00000e-01	7.742894e+03	
11	-5.50000e-01	8.046631e+03	
12	-6.00000e-01	8.374809e+03	
13	-6.50000e-01	8.730498e+03	
14	-7.00000e-01	9.117303e+03	
15	-7.50000e-01	9.539485e+03	
16	-8.00000e-01	1.000212e+04	
17	-8.50000e-01	1.051130e+04	
18	-9.00000e-01	1.107439e+04	
19	-9.50000e-01	1.170041e+04	
20	-1.00000e+00	1.240047e+04	
21	-1.05000e+00	1.318846e+04	
22	-1.10000e+00	1.408193e+04	
23	-1.15000e+00	1.510337e+04	
24	-1.20000e+00	1.628208e+04	
25	-1.25000e+00	1.765681e+04	
26	-1.30000e+00	1.927990e+04	
27	-1.35000e+00	2.122346e+04	
28	-1.40000e+00	2.358926e+04	
29	-1.45000e+00	2.652455e+04	
30	-1.50000e+00	3.024820e+04	
31	-1.55000e+00	3.509448e+04	
32	-1.60000e+00	4.158620e+04	
33	-1.65000e+00	5.055399e+04	
34	-1.70000e+00	6.331410e+04	
35	-1.75000e+00	8.187932e+04	
36	-1.80000e+00	1.090634e+05	
37	-1.85000e+00	1.481765e+05	
38	-1.90000e+00	2.020621e+05	
39	-1.95000e+00	2.718004e+05	
40	-2.00000e+00	3.560250e+05	
41	-2.05000e+00	4.514411e+05	
42	-2.10000e+00	5.540755e+05	
43	-2.15000e+00	6.603722e+05	
44	-2.20000e+00	7.677027e+05	
45	-2.25000e+00	8.743881e+05	
46	-2.30000e+00	9.794930e+05	
47	-2.35000e+00	1.082584e+06	
48	-2.40000e+00	1.183534e+06	
49	-2.45000e+00	1.282383e+06	
50	-2.50000e+00	1.379257e+06	
51	-2.55000e+00	1.474317e+06	
52	-2.60000e+00	1.567728e+06	
53	-2.65000e+00	1.659651e+06	
54	-2.70000e+00	1.750230e+06	

Index   v-sweep         rds             
--------------------------------------------------------------------------------
55	-2.75000e+00	1.839596e+06	
56	-2.80000e+00	1.927863e+06	
57	-2.85000e+00	2.015130e+06	
58	-2.90000e+00	2.101482e+06	
59	-2.95000e+00	2.186996e+06	
60	-3.00000e+00	2.271733e+06	
61	-3.05000e+00	2.355752e+06	
62	-3.10000e+00	2.439099e+06	
63	-3.15000e+00	2.521817e+06	
64	-3.20000e+00	2.603942e+06	
65	-3.25000e+00	2.685505e+06	
66	-3.30000e+00	2.766533e+06	
Reset re-loads circuit ***************************

Circuit: ***************************

Note: No ".plot", ".print", or ".fourier" lines; no simulations run
