
Note: Compatibility modes selected: hs

Warning: m=xx on .subckt line will override multiplier m hierarchy!


Circuit: ***************************

Doing analysis at TEMP = 25.000000 and TNOM = 25.000000


No. of Data Rows : 67
                          ***************************
                          DC transfer characteristic  Mon Jan  9 13:57:30  2023
--------------------------------------------------------------------------------
Index   v-sweep         rds             
--------------------------------------------------------------------------------
0	0.000000e+00	9.318032e+03	
1	-5.00000e-02	1.726828e+04	
2	-1.00000e-01	4.942848e+04	
3	-1.50000e-01	1.559805e+05	
4	-2.00000e-01	2.686531e+05	
5	-2.50000e-01	3.265164e+05	
6	-3.00000e-01	3.555311e+05	
7	-3.50000e-01	3.726786e+05	
8	-4.00000e-01	3.842455e+05	
9	-4.50000e-01	3.926905e+05	
10	-5.00000e-01	3.991250e+05	
11	-5.50000e-01	4.041294e+05	
12	-6.00000e-01	4.080466e+05	
13	-6.50000e-01	4.111007e+05	
14	-7.00000e-01	4.134489e+05	
15	-7.50000e-01	4.152086e+05	
16	-8.00000e-01	4.164702e+05	
17	-8.50000e-01	4.173062e+05	
18	-9.00000e-01	4.177755e+05	
19	-9.50000e-01	4.179270e+05	
20	-1.00000e+00	4.178017e+05	
21	-1.05000e+00	4.174344e+05	
22	-1.10000e+00	4.168549e+05	
23	-1.15000e+00	4.160890e+05	
24	-1.20000e+00	4.151588e+05	
25	-1.25000e+00	4.140838e+05	
26	-1.30000e+00	4.128809e+05	
27	-1.35000e+00	4.115650e+05	
28	-1.40000e+00	4.101492e+05	
29	-1.45000e+00	4.086453e+05	
30	-1.50000e+00	4.070634e+05	
31	-1.55000e+00	4.054127e+05	
32	-1.60000e+00	4.037014e+05	
33	-1.65000e+00	4.019366e+05	
34	-1.70000e+00	4.001249e+05	
35	-1.75000e+00	3.982719e+05	
36	-1.80000e+00	3.963827e+05	
37	-1.85000e+00	3.944615e+05	
38	-1.90000e+00	3.925121e+05	
39	-1.95000e+00	3.905377e+05	
40	-2.00000e+00	3.885405e+05	
41	-2.05000e+00	3.865224e+05	
42	-2.10000e+00	3.844845e+05	
43	-2.15000e+00	3.824269e+05	
44	-2.20000e+00	3.803493e+05	
45	-2.25000e+00	3.782501e+05	
46	-2.30000e+00	3.761271e+05	
47	-2.35000e+00	3.739769e+05	
48	-2.40000e+00	3.717949e+05	
49	-2.45000e+00	3.695758e+05	
50	-2.50000e+00	3.673126e+05	
51	-2.55000e+00	3.649976e+05	
52	-2.60000e+00	3.626215e+05	
53	-2.65000e+00	3.601739e+05	
54	-2.70000e+00	3.576432e+05	

Index   v-sweep         rds             
--------------------------------------------------------------------------------
55	-2.75000e+00	3.550167e+05	
56	-2.80000e+00	3.522806e+05	
57	-2.85000e+00	3.494204e+05	
58	-2.90000e+00	3.464204e+05	
59	-2.95000e+00	3.432647e+05	
60	-3.00000e+00	3.399371e+05	
61	-3.05000e+00	3.364212e+05	
62	-3.10000e+00	3.327010e+05	
63	-3.15000e+00	3.287612e+05	
64	-3.20000e+00	3.245876e+05	
65	-3.25000e+00	3.201674e+05	
66	-3.30000e+00	3.154899e+05	
Reset re-loads circuit ***************************

Circuit: ***************************

Doing analysis at TEMP = 25.000000 and TNOM = 25.000000


No. of Data Rows : 67
                          ***************************
                          DC transfer characteristic  Mon Jan  9 13:57:30  2023
--------------------------------------------------------------------------------
Index   v-sweep         rds             
--------------------------------------------------------------------------------
0	0.000000e+00	1.293274e+03	
1	-5.00000e-02	1.441902e+03	
2	-1.00000e-01	1.624492e+03	
3	-1.50000e-01	1.854046e+03	
4	-2.00000e-01	2.151011e+03	
5	-2.50000e-01	2.549233e+03	
6	-3.00000e-01	3.108079e+03	
7	-3.50000e-01	3.937780e+03	
8	-4.00000e-01	5.248352e+03	
9	-4.50000e-01	7.398668e+03	
10	-5.00000e-01	1.071220e+04	
11	-5.50000e-01	1.478984e+04	
12	-6.00000e-01	1.858578e+04	
13	-6.50000e-01	2.161848e+04	
14	-7.00000e-01	2.402027e+04	
15	-7.50000e-01	2.601438e+04	
16	-8.00000e-01	2.774863e+04	
17	-8.50000e-01	2.930619e+04	
18	-9.00000e-01	3.073368e+04	
19	-9.50000e-01	3.205857e+04	
20	-1.00000e+00	3.329816e+04	
21	-1.05000e+00	3.446415e+04	
22	-1.10000e+00	3.556496e+04	
23	-1.15000e+00	3.660702e+04	
24	-1.20000e+00	3.759547e+04	
25	-1.25000e+00	3.853456e+04	
26	-1.30000e+00	3.942792e+04	
27	-1.35000e+00	4.027872e+04	
28	-1.40000e+00	4.108974e+04	
29	-1.45000e+00	4.186349e+04	
30	-1.50000e+00	4.260224e+04	
31	-1.55000e+00	4.330804e+04	
32	-1.60000e+00	4.398279e+04	
33	-1.65000e+00	4.462822e+04	
34	-1.70000e+00	4.524593e+04	
35	-1.75000e+00	4.583741e+04	
36	-1.80000e+00	4.640404e+04	
37	-1.85000e+00	4.694710e+04	
38	-1.90000e+00	4.746777e+04	
39	-1.95000e+00	4.796718e+04	
40	-2.00000e+00	4.844635e+04	
41	-2.05000e+00	4.890623e+04	
42	-2.10000e+00	4.934770e+04	
43	-2.15000e+00	4.977155e+04	
44	-2.20000e+00	5.017847e+04	
45	-2.25000e+00	5.056907e+04	
46	-2.30000e+00	5.094382e+04	
47	-2.35000e+00	5.130305e+04	
48	-2.40000e+00	5.164695e+04	
49	-2.45000e+00	5.197548e+04	
50	-2.50000e+00	5.228839e+04	
51	-2.55000e+00	5.258512e+04	
52	-2.60000e+00	5.286483e+04	
53	-2.65000e+00	5.312631e+04	
54	-2.70000e+00	5.336790e+04	

Index   v-sweep         rds             
--------------------------------------------------------------------------------
55	-2.75000e+00	5.358752e+04	
56	-2.80000e+00	5.378257e+04	
57	-2.85000e+00	5.394990e+04	
58	-2.90000e+00	5.408582e+04	
59	-2.95000e+00	5.418602e+04	
60	-3.00000e+00	5.424562e+04	
61	-3.05000e+00	5.425921e+04	
62	-3.10000e+00	5.422083e+04	
63	-3.15000e+00	5.412412e+04	
64	-3.20000e+00	5.396243e+04	
65	-3.25000e+00	5.372894e+04	
66	-3.30000e+00	5.341688e+04	
Reset re-loads circuit ***************************

Circuit: ***************************

Doing analysis at TEMP = 25.000000 and TNOM = 25.000000


No. of Data Rows : 67
                          ***************************
                          DC transfer characteristic  Mon Jan  9 13:57:30  2023
--------------------------------------------------------------------------------
Index   v-sweep         rds             
--------------------------------------------------------------------------------
0	0.000000e+00	7.678350e+02	
1	-5.00000e-02	8.174417e+02	
2	-1.00000e-01	8.727708e+02	
3	-1.50000e-01	9.348668e+02	
4	-2.00000e-01	1.005044e+03	
5	-2.50000e-01	1.084979e+03	
6	-3.00000e-01	1.176840e+03	
7	-3.50000e-01	1.283488e+03	
8	-4.00000e-01	1.408756e+03	
9	-4.50000e-01	1.557902e+03	
10	-5.00000e-01	1.738299e+03	
11	-5.50000e-01	1.960539e+03	
12	-6.00000e-01	2.240190e+03	
13	-6.50000e-01	2.600505e+03	
14	-7.00000e-01	3.075969e+03	
15	-7.50000e-01	3.714295e+03	
16	-8.00000e-01	4.566758e+03	
17	-8.50000e-01	5.647298e+03	
18	-9.00000e-01	6.874229e+03	
19	-9.50000e-01	8.095507e+03	
20	-1.00000e+00	9.205604e+03	
21	-1.05000e+00	1.018720e+04	
22	-1.10000e+00	1.106492e+04	
23	-1.15000e+00	1.186665e+04	
24	-1.20000e+00	1.261261e+04	
25	-1.25000e+00	1.331584e+04	
26	-1.30000e+00	1.398458e+04	
27	-1.35000e+00	1.462418e+04	
28	-1.40000e+00	1.523828e+04	
29	-1.45000e+00	1.582944e+04	
30	-1.50000e+00	1.639960e+04	
31	-1.55000e+00	1.695026e+04	
32	-1.60000e+00	1.748266e+04	
33	-1.65000e+00	1.799783e+04	
34	-1.70000e+00	1.849667e+04	
35	-1.75000e+00	1.897999e+04	
36	-1.80000e+00	1.944849e+04	
37	-1.85000e+00	1.990285e+04	
38	-1.90000e+00	2.034364e+04	
39	-1.95000e+00	2.077145e+04	
40	-2.00000e+00	2.118680e+04	
41	-2.05000e+00	2.159017e+04	
42	-2.10000e+00	2.198202e+04	
43	-2.15000e+00	2.236281e+04	
44	-2.20000e+00	2.273292e+04	
45	-2.25000e+00	2.309277e+04	
46	-2.30000e+00	2.344271e+04	
47	-2.35000e+00	2.378309e+04	
48	-2.40000e+00	2.411423e+04	
49	-2.45000e+00	2.443643e+04	
50	-2.50000e+00	2.474995e+04	
51	-2.55000e+00	2.505502e+04	
52	-2.60000e+00	2.535180e+04	
53	-2.65000e+00	2.564041e+04	
54	-2.70000e+00	2.592087e+04	

Index   v-sweep         rds             
--------------------------------------------------------------------------------
55	-2.75000e+00	2.619313e+04	
56	-2.80000e+00	2.645697e+04	
57	-2.85000e+00	2.671206e+04	
58	-2.90000e+00	2.695784e+04	
59	-2.95000e+00	2.719356e+04	
60	-3.00000e+00	2.741818e+04	
61	-3.05000e+00	2.763037e+04	
62	-3.10000e+00	2.782845e+04	
63	-3.15000e+00	2.801036e+04	
64	-3.20000e+00	2.817362e+04	
65	-3.25000e+00	2.831533e+04	
66	-3.30000e+00	2.843213e+04	
Reset re-loads circuit ***************************

Circuit: ***************************

Doing analysis at TEMP = 25.000000 and TNOM = 25.000000


No. of Data Rows : 67
                          ***************************
                          DC transfer characteristic  Mon Jan  9 13:57:30  2023
--------------------------------------------------------------------------------
Index   v-sweep         rds             
--------------------------------------------------------------------------------
0	0.000000e+00	5.852886e+02	
1	-5.00000e-02	6.122878e+02	
2	-1.00000e-01	6.413848e+02	
3	-1.50000e-01	6.728322e+02	
4	-2.00000e-01	7.069250e+02	
5	-2.50000e-01	7.440092e+02	
6	-3.00000e-01	7.844940e+02	
7	-3.50000e-01	8.288667e+02	
8	-4.00000e-01	8.777115e+02	
9	-4.50000e-01	9.317356e+02	
10	-5.00000e-01	9.918023e+02	
11	-5.50000e-01	1.058976e+03	
12	-6.00000e-01	1.134585e+03	
13	-6.50000e-01	1.220303e+03	
14	-7.00000e-01	1.318267e+03	
15	-7.50000e-01	1.431246e+03	
16	-8.00000e-01	1.562869e+03	
17	-8.50000e-01	1.717954e+03	
18	-9.00000e-01	1.902959e+03	
19	-9.50000e-01	2.126540e+03	
20	-1.00000e+00	2.400082e+03	
21	-1.05000e+00	2.737631e+03	
22	-1.10000e+00	3.153655e+03	
23	-1.15000e+00	3.656000e+03	
24	-1.20000e+00	4.233981e+03	
25	-1.25000e+00	4.852705e+03	
26	-1.30000e+00	5.468454e+03	
27	-1.35000e+00	6.052579e+03	
28	-1.40000e+00	6.597475e+03	
29	-1.45000e+00	7.107178e+03	
30	-1.50000e+00	7.588460e+03	
31	-1.55000e+00	8.047142e+03	
32	-1.60000e+00	8.487434e+03	
33	-1.65000e+00	8.912227e+03	
34	-1.70000e+00	9.323510e+03	
35	-1.75000e+00	9.722680e+03	
36	-1.80000e+00	1.011075e+04	
37	-1.85000e+00	1.048851e+04	
38	-1.90000e+00	1.085655e+04	
39	-1.95000e+00	1.121537e+04	
40	-2.00000e+00	1.156541e+04	
41	-2.05000e+00	1.190703e+04	
42	-2.10000e+00	1.224055e+04	
43	-2.15000e+00	1.256627e+04	
44	-2.20000e+00	1.288447e+04	
45	-2.25000e+00	1.319540e+04	
46	-2.30000e+00	1.349930e+04	
47	-2.35000e+00	1.379638e+04	
48	-2.40000e+00	1.408687e+04	
49	-2.45000e+00	1.437096e+04	
50	-2.50000e+00	1.464883e+04	
51	-2.55000e+00	1.492069e+04	
52	-2.60000e+00	1.518668e+04	
53	-2.65000e+00	1.544700e+04	
54	-2.70000e+00	1.570177e+04	

Index   v-sweep         rds             
--------------------------------------------------------------------------------
55	-2.75000e+00	1.595115e+04	
56	-2.80000e+00	1.619527e+04	
57	-2.85000e+00	1.643422e+04	
58	-2.90000e+00	1.666808e+04	
59	-2.95000e+00	1.689691e+04	
60	-3.00000e+00	1.712069e+04	
61	-3.05000e+00	1.733936e+04	
62	-3.10000e+00	1.755275e+04	
63	-3.15000e+00	1.776063e+04	
64	-3.20000e+00	1.796259e+04	
65	-3.25000e+00	1.815811e+04	
66	-3.30000e+00	1.834643e+04	
Reset re-loads circuit ***************************

Circuit: ***************************

Doing analysis at TEMP = 25.000000 and TNOM = 25.000000


No. of Data Rows : 67
                          ***************************
                          DC transfer characteristic  Mon Jan  9 13:57:30  2023
--------------------------------------------------------------------------------
Index   v-sweep         rds             
--------------------------------------------------------------------------------
0	0.000000e+00	4.936933e+02	
1	-5.00000e-02	5.116065e+02	
2	-1.00000e-01	5.305723e+02	
3	-1.50000e-01	5.506857e+02	
4	-2.00000e-01	5.720530e+02	
5	-2.50000e-01	5.947943e+02	
6	-3.00000e-01	6.190457e+02	
7	-3.50000e-01	6.449615e+02	
8	-4.00000e-01	6.727179e+02	
9	-4.50000e-01	7.025169e+02	
10	-5.00000e-01	7.345910e+02	
11	-5.50000e-01	7.692093e+02	
12	-6.00000e-01	8.066849e+02	
13	-6.50000e-01	8.473841e+02	
14	-7.00000e-01	8.917385e+02	
15	-7.50000e-01	9.402595e+02	
16	-8.00000e-01	9.935575e+02	
17	-8.50000e-01	1.052367e+03	
18	-9.00000e-01	1.117578e+03	
19	-9.50000e-01	1.190279e+03	
20	-1.00000e+00	1.271812e+03	
21	-1.05000e+00	1.363846e+03	
22	-1.10000e+00	1.468474e+03	
23	-1.15000e+00	1.588333e+03	
24	-1.20000e+00	1.726753e+03	
25	-1.25000e+00	1.887908e+03	
26	-1.30000e+00	2.076902e+03	
27	-1.35000e+00	2.299593e+03	
28	-1.40000e+00	2.561746e+03	
29	-1.45000e+00	2.866927e+03	
30	-1.50000e+00	3.213017e+03	
31	-1.55000e+00	3.589445e+03	
32	-1.60000e+00	3.979242e+03	
33	-1.65000e+00	4.366240e+03	
34	-1.70000e+00	4.740909e+03	
35	-1.75000e+00	5.100407e+03	
36	-1.80000e+00	5.445531e+03	
37	-1.85000e+00	5.778188e+03	
38	-1.90000e+00	6.100215e+03	
39	-1.95000e+00	6.413065e+03	
40	-2.00000e+00	6.717810e+03	
41	-2.05000e+00	7.015230e+03	
42	-2.10000e+00	7.305900e+03	
43	-2.15000e+00	7.590256e+03	
44	-2.20000e+00	7.868642e+03	
45	-2.25000e+00	8.141333e+03	
46	-2.30000e+00	8.408562e+03	
47	-2.35000e+00	8.670528e+03	
48	-2.40000e+00	8.927409e+03	
49	-2.45000e+00	9.179364e+03	
50	-2.50000e+00	9.426539e+03	
51	-2.55000e+00	9.669069e+03	
52	-2.60000e+00	9.907081e+03	
53	-2.65000e+00	1.014070e+04	
54	-2.70000e+00	1.037003e+04	

Index   v-sweep         rds             
--------------------------------------------------------------------------------
55	-2.75000e+00	1.059518e+04	
56	-2.80000e+00	1.081627e+04	
57	-2.85000e+00	1.103338e+04	
58	-2.90000e+00	1.124662e+04	
59	-2.95000e+00	1.145608e+04	
60	-3.00000e+00	1.166183e+04	
61	-3.05000e+00	1.186397e+04	
62	-3.10000e+00	1.206255e+04	
63	-3.15000e+00	1.225764e+04	
64	-3.20000e+00	1.244927e+04	
65	-3.25000e+00	1.263747e+04	
66	-3.30000e+00	1.282221e+04	
Reset re-loads circuit ***************************

Circuit: ***************************

Doing analysis at TEMP = 25.000000 and TNOM = 25.000000


No. of Data Rows : 67
                          ***************************
                          DC transfer characteristic  Mon Jan  9 13:57:30  2023
--------------------------------------------------------------------------------
Index   v-sweep         rds             
--------------------------------------------------------------------------------
0	0.000000e+00	4.393004e+02	
1	-5.00000e-02	4.525082e+02	
2	-1.00000e-01	4.663410e+02	
3	-1.50000e-01	4.808436e+02	
4	-2.00000e-01	4.960656e+02	
5	-2.50000e-01	5.120613e+02	
6	-3.00000e-01	5.288906e+02	
7	-3.50000e-01	5.466199e+02	
8	-4.00000e-01	5.653227e+02	
9	-4.50000e-01	5.850809e+02	
10	-5.00000e-01	6.059857e+02	
11	-5.50000e-01	6.281390e+02	
12	-6.00000e-01	6.516555e+02	
13	-6.50000e-01	6.766640e+02	
14	-7.00000e-01	7.033101e+02	
15	-7.50000e-01	7.317590e+02	
16	-8.00000e-01	7.621988e+02	
17	-8.50000e-01	7.948445e+02	
18	-9.00000e-01	8.299432e+02	
19	-9.50000e-01	8.677798e+02	
20	-1.00000e+00	9.086850e+02	
21	-1.05000e+00	9.530443e+02	
22	-1.10000e+00	1.001310e+03	
23	-1.15000e+00	1.054014e+03	
24	-1.20000e+00	1.111790e+03	
25	-1.25000e+00	1.175393e+03	
26	-1.30000e+00	1.245728e+03	
27	-1.35000e+00	1.323890e+03	
28	-1.40000e+00	1.411206e+03	
29	-1.45000e+00	1.509287e+03	
30	-1.50000e+00	1.620082e+03	
31	-1.55000e+00	1.745926e+03	
32	-1.60000e+00	1.889536e+03	
33	-1.65000e+00	2.053882e+03	
34	-1.70000e+00	2.241795e+03	
35	-1.75000e+00	2.455121e+03	
36	-1.80000e+00	2.693398e+03	
37	-1.85000e+00	2.952627e+03	
38	-1.90000e+00	3.225422e+03	
39	-1.95000e+00	3.503261e+03	
40	-2.00000e+00	3.779374e+03	
41	-2.05000e+00	4.050013e+03	
42	-2.10000e+00	4.313900e+03	
43	-2.15000e+00	4.571071e+03	
44	-2.20000e+00	4.822039e+03	
45	-2.25000e+00	5.067380e+03	
46	-2.30000e+00	5.307593e+03	
47	-2.35000e+00	5.543078e+03	
48	-2.40000e+00	5.774140e+03	
49	-2.45000e+00	6.001023e+03	
50	-2.50000e+00	6.223918e+03	
51	-2.55000e+00	6.442983e+03	
52	-2.60000e+00	6.658350e+03	
53	-2.65000e+00	6.870134e+03	
54	-2.70000e+00	7.078438e+03	

Index   v-sweep         rds             
--------------------------------------------------------------------------------
55	-2.75000e+00	7.283354e+03	
56	-2.80000e+00	7.484966e+03	
57	-2.85000e+00	7.683355e+03	
58	-2.90000e+00	7.878595e+03	
59	-2.95000e+00	8.070757e+03	
60	-3.00000e+00	8.259908e+03	
61	-3.05000e+00	8.446115e+03	
62	-3.10000e+00	8.629439e+03	
63	-3.15000e+00	8.809940e+03	
64	-3.20000e+00	8.987678e+03	
65	-3.25000e+00	9.162706e+03	
66	-3.30000e+00	9.335077e+03	
Reset re-loads circuit ***************************

Circuit: ***************************

Note: No ".plot", ".print", or ".fourier" lines; no simulations run
