
Note: Compatibility modes selected: hs

Warning: m=xx on .subckt line will override multiplier m hierarchy!


Circuit: ***************************

Doing analysis at TEMP = 125.000000 and TNOM = 125.000000


No. of Data Rows : 67
                          ***************************
                          DC transfer characteristic  Mon Jan  9 13:57:32  2023
--------------------------------------------------------------------------------
Index   v-sweep         rds             
--------------------------------------------------------------------------------
0	0.000000e+00	5.509818e+04	
1	-5.00000e-02	8.577252e+04	
2	-1.00000e-01	1.748432e+05	
3	-1.50000e-01	5.611611e+05	
4	-2.00000e-01	2.056721e+06	
5	-2.50000e-01	5.199875e+06	
6	-3.00000e-01	9.034862e+06	
7	-3.50000e-01	1.250452e+07	
8	-4.00000e-01	1.533979e+07	
9	-4.50000e-01	1.765424e+07	
10	-5.00000e-01	1.960671e+07	
11	-5.50000e-01	2.131490e+07	
12	-6.00000e-01	2.285512e+07	
13	-6.50000e-01	2.427556e+07	
14	-7.00000e-01	2.560695e+07	
15	-7.50000e-01	2.686939e+07	
16	-8.00000e-01	2.807635e+07	
17	-8.50000e-01	2.923718e+07	
18	-9.00000e-01	3.035856e+07	
19	-9.50000e-01	3.144535e+07	
20	-1.00000e+00	3.250126e+07	
21	-1.05000e+00	3.352913e+07	
22	-1.10000e+00	3.453121e+07	
23	-1.15000e+00	3.550934e+07	
24	-1.20000e+00	3.646503e+07	
25	-1.25000e+00	3.739955e+07	
26	-1.30000e+00	3.831400e+07	
27	-1.35000e+00	3.920933e+07	
28	-1.40000e+00	4.008638e+07	
29	-1.45000e+00	4.094590e+07	
30	-1.50000e+00	4.178856e+07	
31	-1.55000e+00	4.261498e+07	
32	-1.60000e+00	4.342571e+07	
33	-1.65000e+00	4.422124e+07	
34	-1.70000e+00	4.500201e+07	
35	-1.75000e+00	4.576840e+07	
36	-1.80000e+00	4.652070e+07	
37	-1.85000e+00	4.725911e+07	
38	-1.90000e+00	4.798369e+07	
39	-1.95000e+00	4.869436e+07	
40	-2.00000e+00	4.939082e+07	
41	-2.05000e+00	5.007247e+07	
42	-2.10000e+00	5.073842e+07	
43	-2.15000e+00	5.138735e+07	
44	-2.20000e+00	5.201742e+07	
45	-2.25000e+00	5.262621e+07	
46	-2.30000e+00	5.321059e+07	
47	-2.35000e+00	5.376665e+07	
48	-2.40000e+00	5.428956e+07	
49	-2.45000e+00	5.477350e+07	
50	-2.50000e+00	5.521164e+07	
51	-2.55000e+00	5.559602e+07	
52	-2.60000e+00	5.591761e+07	
53	-2.65000e+00	5.616638e+07	
54	-2.70000e+00	5.633139e+07	

Index   v-sweep         rds             
--------------------------------------------------------------------------------
55	-2.75000e+00	5.640106e+07	
56	-2.80000e+00	5.636341e+07	
57	-2.85000e+00	5.620651e+07	
58	-2.90000e+00	5.591898e+07	
59	-2.95000e+00	5.549049e+07	
60	-3.00000e+00	5.491246e+07	
61	-3.05000e+00	5.417861e+07	
62	-3.10000e+00	5.328561e+07	
63	-3.15000e+00	5.223349e+07	
64	-3.20000e+00	5.102604e+07	
65	-3.25000e+00	4.967089e+07	
66	-3.30000e+00	4.817942e+07	
Reset re-loads circuit ***************************

Circuit: ***************************

Doing analysis at TEMP = 125.000000 and TNOM = 125.000000


No. of Data Rows : 67
                          ***************************
                          DC transfer characteristic  Mon Jan  9 13:57:32  2023
--------------------------------------------------------------------------------
Index   v-sweep         rds             
--------------------------------------------------------------------------------
0	0.000000e+00	1.199776e+04	
1	-5.00000e-02	1.335616e+04	
2	-1.00000e-01	1.505184e+04	
3	-1.50000e-01	1.722697e+04	
4	-2.00000e-01	2.011502e+04	
5	-2.50000e-01	2.412518e+04	
6	-3.00000e-01	3.003427e+04	
7	-3.50000e-01	3.946460e+04	
8	-4.00000e-01	5.616237e+04	
9	-4.50000e-01	8.931723e+04	
10	-5.00000e-01	1.593526e+05	
11	-5.50000e-01	2.945697e+05	
12	-6.00000e-01	4.990741e+05	
13	-6.50000e-01	7.350664e+05	
14	-7.00000e-01	9.613009e+05	
15	-7.50000e-01	1.161097e+06	
16	-8.00000e-01	1.335064e+06	
17	-8.50000e-01	1.488983e+06	
18	-9.00000e-01	1.628435e+06	
19	-9.50000e-01	1.757595e+06	
20	-1.00000e+00	1.879347e+06	
21	-1.05000e+00	1.995644e+06	
22	-1.10000e+00	2.107813e+06	
23	-1.15000e+00	2.216766e+06	
24	-1.20000e+00	2.323141e+06	
25	-1.25000e+00	2.427394e+06	
26	-1.30000e+00	2.529856e+06	
27	-1.35000e+00	2.630771e+06	
28	-1.40000e+00	2.730323e+06	
29	-1.45000e+00	2.828655e+06	
30	-1.50000e+00	2.925876e+06	
31	-1.55000e+00	3.022072e+06	
32	-1.60000e+00	3.117314e+06	
33	-1.65000e+00	3.211658e+06	
34	-1.70000e+00	3.305150e+06	
35	-1.75000e+00	3.397830e+06	
36	-1.80000e+00	3.489731e+06	
37	-1.85000e+00	3.580879e+06	
38	-1.90000e+00	3.671298e+06	
39	-1.95000e+00	3.761008e+06	
40	-2.00000e+00	3.850024e+06	
41	-2.05000e+00	3.938358e+06	
42	-2.10000e+00	4.026014e+06	
43	-2.15000e+00	4.112990e+06	
44	-2.20000e+00	4.199276e+06	
45	-2.25000e+00	4.284843e+06	
46	-2.30000e+00	4.369646e+06	
47	-2.35000e+00	4.453615e+06	
48	-2.40000e+00	4.536645e+06	
49	-2.45000e+00	4.618587e+06	
50	-2.50000e+00	4.699239e+06	
51	-2.55000e+00	4.778330e+06	
52	-2.60000e+00	4.855506e+06	
53	-2.65000e+00	4.930316e+06	
54	-2.70000e+00	5.002194e+06	

Index   v-sweep         rds             
--------------------------------------------------------------------------------
55	-2.75000e+00	5.070443e+06	
56	-2.80000e+00	5.134226e+06	
57	-2.85000e+00	5.192549e+06	
58	-2.90000e+00	5.244260e+06	
59	-2.95000e+00	5.288050e+06	
60	-3.00000e+00	5.322469e+06	
61	-3.05000e+00	5.345951e+06	
62	-3.10000e+00	5.356856e+06	
63	-3.15000e+00	5.353531e+06	
64	-3.20000e+00	5.334385e+06	
65	-3.25000e+00	5.297982e+06	
66	-3.30000e+00	5.243137e+06	
Reset re-loads circuit ***************************

Circuit: ***************************

Doing analysis at TEMP = 125.000000 and TNOM = 125.000000


No. of Data Rows : 67
                          ***************************
                          DC transfer characteristic  Mon Jan  9 13:57:32  2023
--------------------------------------------------------------------------------
Index   v-sweep         rds             
--------------------------------------------------------------------------------
0	0.000000e+00	7.032195e+03	
1	-5.00000e-02	7.464936e+03	
2	-1.00000e-01	7.952297e+03	
3	-1.50000e-01	8.505295e+03	
4	-2.00000e-01	9.138109e+03	
5	-2.50000e-01	9.869297e+03	
6	-3.00000e-01	1.072362e+04	
7	-3.50000e-01	1.173484e+04	
8	-4.00000e-01	1.295014e+04	
9	-4.50000e-01	1.443744e+04	
10	-5.00000e-01	1.629780e+04	
11	-5.50000e-01	1.868758e+04	
12	-6.00000e-01	2.185985e+04	
13	-6.50000e-01	2.624502e+04	
14	-7.00000e-01	3.261342e+04	
15	-7.50000e-01	4.239912e+04	
16	-8.00000e-01	5.826568e+04	
17	-8.50000e-01	8.464613e+04	
18	-9.00000e-01	1.267140e+05	
19	-9.50000e-01	1.859151e+05	
20	-1.00000e+00	2.562281e+05	
21	-1.05000e+00	3.282033e+05	
22	-1.10000e+00	3.955332e+05	
23	-1.15000e+00	4.563614e+05	
24	-1.20000e+00	5.112608e+05	
25	-1.25000e+00	5.614863e+05	
26	-1.30000e+00	6.082200e+05	
27	-1.35000e+00	6.523795e+05	
28	-1.40000e+00	6.946295e+05	
29	-1.45000e+00	7.354406e+05	
30	-1.50000e+00	7.751453e+05	
31	-1.55000e+00	8.139800e+05	
32	-1.60000e+00	8.521148e+05	
33	-1.65000e+00	8.896741e+05	
34	-1.70000e+00	9.267498e+05	
35	-1.75000e+00	9.634110e+05	
36	-1.80000e+00	9.997104e+05	
37	-1.85000e+00	1.035689e+06	
38	-1.90000e+00	1.071378e+06	
39	-1.95000e+00	1.106802e+06	
40	-2.00000e+00	1.141984e+06	
41	-2.05000e+00	1.176937e+06	
42	-2.10000e+00	1.211677e+06	
43	-2.15000e+00	1.246213e+06	
44	-2.20000e+00	1.280556e+06	
45	-2.25000e+00	1.314712e+06	
46	-2.30000e+00	1.348688e+06	
47	-2.35000e+00	1.382489e+06	
48	-2.40000e+00	1.416119e+06	
49	-2.45000e+00	1.449578e+06	
50	-2.50000e+00	1.482865e+06	
51	-2.55000e+00	1.515977e+06	
52	-2.60000e+00	1.548905e+06	
53	-2.65000e+00	1.581632e+06	
54	-2.70000e+00	1.614135e+06	

Index   v-sweep         rds             
--------------------------------------------------------------------------------
55	-2.75000e+00	1.646379e+06	
56	-2.80000e+00	1.678311e+06	
57	-2.85000e+00	1.709861e+06	
58	-2.90000e+00	1.740934e+06	
59	-2.95000e+00	1.771403e+06	
60	-3.00000e+00	1.801106e+06	
61	-3.05000e+00	1.829836e+06	
62	-3.10000e+00	1.857337e+06	
63	-3.15000e+00	1.883297e+06	
64	-3.20000e+00	1.907341e+06	
65	-3.25000e+00	1.929030e+06	
66	-3.30000e+00	1.947861e+06	
Reset re-loads circuit ***************************

Circuit: ***************************

Doing analysis at TEMP = 125.000000 and TNOM = 125.000000


No. of Data Rows : 67
                          ***************************
                          DC transfer characteristic  Mon Jan  9 13:57:32  2023
--------------------------------------------------------------------------------
Index   v-sweep         rds             
--------------------------------------------------------------------------------
0	0.000000e+00	5.168111e+03	
1	-5.00000e-02	5.385018e+03	
2	-1.00000e-01	5.620002e+03	
3	-1.50000e-01	5.875419e+03	
4	-2.00000e-01	6.154052e+03	
5	-2.50000e-01	6.459213e+03	
6	-3.00000e-01	6.794872e+03	
7	-3.50000e-01	7.165832e+03	
8	-4.00000e-01	7.577960e+03	
9	-4.50000e-01	8.038491e+03	
10	-5.00000e-01	8.556453e+03	
11	-5.50000e-01	9.143257e+03	
12	-6.00000e-01	9.813525e+03	
13	-6.50000e-01	1.058630e+04	
14	-7.00000e-01	1.148682e+04	
15	-7.50000e-01	1.254919e+04	
16	-8.00000e-01	1.382059e+04	
17	-8.50000e-01	1.536790e+04	
18	-9.00000e-01	1.728866e+04	
19	-9.50000e-01	1.972946e+04	
20	-1.00000e+00	2.291771e+04	
21	-1.05000e+00	2.721631e+04	
22	-1.10000e+00	3.321433e+04	
23	-1.15000e+00	4.185534e+04	
24	-1.20000e+00	5.453352e+04	
25	-1.25000e+00	7.288897e+04	
26	-1.30000e+00	9.790545e+04	
27	-1.35000e+00	1.286598e+05	
28	-1.40000e+00	1.623295e+05	
29	-1.45000e+00	1.958884e+05	
30	-1.50000e+00	2.275362e+05	
31	-1.55000e+00	2.567590e+05	
32	-1.60000e+00	2.837476e+05	
33	-1.65000e+00	3.089183e+05	
34	-1.70000e+00	3.326847e+05	
35	-1.75000e+00	3.553845e+05	
36	-1.80000e+00	3.772738e+05	
37	-1.85000e+00	3.985411e+05	
38	-1.90000e+00	4.193235e+05	
39	-1.95000e+00	4.397214e+05	
40	-2.00000e+00	4.598086e+05	
41	-2.05000e+00	4.796399e+05	
42	-2.10000e+00	4.992565e+05	
43	-2.15000e+00	5.186898e+05	
44	-2.20000e+00	5.379639e+05	
45	-2.25000e+00	5.570976e+05	
46	-2.30000e+00	5.761057e+05	
47	-2.35000e+00	5.949999e+05	
48	-2.40000e+00	6.137897e+05	
49	-2.45000e+00	6.324828e+05	
50	-2.50000e+00	6.510856e+05	
51	-2.55000e+00	6.696030e+05	
52	-2.60000e+00	6.880395e+05	
53	-2.65000e+00	7.063986e+05	
54	-2.70000e+00	7.246829e+05	

Index   v-sweep         rds             
--------------------------------------------------------------------------------
55	-2.75000e+00	7.428947e+05	
56	-2.80000e+00	7.610351e+05	
57	-2.85000e+00	7.791042e+05	
58	-2.90000e+00	7.971010e+05	
59	-2.95000e+00	8.150220e+05	
60	-3.00000e+00	8.328613e+05	
61	-3.05000e+00	8.506089e+05	
62	-3.10000e+00	8.682498e+05	
63	-3.15000e+00	8.857617e+05	
64	-3.20000e+00	9.031136e+05	
65	-3.25000e+00	9.202623e+05	
66	-3.30000e+00	9.371505e+05	
Reset re-loads circuit ***************************

Circuit: ***************************

Doing analysis at TEMP = 125.000000 and TNOM = 125.000000


No. of Data Rows : 67
                          ***************************
                          DC transfer characteristic  Mon Jan  9 13:57:32  2023
--------------------------------------------------------------------------------
Index   v-sweep         rds             
--------------------------------------------------------------------------------
0	0.000000e+00	4.193580e+03	
1	-5.00000e-02	4.326309e+03	
2	-1.00000e-01	4.467197e+03	
3	-1.50000e-01	4.617020e+03	
4	-2.00000e-01	4.776654e+03	
5	-2.50000e-01	4.947095e+03	
6	-3.00000e-01	5.129477e+03	
7	-3.50000e-01	5.325101e+03	
8	-4.00000e-01	5.535460e+03	
9	-4.50000e-01	5.762282e+03	
10	-5.00000e-01	6.007576e+03	
11	-5.50000e-01	6.273690e+03	
12	-6.00000e-01	6.563388e+03	
13	-6.50000e-01	6.879942e+03	
14	-7.00000e-01	7.227260e+03	
15	-7.50000e-01	7.610040e+03	
16	-8.00000e-01	8.033986e+03	
17	-8.50000e-01	8.506087e+03	
18	-9.00000e-01	9.034994e+03	
19	-9.50000e-01	9.631546e+03	
20	-1.00000e+00	1.030949e+04	
21	-1.05000e+00	1.108652e+04	
22	-1.10000e+00	1.198574e+04	
23	-1.15000e+00	1.303787e+04	
24	-1.20000e+00	1.428450e+04	
25	-1.25000e+00	1.578309e+04	
26	-1.30000e+00	1.761470e+04	
27	-1.35000e+00	1.989610e+04	
28	-1.40000e+00	2.279857e+04	
29	-1.45000e+00	2.657578e+04	
30	-1.50000e+00	3.160043e+04	
31	-1.55000e+00	3.839547e+04	
32	-1.60000e+00	4.760998e+04	
33	-1.65000e+00	5.984139e+04	
34	-1.70000e+00	7.525392e+04	
35	-1.75000e+00	9.323164e+04	
36	-1.80000e+00	1.125191e+05	
37	-1.85000e+00	1.318330e+05	
38	-1.90000e+00	1.503543e+05	
39	-1.95000e+00	1.677809e+05	
40	-2.00000e+00	1.841351e+05	
41	-2.05000e+00	1.995732e+05	
42	-2.10000e+00	2.142759e+05	
43	-2.15000e+00	2.284036e+05	
44	-2.20000e+00	2.420846e+05	
45	-2.25000e+00	2.554173e+05	
46	-2.30000e+00	2.684758e+05	
47	-2.35000e+00	2.813154e+05	
48	-2.40000e+00	2.939775e+05	
49	-2.45000e+00	3.064934e+05	
50	-2.50000e+00	3.188869e+05	
51	-2.55000e+00	3.311764e+05	
52	-2.60000e+00	3.433758e+05	
53	-2.65000e+00	3.554965e+05	
54	-2.70000e+00	3.675470e+05	

Index   v-sweep         rds             
--------------------------------------------------------------------------------
55	-2.75000e+00	3.795345e+05	
56	-2.80000e+00	3.914646e+05	
57	-2.85000e+00	4.033418e+05	
58	-2.90000e+00	4.151700e+05	
59	-2.95000e+00	4.269521e+05	
60	-3.00000e+00	4.386908e+05	
61	-3.05000e+00	4.503882e+05	
62	-3.10000e+00	4.620458e+05	
63	-3.15000e+00	4.736649e+05	
64	-3.20000e+00	4.852461e+05	
65	-3.25000e+00	4.967895e+05	
66	-3.30000e+00	5.082942e+05	
Reset re-loads circuit ***************************

Circuit: ***************************

Doing analysis at TEMP = 125.000000 and TNOM = 125.000000


No. of Data Rows : 67
                          ***************************
                          DC transfer characteristic  Mon Jan  9 13:57:32  2023
--------------------------------------------------------------------------------
Index   v-sweep         rds             
--------------------------------------------------------------------------------
0	0.000000e+00	3.595372e+03	
1	-5.00000e-02	3.686189e+03	
2	-1.00000e-01	3.781384e+03	
3	-1.50000e-01	3.881280e+03	
4	-2.00000e-01	3.986235e+03	
5	-2.50000e-01	4.096641e+03	
6	-3.00000e-01	4.212936e+03	
7	-3.50000e-01	4.335603e+03	
8	-4.00000e-01	4.465179e+03	
9	-4.50000e-01	4.602264e+03	
10	-5.00000e-01	4.747530e+03	
11	-5.50000e-01	4.901732e+03	
12	-6.00000e-01	5.065719e+03	
13	-6.50000e-01	5.240452e+03	
14	-7.00000e-01	5.427021e+03	
15	-7.50000e-01	5.626669e+03	
16	-8.00000e-01	5.840820e+03	
17	-8.50000e-01	6.071111e+03	
18	-9.00000e-01	6.319434e+03	
19	-9.50000e-01	6.587988e+03	
20	-1.00000e+00	6.879345e+03	
21	-1.05000e+00	7.196529e+03	
22	-1.10000e+00	7.543120e+03	
23	-1.15000e+00	7.923391e+03	
24	-1.20000e+00	8.342476e+03	
25	-1.25000e+00	8.806600e+03	
26	-1.30000e+00	9.323383e+03	
27	-1.35000e+00	9.902242e+03	
28	-1.40000e+00	1.055494e+04	
29	-1.45000e+00	1.129638e+04	
30	-1.50000e+00	1.214560e+04	
31	-1.55000e+00	1.312738e+04	
32	-1.60000e+00	1.427435e+04	
33	-1.65000e+00	1.563018e+04	
34	-1.70000e+00	1.725417e+04	
35	-1.75000e+00	1.922789e+04	
36	-1.80000e+00	2.166454e+04	
37	-1.85000e+00	2.472101e+04	
38	-1.90000e+00	2.861064e+04	
39	-1.95000e+00	3.360794e+04	
40	-2.00000e+00	4.002477e+04	
41	-2.05000e+00	4.812656e+04	
42	-2.10000e+00	5.798108e+04	
43	-2.15000e+00	6.932115e+04	
44	-2.20000e+00	8.157284e+04	
45	-2.25000e+00	9.407885e+04	
46	-2.30000e+00	1.063372e+05	
47	-2.35000e+00	1.180885e+05	
48	-2.40000e+00	1.292674e+05	
49	-2.45000e+00	1.399148e+05	
50	-2.50000e+00	1.501116e+05	
51	-2.55000e+00	1.599425e+05	
52	-2.60000e+00	1.694821e+05	
53	-2.65000e+00	1.787907e+05	
54	-2.70000e+00	1.879156e+05	

Index   v-sweep         rds             
--------------------------------------------------------------------------------
55	-2.75000e+00	1.968930e+05	
56	-2.80000e+00	2.057506e+05	
57	-2.85000e+00	2.145098e+05	
58	-2.90000e+00	2.231867e+05	
59	-2.95000e+00	2.317941e+05	
60	-3.00000e+00	2.403418e+05	
61	-3.05000e+00	2.488375e+05	
62	-3.10000e+00	2.572873e+05	
63	-3.15000e+00	2.656963e+05	
64	-3.20000e+00	2.740682e+05	
65	-3.25000e+00	2.824065e+05	
66	-3.30000e+00	2.907136e+05	
Reset re-loads circuit ***************************

Circuit: ***************************

Note: No ".plot", ".print", or ".fourier" lines; no simulations run
