
Note: Compatibility modes selected: hs

Warning: m=xx on .subckt line will override multiplier m hierarchy!


Circuit: ***************************

Doing analysis at TEMP = 125.000000 and TNOM = 125.000000


No. of Data Rows : 67
                          ***************************
                          DC transfer characteristic  Mon Jan  9 13:57:32  2023
--------------------------------------------------------------------------------
Index   v-sweep         rds             
--------------------------------------------------------------------------------
0	0.000000e+00	1.257651e+05	
1	-5.00000e-02	1.776503e+05	
2	-1.00000e-01	2.933165e+05	
3	-1.50000e-01	6.492470e+05	
4	-2.00000e-01	1.948432e+06	
5	-2.50000e-01	5.035266e+06	
6	-3.00000e-01	8.763445e+06	
7	-3.50000e-01	1.172657e+07	
8	-4.00000e-01	1.384182e+07	
9	-4.50000e-01	1.541671e+07	
10	-5.00000e-01	1.667877e+07	
11	-5.50000e-01	1.775485e+07	
12	-6.00000e-01	1.871310e+07	
13	-6.50000e-01	1.959119e+07	
14	-7.00000e-01	2.041093e+07	
15	-7.50000e-01	2.118557e+07	
16	-8.00000e-01	2.192359e+07	
17	-8.50000e-01	2.263065e+07	
18	-9.00000e-01	2.331074e+07	
19	-9.50000e-01	2.396674e+07	
20	-1.00000e+00	2.460087e+07	
21	-1.05000e+00	2.521484e+07	
22	-1.10000e+00	2.581006e+07	
23	-1.15000e+00	2.638769e+07	
24	-1.20000e+00	2.694871e+07	
25	-1.25000e+00	2.749400e+07	
26	-1.30000e+00	2.802430e+07	
27	-1.35000e+00	2.854030e+07	
28	-1.40000e+00	2.904261e+07	
29	-1.45000e+00	2.953181e+07	
30	-1.50000e+00	3.000841e+07	
31	-1.55000e+00	3.047289e+07	
32	-1.60000e+00	3.092569e+07	
33	-1.65000e+00	3.136724e+07	
34	-1.70000e+00	3.179790e+07	
35	-1.75000e+00	3.221803e+07	
36	-1.80000e+00	3.262792e+07	
37	-1.85000e+00	3.302782e+07	
38	-1.90000e+00	3.341794e+07	
39	-1.95000e+00	3.379837e+07	
40	-2.00000e+00	3.416916e+07	
41	-2.05000e+00	3.453018e+07	
42	-2.10000e+00	3.488118e+07	
43	-2.15000e+00	3.522172e+07	
44	-2.20000e+00	3.555114e+07	
45	-2.25000e+00	3.586847e+07	
46	-2.30000e+00	3.617249e+07	
47	-2.35000e+00	3.646154e+07	
48	-2.40000e+00	3.673362e+07	
49	-2.45000e+00	3.698621e+07	
50	-2.50000e+00	3.721633e+07	
51	-2.55000e+00	3.742046e+07	
52	-2.60000e+00	3.759455e+07	
53	-2.65000e+00	3.773397e+07	
54	-2.70000e+00	3.783363e+07	

Index   v-sweep         rds             
--------------------------------------------------------------------------------
55	-2.75000e+00	3.788793e+07	
56	-2.80000e+00	3.789094e+07	
57	-2.85000e+00	3.783649e+07	
58	-2.90000e+00	3.771832e+07	
59	-2.95000e+00	3.753033e+07	
60	-3.00000e+00	3.726682e+07	
61	-3.05000e+00	3.692276e+07	
62	-3.10000e+00	3.649406e+07	
63	-3.15000e+00	3.597788e+07	
64	-3.20000e+00	3.537288e+07	
65	-3.25000e+00	3.467944e+07	
66	-3.30000e+00	3.389977e+07	
Reset re-loads circuit ***************************

Circuit: ***************************

Doing analysis at TEMP = 125.000000 and TNOM = 125.000000


No. of Data Rows : 67
                          ***************************
                          DC transfer characteristic  Mon Jan  9 13:57:32  2023
--------------------------------------------------------------------------------
Index   v-sweep         rds             
--------------------------------------------------------------------------------
0	0.000000e+00	3.034885e+04	
1	-5.00000e-02	3.334668e+04	
2	-1.00000e-01	3.696645e+04	
3	-1.50000e-01	4.142273e+04	
4	-2.00000e-01	4.704024e+04	
5	-2.50000e-01	5.433314e+04	
6	-3.00000e-01	6.416110e+04	
7	-3.50000e-01	7.805746e+04	
8	-4.00000e-01	9.896684e+04	
9	-4.50000e-01	1.329654e+05	
10	-5.00000e-01	1.929684e+05	
11	-5.50000e-01	3.031762e+05	
12	-6.00000e-01	4.887421e+05	
13	-6.50000e-01	7.350004e+05	
14	-7.00000e-01	9.844197e+05	
15	-7.50000e-01	1.197866e+06	
16	-8.00000e-01	1.372144e+06	
17	-8.50000e-01	1.517517e+06	
18	-9.00000e-01	1.643842e+06	
19	-9.50000e-01	1.757806e+06	
20	-1.00000e+00	1.863553e+06	
21	-1.05000e+00	1.963614e+06	
22	-1.10000e+00	2.059557e+06	
23	-1.15000e+00	2.152379e+06	
24	-1.20000e+00	2.242730e+06	
25	-1.25000e+00	2.331048e+06	
26	-1.30000e+00	2.417637e+06	
27	-1.35000e+00	2.502711e+06	
28	-1.40000e+00	2.586429e+06	
29	-1.45000e+00	2.668907e+06	
30	-1.50000e+00	2.750236e+06	
31	-1.55000e+00	2.830486e+06	
32	-1.60000e+00	2.909715e+06	
33	-1.65000e+00	2.987967e+06	
34	-1.70000e+00	3.065282e+06	
35	-1.75000e+00	3.141693e+06	
36	-1.80000e+00	3.217228e+06	
37	-1.85000e+00	3.291910e+06	
38	-1.90000e+00	3.365763e+06	
39	-1.95000e+00	3.438804e+06	
40	-2.00000e+00	3.511052e+06	
41	-2.05000e+00	3.582521e+06	
42	-2.10000e+00	3.653223e+06	
43	-2.15000e+00	3.723165e+06	
44	-2.20000e+00	3.792352e+06	
45	-2.25000e+00	3.860779e+06	
46	-2.30000e+00	3.928436e+06	
47	-2.35000e+00	3.995295e+06	
48	-2.40000e+00	4.061316e+06	
49	-2.45000e+00	4.126433e+06	
50	-2.50000e+00	4.190551e+06	
51	-2.55000e+00	4.253541e+06	
52	-2.60000e+00	4.315223e+06	
53	-2.65000e+00	4.375366e+06	
54	-2.70000e+00	4.433669e+06	

Index   v-sweep         rds             
--------------------------------------------------------------------------------
55	-2.75000e+00	4.489754e+06	
56	-2.80000e+00	4.543153e+06	
57	-2.85000e+00	4.593299e+06	
58	-2.90000e+00	4.639515e+06	
59	-2.95000e+00	4.681011e+06	
60	-3.00000e+00	4.716878e+06	
61	-3.05000e+00	4.746099e+06	
62	-3.10000e+00	4.767553e+06	
63	-3.15000e+00	4.780045e+06	
64	-3.20000e+00	4.782329e+06	
65	-3.25000e+00	4.773159e+06	
66	-3.30000e+00	4.751343e+06	
Reset re-loads circuit ***************************

Circuit: ***************************

Doing analysis at TEMP = 125.000000 and TNOM = 125.000000


No. of Data Rows : 67
                          ***************************
                          DC transfer characteristic  Mon Jan  9 13:57:32  2023
--------------------------------------------------------------------------------
Index   v-sweep         rds             
--------------------------------------------------------------------------------
0	0.000000e+00	1.826331e+04	
1	-5.00000e-02	1.929498e+04	
2	-1.00000e-01	2.044083e+04	
3	-1.50000e-01	2.172090e+04	
4	-2.00000e-01	2.316016e+04	
5	-2.50000e-01	2.479017e+04	
6	-3.00000e-01	2.665142e+04	
7	-3.50000e-01	2.879658e+04	
8	-4.00000e-01	3.129557e+04	
9	-4.50000e-01	3.424301e+04	
10	-5.00000e-01	3.777000e+04	
11	-5.50000e-01	4.206310e+04	
12	-6.00000e-01	4.739584e+04	
13	-6.50000e-01	5.418292e+04	
14	-7.00000e-01	6.307604e+04	
15	-7.50000e-01	7.513512e+04	
16	-8.00000e-01	9.212436e+04	
17	-8.50000e-01	1.169428e+05	
18	-9.00000e-01	1.538679e+05	
19	-9.50000e-01	2.072779e+05	
20	-1.00000e+00	2.772344e+05	
21	-1.05000e+00	3.558125e+05	
22	-1.10000e+00	4.320422e+05	
23	-1.15000e+00	4.998017e+05	
24	-1.20000e+00	5.585951e+05	
25	-1.25000e+00	6.102990e+05	
26	-1.30000e+00	6.569652e+05	
27	-1.35000e+00	7.001561e+05	
28	-1.40000e+00	7.409338e+05	
29	-1.45000e+00	7.799950e+05	
30	-1.50000e+00	8.177958e+05	
31	-1.55000e+00	8.546379e+05	
32	-1.60000e+00	8.907249e+05	
33	-1.65000e+00	9.261966e+05	
34	-1.70000e+00	9.611513e+05	
35	-1.75000e+00	9.956597e+05	
36	-1.80000e+00	1.029773e+06	
37	-1.85000e+00	1.063531e+06	
38	-1.90000e+00	1.096961e+06	
39	-1.95000e+00	1.130088e+06	
40	-2.00000e+00	1.162927e+06	
41	-2.05000e+00	1.195495e+06	
42	-2.10000e+00	1.227802e+06	
43	-2.15000e+00	1.259859e+06	
44	-2.20000e+00	1.291673e+06	
45	-2.25000e+00	1.323250e+06	
46	-2.30000e+00	1.354598e+06	
47	-2.35000e+00	1.385720e+06	
48	-2.40000e+00	1.416621e+06	
49	-2.45000e+00	1.447303e+06	
50	-2.50000e+00	1.477770e+06	
51	-2.55000e+00	1.508021e+06	
52	-2.60000e+00	1.538054e+06	
53	-2.65000e+00	1.567865e+06	
54	-2.70000e+00	1.597444e+06	

Index   v-sweep         rds             
--------------------------------------------------------------------------------
55	-2.75000e+00	1.626777e+06	
56	-2.80000e+00	1.655838e+06	
57	-2.85000e+00	1.684595e+06	
58	-2.90000e+00	1.712999e+06	
59	-2.95000e+00	1.740982e+06	
60	-3.00000e+00	1.768456e+06	
61	-3.05000e+00	1.795306e+06	
62	-3.10000e+00	1.821381e+06	
63	-3.15000e+00	1.846494e+06	
64	-3.20000e+00	1.870415e+06	
65	-3.25000e+00	1.892863e+06	
66	-3.30000e+00	1.913505e+06	
Reset re-loads circuit ***************************

Circuit: ***************************

Doing analysis at TEMP = 125.000000 and TNOM = 125.000000


No. of Data Rows : 67
                          ***************************
                          DC transfer characteristic  Mon Jan  9 13:57:32  2023
--------------------------------------------------------------------------------
Index   v-sweep         rds             
--------------------------------------------------------------------------------
0	0.000000e+00	1.361450e+04	
1	-5.00000e-02	1.415775e+04	
2	-1.00000e-01	1.474183e+04	
3	-1.50000e-01	1.537154e+04	
4	-2.00000e-01	1.605241e+04	
5	-2.50000e-01	1.679093e+04	
6	-3.00000e-01	1.759475e+04	
7	-3.50000e-01	1.847289e+04	
8	-4.00000e-01	1.943613e+04	
9	-4.50000e-01	2.049744e+04	
10	-5.00000e-01	2.167256e+04	
11	-5.50000e-01	2.298074e+04	
12	-6.00000e-01	2.444585e+04	
13	-6.50000e-01	2.609774e+04	
14	-7.00000e-01	2.797431e+04	
15	-7.50000e-01	3.012431e+04	
16	-8.00000e-01	3.261144e+04	
17	-8.50000e-01	3.552040e+04	
18	-9.00000e-01	3.896598e+04	
19	-9.50000e-01	4.310691e+04	
20	-1.00000e+00	4.816738e+04	
21	-1.05000e+00	5.447053e+04	
22	-1.10000e+00	6.248950e+04	
23	-1.15000e+00	7.291931e+04	
24	-1.20000e+00	8.675415e+04	
25	-1.25000e+00	1.052885e+05	
26	-1.30000e+00	1.298154e+05	
27	-1.35000e+00	1.607458e+05	
28	-1.40000e+00	1.965253e+05	
29	-1.45000e+00	2.338416e+05	
30	-1.50000e+00	2.695335e+05	
31	-1.55000e+00	3.020747e+05	
32	-1.60000e+00	3.314064e+05	
33	-1.65000e+00	3.581123e+05	
34	-1.70000e+00	3.828589e+05	
35	-1.75000e+00	4.061901e+05	
36	-1.80000e+00	4.285001e+05	
37	-1.85000e+00	4.500624e+05	
38	-1.90000e+00	4.710640e+05	
39	-1.95000e+00	4.916335e+05	
40	-2.00000e+00	5.118601e+05	
41	-2.05000e+00	5.318066e+05	
42	-2.10000e+00	5.515179e+05	
43	-2.15000e+00	5.710268e+05	
44	-2.20000e+00	5.903575e+05	
45	-2.25000e+00	6.095281e+05	
46	-2.30000e+00	6.285527e+05	
47	-2.35000e+00	6.474419e+05	
48	-2.40000e+00	6.662043e+05	
49	-2.45000e+00	6.848465e+05	
50	-2.50000e+00	7.033742e+05	
51	-2.55000e+00	7.217916e+05	
52	-2.60000e+00	7.401026e+05	
53	-2.65000e+00	7.583103e+05	
54	-2.70000e+00	7.764171e+05	

Index   v-sweep         rds             
--------------------------------------------------------------------------------
55	-2.75000e+00	7.944252e+05	
56	-2.80000e+00	8.123363e+05	
57	-2.85000e+00	8.301514e+05	
58	-2.90000e+00	8.478709e+05	
59	-2.95000e+00	8.654942e+05	
60	-3.00000e+00	8.830192e+05	
61	-3.05000e+00	9.004418e+05	
62	-3.10000e+00	9.177553e+05	
63	-3.15000e+00	9.349486e+05	
64	-3.20000e+00	9.520055e+05	
65	-3.25000e+00	9.689028e+05	
66	-3.30000e+00	9.856078e+05	
Reset re-loads circuit ***************************

Circuit: ***************************

Doing analysis at TEMP = 125.000000 and TNOM = 125.000000


No. of Data Rows : 67
                          ***************************
                          DC transfer characteristic  Mon Jan  9 13:57:32  2023
--------------------------------------------------------------------------------
Index   v-sweep         rds             
--------------------------------------------------------------------------------
0	0.000000e+00	1.114804e+04	
1	-5.00000e-02	1.149346e+04	
2	-1.00000e-01	1.185848e+04	
3	-1.50000e-01	1.224481e+04	
4	-2.00000e-01	1.265436e+04	
5	-2.50000e-01	1.308930e+04	
6	-3.00000e-01	1.355204e+04	
7	-3.50000e-01	1.404534e+04	
8	-4.00000e-01	1.457233e+04	
9	-4.50000e-01	1.513656e+04	
10	-5.00000e-01	1.574213e+04	
11	-5.50000e-01	1.639374e+04	
12	-6.00000e-01	1.709683e+04	
13	-6.50000e-01	1.785774e+04	
14	-7.00000e-01	1.868389e+04	
15	-7.50000e-01	1.958401e+04	
16	-8.00000e-01	2.056847e+04	
17	-8.50000e-01	2.164965e+04	
18	-9.00000e-01	2.284246e+04	
19	-9.50000e-01	2.416504e+04	
20	-1.00000e+00	2.563960e+04	
21	-1.05000e+00	2.729371e+04	
22	-1.10000e+00	2.916189e+04	
23	-1.15000e+00	3.128790e+04	
24	-1.20000e+00	3.372801e+04	
25	-1.25000e+00	3.655544e+04	
26	-1.30000e+00	3.986692e+04	
27	-1.35000e+00	4.379185e+04	
28	-1.40000e+00	4.850537e+04	
29	-1.45000e+00	5.424587e+04	
30	-1.50000e+00	6.133591e+04	
31	-1.55000e+00	7.019901e+04	
32	-1.60000e+00	8.134792e+04	
33	-1.65000e+00	9.529059e+04	
34	-1.70000e+00	1.122870e+05	
35	-1.75000e+00	1.319987e+05	
36	-1.80000e+00	1.533412e+05	
37	-1.85000e+00	1.748733e+05	
38	-1.90000e+00	1.954652e+05	
39	-1.95000e+00	2.146244e+05	
40	-2.00000e+00	2.323584e+05	
41	-2.05000e+00	2.488996e+05	
42	-2.10000e+00	2.645186e+05	
43	-2.15000e+00	2.794468e+05	
44	-2.20000e+00	2.938606e+05	
45	-2.25000e+00	3.078875e+05	
46	-2.30000e+00	3.216182e+05	
47	-2.35000e+00	3.351169e+05	
48	-2.40000e+00	3.484295e+05	
49	-2.45000e+00	3.615889e+05	
50	-2.50000e+00	3.746191e+05	
51	-2.55000e+00	3.875378e+05	
52	-2.60000e+00	4.003583e+05	
53	-2.65000e+00	4.130907e+05	
54	-2.70000e+00	4.257428e+05	

Index   v-sweep         rds             
--------------------------------------------------------------------------------
55	-2.75000e+00	4.383205e+05	
56	-2.80000e+00	4.508287e+05	
57	-2.85000e+00	4.632711e+05	
58	-2.90000e+00	4.756508e+05	
59	-2.95000e+00	4.879704e+05	
60	-3.00000e+00	5.002319e+05	
61	-3.05000e+00	5.124370e+05	
62	-3.10000e+00	5.245872e+05	
63	-3.15000e+00	5.366834e+05	
64	-3.20000e+00	5.487266e+05	
65	-3.25000e+00	5.607171e+05	
66	-3.30000e+00	5.726548e+05	
Reset re-loads circuit ***************************

Circuit: ***************************

Doing analysis at TEMP = 125.000000 and TNOM = 125.000000


No. of Data Rows : 67
                          ***************************
                          DC transfer characteristic  Mon Jan  9 13:57:32  2023
--------------------------------------------------------------------------------
Index   v-sweep         rds             
--------------------------------------------------------------------------------
0	0.000000e+00	9.614622e+03	
1	-5.00000e-02	9.858720e+03	
2	-1.00000e-01	1.011390e+04	
3	-1.50000e-01	1.038094e+04	
4	-2.00000e-01	1.066067e+04	
5	-2.50000e-01	1.095403e+04	
6	-3.00000e-01	1.126203e+04	
7	-3.50000e-01	1.158579e+04	
8	-4.00000e-01	1.192656e+04	
9	-4.50000e-01	1.228570e+04	
10	-5.00000e-01	1.266473e+04	
11	-5.50000e-01	1.306537e+04	
12	-6.00000e-01	1.348949e+04	
13	-6.50000e-01	1.393923e+04	
14	-7.00000e-01	1.441697e+04	
15	-7.50000e-01	1.492541e+04	
16	-8.00000e-01	1.546759e+04	
17	-8.50000e-01	1.604699e+04	
18	-9.00000e-01	1.666756e+04	
19	-9.50000e-01	1.733383e+04	
20	-1.00000e+00	1.805103e+04	
21	-1.05000e+00	1.882522e+04	
22	-1.10000e+00	1.966344e+04	
23	-1.15000e+00	2.057393e+04	
24	-1.20000e+00	2.156643e+04	
25	-1.25000e+00	2.265245e+04	
26	-1.30000e+00	2.384578e+04	
27	-1.35000e+00	2.516300e+04	
28	-1.40000e+00	2.662423e+04	
29	-1.45000e+00	2.825413e+04	
30	-1.50000e+00	3.008317e+04	
31	-1.55000e+00	3.214936e+04	
32	-1.60000e+00	3.450059e+04	
33	-1.65000e+00	3.719782e+04	
34	-1.70000e+00	4.031920e+04	
35	-1.75000e+00	4.396561e+04	
36	-1.80000e+00	4.826723e+04	
37	-1.85000e+00	5.339051e+04	
38	-1.90000e+00	5.954210e+04	
39	-1.95000e+00	6.696179e+04	
40	-2.00000e+00	7.588847e+04	
41	-2.05000e+00	8.647911e+04	
42	-2.10000e+00	9.868160e+04	
43	-2.15000e+00	1.121305e+05	
44	-2.20000e+00	1.261927e+05	
45	-2.25000e+00	1.401951e+05	
46	-2.30000e+00	1.536654e+05	
47	-2.35000e+00	1.664092e+05	
48	-2.40000e+00	1.784358e+05	
49	-2.45000e+00	1.898499e+05	
50	-2.50000e+00	2.007764e+05	
51	-2.55000e+00	2.113267e+05	
52	-2.60000e+00	2.215890e+05	
53	-2.65000e+00	2.316295e+05	
54	-2.70000e+00	2.414968e+05	

Index   v-sweep         rds             
--------------------------------------------------------------------------------
55	-2.75000e+00	2.512264e+05	
56	-2.80000e+00	2.608440e+05	
57	-2.85000e+00	2.703686e+05	
58	-2.90000e+00	2.798142e+05	
59	-2.95000e+00	2.891913e+05	
60	-3.00000e+00	2.985078e+05	
61	-3.05000e+00	3.077700e+05	
62	-3.10000e+00	3.169824e+05	
63	-3.15000e+00	3.261488e+05	
64	-3.20000e+00	3.352722e+05	
65	-3.25000e+00	3.443549e+05	
66	-3.30000e+00	3.533988e+05	
Reset re-loads circuit ***************************

Circuit: ***************************

Note: No ".plot", ".print", or ".fourier" lines; no simulations run
