
Note: Compatibility modes selected: hs

Warning: m=xx on .subckt line will override multiplier m hierarchy!


Circuit: ***************************

Doing analysis at TEMP = 125.000000 and TNOM = 125.000000


No. of Data Rows : 67
                          ***************************
                          DC transfer characteristic  Mon Jan  9 13:57:32  2023
--------------------------------------------------------------------------------
Index   v-sweep         rds             
--------------------------------------------------------------------------------
0	0.000000e+00	1.096233e+06	
1	-5.00000e-02	1.642486e+06	
2	-1.00000e-01	3.077538e+06	
3	-1.50000e-01	8.661485e+06	
4	-2.00000e-01	3.106883e+07	
5	-2.50000e-01	8.355053e+07	
6	-3.00000e-01	1.518046e+08	
7	-3.50000e-01	2.132877e+08	
8	-4.00000e-01	2.612410e+08	
9	-4.50000e-01	2.981922e+08	
10	-5.00000e-01	3.278192e+08	
11	-5.50000e-01	3.527719e+08	
12	-6.00000e-01	3.747017e+08	
13	-6.50000e-01	3.946092e+08	
14	-7.00000e-01	4.131073e+08	
15	-7.50000e-01	4.305806e+08	
16	-8.00000e-01	4.472779e+08	
17	-8.50000e-01	4.633645e+08	
18	-9.00000e-01	4.789536e+08	
19	-9.50000e-01	4.941251e+08	
20	-1.00000e+00	5.089363e+08	
21	-1.05000e+00	5.234298e+08	
22	-1.10000e+00	5.376378e+08	
23	-1.15000e+00	5.515850e+08	
24	-1.20000e+00	5.652912e+08	
25	-1.25000e+00	5.787720e+08	
26	-1.30000e+00	5.920404e+08	
27	-1.35000e+00	6.051072e+08	
28	-1.40000e+00	6.179814e+08	
29	-1.45000e+00	6.306710e+08	
30	-1.50000e+00	6.431827e+08	
31	-1.55000e+00	6.555224e+08	
32	-1.60000e+00	6.676955e+08	
33	-1.65000e+00	6.797064e+08	
34	-1.70000e+00	6.915591e+08	
35	-1.75000e+00	7.032566e+08	
36	-1.80000e+00	7.148013e+08	
37	-1.85000e+00	7.261943e+08	
38	-1.90000e+00	7.374350e+08	
39	-1.95000e+00	7.485213e+08	
40	-2.00000e+00	7.594483e+08	
41	-2.05000e+00	7.702077e+08	
42	-2.10000e+00	7.807875e+08	
43	-2.15000e+00	7.911703e+08	
44	-2.20000e+00	8.013325e+08	
45	-2.25000e+00	8.112428e+08	
46	-2.30000e+00	8.208611e+08	
47	-2.35000e+00	8.301369e+08	
48	-2.40000e+00	8.390081e+08	
49	-2.45000e+00	8.473991e+08	
50	-2.50000e+00	8.552203e+08	
51	-2.55000e+00	8.623669e+08	
52	-2.60000e+00	8.687183e+08	
53	-2.65000e+00	8.741387e+08	
54	-2.70000e+00	8.784775e+08	

Index   v-sweep         rds             
--------------------------------------------------------------------------------
55	-2.75000e+00	8.815719e+08	
56	-2.80000e+00	8.832494e+08	
57	-2.85000e+00	8.833322e+08	
58	-2.90000e+00	8.816431e+08	
59	-2.95000e+00	8.780119e+08	
60	-3.00000e+00	8.722834e+08	
61	-3.05000e+00	8.643262e+08	
62	-3.10000e+00	8.540410e+08	
63	-3.15000e+00	8.413689e+08	
64	-3.20000e+00	8.262984e+08	
65	-3.25000e+00	8.088705e+08	
66	-3.30000e+00	7.891807e+08	
Reset re-loads circuit ***************************

Circuit: ***************************

Doing analysis at TEMP = 125.000000 and TNOM = 125.000000


No. of Data Rows : 67
                          ***************************
                          DC transfer characteristic  Mon Jan  9 13:57:32  2023
--------------------------------------------------------------------------------
Index   v-sweep         rds             
--------------------------------------------------------------------------------
0	0.000000e+00	2.559477e+05	
1	-5.00000e-02	2.846184e+05	
2	-1.00000e-01	3.203350e+05	
3	-1.50000e-01	3.660333e+05	
4	-2.00000e-01	4.265104e+05	
5	-2.50000e-01	5.101199e+05	
6	-3.00000e-01	6.325946e+05	
7	-3.50000e-01	8.264710e+05	
8	-4.00000e-01	1.166098e+06	
9	-4.50000e-01	1.832687e+06	
10	-5.00000e-01	3.231949e+06	
11	-5.50000e-01	5.940352e+06	
12	-6.00000e-01	1.003254e+07	
13	-6.50000e-01	1.465415e+07	
14	-7.00000e-01	1.889294e+07	
15	-7.50000e-01	2.243440e+07	
16	-8.00000e-01	2.535618e+07	
17	-8.50000e-01	2.782752e+07	
18	-9.00000e-01	2.999169e+07	
19	-9.50000e-01	3.194832e+07	
20	-1.00000e+00	3.376275e+07	
21	-1.05000e+00	3.547736e+07	
22	-1.10000e+00	3.711991e+07	
23	-1.15000e+00	3.870891e+07	
24	-1.20000e+00	4.025692e+07	
25	-1.25000e+00	4.177269e+07	
26	-1.30000e+00	4.326240e+07	
27	-1.35000e+00	4.473054e+07	
28	-1.40000e+00	4.618038e+07	
29	-1.45000e+00	4.761441e+07	
30	-1.50000e+00	4.903448e+07	
31	-1.55000e+00	5.044204e+07	
32	-1.60000e+00	5.183823e+07	
33	-1.65000e+00	5.322395e+07	
34	-1.70000e+00	5.459990e+07	
35	-1.75000e+00	5.596668e+07	
36	-1.80000e+00	5.732477e+07	
37	-1.85000e+00	5.867456e+07	
38	-1.90000e+00	6.001637e+07	
39	-1.95000e+00	6.135047e+07	
40	-2.00000e+00	6.267706e+07	
41	-2.05000e+00	6.399629e+07	
42	-2.10000e+00	6.530823e+07	
43	-2.15000e+00	6.661285e+07	
44	-2.20000e+00	6.791000e+07	
45	-2.25000e+00	6.919936e+07	
46	-2.30000e+00	7.048038e+07	
47	-2.35000e+00	7.175220e+07	
48	-2.40000e+00	7.301357e+07	
49	-2.45000e+00	7.426270e+07	
50	-2.50000e+00	7.549716e+07	
51	-2.55000e+00	7.671370e+07	
52	-2.60000e+00	7.790809e+07	
53	-2.65000e+00	7.907490e+07	
54	-2.70000e+00	8.020731e+07	

Index   v-sweep         rds             
--------------------------------------------------------------------------------
55	-2.75000e+00	8.129693e+07	
56	-2.80000e+00	8.233354e+07	
57	-2.85000e+00	8.330501e+07	
58	-2.90000e+00	8.419711e+07	
59	-2.95000e+00	8.499349e+07	
60	-3.00000e+00	8.567570e+07	
61	-3.05000e+00	8.622344e+07	
62	-3.10000e+00	8.661480e+07	
63	-3.15000e+00	8.682691e+07	
64	-3.20000e+00	8.683657e+07	
65	-3.25000e+00	8.662123e+07	
66	-3.30000e+00	8.616013e+07	
Reset re-loads circuit ***************************

Circuit: ***************************

Doing analysis at TEMP = 125.000000 and TNOM = 125.000000


No. of Data Rows : 67
                          ***************************
                          DC transfer characteristic  Mon Jan  9 13:57:32  2023
--------------------------------------------------------------------------------
Index   v-sweep         rds             
--------------------------------------------------------------------------------
0	0.000000e+00	1.466467e+05	
1	-5.00000e-02	1.557178e+05	
2	-1.00000e-01	1.659423e+05	
3	-1.50000e-01	1.775546e+05	
4	-2.00000e-01	1.908572e+05	
5	-2.50000e-01	2.062465e+05	
6	-3.00000e-01	2.242528e+05	
7	-3.50000e-01	2.456013e+05	
8	-4.00000e-01	2.713088e+05	
9	-4.50000e-01	3.028437e+05	
10	-5.00000e-01	3.424009e+05	
11	-5.50000e-01	3.933934e+05	
12	-6.00000e-01	4.613750e+05	
13	-6.50000e-01	5.558487e+05	
14	-7.00000e-01	6.939080e+05	
15	-7.50000e-01	9.074156e+05	
16	-8.00000e-01	1.254933e+06	
17	-8.50000e-01	1.829934e+06	
18	-9.00000e-01	2.727108e+06	
19	-9.50000e-01	3.936796e+06	
20	-1.00000e+00	5.291182e+06	
21	-1.05000e+00	6.590490e+06	
22	-1.10000e+00	7.733937e+06	
23	-1.15000e+00	8.715035e+06	
24	-1.20000e+00	9.565569e+06	
25	-1.25000e+00	1.032098e+07	
26	-1.30000e+00	1.100936e+07	
27	-1.35000e+00	1.165063e+07	
28	-1.40000e+00	1.225839e+07	
29	-1.45000e+00	1.284184e+07	
30	-1.50000e+00	1.340729e+07	
31	-1.55000e+00	1.395909e+07	
32	-1.60000e+00	1.450028e+07	
33	-1.65000e+00	1.503306e+07	
34	-1.70000e+00	1.555900e+07	
35	-1.75000e+00	1.607928e+07	
36	-1.80000e+00	1.659477e+07	
37	-1.85000e+00	1.710614e+07	
38	-1.90000e+00	1.761390e+07	
39	-1.95000e+00	1.811845e+07	
40	-2.00000e+00	1.862010e+07	
41	-2.05000e+00	1.911911e+07	
42	-2.10000e+00	1.961568e+07	
43	-2.15000e+00	2.010998e+07	
44	-2.20000e+00	2.060213e+07	
45	-2.25000e+00	2.109225e+07	
46	-2.30000e+00	2.158043e+07	
47	-2.35000e+00	2.206672e+07	
48	-2.40000e+00	2.255119e+07	
49	-2.45000e+00	2.303385e+07	
50	-2.50000e+00	2.351469e+07	
51	-2.55000e+00	2.399365e+07	
52	-2.60000e+00	2.447064e+07	
53	-2.65000e+00	2.494545e+07	
54	-2.70000e+00	2.541780e+07	

Index   v-sweep         rds             
--------------------------------------------------------------------------------
55	-2.75000e+00	2.588725e+07	
56	-2.80000e+00	2.635318e+07	
57	-2.85000e+00	2.681474e+07	
58	-2.90000e+00	2.727078e+07	
59	-2.95000e+00	2.771979e+07	
60	-3.00000e+00	2.815985e+07	
61	-3.05000e+00	2.858850e+07	
62	-3.10000e+00	2.900269e+07	
63	-3.15000e+00	2.939871e+07	
64	-3.20000e+00	2.977208e+07	
65	-3.25000e+00	3.011755e+07	
66	-3.30000e+00	3.042903e+07	
Reset re-loads circuit ***************************

Circuit: ***************************

Doing analysis at TEMP = 125.000000 and TNOM = 125.000000


No. of Data Rows : 67
                          ***************************
                          DC transfer characteristic  Mon Jan  9 13:57:32  2023
--------------------------------------------------------------------------------
Index   v-sweep         rds             
--------------------------------------------------------------------------------
0	0.000000e+00	1.045244e+05	
1	-5.00000e-02	1.089762e+05	
2	-1.00000e-01	1.138052e+05	
3	-1.50000e-01	1.190614e+05	
4	-2.00000e-01	1.248040e+05	
5	-2.50000e-01	1.311039e+05	
6	-3.00000e-01	1.380459e+05	
7	-3.50000e-01	1.457335e+05	
8	-4.00000e-01	1.542932e+05	
9	-4.50000e-01	1.638819e+05	
10	-5.00000e-01	1.746964e+05	
11	-5.50000e-01	1.869864e+05	
12	-6.00000e-01	2.010743e+05	
13	-6.50000e-01	2.173827e+05	
14	-7.00000e-01	2.364755e+05	
15	-7.50000e-01	2.591222e+05	
16	-8.00000e-01	2.863968e+05	
17	-8.50000e-01	3.198387e+05	
18	-9.00000e-01	3.617188e+05	
19	-9.50000e-01	4.154934e+05	
20	-1.00000e+00	4.865844e+05	
21	-1.05000e+00	5.837090e+05	
22	-1.10000e+00	7.209590e+05	
23	-1.15000e+00	9.202137e+05	
24	-1.20000e+00	1.210885e+06	
25	-1.25000e+00	1.619273e+06	
26	-1.30000e+00	2.143494e+06	
27	-1.35000e+00	2.737032e+06	
28	-1.40000e+00	3.332580e+06	
29	-1.45000e+00	3.882538e+06	
30	-1.50000e+00	4.371635e+06	
31	-1.55000e+00	4.804915e+06	
32	-1.60000e+00	5.194072e+06	
33	-1.65000e+00	5.550484e+06	
34	-1.70000e+00	5.883131e+06	
35	-1.75000e+00	6.198552e+06	
36	-1.80000e+00	6.501362e+06	
37	-1.85000e+00	6.794801e+06	
38	-1.90000e+00	7.081146e+06	
39	-1.95000e+00	7.362020e+06	
40	-2.00000e+00	7.638588e+06	
41	-2.05000e+00	7.911702e+06	
42	-2.10000e+00	8.181993e+06	
43	-2.15000e+00	8.449933e+06	
44	-2.20000e+00	8.715883e+06	
45	-2.25000e+00	8.980117e+06	
46	-2.30000e+00	9.242851e+06	
47	-2.35000e+00	9.504256e+06	
48	-2.40000e+00	9.764464e+06	
49	-2.45000e+00	1.002359e+07	
50	-2.50000e+00	1.028171e+07	
51	-2.55000e+00	1.053890e+07	
52	-2.60000e+00	1.079522e+07	
53	-2.65000e+00	1.105072e+07	
54	-2.70000e+00	1.130543e+07	

Index   v-sweep         rds             
--------------------------------------------------------------------------------
55	-2.75000e+00	1.155938e+07	
56	-2.80000e+00	1.181259e+07	
57	-2.85000e+00	1.206505e+07	
58	-2.90000e+00	1.231674e+07	
59	-2.95000e+00	1.256762e+07	
60	-3.00000e+00	1.281761e+07	
61	-3.05000e+00	1.306658e+07	
62	-3.10000e+00	1.331433e+07	
63	-3.15000e+00	1.356057e+07	
64	-3.20000e+00	1.380491e+07	
65	-3.25000e+00	1.404682e+07	
66	-3.30000e+00	1.428557e+07	
Reset re-loads circuit ***************************

Circuit: ***************************

Doing analysis at TEMP = 125.000000 and TNOM = 125.000000


No. of Data Rows : 67
                          ***************************
                          DC transfer characteristic  Mon Jan  9 13:57:32  2023
--------------------------------------------------------------------------------
Index   v-sweep         rds             
--------------------------------------------------------------------------------
0	0.000000e+00	8.207219e+04	
1	-5.00000e-02	8.473077e+04	
2	-1.00000e-01	8.755672e+04	
3	-1.50000e-01	9.056634e+04	
4	-2.00000e-01	9.377813e+04	
5	-2.50000e-01	9.721313e+04	
6	-3.00000e-01	1.008954e+05	
7	-3.50000e-01	1.048527e+05	
8	-4.00000e-01	1.091169e+05	
9	-4.50000e-01	1.137252e+05	
10	-5.00000e-01	1.187207e+05	
11	-5.50000e-01	1.241545e+05	
12	-6.00000e-01	1.300868e+05	
13	-6.50000e-01	1.365891e+05	
14	-7.00000e-01	1.437477e+05	
15	-7.50000e-01	1.516667e+05	
16	-8.00000e-01	1.604736e+05	
17	-8.50000e-01	1.703260e+05	
18	-9.00000e-01	1.814203e+05	
19	-9.50000e-01	1.940053e+05	
20	-1.00000e+00	2.083998e+05	
21	-1.05000e+00	2.250189e+05	
22	-1.10000e+00	2.444121e+05	
23	-1.15000e+00	2.673197e+05	
24	-1.20000e+00	2.947598e+05	
25	-1.25000e+00	3.281608e+05	
26	-1.30000e+00	3.695691e+05	
27	-1.35000e+00	4.219695e+05	
28	-1.40000e+00	4.897626e+05	
29	-1.45000e+00	5.793921e+05	
30	-1.50000e+00	6.998913e+05	
31	-1.55000e+00	8.624707e+05	
32	-1.60000e+00	1.077303e+06	
33	-1.65000e+00	1.346286e+06	
34	-1.70000e+00	1.656113e+06	
35	-1.75000e+00	1.981165e+06	
36	-1.80000e+00	2.296508e+06	
37	-1.85000e+00	2.588033e+06	
38	-1.90000e+00	2.852612e+06	
39	-1.95000e+00	3.093213e+06	
40	-2.00000e+00	3.314674e+06	
41	-2.05000e+00	3.521598e+06	
42	-2.10000e+00	3.717693e+06	
43	-2.15000e+00	3.905737e+06	
44	-2.20000e+00	4.087752e+06	
45	-2.25000e+00	4.265198e+06	
46	-2.30000e+00	4.439129e+06	
47	-2.35000e+00	4.610311e+06	
48	-2.40000e+00	4.779306e+06	
49	-2.45000e+00	4.946532e+06	
50	-2.50000e+00	5.112302e+06	
51	-2.55000e+00	5.276855e+06	
52	-2.60000e+00	5.440373e+06	
53	-2.65000e+00	5.602999e+06	
54	-2.70000e+00	5.764845e+06	

Index   v-sweep         rds             
--------------------------------------------------------------------------------
55	-2.75000e+00	5.926000e+06	
56	-2.80000e+00	6.086534e+06	
57	-2.85000e+00	6.246505e+06	
58	-2.90000e+00	6.405959e+06	
59	-2.95000e+00	6.564934e+06	
60	-3.00000e+00	6.723462e+06	
61	-3.05000e+00	6.881566e+06	
62	-3.10000e+00	7.039265e+06	
63	-3.15000e+00	7.196572e+06	
64	-3.20000e+00	7.353490e+06	
65	-3.25000e+00	7.510016e+06	
66	-3.30000e+00	7.666130e+06	
Reset re-loads circuit ***************************

Circuit: ***************************

Doing analysis at TEMP = 125.000000 and TNOM = 125.000000


No. of Data Rows : 67
                          ***************************
                          DC transfer characteristic  Mon Jan  9 13:57:32  2023
--------------------------------------------------------------------------------
Index   v-sweep         rds             
--------------------------------------------------------------------------------
0	0.000000e+00	6.801818e+04	
1	-5.00000e-02	6.979207e+04	
2	-1.00000e-01	7.165412e+04	
3	-1.50000e-01	7.361106e+04	
4	-2.00000e-01	7.567034e+04	
5	-2.50000e-01	7.784019e+04	
6	-3.00000e-01	8.012976e+04	
7	-3.50000e-01	8.254921e+04	
8	-4.00000e-01	8.510991e+04	
9	-4.50000e-01	8.782460e+04	
10	-5.00000e-01	9.070757e+04	
11	-5.50000e-01	9.377496e+04	
12	-6.00000e-01	9.704503e+04	
13	-6.50000e-01	1.005385e+05	
14	-7.00000e-01	1.042791e+05	
15	-7.50000e-01	1.082939e+05	
16	-8.00000e-01	1.126142e+05	
17	-8.50000e-01	1.172761e+05	
18	-9.00000e-01	1.223218e+05	
19	-9.50000e-01	1.278005e+05	
20	-1.00000e+00	1.337704e+05	
21	-1.05000e+00	1.403002e+05	
22	-1.10000e+00	1.474723e+05	
23	-1.15000e+00	1.553860e+05	
24	-1.20000e+00	1.641616e+05	
25	-1.25000e+00	1.739471e+05	
26	-1.30000e+00	1.849256e+05	
27	-1.35000e+00	1.973268e+05	
28	-1.40000e+00	2.114419e+05	
29	-1.45000e+00	2.276453e+05	
30	-1.50000e+00	2.464247e+05	
31	-1.55000e+00	2.684250e+05	
32	-1.60000e+00	2.945116e+05	
33	-1.65000e+00	3.258614e+05	
34	-1.70000e+00	3.640930e+05	
35	-1.75000e+00	4.114416e+05	
36	-1.80000e+00	4.709647e+05	
37	-1.85000e+00	5.466960e+05	
38	-1.90000e+00	6.434999e+05	
39	-1.95000e+00	7.661339e+05	
40	-2.00000e+00	9.170296e+05	
41	-2.05000e+00	1.093367e+06	
42	-2.10000e+00	1.286002e+06	
43	-2.15000e+00	1.482534e+06	
44	-2.20000e+00	1.672509e+06	
45	-2.25000e+00	1.850377e+06	
46	-2.30000e+00	2.015014e+06	
47	-2.35000e+00	2.167768e+06	
48	-2.40000e+00	2.310820e+06	
49	-2.45000e+00	2.446314e+06	
50	-2.50000e+00	2.576037e+06	
51	-2.55000e+00	2.701374e+06	
52	-2.60000e+00	2.823366e+06	
53	-2.65000e+00	2.942781e+06	
54	-2.70000e+00	3.060187e+06	

Index   v-sweep         rds             
--------------------------------------------------------------------------------
55	-2.75000e+00	3.176005e+06	
56	-2.80000e+00	3.290550e+06	
57	-2.85000e+00	3.404056e+06	
58	-2.90000e+00	3.516704e+06	
59	-2.95000e+00	3.628631e+06	
60	-3.00000e+00	3.739945e+06	
61	-3.05000e+00	3.850729e+06	
62	-3.10000e+00	3.961049e+06	
63	-3.15000e+00	4.070959e+06	
64	-3.20000e+00	4.180500e+06	
65	-3.25000e+00	4.289708e+06	
66	-3.30000e+00	4.398609e+06	
Reset re-loads circuit ***************************

Circuit: ***************************

Note: No ".plot", ".print", or ".fourier" lines; no simulations run
