
Note: Compatibility modes selected: hs

Warning: m=xx on .subckt line will override multiplier m hierarchy!


Circuit: ***************************

Doing analysis at TEMP = -40.000000 and TNOM = -40.000000


No. of Data Rows : 67
                          ***************************
                          DC transfer characteristic  Mon Jan  9 13:57:31  2023
--------------------------------------------------------------------------------
Index   v-sweep         rds             
--------------------------------------------------------------------------------
0	0.000000e+00	4.661425e+05	
1	-5.00000e-02	1.070633e+06	
2	-1.00000e-01	4.236762e+06	
3	-1.50000e-01	1.110418e+07	
4	-2.00000e-01	1.518620e+07	
5	-2.50000e-01	1.683489e+07	
6	-3.00000e-01	1.760023e+07	
7	-3.50000e-01	1.802605e+07	
8	-4.00000e-01	1.829282e+07	
9	-4.50000e-01	1.847004e+07	
10	-5.00000e-01	1.858918e+07	
11	-5.50000e-01	1.866675e+07	
12	-6.00000e-01	1.871252e+07	
13	-6.50000e-01	1.873294e+07	
14	-7.00000e-01	1.873256e+07	
15	-7.50000e-01	1.871481e+07	
16	-8.00000e-01	1.868235e+07	
17	-8.50000e-01	1.863736e+07	
18	-9.00000e-01	1.858161e+07	
19	-9.50000e-01	1.851660e+07	
20	-1.00000e+00	1.844359e+07	
21	-1.05000e+00	1.836368e+07	
22	-1.10000e+00	1.827780e+07	
23	-1.15000e+00	1.818676e+07	
24	-1.20000e+00	1.809127e+07	
25	-1.25000e+00	1.799195e+07	
26	-1.30000e+00	1.788936e+07	
27	-1.35000e+00	1.778396e+07	
28	-1.40000e+00	1.767620e+07	
29	-1.45000e+00	1.756643e+07	
30	-1.50000e+00	1.745500e+07	
31	-1.55000e+00	1.734221e+07	
32	-1.60000e+00	1.722831e+07	
33	-1.65000e+00	1.711353e+07	
34	-1.70000e+00	1.699810e+07	
35	-1.75000e+00	1.688217e+07	
36	-1.80000e+00	1.676592e+07	
37	-1.85000e+00	1.664947e+07	
38	-1.90000e+00	1.653293e+07	
39	-1.95000e+00	1.641641e+07	
40	-2.00000e+00	1.629996e+07	
41	-2.05000e+00	1.618362e+07	
42	-2.10000e+00	1.606743e+07	
43	-2.15000e+00	1.595136e+07	
44	-2.20000e+00	1.583538e+07	
45	-2.25000e+00	1.571942e+07	
46	-2.30000e+00	1.560339e+07	
47	-2.35000e+00	1.548714e+07	
48	-2.40000e+00	1.537051e+07	
49	-2.45000e+00	1.525329e+07	
50	-2.50000e+00	1.513522e+07	
51	-2.55000e+00	1.501601e+07	
52	-2.60000e+00	1.489534e+07	
53	-2.65000e+00	1.477282e+07	
54	-2.70000e+00	1.464804e+07	

Index   v-sweep         rds             
--------------------------------------------------------------------------------
55	-2.75000e+00	1.452055e+07	
56	-2.80000e+00	1.438986e+07	
57	-2.85000e+00	1.425545e+07	
58	-2.90000e+00	1.411678e+07	
59	-2.95000e+00	1.397328e+07	
60	-3.00000e+00	1.382437e+07	
61	-3.05000e+00	1.366948e+07	
62	-3.10000e+00	1.350802e+07	
63	-3.15000e+00	1.333945e+07	
64	-3.20000e+00	1.316325e+07	
65	-3.25000e+00	1.297894e+07	
66	-3.30000e+00	1.278609e+07	
Reset re-loads circuit ***************************

Circuit: ***************************

Doing analysis at TEMP = -40.000000 and TNOM = -40.000000


No. of Data Rows : 67
                          ***************************
                          DC transfer characteristic  Mon Jan  9 13:57:32  2023
--------------------------------------------------------------------------------
Index   v-sweep         rds             
--------------------------------------------------------------------------------
0	0.000000e+00	4.750347e+04	
1	-5.00000e-02	5.315926e+04	
2	-1.00000e-01	6.014517e+04	
3	-1.50000e-01	6.898642e+04	
4	-2.00000e-01	8.051906e+04	
5	-2.50000e-01	9.614598e+04	
6	-3.00000e-01	1.183612e+05	
7	-3.50000e-01	1.518251e+05	
8	-4.00000e-01	2.051888e+05	
9	-4.50000e-01	2.911513e+05	
10	-5.00000e-01	4.128604e+05	
11	-5.50000e-01	5.421777e+05	
12	-6.00000e-01	6.474674e+05	
13	-6.50000e-01	7.259548e+05	
14	-7.00000e-01	7.870279e+05	
15	-7.50000e-01	8.380434e+05	
16	-8.00000e-01	8.830339e+05	
17	-8.50000e-01	9.240817e+05	
18	-9.00000e-01	9.622938e+05	
19	-9.50000e-01	9.982943e+05	
20	-1.00000e+00	1.032461e+06	
21	-1.05000e+00	1.065037e+06	
22	-1.10000e+00	1.096194e+06	
23	-1.15000e+00	1.126057e+06	
24	-1.20000e+00	1.154724e+06	
25	-1.25000e+00	1.182275e+06	
26	-1.30000e+00	1.208776e+06	
27	-1.35000e+00	1.234288e+06	
28	-1.40000e+00	1.258862e+06	
29	-1.45000e+00	1.282544e+06	
30	-1.50000e+00	1.305378e+06	
31	-1.55000e+00	1.327403e+06	
32	-1.60000e+00	1.348656e+06	
33	-1.65000e+00	1.369170e+06	
34	-1.70000e+00	1.388978e+06	
35	-1.75000e+00	1.408109e+06	
36	-1.80000e+00	1.426592e+06	
37	-1.85000e+00	1.444453e+06	
38	-1.90000e+00	1.461718e+06	
39	-1.95000e+00	1.478409e+06	
40	-2.00000e+00	1.494550e+06	
41	-2.05000e+00	1.510161e+06	
42	-2.10000e+00	1.525260e+06	
43	-2.15000e+00	1.539866e+06	
44	-2.20000e+00	1.553993e+06	
45	-2.25000e+00	1.567654e+06	
46	-2.30000e+00	1.580858e+06	
47	-2.35000e+00	1.593611e+06	
48	-2.40000e+00	1.605915e+06	
49	-2.45000e+00	1.617765e+06	
50	-2.50000e+00	1.629151e+06	
51	-2.55000e+00	1.640054e+06	
52	-2.60000e+00	1.650446e+06	
53	-2.65000e+00	1.660288e+06	
54	-2.70000e+00	1.669532e+06	

Index   v-sweep         rds             
--------------------------------------------------------------------------------
55	-2.75000e+00	1.678112e+06	
56	-2.80000e+00	1.685951e+06	
57	-2.85000e+00	1.692953e+06	
58	-2.90000e+00	1.699008e+06	
59	-2.95000e+00	1.703986e+06	
60	-3.00000e+00	1.707742e+06	
61	-3.05000e+00	1.710110e+06	
62	-3.10000e+00	1.710912e+06	
63	-3.15000e+00	1.709955e+06	
64	-3.20000e+00	1.707036e+06	
65	-3.25000e+00	1.701943e+06	
66	-3.30000e+00	1.694468e+06	
Reset re-loads circuit ***************************

Circuit: ***************************

Doing analysis at TEMP = -40.000000 and TNOM = -40.000000


No. of Data Rows : 67
                          ***************************
                          DC transfer characteristic  Mon Jan  9 13:57:32  2023
--------------------------------------------------------------------------------
Index   v-sweep         rds             
--------------------------------------------------------------------------------
0	0.000000e+00	2.674180e+04	
1	-5.00000e-02	2.853451e+04	
2	-1.00000e-01	3.053722e+04	
3	-1.50000e-01	3.278883e+04	
4	-2.00000e-01	3.533846e+04	
5	-2.50000e-01	3.824895e+04	
6	-3.00000e-01	4.160196e+04	
7	-3.50000e-01	4.550548e+04	
8	-4.00000e-01	5.010504e+04	
9	-4.50000e-01	5.560089e+04	
10	-5.00000e-01	6.227469e+04	
11	-5.50000e-01	7.053129e+04	
12	-6.00000e-01	8.096217e+04	
13	-6.50000e-01	9.443135e+04	
14	-7.00000e-01	1.121425e+05	
15	-7.50000e-01	1.354902e+05	
16	-8.00000e-01	1.651894e+05	
17	-8.50000e-01	1.995305e+05	
18	-9.00000e-01	2.341115e+05	
19	-9.50000e-01	2.651550e+05	
20	-1.00000e+00	2.918556e+05	
21	-1.05000e+00	3.151448e+05	
22	-1.10000e+00	3.361176e+05	
23	-1.15000e+00	3.555401e+05	
24	-1.20000e+00	3.738771e+05	
25	-1.25000e+00	3.914027e+05	
26	-1.30000e+00	4.082810e+05	
27	-1.35000e+00	4.246141e+05	
28	-1.40000e+00	4.404687e+05	
29	-1.45000e+00	4.558903e+05	
30	-1.50000e+00	4.709120e+05	
31	-1.55000e+00	4.855587e+05	
32	-1.60000e+00	4.998504e+05	
33	-1.65000e+00	5.138033e+05	
34	-1.70000e+00	5.274314e+05	
35	-1.75000e+00	5.407471e+05	
36	-1.80000e+00	5.537614e+05	
37	-1.85000e+00	5.664843e+05	
38	-1.90000e+00	5.789250e+05	
39	-1.95000e+00	5.910923e+05	
40	-2.00000e+00	6.029944e+05	
41	-2.05000e+00	6.146390e+05	
42	-2.10000e+00	6.260333e+05	
43	-2.15000e+00	6.371846e+05	
44	-2.20000e+00	6.480993e+05	
45	-2.25000e+00	6.587840e+05	
46	-2.30000e+00	6.692446e+05	
47	-2.35000e+00	6.794869e+05	
48	-2.40000e+00	6.895161e+05	
49	-2.45000e+00	6.993370e+05	
50	-2.50000e+00	7.089536e+05	
51	-2.55000e+00	7.183688e+05	
52	-2.60000e+00	7.275847e+05	
53	-2.65000e+00	7.366014e+05	
54	-2.70000e+00	7.454171e+05	

Index   v-sweep         rds             
--------------------------------------------------------------------------------
55	-2.75000e+00	7.540270e+05	
56	-2.80000e+00	7.624233e+05	
57	-2.85000e+00	7.705938e+05	
58	-2.90000e+00	7.785209e+05	
59	-2.95000e+00	7.861813e+05	
60	-3.00000e+00	7.935442e+05	
61	-3.05000e+00	8.005707e+05	
62	-3.10000e+00	8.072121e+05	
63	-3.15000e+00	8.134097e+05	
64	-3.20000e+00	8.190930e+05	
65	-3.25000e+00	8.241799e+05	
66	-3.30000e+00	8.285754e+05	
Reset re-loads circuit ***************************

Circuit: ***************************

Doing analysis at TEMP = -40.000000 and TNOM = -40.000000


No. of Data Rows : 67
                          ***************************
                          DC transfer characteristic  Mon Jan  9 13:57:32  2023
--------------------------------------------------------------------------------
Index   v-sweep         rds             
--------------------------------------------------------------------------------
0	0.000000e+00	1.964552e+04	
1	-5.00000e-02	2.059795e+04	
2	-1.00000e-01	2.162562e+04	
3	-1.50000e-01	2.273773e+04	
4	-2.00000e-01	2.394502e+04	
5	-2.50000e-01	2.526016e+04	
6	-3.00000e-01	2.669814e+04	
7	-3.50000e-01	2.827687e+04	
8	-4.00000e-01	3.001788e+04	
9	-4.50000e-01	3.194732e+04	
10	-5.00000e-01	3.409720e+04	
11	-5.50000e-01	3.650713e+04	
12	-6.00000e-01	3.922665e+04	
13	-6.50000e-01	4.231841e+04	
14	-7.00000e-01	4.586261e+04	
15	-7.50000e-01	4.996307e+04	
16	-8.00000e-01	5.475557e+04	
17	-8.50000e-01	6.041863e+04	
18	-9.00000e-01	6.718586e+04	
19	-9.50000e-01	7.535423e+04	
20	-1.00000e+00	8.527000e+04	
21	-1.05000e+00	9.724711e+04	
22	-1.10000e+00	1.113523e+05	
23	-1.15000e+00	1.270941e+05	
24	-1.20000e+00	1.433778e+05	
25	-1.25000e+00	1.590631e+05	
26	-1.30000e+00	1.735859e+05	
27	-1.35000e+00	1.869574e+05	
28	-1.40000e+00	1.994200e+05	
29	-1.45000e+00	2.112152e+05	
30	-1.50000e+00	2.225185e+05	
31	-1.55000e+00	2.334444e+05	
32	-1.60000e+00	2.440657e+05	
33	-1.65000e+00	2.544292e+05	
34	-1.70000e+00	2.645656e+05	
35	-1.75000e+00	2.744957e+05	
36	-1.80000e+00	2.842344e+05	
37	-1.85000e+00	2.937929e+05	
38	-1.90000e+00	3.031796e+05	
39	-1.95000e+00	3.124014e+05	
40	-2.00000e+00	3.214640e+05	
41	-2.05000e+00	3.303725e+05	
42	-2.10000e+00	3.391313e+05	
43	-2.15000e+00	3.477442e+05	
44	-2.20000e+00	3.562150e+05	
45	-2.25000e+00	3.645470e+05	
46	-2.30000e+00	3.727435e+05	
47	-2.35000e+00	3.808075e+05	
48	-2.40000e+00	3.887419e+05	
49	-2.45000e+00	3.965495e+05	
50	-2.50000e+00	4.042329e+05	
51	-2.55000e+00	4.117947e+05	
52	-2.60000e+00	4.192373e+05	
53	-2.65000e+00	4.265630e+05	
54	-2.70000e+00	4.337737e+05	

Index   v-sweep         rds             
--------------------------------------------------------------------------------
55	-2.75000e+00	4.408714e+05	
56	-2.80000e+00	4.478574e+05	
57	-2.85000e+00	4.547324e+05	
58	-2.90000e+00	4.614966e+05	
59	-2.95000e+00	4.681490e+05	
60	-3.00000e+00	4.746870e+05	
61	-3.05000e+00	4.811066e+05	
62	-3.10000e+00	4.874010e+05	
63	-3.15000e+00	4.935607e+05	
64	-3.20000e+00	4.995722e+05	
65	-3.25000e+00	5.054177e+05	
66	-3.30000e+00	5.110740e+05	
Reset re-loads circuit ***************************

Circuit: ***************************

Doing analysis at TEMP = -40.000000 and TNOM = -40.000000


No. of Data Rows : 67
                          ***************************
                          DC transfer characteristic  Mon Jan  9 13:57:32  2023
--------------------------------------------------------------------------------
Index   v-sweep         rds             
--------------------------------------------------------------------------------
0	0.000000e+00	1.611224e+04	
1	-5.00000e-02	1.673512e+04	
2	-1.00000e-01	1.739538e+04	
3	-1.50000e-01	1.809644e+04	
4	-2.00000e-01	1.884215e+04	
5	-2.50000e-01	1.963687e+04	
6	-3.00000e-01	2.048556e+04	
7	-3.50000e-01	2.139383e+04	
8	-4.00000e-01	2.236813e+04	
9	-4.50000e-01	2.341586e+04	
10	-5.00000e-01	2.454556e+04	
11	-5.50000e-01	2.576717e+04	
12	-6.00000e-01	2.709224e+04	
13	-6.50000e-01	2.853439e+04	
14	-7.00000e-01	3.010966e+04	
15	-7.50000e-01	3.183715e+04	
16	-8.00000e-01	3.373976e+04	
17	-8.50000e-01	3.584507e+04	
18	-9.00000e-01	3.818664e+04	
19	-9.50000e-01	4.080552e+04	
20	-1.00000e+00	4.375232e+04	
21	-1.05000e+00	4.708968e+04	
22	-1.10000e+00	5.089514e+04	
23	-1.15000e+00	5.526402e+04	
24	-1.20000e+00	6.031065e+04	
25	-1.25000e+00	6.616407e+04	
26	-1.30000e+00	7.294985e+04	
27	-1.35000e+00	8.074443e+04	
28	-1.40000e+00	8.949574e+04	
29	-1.45000e+00	9.894891e+04	
30	-1.50000e+00	1.086793e+05	
31	-1.55000e+00	1.182731e+05	
32	-1.60000e+00	1.274966e+05	
33	-1.65000e+00	1.363053e+05	
34	-1.70000e+00	1.447508e+05	
35	-1.75000e+00	1.529056e+05	
36	-1.80000e+00	1.608301e+05	
37	-1.85000e+00	1.685678e+05	
38	-1.90000e+00	1.761482e+05	
39	-1.95000e+00	1.835911e+05	
40	-2.00000e+00	1.909099e+05	
41	-2.05000e+00	1.981141e+05	
42	-2.10000e+00	2.052103e+05	
43	-2.15000e+00	2.122037e+05	
44	-2.20000e+00	2.190982e+05	
45	-2.25000e+00	2.258970e+05	
46	-2.30000e+00	2.326027e+05	
47	-2.35000e+00	2.392178e+05	
48	-2.40000e+00	2.457442e+05	
49	-2.45000e+00	2.521838e+05	
50	-2.50000e+00	2.585385e+05	
51	-2.55000e+00	2.648097e+05	
52	-2.60000e+00	2.709990e+05	
53	-2.65000e+00	2.771080e+05	
54	-2.70000e+00	2.831379e+05	

Index   v-sweep         rds             
--------------------------------------------------------------------------------
55	-2.75000e+00	2.890902e+05	
56	-2.80000e+00	2.949661e+05	
57	-2.85000e+00	3.007669e+05	
58	-2.90000e+00	3.064938e+05	
59	-2.95000e+00	3.121478e+05	
60	-3.00000e+00	3.177299e+05	
61	-3.05000e+00	3.232408e+05	
62	-3.10000e+00	3.286808e+05	
63	-3.15000e+00	3.340501e+05	
64	-3.20000e+00	3.393479e+05	
65	-3.25000e+00	3.445727e+05	
66	-3.30000e+00	3.497219e+05	
Reset re-loads circuit ***************************

Circuit: ***************************

Doing analysis at TEMP = -40.000000 and TNOM = -40.000000


No. of Data Rows : 67
                          ***************************
                          DC transfer characteristic  Mon Jan  9 13:57:32  2023
--------------------------------------------------------------------------------
Index   v-sweep         rds             
--------------------------------------------------------------------------------
0	0.000000e+00	1.402546e+04	
1	-5.00000e-02	1.448046e+04	
2	-1.00000e-01	1.495755e+04	
3	-1.50000e-01	1.545836e+04	
4	-2.00000e-01	1.598467e+04	
5	-2.50000e-01	1.653846e+04	
6	-3.00000e-01	1.712190e+04	
7	-3.50000e-01	1.773742e+04	
8	-4.00000e-01	1.838769e+04	
9	-4.50000e-01	1.907571e+04	
10	-5.00000e-01	1.980484e+04	
11	-5.50000e-01	2.057883e+04	
12	-6.00000e-01	2.140190e+04	
13	-6.50000e-01	2.227883e+04	
14	-7.00000e-01	2.321504e+04	
15	-7.50000e-01	2.421667e+04	
16	-8.00000e-01	2.529077e+04	
17	-8.50000e-01	2.644540e+04	
18	-9.00000e-01	2.768989e+04	
19	-9.50000e-01	2.903501e+04	
20	-1.00000e+00	3.049331e+04	
21	-1.05000e+00	3.207948e+04	
22	-1.10000e+00	3.381080e+04	
23	-1.15000e+00	3.570769e+04	
24	-1.20000e+00	3.779438e+04	
25	-1.25000e+00	4.009977e+04	
26	-1.30000e+00	4.265833e+04	
27	-1.35000e+00	4.551112e+04	
28	-1.40000e+00	4.870660e+04	
29	-1.45000e+00	5.230069e+04	
30	-1.50000e+00	5.635487e+04	
31	-1.55000e+00	6.092979e+04	
32	-1.60000e+00	6.607078e+04	
33	-1.65000e+00	7.178211e+04	
34	-1.70000e+00	7.799605e+04	
35	-1.75000e+00	8.456072e+04	
36	-1.80000e+00	9.127666e+04	
37	-1.85000e+00	9.796934e+04	
38	-1.90000e+00	1.045383e+05	
39	-1.95000e+00	1.109522e+05	
40	-2.00000e+00	1.172178e+05	
41	-2.05000e+00	1.233537e+05	
42	-2.10000e+00	1.293783e+05	
43	-2.15000e+00	1.353061e+05	
44	-2.20000e+00	1.411475e+05	
45	-2.25000e+00	1.469098e+05	
46	-2.30000e+00	1.525983e+05	
47	-2.35000e+00	1.582168e+05	
48	-2.40000e+00	1.637680e+05	
49	-2.45000e+00	1.692543e+05	
50	-2.50000e+00	1.746774e+05	
51	-2.55000e+00	1.800386e+05	
52	-2.60000e+00	1.853394e+05	
53	-2.65000e+00	1.905808e+05	
54	-2.70000e+00	1.957638e+05	

Index   v-sweep         rds             
--------------------------------------------------------------------------------
55	-2.75000e+00	2.008895e+05	
56	-2.80000e+00	2.059586e+05	
57	-2.85000e+00	2.109721e+05	
58	-2.90000e+00	2.159308e+05	
59	-2.95000e+00	2.208354e+05	
60	-3.00000e+00	2.256867e+05	
61	-3.05000e+00	2.304855e+05	
62	-3.10000e+00	2.352325e+05	
63	-3.15000e+00	2.399282e+05	
64	-3.20000e+00	2.445735e+05	
65	-3.25000e+00	2.491687e+05	
66	-3.30000e+00	2.537144e+05	
Reset re-loads circuit ***************************

Circuit: ***************************

Note: No ".plot", ".print", or ".fourier" lines; no simulations run
