
Note: Compatibility modes selected: hs

Warning: m=xx on .subckt line will override multiplier m hierarchy!


Circuit: ***************************

Doing analysis at TEMP = 25.000000 and TNOM = 25.000000


No. of Data Rows : 67
                          ***************************
                          DC transfer characteristic  Mon Jan  9 13:57:30  2023
--------------------------------------------------------------------------------
Index   v-sweep         rds             
--------------------------------------------------------------------------------
0	0.000000e+00	2.978197e+04	
1	-5.00000e-02	8.220518e+04	
2	-1.00000e-01	4.649367e+05	
3	-1.50000e-01	1.760017e+06	
4	-2.00000e-01	3.292135e+06	
5	-2.50000e-01	4.414663e+06	
6	-3.00000e-01	5.197329e+06	
7	-3.50000e-01	5.786988e+06	
8	-4.00000e-01	6.266698e+06	
9	-4.50000e-01	6.678177e+06	
10	-5.00000e-01	7.043146e+06	
11	-5.50000e-01	7.373750e+06	
12	-6.00000e-01	7.677318e+06	
13	-6.50000e-01	7.958606e+06	
14	-7.00000e-01	8.220905e+06	
15	-7.50000e-01	8.466627e+06	
16	-8.00000e-01	8.697623e+06	
17	-8.50000e-01	8.915367e+06	
18	-9.00000e-01	9.121073e+06	
19	-9.50000e-01	9.315763e+06	
20	-1.00000e+00	9.500313e+06	
21	-1.05000e+00	9.675488e+06	
22	-1.10000e+00	9.841964e+06	
23	-1.15000e+00	1.000034e+07	
24	-1.20000e+00	1.015116e+07	
25	-1.25000e+00	1.029490e+07	
26	-1.30000e+00	1.043202e+07	
27	-1.35000e+00	1.056291e+07	
28	-1.40000e+00	1.068795e+07	
29	-1.45000e+00	1.080747e+07	
30	-1.50000e+00	1.092178e+07	
31	-1.55000e+00	1.103118e+07	
32	-1.60000e+00	1.113592e+07	
33	-1.65000e+00	1.123624e+07	
34	-1.70000e+00	1.133237e+07	
35	-1.75000e+00	1.142449e+07	
36	-1.80000e+00	1.151278e+07	
37	-1.85000e+00	1.159738e+07	
38	-1.90000e+00	1.167840e+07	
39	-1.95000e+00	1.175592e+07	
40	-2.00000e+00	1.182997e+07	
41	-2.05000e+00	1.190055e+07	
42	-2.10000e+00	1.196757e+07	
43	-2.15000e+00	1.203092e+07	
44	-2.20000e+00	1.209039e+07	
45	-2.25000e+00	1.214569e+07	
46	-2.30000e+00	1.219645e+07	
47	-2.35000e+00	1.224220e+07	
48	-2.40000e+00	1.228235e+07	
49	-2.45000e+00	1.231622e+07	
50	-2.50000e+00	1.234299e+07	
51	-2.55000e+00	1.236175e+07	
52	-2.60000e+00	1.237145e+07	
53	-2.65000e+00	1.237095e+07	
54	-2.70000e+00	1.235901e+07	

Index   v-sweep         rds             
--------------------------------------------------------------------------------
55	-2.75000e+00	1.233432e+07	
56	-2.80000e+00	1.229553e+07	
57	-2.85000e+00	1.224125e+07	
58	-2.90000e+00	1.217014e+07	
59	-2.95000e+00	1.208092e+07	
60	-3.00000e+00	1.197241e+07	
61	-3.05000e+00	1.184363e+07	
62	-3.10000e+00	1.169380e+07	
63	-3.15000e+00	1.152244e+07	
64	-3.20000e+00	1.132937e+07	
65	-3.25000e+00	1.111478e+07	
66	-3.30000e+00	1.087921e+07	
Reset re-loads circuit ***************************

Circuit: ***************************

Doing analysis at TEMP = 25.000000 and TNOM = 25.000000


No. of Data Rows : 67
                          ***************************
                          DC transfer characteristic  Mon Jan  9 13:57:30  2023
--------------------------------------------------------------------------------
Index   v-sweep         rds             
--------------------------------------------------------------------------------
0	0.000000e+00	2.521150e+03	
1	-5.00000e-02	2.852223e+03	
2	-1.00000e-01	3.276935e+03	
3	-1.50000e-01	3.840956e+03	
4	-2.00000e-01	4.624444e+03	
5	-2.50000e-01	5.779879e+03	
6	-3.00000e-01	7.625974e+03	
7	-3.50000e-01	1.089217e+04	
8	-4.00000e-01	1.727151e+04	
9	-4.50000e-01	2.975477e+04	
10	-5.00000e-01	4.971829e+04	
11	-5.50000e-01	7.292352e+04	
12	-6.00000e-01	9.437269e+04	
13	-6.50000e-01	1.127516e+05	
14	-7.00000e-01	1.286699e+05	
15	-7.50000e-01	1.429210e+05	
16	-8.00000e-01	1.560621e+05	
17	-8.50000e-01	1.684382e+05	
18	-9.00000e-01	1.802590e+05	
19	-9.50000e-01	1.916542e+05	
20	-1.00000e+00	2.027066e+05	
21	-1.05000e+00	2.134712e+05	
22	-1.10000e+00	2.239854e+05	
23	-1.15000e+00	2.342760e+05	
24	-1.20000e+00	2.443625e+05	
25	-1.25000e+00	2.542598e+05	
26	-1.30000e+00	2.639797e+05	
27	-1.35000e+00	2.735313e+05	
28	-1.40000e+00	2.829225e+05	
29	-1.45000e+00	2.921599e+05	
30	-1.50000e+00	3.012490e+05	
31	-1.55000e+00	3.101949e+05	
32	-1.60000e+00	3.190019e+05	
33	-1.65000e+00	3.276742e+05	
34	-1.70000e+00	3.362154e+05	
35	-1.75000e+00	3.446289e+05	
36	-1.80000e+00	3.529179e+05	
37	-1.85000e+00	3.610852e+05	
38	-1.90000e+00	3.691336e+05	
39	-1.95000e+00	3.770654e+05	
40	-2.00000e+00	3.848828e+05	
41	-2.05000e+00	3.925873e+05	
42	-2.10000e+00	4.001800e+05	
43	-2.15000e+00	4.076609e+05	
44	-2.20000e+00	4.150290e+05	
45	-2.25000e+00	4.222817e+05	
46	-2.30000e+00	4.294141e+05	
47	-2.35000e+00	4.364188e+05	
48	-2.40000e+00	4.432847e+05	
49	-2.45000e+00	4.499962e+05	
50	-2.50000e+00	4.565325e+05	
51	-2.55000e+00	4.628660e+05	
52	-2.60000e+00	4.689618e+05	
53	-2.65000e+00	4.747757e+05	
54	-2.70000e+00	4.802538e+05	

Index   v-sweep         rds             
--------------------------------------------------------------------------------
55	-2.75000e+00	4.853312e+05	
56	-2.80000e+00	4.899311e+05	
57	-2.85000e+00	4.939649e+05	
58	-2.90000e+00	4.973318e+05	
59	-2.95000e+00	4.999203e+05	
60	-3.00000e+00	5.016097e+05	
61	-3.05000e+00	5.022731e+05	
62	-3.10000e+00	5.017815e+05	
63	-3.15000e+00	5.000089e+05	
64	-3.20000e+00	4.968387e+05	
65	-3.25000e+00	4.921708e+05	
66	-3.30000e+00	4.859290e+05	
Reset re-loads circuit ***************************

Circuit: ***************************

Doing analysis at TEMP = 25.000000 and TNOM = 25.000000


No. of Data Rows : 67
                          ***************************
                          DC transfer characteristic  Mon Jan  9 13:57:30  2023
--------------------------------------------------------------------------------
Index   v-sweep         rds             
--------------------------------------------------------------------------------
0	0.000000e+00	1.389372e+03	
1	-5.00000e-02	1.482853e+03	
2	-1.00000e-01	1.588570e+03	
3	-1.50000e-01	1.709088e+03	
4	-2.00000e-01	1.847733e+03	
5	-2.50000e-01	2.008909e+03	
6	-3.00000e-01	2.198555e+03	
7	-3.50000e-01	2.424876e+03	
8	-4.00000e-01	2.699514e+03	
9	-4.50000e-01	3.039497e+03	
10	-5.00000e-01	3.470622e+03	
11	-5.50000e-01	4.033515e+03	
12	-6.00000e-01	4.794810e+03	
13	-6.50000e-01	5.867676e+03	
14	-7.00000e-01	7.446058e+03	
15	-7.50000e-01	9.840538e+03	
16	-8.00000e-01	1.342896e+04	
17	-8.50000e-01	1.835289e+04	
18	-9.00000e-01	2.415649e+04	
19	-9.50000e-01	3.006626e+04	
20	-1.00000e+00	3.560235e+04	
21	-1.05000e+00	4.067320e+04	
22	-1.10000e+00	4.535732e+04	
23	-1.15000e+00	4.975631e+04	
24	-1.20000e+00	5.395004e+04	
25	-1.25000e+00	5.799357e+04	
26	-1.30000e+00	6.192349e+04	
27	-1.35000e+00	6.576406e+04	
28	-1.40000e+00	6.953158e+04	
29	-1.45000e+00	7.323729e+04	
30	-1.50000e+00	7.688904e+04	
31	-1.55000e+00	8.049251e+04	
32	-1.60000e+00	8.405190e+04	
33	-1.65000e+00	8.757035e+04	
34	-1.70000e+00	9.105030e+04	
35	-1.75000e+00	9.449370e+04	
36	-1.80000e+00	9.790210e+04	
37	-1.85000e+00	1.012768e+05	
38	-1.90000e+00	1.046188e+05	
39	-1.95000e+00	1.079291e+05	
40	-2.00000e+00	1.112085e+05	
41	-2.05000e+00	1.144578e+05	
42	-2.10000e+00	1.176774e+05	
43	-2.15000e+00	1.208680e+05	
44	-2.20000e+00	1.240301e+05	
45	-2.25000e+00	1.271642e+05	
46	-2.30000e+00	1.302706e+05	
47	-2.35000e+00	1.333496e+05	
48	-2.40000e+00	1.364013e+05	
49	-2.45000e+00	1.394257e+05	
50	-2.50000e+00	1.424225e+05	
51	-2.55000e+00	1.453910e+05	
52	-2.60000e+00	1.483298e+05	
53	-2.65000e+00	1.512370e+05	
54	-2.70000e+00	1.541094e+05	

Index   v-sweep         rds             
--------------------------------------------------------------------------------
55	-2.75000e+00	1.569427e+05	
56	-2.80000e+00	1.597308e+05	
57	-2.85000e+00	1.624654e+05	
58	-2.90000e+00	1.651357e+05	
59	-2.95000e+00	1.677277e+05	
60	-3.00000e+00	1.702236e+05	
61	-3.05000e+00	1.726015e+05	
62	-3.10000e+00	1.748347e+05	
63	-3.15000e+00	1.768912e+05	
64	-3.20000e+00	1.787338e+05	
65	-3.25000e+00	1.803195e+05	
66	-3.30000e+00	1.816006e+05	
Reset re-loads circuit ***************************

Circuit: ***************************

Doing analysis at TEMP = 25.000000 and TNOM = 25.000000


No. of Data Rows : 67
                          ***************************
                          DC transfer characteristic  Mon Jan  9 13:57:30  2023
--------------------------------------------------------------------------------
Index   v-sweep         rds             
--------------------------------------------------------------------------------
0	0.000000e+00	1.018469e+03	
1	-5.00000e-02	1.065169e+03	
2	-1.00000e-01	1.115831e+03	
3	-1.50000e-01	1.170979e+03	
4	-2.00000e-01	1.231236e+03	
5	-2.50000e-01	1.297342e+03	
6	-3.00000e-01	1.370192e+03	
7	-3.50000e-01	1.450869e+03	
8	-4.00000e-01	1.540700e+03	
9	-4.50000e-01	1.641331e+03	
10	-5.00000e-01	1.754824e+03	
11	-5.50000e-01	1.883798e+03	
12	-6.00000e-01	2.031624e+03	
13	-6.50000e-01	2.202721e+03	
14	-7.00000e-01	2.402971e+03	
15	-7.50000e-01	2.640376e+03	
16	-8.00000e-01	2.926041e+03	
17	-8.50000e-01	3.275742e+03	
18	-9.00000e-01	3.712380e+03	
19	-9.50000e-01	4.269813e+03	
20	-1.00000e+00	4.998357e+03	
21	-1.05000e+00	5.970874e+03	
22	-1.10000e+00	7.282926e+03	
23	-1.15000e+00	9.028936e+03	
24	-1.20000e+00	1.123563e+04	
25	-1.25000e+00	1.379348e+04	
26	-1.30000e+00	1.649383e+04	
27	-1.35000e+00	1.915744e+04	
28	-1.40000e+00	2.170252e+04	
29	-1.45000e+00	2.411990e+04	
30	-1.50000e+00	2.642929e+04	
31	-1.55000e+00	2.865461e+04	
32	-1.60000e+00	3.081574e+04	
33	-1.65000e+00	3.292731e+04	
34	-1.70000e+00	3.499969e+04	
35	-1.75000e+00	3.704014e+04	
36	-1.80000e+00	3.905377e+04	
37	-1.85000e+00	4.104423e+04	
38	-1.90000e+00	4.301415e+04	
39	-1.95000e+00	4.496548e+04	
40	-2.00000e+00	4.689968e+04	
41	-2.05000e+00	4.881787e+04	
42	-2.10000e+00	5.072092e+04	
43	-2.15000e+00	5.260953e+04	
44	-2.20000e+00	5.448424e+04	
45	-2.25000e+00	5.634553e+04	
46	-2.30000e+00	5.819378e+04	
47	-2.35000e+00	6.002931e+04	
48	-2.40000e+00	6.185240e+04	
49	-2.45000e+00	6.366329e+04	
50	-2.50000e+00	6.546221e+04	
51	-2.55000e+00	6.724934e+04	
52	-2.60000e+00	6.902483e+04	
53	-2.65000e+00	7.078881e+04	
54	-2.70000e+00	7.254137e+04	

Index   v-sweep         rds             
--------------------------------------------------------------------------------
55	-2.75000e+00	7.428252e+04	
56	-2.80000e+00	7.601219e+04	
57	-2.85000e+00	7.773015e+04	
58	-2.90000e+00	7.943600e+04	
59	-2.95000e+00	8.112902e+04	
60	-3.00000e+00	8.280811e+04	
61	-3.05000e+00	8.447160e+04	
62	-3.10000e+00	8.611713e+04	
63	-3.15000e+00	8.774138e+04	
64	-3.20000e+00	8.933984e+04	
65	-3.25000e+00	9.090654e+04	
66	-3.30000e+00	9.243371e+04	
Reset re-loads circuit ***************************

Circuit: ***************************

Doing analysis at TEMP = 25.000000 and TNOM = 25.000000


No. of Data Rows : 67
                          ***************************
                          DC transfer characteristic  Mon Jan  9 13:57:30  2023
--------------------------------------------------------------------------------
Index   v-sweep         rds             
--------------------------------------------------------------------------------
0	0.000000e+00	8.367629e+02	
1	-5.00000e-02	8.660281e+02	
2	-1.00000e-01	8.971226e+02	
3	-1.50000e-01	9.302228e+02	
4	-2.00000e-01	9.655287e+02	
5	-2.50000e-01	1.003268e+03	
6	-3.00000e-01	1.043699e+03	
7	-3.50000e-01	1.087122e+03	
8	-4.00000e-01	1.133878e+03	
9	-4.50000e-01	1.184368e+03	
10	-5.00000e-01	1.239054e+03	
11	-5.50000e-01	1.298481e+03	
12	-6.00000e-01	1.363291e+03	
13	-6.50000e-01	1.434248e+03	
14	-7.00000e-01	1.512266e+03	
15	-7.50000e-01	1.598448e+03	
16	-8.00000e-01	1.694140e+03	
17	-8.50000e-01	1.800995e+03	
18	-9.00000e-01	1.921073e+03	
19	-9.50000e-01	2.056961e+03	
20	-1.00000e+00	2.211956e+03	
21	-1.05000e+00	2.390317e+03	
22	-1.10000e+00	2.597620e+03	
23	-1.15000e+00	2.841275e+03	
24	-1.20000e+00	3.131266e+03	
25	-1.25000e+00	3.481196e+03	
26	-1.30000e+00	3.909677e+03	
27	-1.35000e+00	4.441894e+03	
28	-1.40000e+00	5.110519e+03	
29	-1.45000e+00	5.953506e+03	
30	-1.50000e+00	7.004229e+03	
31	-1.55000e+00	8.271213e+03	
32	-1.60000e+00	9.718380e+03	
33	-1.65000e+00	1.127100e+04	
34	-1.70000e+00	1.285102e+04	
35	-1.75000e+00	1.440768e+04	
36	-1.80000e+00	1.592091e+04	
37	-1.85000e+00	1.738926e+04	
38	-1.90000e+00	1.881860e+04	
39	-1.95000e+00	2.021612e+04	
40	-2.00000e+00	2.158807e+04	
41	-2.05000e+00	2.293933e+04	
42	-2.10000e+00	2.427351e+04	
43	-2.15000e+00	2.559328e+04	
44	-2.20000e+00	2.690058e+04	
45	-2.25000e+00	2.819684e+04	
46	-2.30000e+00	2.948312e+04	
47	-2.35000e+00	3.076023e+04	
48	-2.40000e+00	3.202879e+04	
49	-2.45000e+00	3.328927e+04	
50	-2.50000e+00	3.454206e+04	
51	-2.55000e+00	3.578746e+04	
52	-2.60000e+00	3.702571e+04	
53	-2.65000e+00	3.825703e+04	
54	-2.70000e+00	3.948157e+04	

Index   v-sweep         rds             
--------------------------------------------------------------------------------
55	-2.75000e+00	4.069949e+04	
56	-2.80000e+00	4.191092e+04	
57	-2.85000e+00	4.311595e+04	
58	-2.90000e+00	4.431469e+04	
59	-2.95000e+00	4.550721e+04	
60	-3.00000e+00	4.669356e+04	
61	-3.05000e+00	4.787378e+04	
62	-3.10000e+00	4.904788e+04	
63	-3.15000e+00	5.021578e+04	
64	-3.20000e+00	5.137735e+04	
65	-3.25000e+00	5.253231e+04	
66	-3.30000e+00	5.368023e+04	
Reset re-loads circuit ***************************

Circuit: ***************************

Doing analysis at TEMP = 25.000000 and TNOM = 25.000000


No. of Data Rows : 67
                          ***************************
                          DC transfer characteristic  Mon Jan  9 13:57:30  2023
--------------------------------------------------------------------------------
Index   v-sweep         rds             
--------------------------------------------------------------------------------
0	0.000000e+00	7.304025e+02	
1	-5.00000e-02	7.510902e+02	
2	-1.00000e-01	7.727977e+02	
3	-1.50000e-01	7.956022e+02	
4	-2.00000e-01	8.195886e+02	
5	-2.50000e-01	8.448509e+02	
6	-3.00000e-01	8.714933e+02	
7	-3.50000e-01	8.996318e+02	
8	-4.00000e-01	9.293955e+02	
9	-4.50000e-01	9.609291e+02	
10	-5.00000e-01	9.943947e+02	
11	-5.50000e-01	1.029975e+03	
12	-6.00000e-01	1.067876e+03	
13	-6.50000e-01	1.108333e+03	
14	-7.00000e-01	1.151611e+03	
15	-7.50000e-01	1.198015e+03	
16	-8.00000e-01	1.247897e+03	
17	-8.50000e-01	1.301660e+03	
18	-9.00000e-01	1.359775e+03	
19	-9.50000e-01	1.422790e+03	
20	-1.00000e+00	1.491348e+03	
21	-1.05000e+00	1.566212e+03	
22	-1.10000e+00	1.648287e+03	
23	-1.15000e+00	1.738661e+03	
24	-1.20000e+00	1.838648e+03	
25	-1.25000e+00	1.949853e+03	
26	-1.30000e+00	2.074247e+03	
27	-1.35000e+00	2.214285e+03	
28	-1.40000e+00	2.373046e+03	
29	-1.45000e+00	2.554436e+03	
30	-1.50000e+00	2.763457e+03	
31	-1.55000e+00	3.006566e+03	
32	-1.60000e+00	3.292128e+03	
33	-1.65000e+00	3.630946e+03	
34	-1.70000e+00	4.036710e+03	
35	-1.75000e+00	4.525960e+03	
36	-1.80000e+00	5.116653e+03	
37	-1.85000e+00	5.823975e+03	
38	-1.90000e+00	6.652836e+03	
39	-1.95000e+00	7.590301e+03	
40	-2.00000e+00	8.605499e+03	
41	-2.05000e+00	9.660548e+03	
42	-2.10000e+00	1.072430e+04	
43	-2.15000e+00	1.177853e+04	
44	-2.20000e+00	1.281594e+04	
45	-2.25000e+00	1.383552e+04	
46	-2.30000e+00	1.483888e+04	
47	-2.35000e+00	1.582833e+04	
48	-2.40000e+00	1.680605e+04	
49	-2.45000e+00	1.777381e+04	
50	-2.50000e+00	1.873303e+04	
51	-2.55000e+00	1.968478e+04	
52	-2.60000e+00	2.062987e+04	
53	-2.65000e+00	2.156891e+04	
54	-2.70000e+00	2.250238e+04	

Index   v-sweep         rds             
--------------------------------------------------------------------------------
55	-2.75000e+00	2.343064e+04	
56	-2.80000e+00	2.435398e+04	
57	-2.85000e+00	2.527263e+04	
58	-2.90000e+00	2.618675e+04	
59	-2.95000e+00	2.709651e+04	
60	-3.00000e+00	2.800202e+04	
61	-3.05000e+00	2.890337e+04	
62	-3.10000e+00	2.980067e+04	
63	-3.15000e+00	3.069397e+04	
64	-3.20000e+00	3.158333e+04	
65	-3.25000e+00	3.246883e+04	
66	-3.30000e+00	3.335048e+04	
Reset re-loads circuit ***************************

Circuit: ***************************

Note: No ".plot", ".print", or ".fourier" lines; no simulations run
