
Note: Compatibility modes selected: hs

Warning: m=xx on .subckt line will override multiplier m hierarchy!


Circuit: ***************************

Doing analysis at TEMP = 125.000000 and TNOM = 125.000000


No. of Data Rows : 67
                          ***************************
                          DC transfer characteristic  Mon Jan  9 13:57:32  2023
--------------------------------------------------------------------------------
Index   v-sweep         rds             
--------------------------------------------------------------------------------
0	0.000000e+00	5.673285e+06	
1	-5.00000e-02	9.257707e+06	
2	-1.00000e-01	2.111994e+07	
3	-1.50000e-01	8.038065e+07	
4	-2.00000e-01	3.294849e+08	
5	-2.50000e-01	9.840879e+08	
6	-3.00000e-01	2.194091e+09	
7	-3.50000e-01	3.964159e+09	
8	-4.00000e-01	6.163290e+09	
9	-4.50000e-01	8.596117e+09	
10	-5.00000e-01	1.107893e+10	
11	-5.50000e-01	1.348057e+10	
12	-6.00000e-01	1.572724e+10	
13	-6.50000e-01	1.778907e+10	
14	-7.00000e-01	1.966350e+10	
15	-7.50000e-01	2.136225e+10	
16	-8.00000e-01	2.290302e+10	
17	-8.50000e-01	2.430483e+10	
18	-9.00000e-01	2.558572e+10	
19	-9.50000e-01	2.676178e+10	
20	-1.00000e+00	2.784695e+10	
21	-1.05000e+00	2.885309e+10	
22	-1.10000e+00	2.979020e+10	
23	-1.15000e+00	3.066668e+10	
24	-1.20000e+00	3.148963e+10	
25	-1.25000e+00	3.226502e+10	
26	-1.30000e+00	3.299792e+10	
27	-1.35000e+00	3.369263e+10	
28	-1.40000e+00	3.435285e+10	
29	-1.45000e+00	3.498174e+10	
30	-1.50000e+00	3.558206e+10	
31	-1.55000e+00	3.615619e+10	
32	-1.60000e+00	3.670621e+10	
33	-1.65000e+00	3.723394e+10	
34	-1.70000e+00	3.774099e+10	
35	-1.75000e+00	3.822873e+10	
36	-1.80000e+00	3.869839e+10	
37	-1.85000e+00	3.915099e+10	
38	-1.90000e+00	3.958738e+10	
39	-1.95000e+00	4.000823e+10	
40	-2.00000e+00	4.041403e+10	
41	-2.05000e+00	4.080502e+10	
42	-2.10000e+00	4.118122e+10	
43	-2.15000e+00	4.154239e+10	
44	-2.20000e+00	4.188796e+10	
45	-2.25000e+00	4.221701e+10	
46	-2.30000e+00	4.252825e+10	
47	-2.35000e+00	4.281995e+10	
48	-2.40000e+00	4.308992e+10	
49	-2.45000e+00	4.333545e+10	
50	-2.50000e+00	4.355332e+10	
51	-2.55000e+00	4.373974e+10	
52	-2.60000e+00	4.389041e+10	
53	-2.65000e+00	4.400048e+10	
54	-2.70000e+00	4.406465e+10	

Index   v-sweep         rds             
--------------------------------------------------------------------------------
55	-2.75000e+00	4.407723e+10	
56	-2.80000e+00	4.403223e+10	
57	-2.85000e+00	4.392351e+10	
58	-2.90000e+00	4.374502e+10	
59	-2.95000e+00	4.349093e+10	
60	-3.00000e+00	4.315591e+10	
61	-3.05000e+00	4.273539e+10	
62	-3.10000e+00	4.222584e+10	
63	-3.15000e+00	4.162497e+10	
64	-3.20000e+00	4.093201e+10	
65	-3.25000e+00	4.014781e+10	
66	-3.30000e+00	3.927502e+10	
Reset re-loads circuit ***************************

Circuit: ***************************

Doing analysis at TEMP = 125.000000 and TNOM = 125.000000


No. of Data Rows : 67
                          ***************************
                          DC transfer characteristic  Mon Jan  9 13:57:32  2023
--------------------------------------------------------------------------------
Index   v-sweep         rds             
--------------------------------------------------------------------------------
0	0.000000e+00	1.279535e+06	
1	-5.00000e-02	1.441994e+06	
2	-1.00000e-01	1.651374e+06	
3	-1.50000e-01	1.931151e+06	
4	-2.00000e-01	2.323133e+06	
5	-2.50000e-01	2.908611e+06	
6	-3.00000e-01	3.863976e+06	
7	-3.50000e-01	5.624113e+06	
8	-4.00000e-01	9.390324e+06	
9	-4.50000e-01	1.850881e+07	
10	-5.00000e-01	4.058312e+07	
11	-5.50000e-01	8.724859e+07	
12	-6.00000e-01	1.694819e+08	
13	-6.50000e-01	2.923447e+08	
14	-7.00000e-01	4.531018e+08	
15	-7.50000e-01	6.430389e+08	
16	-8.00000e-01	8.510493e+08	
17	-8.50000e-01	1.066786e+09	
18	-9.00000e-01	1.282321e+09	
19	-9.50000e-01	1.492446e+09	
20	-1.00000e+00	1.694239e+09	
21	-1.05000e+00	1.886404e+09	
22	-1.10000e+00	2.068681e+09	
23	-1.15000e+00	2.241403e+09	
24	-1.20000e+00	2.405202e+09	
25	-1.25000e+00	2.560828e+09	
26	-1.30000e+00	2.709051e+09	
27	-1.35000e+00	2.850599e+09	
28	-1.40000e+00	2.986140e+09	
29	-1.45000e+00	3.116269e+09	
30	-1.50000e+00	3.241512e+09	
31	-1.55000e+00	3.362327e+09	
32	-1.60000e+00	3.479117e+09	
33	-1.65000e+00	3.592228e+09	
34	-1.70000e+00	3.701965e+09	
35	-1.75000e+00	3.808592e+09	
36	-1.80000e+00	3.912342e+09	
37	-1.85000e+00	4.013418e+09	
38	-1.90000e+00	4.111996e+09	
39	-1.95000e+00	4.208233e+09	
40	-2.00000e+00	4.302264e+09	
41	-2.05000e+00	4.394206e+09	
42	-2.10000e+00	4.484156e+09	
43	-2.15000e+00	4.572193e+09	
44	-2.20000e+00	4.658372e+09	
45	-2.25000e+00	4.742723e+09	
46	-2.30000e+00	4.825246e+09	
47	-2.35000e+00	4.905905e+09	
48	-2.40000e+00	4.984617e+09	
49	-2.45000e+00	5.061249e+09	
50	-2.50000e+00	5.135601e+09	
51	-2.55000e+00	5.207399e+09	
52	-2.60000e+00	5.276279e+09	
53	-2.65000e+00	5.341779e+09	
54	-2.70000e+00	5.403321e+09	

Index   v-sweep         rds             
--------------------------------------------------------------------------------
55	-2.75000e+00	5.460207e+09	
56	-2.80000e+00	5.511606e+09	
57	-2.85000e+00	5.556553e+09	
58	-2.90000e+00	5.593953e+09	
59	-2.95000e+00	5.622590e+09	
60	-3.00000e+00	5.641146e+09	
61	-3.05000e+00	5.648238e+09	
62	-3.10000e+00	5.642459e+09	
63	-3.15000e+00	5.622434e+09	
64	-3.20000e+00	5.586896e+09	
65	-3.25000e+00	5.534754e+09	
66	-3.30000e+00	5.465178e+09	
Reset re-loads circuit ***************************

Circuit: ***************************

Doing analysis at TEMP = 125.000000 and TNOM = 125.000000


No. of Data Rows : 67
                          ***************************
                          DC transfer characteristic  Mon Jan  9 13:57:32  2023
--------------------------------------------------------------------------------
Index   v-sweep         rds             
--------------------------------------------------------------------------------
0	0.000000e+00	7.332709e+05	
1	-5.00000e-02	7.830404e+05	
2	-1.00000e-01	8.400275e+05	
3	-1.50000e-01	9.059206e+05	
4	-2.00000e-01	9.829770e+05	
5	-2.50000e-01	1.074282e+06	
6	-3.00000e-01	1.184163e+06	
7	-3.50000e-01	1.318876e+06	
8	-4.00000e-01	1.487790e+06	
9	-4.50000e-01	1.705540e+06	
10	-5.00000e-01	1.996158e+06	
11	-5.50000e-01	2.401515e+06	
12	-6.00000e-01	2.999713e+06	
13	-6.50000e-01	3.947531e+06	
14	-7.00000e-01	5.580670e+06	
15	-7.50000e-01	8.635362e+06	
16	-8.00000e-01	1.462467e+07	
17	-8.50000e-01	2.612537e+07	
18	-9.00000e-01	4.638815e+07	
19	-9.50000e-01	7.814965e+07	
20	-1.00000e+00	1.224554e+08	
21	-1.05000e+00	1.782956e+08	
22	-1.10000e+00	2.431246e+08	
23	-1.15000e+00	3.137835e+08	
24	-1.20000e+00	3.873042e+08	
25	-1.25000e+00	4.613474e+08	
26	-1.30000e+00	5.343045e+08	
27	-1.35000e+00	6.052042e+08	
28	-1.40000e+00	6.735505e+08	
29	-1.45000e+00	7.391661e+08	
30	-1.50000e+00	8.020693e+08	
31	-1.55000e+00	8.623875e+08	
32	-1.60000e+00	9.203011e+08	
33	-1.65000e+00	9.760093e+08	
34	-1.70000e+00	1.029711e+09	
35	-1.75000e+00	1.081592e+09	
36	-1.80000e+00	1.131825e+09	
37	-1.85000e+00	1.180562e+09	
38	-1.90000e+00	1.227940e+09	
39	-1.95000e+00	1.274080e+09	
40	-2.00000e+00	1.319085e+09	
41	-2.05000e+00	1.363048e+09	
42	-2.10000e+00	1.406051e+09	
43	-2.15000e+00	1.448163e+09	
44	-2.20000e+00	1.489447e+09	
45	-2.25000e+00	1.529956e+09	
46	-2.30000e+00	1.569739e+09	
47	-2.35000e+00	1.608836e+09	
48	-2.40000e+00	1.647280e+09	
49	-2.45000e+00	1.685100e+09	
50	-2.50000e+00	1.722314e+09	
51	-2.55000e+00	1.758933e+09	
52	-2.60000e+00	1.794957e+09	
53	-2.65000e+00	1.830374e+09	
54	-2.70000e+00	1.865154e+09	

Index   v-sweep         rds             
--------------------------------------------------------------------------------
55	-2.75000e+00	1.899246e+09	
56	-2.80000e+00	1.932577e+09	
57	-2.85000e+00	1.965042e+09	
58	-2.90000e+00	1.996501e+09	
59	-2.95000e+00	2.026770e+09	
60	-3.00000e+00	2.055619e+09	
61	-3.05000e+00	2.082764e+09	
62	-3.10000e+00	2.107860e+09	
63	-3.15000e+00	2.130502e+09	
64	-3.20000e+00	2.150220e+09	
65	-3.25000e+00	2.166484e+09	
66	-3.30000e+00	2.178710e+09	
Reset re-loads circuit ***************************

Circuit: ***************************

Doing analysis at TEMP = 125.000000 and TNOM = 125.000000


No. of Data Rows : 67
                          ***************************
                          DC transfer characteristic  Mon Jan  9 13:57:32  2023
--------------------------------------------------------------------------------
Index   v-sweep         rds             
--------------------------------------------------------------------------------
0	0.000000e+00	5.241037e+05	
1	-5.00000e-02	5.479453e+05	
2	-1.00000e-01	5.740489e+05	
3	-1.50000e-01	6.027524e+05	
4	-2.00000e-01	6.344638e+05	
5	-2.50000e-01	6.696815e+05	
6	-3.00000e-01	7.090197e+05	
7	-3.50000e-01	7.532450e+05	
8	-4.00000e-01	8.033256e+05	
9	-4.50000e-01	8.605022e+05	
10	-5.00000e-01	9.263906e+05	
11	-5.50000e-01	1.003133e+06	
12	-6.00000e-01	1.093630e+06	
13	-6.50000e-01	1.201898e+06	
14	-7.00000e-01	1.333660e+06	
15	-7.50000e-01	1.497316e+06	
16	-8.00000e-01	1.705657e+06	
17	-8.50000e-01	1.978972e+06	
18	-9.00000e-01	2.350963e+06	
19	-9.50000e-01	2.880456e+06	
20	-1.00000e+00	3.675185e+06	
21	-1.05000e+00	4.939480e+06	
22	-1.10000e+00	7.061548e+06	
23	-1.15000e+00	1.073673e+07	
24	-1.20000e+00	1.704612e+07	
25	-1.25000e+00	2.732572e+07	
26	-1.30000e+00	4.276326e+07	
27	-1.35000e+00	6.393350e+07	
28	-1.40000e+00	9.057634e+07	
29	-1.45000e+00	1.217236e+08	
30	-1.50000e+00	1.560418e+08	
31	-1.55000e+00	1.921830e+08	
32	-1.60000e+00	2.290132e+08	
33	-1.65000e+00	2.656989e+08	
34	-1.70000e+00	3.016951e+08	
35	-1.75000e+00	3.366881e+08	
36	-1.80000e+00	3.705299e+08	
37	-1.85000e+00	4.031804e+08	
38	-1.90000e+00	4.346656e+08	
39	-1.95000e+00	4.650470e+08	
40	-2.00000e+00	4.944036e+08	
41	-2.05000e+00	5.228197e+08	
42	-2.10000e+00	5.503779e+08	
43	-2.15000e+00	5.771562e+08	
44	-2.20000e+00	6.032259e+08	
45	-2.25000e+00	6.286510e+08	
46	-2.30000e+00	6.534887e+08	
47	-2.35000e+00	6.777893e+08	
48	-2.40000e+00	7.015975e+08	
49	-2.45000e+00	7.249523e+08	
50	-2.50000e+00	7.478881e+08	
51	-2.55000e+00	7.704350e+08	
52	-2.60000e+00	7.926195e+08	
53	-2.65000e+00	8.144646e+08	
54	-2.70000e+00	8.359898e+08	

Index   v-sweep         rds             
--------------------------------------------------------------------------------
55	-2.75000e+00	8.572117e+08	
56	-2.80000e+00	8.781433e+08	
57	-2.85000e+00	8.987937e+08	
58	-2.90000e+00	9.191675e+08	
59	-2.95000e+00	9.392639e+08	
60	-3.00000e+00	9.590748e+08	
61	-3.05000e+00	9.785837e+08	
62	-3.10000e+00	9.977628e+08	
63	-3.15000e+00	1.016571e+09	
64	-3.20000e+00	1.034951e+09	
65	-3.25000e+00	1.052824e+09	
66	-3.30000e+00	1.070089e+09	
Reset re-loads circuit ***************************

Circuit: ***************************

Doing analysis at TEMP = 125.000000 and TNOM = 125.000000


No. of Data Rows : 67
                          ***************************
                          DC transfer characteristic  Mon Jan  9 13:57:32  2023
--------------------------------------------------------------------------------
Index   v-sweep         rds             
--------------------------------------------------------------------------------
0	0.000000e+00	4.133635e+05	
1	-5.00000e-02	4.273019e+05	
2	-1.00000e-01	4.422078e+05	
3	-1.50000e-01	4.581855e+05	
4	-2.00000e-01	4.753549e+05	
5	-2.50000e-01	4.938542e+05	
6	-3.00000e-01	5.138442e+05	
7	-3.50000e-01	5.355123e+05	
8	-4.00000e-01	5.590790e+05	
9	-4.50000e-01	5.848048e+05	
10	-5.00000e-01	6.130002e+05	
11	-5.50000e-01	6.440382e+05	
12	-6.00000e-01	6.783703e+05	
13	-6.50000e-01	7.165489e+05	
14	-7.00000e-01	7.592566e+05	
15	-7.50000e-01	8.073466e+05	
16	-8.00000e-01	8.618994e+05	
17	-8.50000e-01	9.243028e+05	
18	-9.00000e-01	9.963682e+05	
19	-9.50000e-01	1.080503e+06	
20	-1.00000e+00	1.179970e+06	
21	-1.05000e+00	1.299297e+06	
22	-1.10000e+00	1.444932e+06	
23	-1.15000e+00	1.626321e+06	
24	-1.20000e+00	1.857769e+06	
25	-1.25000e+00	2.161710e+06	
26	-1.30000e+00	2.574656e+06	
27	-1.35000e+00	3.158124e+06	
28	-1.40000e+00	4.018515e+06	
29	-1.45000e+00	5.340826e+06	
30	-1.50000e+00	7.436585e+06	
31	-1.55000e+00	1.078664e+07	
32	-1.60000e+00	1.602674e+07	
33	-1.65000e+00	2.382255e+07	
34	-1.70000e+00	3.465743e+07	
35	-1.75000e+00	4.864955e+07	
36	-1.80000e+00	6.550838e+07	
37	-1.85000e+00	8.463991e+07	
38	-1.90000e+00	1.053229e+08	
39	-1.95000e+00	1.268666e+08	
40	-2.00000e+00	1.487051e+08	
41	-2.05000e+00	1.704266e+08	
42	-2.10000e+00	1.917625e+08	
43	-2.15000e+00	2.125576e+08	
44	-2.20000e+00	2.327377e+08	
45	-2.25000e+00	2.522827e+08	
46	-2.30000e+00	2.712052e+08	
47	-2.35000e+00	2.895367e+08	
48	-2.40000e+00	3.073174e+08	
49	-2.45000e+00	3.245911e+08	
50	-2.50000e+00	3.414009e+08	
51	-2.55000e+00	3.577879e+08	
52	-2.60000e+00	3.737898e+08	
53	-2.65000e+00	3.894407e+08	
54	-2.70000e+00	4.047715e+08	

Index   v-sweep         rds             
--------------------------------------------------------------------------------
55	-2.75000e+00	4.198092e+08	
56	-2.80000e+00	4.345780e+08	
57	-2.85000e+00	4.490992e+08	
58	-2.90000e+00	4.633915e+08	
59	-2.95000e+00	4.774715e+08	
60	-3.00000e+00	4.913533e+08	
61	-3.05000e+00	5.050497e+08	
62	-3.10000e+00	5.185710e+08	
63	-3.15000e+00	5.319260e+08	
64	-3.20000e+00	5.451211e+08	
65	-3.25000e+00	5.581602e+08	
66	-3.30000e+00	5.710443e+08	
Reset re-loads circuit ***************************

Circuit: ***************************

Doing analysis at TEMP = 125.000000 and TNOM = 125.000000


No. of Data Rows : 67
                          ***************************
                          DC transfer characteristic  Mon Jan  9 13:57:32  2023
--------------------------------------------------------------------------------
Index   v-sweep         rds             
--------------------------------------------------------------------------------
0	0.000000e+00	3.445942e+05	
1	-5.00000e-02	3.537121e+05	
2	-1.00000e-01	3.633224e+05	
3	-1.50000e-01	3.734660e+05	
4	-2.00000e-01	3.841887e+05	
5	-2.50000e-01	3.955415e+05	
6	-3.00000e-01	4.075814e+05	
7	-3.50000e-01	4.203729e+05	
8	-4.00000e-01	4.339885e+05	
9	-4.50000e-01	4.485105e+05	
10	-5.00000e-01	4.640324e+05	
11	-5.50000e-01	4.806612e+05	
12	-6.00000e-01	4.985193e+05	
13	-6.50000e-01	5.177484e+05	
14	-7.00000e-01	5.385122e+05	
15	-7.50000e-01	5.610021e+05	
16	-8.00000e-01	5.854420e+05	
17	-8.50000e-01	6.120967e+05	
18	-9.00000e-01	6.412807e+05	
19	-9.50000e-01	6.733710e+05	
20	-1.00000e+00	7.088230e+05	
21	-1.05000e+00	7.481919e+05	
22	-1.10000e+00	7.921617e+05	
23	-1.15000e+00	8.415837e+05	
24	-1.20000e+00	8.975315e+05	
25	-1.25000e+00	9.613766e+05	
26	-1.30000e+00	1.034898e+06	
27	-1.35000e+00	1.120440e+06	
28	-1.40000e+00	1.221156e+06	
29	-1.45000e+00	1.341368e+06	
30	-1.50000e+00	1.487141e+06	
31	-1.55000e+00	1.667205e+06	
32	-1.60000e+00	1.894473e+06	
33	-1.65000e+00	2.188594e+06	
34	-1.70000e+00	2.580317e+06	
35	-1.75000e+00	3.118939e+06	
36	-1.80000e+00	3.884612e+06	
37	-1.85000e+00	5.007018e+06	
38	-1.90000e+00	6.688491e+06	
39	-1.95000e+00	9.220281e+06	
40	-2.00000e+00	1.296813e+07	
41	-2.05000e+00	1.830534e+07	
42	-2.10000e+00	2.550457e+07	
43	-2.15000e+00	3.464095e+07	
44	-2.20000e+00	4.556198e+07	
45	-2.25000e+00	5.793581e+07	
46	-2.30000e+00	7.134379e+07	
47	-2.35000e+00	8.537049e+07	
48	-2.40000e+00	9.966289e+07	
49	-2.45000e+00	1.139542e+08	
50	-2.50000e+00	1.280622e+08	
51	-2.55000e+00	1.418752e+08	
52	-2.60000e+00	1.553339e+08	
53	-2.65000e+00	1.684150e+08	
54	-2.70000e+00	1.811185e+08	

Index   v-sweep         rds             
--------------------------------------------------------------------------------
55	-2.75000e+00	1.934585e+08	
56	-2.80000e+00	2.054562e+08	
57	-2.85000e+00	2.171363e+08	
58	-2.90000e+00	2.285245e+08	
59	-2.95000e+00	2.396453e+08	
60	-3.00000e+00	2.505221e+08	
61	-3.05000e+00	2.611762e+08	
62	-3.10000e+00	2.716268e+08	
63	-3.15000e+00	2.818912e+08	
64	-3.20000e+00	2.919848e+08	
65	-3.25000e+00	3.019213e+08	
66	-3.30000e+00	3.117126e+08	
Reset re-loads circuit ***************************

Circuit: ***************************

Note: No ".plot", ".print", or ".fourier" lines; no simulations run
