
Note: Compatibility modes selected: hs

Warning: m=xx on .subckt line will override multiplier m hierarchy!


Circuit: ***************************

Doing analysis at TEMP = 25.000000 and TNOM = 25.000000


No. of Data Rows : 67
                          ***************************
                          DC transfer characteristic  Mon Jan  9 13:57:30  2023
--------------------------------------------------------------------------------
Index   v-sweep         rds             
--------------------------------------------------------------------------------
0	0.000000e+00	7.815469e+05	
1	-5.00000e-02	1.582760e+06	
2	-1.00000e-01	5.682888e+06	
3	-1.50000e-01	2.425754e+07	
4	-2.00000e-01	5.606148e+07	
5	-2.50000e-01	8.211794e+07	
6	-3.00000e-01	9.929517e+07	
7	-3.50000e-01	1.112086e+08	
8	-4.00000e-01	1.203599e+08	
9	-4.50000e-01	1.279874e+08	
10	-5.00000e-01	1.346941e+08	
11	-5.50000e-01	1.407897e+08	
12	-6.00000e-01	1.464440e+08	
13	-6.50000e-01	1.517566e+08	
14	-7.00000e-01	1.567899e+08	
15	-7.50000e-01	1.615852e+08	
16	-8.00000e-01	1.661716e+08	
17	-8.50000e-01	1.705703e+08	
18	-9.00000e-01	1.747978e+08	
19	-9.50000e-01	1.788671e+08	
20	-1.00000e+00	1.827891e+08	
21	-1.05000e+00	1.865730e+08	
22	-1.10000e+00	1.902267e+08	
23	-1.15000e+00	1.937572e+08	
24	-1.20000e+00	1.971708e+08	
25	-1.25000e+00	2.004732e+08	
26	-1.30000e+00	2.036695e+08	
27	-1.35000e+00	2.067646e+08	
28	-1.40000e+00	2.097628e+08	
29	-1.45000e+00	2.126684e+08	
30	-1.50000e+00	2.154851e+08	
31	-1.55000e+00	2.182165e+08	
32	-1.60000e+00	2.208659e+08	
33	-1.65000e+00	2.234365e+08	
34	-1.70000e+00	2.259310e+08	
35	-1.75000e+00	2.283520e+08	
36	-1.80000e+00	2.307017e+08	
37	-1.85000e+00	2.329820e+08	
38	-1.90000e+00	2.351942e+08	
39	-1.95000e+00	2.373391e+08	
40	-2.00000e+00	2.394168e+08	
41	-2.05000e+00	2.414265e+08	
42	-2.10000e+00	2.433666e+08	
43	-2.15000e+00	2.452342e+08	
44	-2.20000e+00	2.470248e+08	
45	-2.25000e+00	2.487325e+08	
46	-2.30000e+00	2.503496e+08	
47	-2.35000e+00	2.518663e+08	
48	-2.40000e+00	2.532706e+08	
49	-2.45000e+00	2.545478e+08	
50	-2.50000e+00	2.556809e+08	
51	-2.55000e+00	2.566503e+08	
52	-2.60000e+00	2.574335e+08	
53	-2.65000e+00	2.580056e+08	
54	-2.70000e+00	2.583392e+08	

Index   v-sweep         rds             
--------------------------------------------------------------------------------
55	-2.75000e+00	2.584048e+08	
56	-2.80000e+00	2.581716e+08	
57	-2.85000e+00	2.576076e+08	
58	-2.90000e+00	2.566809e+08	
59	-2.95000e+00	2.553602e+08	
60	-3.00000e+00	2.536165e+08	
61	-3.05000e+00	2.514238e+08	
62	-3.10000e+00	2.487606e+08	
63	-3.15000e+00	2.456111e+08	
64	-3.20000e+00	2.419664e+08	
65	-3.25000e+00	2.378256e+08	
66	-3.30000e+00	2.331960e+08	
Reset re-loads circuit ***************************

Circuit: ***************************

Doing analysis at TEMP = 25.000000 and TNOM = 25.000000


No. of Data Rows : 67
                          ***************************
                          DC transfer characteristic  Mon Jan  9 13:57:30  2023
--------------------------------------------------------------------------------
Index   v-sweep         rds             
--------------------------------------------------------------------------------
0	0.000000e+00	1.013583e+05	
1	-5.00000e-02	1.136911e+05	
2	-1.00000e-01	1.292283e+05	
3	-1.50000e-01	1.493895e+05	
4	-2.00000e-01	1.765566e+05	
5	-2.50000e-01	2.150103e+05	
6	-3.00000e-01	2.731024e+05	
7	-3.50000e-01	3.686266e+05	
8	-4.00000e-01	5.417223e+05	
9	-4.50000e-01	8.745892e+05	
10	-5.00000e-01	1.459079e+06	
11	-5.50000e-01	2.231914e+06	
12	-6.00000e-01	2.980515e+06	
13	-6.50000e-01	3.595073e+06	
14	-7.00000e-01	4.089592e+06	
15	-7.50000e-01	4.504968e+06	
16	-8.00000e-01	4.871685e+06	
17	-8.50000e-01	5.208086e+06	
18	-9.00000e-01	5.524751e+06	
19	-9.50000e-01	5.827849e+06	
20	-1.00000e+00	6.121082e+06	
21	-1.05000e+00	6.406754e+06	
22	-1.10000e+00	6.686346e+06	
23	-1.15000e+00	6.960846e+06	
24	-1.20000e+00	7.230932e+06	
25	-1.25000e+00	7.497084e+06	
26	-1.30000e+00	7.759652e+06	
27	-1.35000e+00	8.018899e+06	
28	-1.40000e+00	8.275025e+06	
29	-1.45000e+00	8.528190e+06	
30	-1.50000e+00	8.778519e+06	
31	-1.55000e+00	9.026120e+06	
32	-1.60000e+00	9.271079e+06	
33	-1.65000e+00	9.513472e+06	
34	-1.70000e+00	9.753365e+06	
35	-1.75000e+00	9.990817e+06	
36	-1.80000e+00	1.022588e+07	
37	-1.85000e+00	1.045860e+07	
38	-1.90000e+00	1.068901e+07	
39	-1.95000e+00	1.091716e+07	
40	-2.00000e+00	1.114307e+07	
41	-2.05000e+00	1.136677e+07	
42	-2.10000e+00	1.158827e+07	
43	-2.15000e+00	1.180755e+07	
44	-2.20000e+00	1.202460e+07	
45	-2.25000e+00	1.223935e+07	
46	-2.30000e+00	1.245171e+07	
47	-2.35000e+00	1.266151e+07	
48	-2.40000e+00	1.286855e+07	
49	-2.45000e+00	1.307249e+07	
50	-2.50000e+00	1.327292e+07	
51	-2.55000e+00	1.346926e+07	
52	-2.60000e+00	1.366079e+07	
53	-2.65000e+00	1.384656e+07	
54	-2.70000e+00	1.402543e+07	

Index   v-sweep         rds             
--------------------------------------------------------------------------------
55	-2.75000e+00	1.419598e+07	
56	-2.80000e+00	1.435651e+07	
57	-2.85000e+00	1.450504e+07	
58	-2.90000e+00	1.463923e+07	
59	-2.95000e+00	1.475645e+07	
60	-3.00000e+00	1.485376e+07	
61	-3.05000e+00	1.492795e+07	
62	-3.10000e+00	1.497559e+07	
63	-3.15000e+00	1.499315e+07	
64	-3.20000e+00	1.497709e+07	
65	-3.25000e+00	1.492400e+07	
66	-3.30000e+00	1.483078e+07	
Reset re-loads circuit ***************************

Circuit: ***************************

Doing analysis at TEMP = 25.000000 and TNOM = 25.000000


No. of Data Rows : 67
                          ***************************
                          DC transfer characteristic  Mon Jan  9 13:57:30  2023
--------------------------------------------------------------------------------
Index   v-sweep         rds             
--------------------------------------------------------------------------------
0	0.000000e+00	5.575167e+04	
1	-5.00000e-02	5.940963e+04	
2	-1.00000e-01	6.353452e+04	
3	-1.50000e-01	6.822150e+04	
4	-2.00000e-01	7.359341e+04	
5	-2.50000e-01	7.981147e+04	
6	-3.00000e-01	8.709138e+04	
7	-3.50000e-01	9.572815e+04	
8	-4.00000e-01	1.061355e+05	
9	-4.50000e-01	1.189105e+05	
10	-5.00000e-01	1.349433e+05	
11	-5.50000e-01	1.556098e+05	
12	-6.00000e-01	1.831198e+05	
13	-6.50000e-01	2.211441e+05	
14	-7.00000e-01	2.758635e+05	
15	-7.50000e-01	3.571783e+05	
16	-8.00000e-01	4.777280e+05	
17	-8.50000e-01	6.437504e+05	
18	-9.00000e-01	8.402543e+05	
19	-9.50000e-01	1.036704e+06	
20	-1.00000e+00	1.212766e+06	
21	-1.05000e+00	1.365714e+06	
22	-1.10000e+00	1.500696e+06	
23	-1.15000e+00	1.623376e+06	
24	-1.20000e+00	1.737887e+06	
25	-1.25000e+00	1.846903e+06	
26	-1.30000e+00	1.952106e+06	
27	-1.35000e+00	2.054555e+06	
28	-1.40000e+00	2.154929e+06	
29	-1.45000e+00	2.253674e+06	
30	-1.50000e+00	2.351090e+06	
31	-1.55000e+00	2.447384e+06	
32	-1.60000e+00	2.542703e+06	
33	-1.65000e+00	2.637151e+06	
34	-1.70000e+00	2.730806e+06	
35	-1.75000e+00	2.823727e+06	
36	-1.80000e+00	2.915959e+06	
37	-1.85000e+00	3.007537e+06	
38	-1.90000e+00	3.098489e+06	
39	-1.95000e+00	3.188837e+06	
40	-2.00000e+00	3.278601e+06	
41	-2.05000e+00	3.367795e+06	
42	-2.10000e+00	3.456432e+06	
43	-2.15000e+00	3.544525e+06	
44	-2.20000e+00	3.632083e+06	
45	-2.25000e+00	3.719113e+06	
46	-2.30000e+00	3.805622e+06	
47	-2.35000e+00	3.891615e+06	
48	-2.40000e+00	3.977093e+06	
49	-2.45000e+00	4.062055e+06	
50	-2.50000e+00	4.146492e+06	
51	-2.55000e+00	4.230389e+06	
52	-2.60000e+00	4.313721e+06	
53	-2.65000e+00	4.396444e+06	
54	-2.70000e+00	4.478499e+06	

Index   v-sweep         rds             
--------------------------------------------------------------------------------
55	-2.75000e+00	4.559795e+06	
56	-2.80000e+00	4.640209e+06	
57	-2.85000e+00	4.719573e+06	
58	-2.90000e+00	4.797664e+06	
59	-2.95000e+00	4.874195e+06	
60	-3.00000e+00	4.948796e+06	
61	-3.05000e+00	5.021008e+06	
62	-3.10000e+00	5.090266e+06	
63	-3.15000e+00	5.155884e+06	
64	-3.20000e+00	5.217053e+06	
65	-3.25000e+00	5.272824e+06	
66	-3.30000e+00	5.322115e+06	
Reset re-loads circuit ***************************

Circuit: ***************************

Doing analysis at TEMP = 25.000000 and TNOM = 25.000000


No. of Data Rows : 67
                          ***************************
                          DC transfer characteristic  Mon Jan  9 13:57:30  2023
--------------------------------------------------------------------------------
Index   v-sweep         rds             
--------------------------------------------------------------------------------
0	0.000000e+00	3.981028e+04	
1	-5.00000e-02	4.163439e+04	
2	-1.00000e-01	4.361307e+04	
3	-1.50000e-01	4.576680e+04	
4	-2.00000e-01	4.811979e+04	
5	-2.50000e-01	5.070097e+04	
6	-3.00000e-01	5.354511e+04	
7	-3.50000e-01	5.669441e+04	
8	-4.00000e-01	6.020057e+04	
9	-4.50000e-01	6.412759e+04	
10	-5.00000e-01	6.855569e+04	
11	-5.50000e-01	7.358662e+04	
12	-6.00000e-01	7.935142e+04	
13	-6.50000e-01	8.602143e+04	
14	-7.00000e-01	9.382476e+04	
15	-7.50000e-01	1.030709e+05	
16	-8.00000e-01	1.141883e+05	
17	-8.50000e-01	1.277834e+05	
18	-9.00000e-01	1.447312e+05	
19	-9.50000e-01	1.663117e+05	
20	-1.00000e+00	1.943928e+05	
21	-1.05000e+00	2.315844e+05	
22	-1.10000e+00	2.810526e+05	
23	-1.15000e+00	3.452695e+05	
24	-1.20000e+00	4.233064e+05	
25	-1.25000e+00	5.090696e+05	
26	-1.30000e+00	5.943137e+05	
27	-1.35000e+00	6.737350e+05	
28	-1.40000e+00	7.461948e+05	
29	-1.45000e+00	8.127748e+05	
30	-1.50000e+00	8.750094e+05	
31	-1.55000e+00	9.341777e+05	
32	-1.60000e+00	9.911899e+05	
33	-1.65000e+00	1.046659e+06	
34	-1.70000e+00	1.100991e+06	
35	-1.75000e+00	1.154457e+06	
36	-1.80000e+00	1.207241e+06	
37	-1.85000e+00	1.259468e+06	
38	-1.90000e+00	1.311227e+06	
39	-1.95000e+00	1.362580e+06	
40	-2.00000e+00	1.413574e+06	
41	-2.05000e+00	1.464242e+06	
42	-2.10000e+00	1.514611e+06	
43	-2.15000e+00	1.564699e+06	
44	-2.20000e+00	1.614522e+06	
45	-2.25000e+00	1.664092e+06	
46	-2.30000e+00	1.713419e+06	
47	-2.35000e+00	1.762511e+06	
48	-2.40000e+00	1.811374e+06	
49	-2.45000e+00	1.860013e+06	
50	-2.50000e+00	1.908434e+06	
51	-2.55000e+00	1.956639e+06	
52	-2.60000e+00	2.004632e+06	
53	-2.65000e+00	2.052414e+06	
54	-2.70000e+00	2.099988e+06	

Index   v-sweep         rds             
--------------------------------------------------------------------------------
55	-2.75000e+00	2.147353e+06	
56	-2.80000e+00	2.194506e+06	
57	-2.85000e+00	2.241441e+06	
58	-2.90000e+00	2.288149e+06	
59	-2.95000e+00	2.334613e+06	
60	-3.00000e+00	2.380809e+06	
61	-3.05000e+00	2.426698e+06	
62	-3.10000e+00	2.472229e+06	
63	-3.15000e+00	2.517329e+06	
64	-3.20000e+00	2.561898e+06	
65	-3.25000e+00	2.605805e+06	
66	-3.30000e+00	2.648882e+06	
Reset re-loads circuit ***************************

Circuit: ***************************

Doing analysis at TEMP = 25.000000 and TNOM = 25.000000


No. of Data Rows : 67
                          ***************************
                          DC transfer characteristic  Mon Jan  9 13:57:30  2023
--------------------------------------------------------------------------------
Index   v-sweep         rds             
--------------------------------------------------------------------------------
0	0.000000e+00	3.175683e+04	
1	-5.00000e-02	3.288753e+04	
2	-1.00000e-01	3.409000e+04	
3	-1.50000e-01	3.537126e+04	
4	-2.00000e-01	3.673931e+04	
5	-2.50000e-01	3.820324e+04	
6	-3.00000e-01	3.977345e+04	
7	-3.50000e-01	4.146194e+04	
8	-4.00000e-01	4.328253e+04	
9	-4.50000e-01	4.525132e+04	
10	-5.00000e-01	4.738711e+04	
11	-5.50000e-01	4.971200e+04	
12	-6.00000e-01	5.225217e+04	
13	-6.50000e-01	5.503885e+04	
14	-7.00000e-01	5.810957e+04	
15	-7.50000e-01	6.150983e+04	
16	-8.00000e-01	6.529532e+04	
17	-8.50000e-01	6.953488e+04	
18	-9.00000e-01	7.431451e+04	
19	-9.50000e-01	7.974299e+04	
20	-1.00000e+00	8.595964e+04	
21	-1.05000e+00	9.314525e+04	
22	-1.10000e+00	1.015376e+05	
23	-1.15000e+00	1.114537e+05	
24	-1.20000e+00	1.233199e+05	
25	-1.25000e+00	1.377125e+05	
26	-1.30000e+00	1.554015e+05	
27	-1.35000e+00	1.773738e+05	
28	-1.40000e+00	2.047629e+05	
29	-1.45000e+00	2.385382e+05	
30	-1.50000e+00	2.788373e+05	
31	-1.55000e+00	3.242463e+05	
32	-1.60000e+00	3.719503e+05	
33	-1.65000e+00	4.190823e+05	
34	-1.70000e+00	4.639797e+05	
35	-1.75000e+00	5.062734e+05	
36	-1.80000e+00	5.462913e+05	
37	-1.85000e+00	5.845441e+05	
38	-1.90000e+00	6.214907e+05	
39	-1.95000e+00	6.574797e+05	
40	-2.00000e+00	6.927587e+05	
41	-2.05000e+00	7.275000e+05	
42	-2.10000e+00	7.618223e+05	
43	-2.15000e+00	7.958085e+05	
44	-2.20000e+00	8.295171e+05	
45	-2.25000e+00	8.629897e+05	
46	-2.30000e+00	8.962567e+05	
47	-2.35000e+00	9.293403e+05	
48	-2.40000e+00	9.622573e+05	
49	-2.45000e+00	9.950203e+05	
50	-2.50000e+00	1.027639e+06	
51	-2.55000e+00	1.060122e+06	
52	-2.60000e+00	1.092473e+06	
53	-2.65000e+00	1.124700e+06	
54	-2.70000e+00	1.156804e+06	

Index   v-sweep         rds             
--------------------------------------------------------------------------------
55	-2.75000e+00	1.188790e+06	
56	-2.80000e+00	1.220661e+06	
57	-2.85000e+00	1.252418e+06	
58	-2.90000e+00	1.284063e+06	
59	-2.95000e+00	1.315597e+06	
60	-3.00000e+00	1.347022e+06	
61	-3.05000e+00	1.378337e+06	
62	-3.10000e+00	1.409542e+06	
63	-3.15000e+00	1.440634e+06	
64	-3.20000e+00	1.471607e+06	
65	-3.25000e+00	1.502455e+06	
66	-3.30000e+00	1.533164e+06	
Reset re-loads circuit ***************************

Circuit: ***************************

Doing analysis at TEMP = 25.000000 and TNOM = 25.000000


No. of Data Rows : 67
                          ***************************
                          DC transfer characteristic  Mon Jan  9 13:57:30  2023
--------------------------------------------------------------------------------
Index   v-sweep         rds             
--------------------------------------------------------------------------------
0	0.000000e+00	2.693207e+04	
1	-5.00000e-02	2.772158e+04	
2	-1.00000e-01	2.855115e+04	
3	-1.50000e-01	2.942389e+04	
4	-2.00000e-01	3.034326e+04	
5	-2.50000e-01	3.131306e+04	
6	-3.00000e-01	3.233756e+04	
7	-3.50000e-01	3.342150e+04	
8	-4.00000e-01	3.457019e+04	
9	-4.50000e-01	3.578958e+04	
10	-5.00000e-01	3.708640e+04	
11	-5.50000e-01	3.846824e+04	
12	-6.00000e-01	3.994369e+04	
13	-6.50000e-01	4.152260e+04	
14	-7.00000e-01	4.321617e+04	
15	-7.50000e-01	4.503735e+04	
16	-8.00000e-01	4.700105e+04	
17	-8.50000e-01	4.912461e+04	
18	-9.00000e-01	5.142829e+04	
19	-9.50000e-01	5.393591e+04	
20	-1.00000e+00	5.667564e+04	
21	-1.05000e+00	5.968104e+04	
22	-1.10000e+00	6.299239e+04	
23	-1.15000e+00	6.665845e+04	
24	-1.20000e+00	7.073869e+04	
25	-1.25000e+00	7.530635e+04	
26	-1.30000e+00	8.045247e+04	
27	-1.35000e+00	8.629123e+04	
28	-1.40000e+00	9.296716e+04	
29	-1.45000e+00	1.006646e+05	
30	-1.50000e+00	1.096196e+05	
31	-1.55000e+00	1.201338e+05	
32	-1.60000e+00	1.325871e+05	
33	-1.65000e+00	1.474381e+05	
34	-1.70000e+00	1.651916e+05	
35	-1.75000e+00	1.862897e+05	
36	-1.80000e+00	2.108943e+05	
37	-1.85000e+00	2.386158e+05	
38	-1.90000e+00	2.684244e+05	
39	-1.95000e+00	2.989722e+05	
40	-2.00000e+00	3.291404e+05	
41	-2.05000e+00	3.583455e+05	
42	-2.10000e+00	3.864670e+05	
43	-2.15000e+00	4.136254e+05	
44	-2.20000e+00	4.400108e+05	
45	-2.25000e+00	4.658016e+05	
46	-2.30000e+00	4.911393e+05	
47	-2.35000e+00	5.161292e+05	
48	-2.40000e+00	5.408470e+05	
49	-2.45000e+00	5.653469e+05	
50	-2.50000e+00	5.896678e+05	
51	-2.55000e+00	6.138375e+05	
52	-2.60000e+00	6.378766e+05	
53	-2.65000e+00	6.618001e+05	
54	-2.70000e+00	6.856193e+05	

Index   v-sweep         rds             
--------------------------------------------------------------------------------
55	-2.75000e+00	7.093427e+05	
56	-2.80000e+00	7.329769e+05	
57	-2.85000e+00	7.565270e+05	
58	-2.90000e+00	7.799969e+05	
59	-2.95000e+00	8.033900e+05	
60	-3.00000e+00	8.267088e+05	
61	-3.05000e+00	8.499553e+05	
62	-3.10000e+00	8.731313e+05	
63	-3.15000e+00	8.962381e+05	
64	-3.20000e+00	9.192770e+05	
65	-3.25000e+00	9.422488e+05	
66	-3.30000e+00	9.651540e+05	
Reset re-loads circuit ***************************

Circuit: ***************************

Note: No ".plot", ".print", or ".fourier" lines; no simulations run
