
Note: Compatibility modes selected: hs

Warning: m=xx on .subckt line will override multiplier m hierarchy!


Circuit: ***************************

Doing analysis at TEMP = -40.000000 and TNOM = -40.000000


No. of Data Rows : 67
                          ***************************
                          DC transfer characteristic  Mon Jan  9 13:57:30  2023
--------------------------------------------------------------------------------
Index   v-sweep         rds             
--------------------------------------------------------------------------------
0	0.000000e+00	2.251701e+05	
1	-5.00000e-02	2.444797e+06	
2	-1.00000e-01	1.985844e+07	
3	-1.50000e-01	5.486548e+07	
4	-2.00000e-01	8.943218e+07	
5	-2.50000e-01	1.162715e+08	
6	-3.00000e-01	1.367116e+08	
7	-3.50000e-01	1.529635e+08	
8	-4.00000e-01	1.664998e+08	
9	-4.50000e-01	1.781885e+08	
10	-5.00000e-01	1.885444e+08	
11	-5.50000e-01	1.978862e+08	
12	-6.00000e-01	2.064213e+08	
13	-6.50000e-01	2.142918e+08	
14	-7.00000e-01	2.215999e+08	
15	-7.50000e-01	2.284218e+08	
16	-8.00000e-01	2.348168e+08	
17	-8.50000e-01	2.408321e+08	
18	-9.00000e-01	2.465062e+08	
19	-9.50000e-01	2.518716e+08	
20	-1.00000e+00	2.569557e+08	
21	-1.05000e+00	2.617821e+08	
22	-1.10000e+00	2.663713e+08	
23	-1.15000e+00	2.707417e+08	
24	-1.20000e+00	2.749091e+08	
25	-1.25000e+00	2.788881e+08	
26	-1.30000e+00	2.826915e+08	
27	-1.35000e+00	2.863309e+08	
28	-1.40000e+00	2.898169e+08	
29	-1.45000e+00	2.931591e+08	
30	-1.50000e+00	2.963662e+08	
31	-1.55000e+00	2.994462e+08	
32	-1.60000e+00	3.024062e+08	
33	-1.65000e+00	3.052529e+08	
34	-1.70000e+00	3.079919e+08	
35	-1.75000e+00	3.106286e+08	
36	-1.80000e+00	3.131672e+08	
37	-1.85000e+00	3.156113e+08	
38	-1.90000e+00	3.179635e+08	
39	-1.95000e+00	3.202254e+08	
40	-2.00000e+00	3.223975e+08	
41	-2.05000e+00	3.244788e+08	
42	-2.10000e+00	3.264668e+08	
43	-2.15000e+00	3.283571e+08	
44	-2.20000e+00	3.301435e+08	
45	-2.25000e+00	3.318174e+08	
46	-2.30000e+00	3.333680e+08	
47	-2.35000e+00	3.347817e+08	
48	-2.40000e+00	3.360420e+08	
49	-2.45000e+00	3.371298e+08	
50	-2.50000e+00	3.380227e+08	
51	-2.55000e+00	3.386955e+08	
52	-2.60000e+00	3.391203e+08	
53	-2.65000e+00	3.392663e+08	
54	-2.70000e+00	3.391007e+08	

Index   v-sweep         rds             
--------------------------------------------------------------------------------
55	-2.75000e+00	3.385890e+08	
56	-2.80000e+00	3.376957e+08	
57	-2.85000e+00	3.363851e+08	
58	-2.90000e+00	3.346224e+08	
59	-2.95000e+00	3.323748e+08	
60	-3.00000e+00	3.296128e+08	
61	-3.05000e+00	3.263115e+08	
62	-3.10000e+00	3.224516e+08	
63	-3.15000e+00	3.180211e+08	
64	-3.20000e+00	3.130160e+08	
65	-3.25000e+00	3.074413e+08	
66	-3.30000e+00	3.013114e+08	
Reset re-loads circuit ***************************

Circuit: ***************************

Doing analysis at TEMP = -40.000000 and TNOM = -40.000000


No. of Data Rows : 67
                          ***************************
                          DC transfer characteristic  Mon Jan  9 13:57:31  2023
--------------------------------------------------------------------------------
Index   v-sweep         rds             
--------------------------------------------------------------------------------
0	0.000000e+00	4.587392e+03	
1	-5.00000e-02	5.371286e+03	
2	-1.00000e-01	6.465632e+03	
3	-1.50000e-01	8.094303e+03	
4	-2.00000e-01	1.074648e+04	
5	-2.50000e-01	1.565209e+04	
6	-3.00000e-01	2.631592e+04	
7	-3.50000e-01	5.228060e+04	
8	-4.00000e-01	1.089837e+05	
9	-4.50000e-01	1.980711e+05	
10	-5.00000e-01	2.994857e+05	
11	-5.50000e-01	3.961312e+05	
12	-6.00000e-01	4.832360e+05	
13	-6.50000e-01	5.618693e+05	
14	-7.00000e-01	6.341611e+05	
15	-7.50000e-01	7.018751e+05	
16	-8.00000e-01	7.662484e+05	
17	-8.50000e-01	8.281133e+05	
18	-9.00000e-01	8.880289e+05	
19	-9.50000e-01	9.463763e+05	
20	-1.00000e+00	1.003421e+06	
21	-1.05000e+00	1.059350e+06	
22	-1.10000e+00	1.114303e+06	
23	-1.15000e+00	1.168382e+06	
24	-1.20000e+00	1.221663e+06	
25	-1.25000e+00	1.274209e+06	
26	-1.30000e+00	1.326067e+06	
27	-1.35000e+00	1.377276e+06	
28	-1.40000e+00	1.427868e+06	
29	-1.45000e+00	1.477870e+06	
30	-1.50000e+00	1.527304e+06	
31	-1.55000e+00	1.576191e+06	
32	-1.60000e+00	1.624547e+06	
33	-1.65000e+00	1.672387e+06	
34	-1.70000e+00	1.719725e+06	
35	-1.75000e+00	1.766573e+06	
36	-1.80000e+00	1.812942e+06	
37	-1.85000e+00	1.858840e+06	
38	-1.90000e+00	1.904274e+06	
39	-1.95000e+00	1.949250e+06	
40	-2.00000e+00	1.993769e+06	
41	-2.05000e+00	2.037828e+06	
42	-2.10000e+00	2.081418e+06	
43	-2.15000e+00	2.124520e+06	
44	-2.20000e+00	2.167107e+06	
45	-2.25000e+00	2.209133e+06	
46	-2.30000e+00	2.250535e+06	
47	-2.35000e+00	2.291225e+06	
48	-2.40000e+00	2.331083e+06	
49	-2.45000e+00	2.369954e+06	
50	-2.50000e+00	2.407637e+06	
51	-2.55000e+00	2.443880e+06	
52	-2.60000e+00	2.478372e+06	
53	-2.65000e+00	2.510739e+06	
54	-2.70000e+00	2.540534e+06	

Index   v-sweep         rds             
--------------------------------------------------------------------------------
55	-2.75000e+00	2.567238e+06	
56	-2.80000e+00	2.590260e+06	
57	-2.85000e+00	2.608941e+06	
58	-2.90000e+00	2.622565e+06	
59	-2.95000e+00	2.630378e+06	
60	-3.00000e+00	2.631609e+06	
61	-3.05000e+00	2.625507e+06	
62	-3.10000e+00	2.611376e+06	
63	-3.15000e+00	2.588622e+06	
64	-3.20000e+00	2.556798e+06	
65	-3.25000e+00	2.515650e+06	
66	-3.30000e+00	2.465149e+06	
Reset re-loads circuit ***************************

Circuit: ***************************

Doing analysis at TEMP = -40.000000 and TNOM = -40.000000


No. of Data Rows : 67
                          ***************************
                          DC transfer characteristic  Mon Jan  9 13:57:31  2023
--------------------------------------------------------------------------------
Index   v-sweep         rds             
--------------------------------------------------------------------------------
0	0.000000e+00	2.311440e+03	
1	-5.00000e-02	2.489530e+03	
2	-1.00000e-01	2.695847e+03	
3	-1.50000e-01	2.937653e+03	
4	-2.00000e-01	3.224921e+03	
5	-2.50000e-01	3.571710e+03	
6	-3.00000e-01	3.998463e+03	
7	-3.50000e-01	4.536015e+03	
8	-4.00000e-01	5.232903e+03	
9	-4.50000e-01	6.169472e+03	
10	-5.00000e-01	7.486557e+03	
11	-5.50000e-01	9.446326e+03	
12	-6.00000e-01	1.256068e+04	
13	-6.50000e-01	1.782270e+04	
14	-7.00000e-01	2.688225e+04	
15	-7.50000e-01	4.137655e+04	
16	-8.00000e-01	6.105113e+04	
17	-8.50000e-01	8.337151e+04	
18	-9.00000e-01	1.057713e+05	
19	-9.50000e-01	1.270491e+05	
20	-1.00000e+00	1.470132e+05	
21	-1.05000e+00	1.658519e+05	
22	-1.10000e+00	1.838144e+05	
23	-1.15000e+00	2.011114e+05	
24	-1.20000e+00	2.178998e+05	
25	-1.25000e+00	2.342927e+05	
26	-1.30000e+00	2.503703e+05	
27	-1.35000e+00	2.661900e+05	
28	-1.40000e+00	2.817935e+05	
29	-1.45000e+00	2.972113e+05	
30	-1.50000e+00	3.124664e+05	
31	-1.55000e+00	3.275759e+05	
32	-1.60000e+00	3.425534e+05	
33	-1.65000e+00	3.574091e+05	
34	-1.70000e+00	3.721514e+05	
35	-1.75000e+00	3.867870e+05	
36	-1.80000e+00	4.013212e+05	
37	-1.85000e+00	4.157586e+05	
38	-1.90000e+00	4.301029e+05	
39	-1.95000e+00	4.443573e+05	
40	-2.00000e+00	4.585245e+05	
41	-2.05000e+00	4.726067e+05	
42	-2.10000e+00	4.866059e+05	
43	-2.15000e+00	5.005238e+05	
44	-2.20000e+00	5.143616e+05	
45	-2.25000e+00	5.281201e+05	
46	-2.30000e+00	5.417994e+05	
47	-2.35000e+00	5.553987e+05	
48	-2.40000e+00	5.689162e+05	
49	-2.45000e+00	5.823481e+05	
50	-2.50000e+00	5.956879e+05	
51	-2.55000e+00	6.089261e+05	
52	-2.60000e+00	6.220484e+05	
53	-2.65000e+00	6.350344e+05	
54	-2.70000e+00	6.478561e+05	

Index   v-sweep         rds             
--------------------------------------------------------------------------------
55	-2.75000e+00	6.604760e+05	
56	-2.80000e+00	6.728445e+05	
57	-2.85000e+00	6.848978e+05	
58	-2.90000e+00	6.965551e+05	
59	-2.95000e+00	7.077162e+05	
60	-3.00000e+00	7.182593e+05	
61	-3.05000e+00	7.280386e+05	
62	-3.10000e+00	7.368835e+05	
63	-3.15000e+00	7.445986e+05	
64	-3.20000e+00	7.509649e+05	
65	-3.25000e+00	7.557437e+05	
66	-3.30000e+00	7.586826e+05	
Reset re-loads circuit ***************************

Circuit: ***************************

Doing analysis at TEMP = -40.000000 and TNOM = -40.000000


No. of Data Rows : 67
                          ***************************
                          DC transfer characteristic  Mon Jan  9 13:57:31  2023
--------------------------------------------------------------------------------
Index   v-sweep         rds             
--------------------------------------------------------------------------------
0	0.000000e+00	1.636917e+03	
1	-5.00000e-02	1.718195e+03	
2	-1.00000e-01	1.807395e+03	
3	-1.50000e-01	1.905733e+03	
4	-2.00000e-01	2.014687e+03	
5	-2.50000e-01	2.136070e+03	
6	-3.00000e-01	2.272131e+03	
7	-3.50000e-01	2.425696e+03	
8	-4.00000e-01	2.600360e+03	
9	-4.50000e-01	2.800771e+03	
10	-5.00000e-01	3.033037e+03	
11	-5.50000e-01	3.305342e+03	
12	-6.00000e-01	3.628890e+03	
13	-6.50000e-01	4.019402e+03	
14	-7.00000e-01	4.499559e+03	
15	-7.50000e-01	5.103107e+03	
16	-8.00000e-01	5.881971e+03	
17	-8.50000e-01	6.918773e+03	
18	-9.00000e-01	8.348666e+03	
19	-9.50000e-01	1.039428e+04	
20	-1.00000e+00	1.340614e+04	
21	-1.05000e+00	1.785343e+04	
22	-1.10000e+00	2.413689e+04	
23	-1.15000e+00	3.221795e+04	
24	-1.20000e+00	4.148875e+04	
25	-1.25000e+00	5.116896e+04	
26	-1.30000e+00	6.073160e+04	
27	-1.35000e+00	6.996527e+04	
28	-1.40000e+00	7.884409e+04	
29	-1.45000e+00	8.741279e+04	
30	-1.50000e+00	9.572991e+04	
31	-1.55000e+00	1.038476e+05	
32	-1.60000e+00	1.118069e+05	
33	-1.65000e+00	1.196392e+05	
34	-1.70000e+00	1.273675e+05	
35	-1.75000e+00	1.350092e+05	
36	-1.80000e+00	1.425771e+05	
37	-1.85000e+00	1.500811e+05	
38	-1.90000e+00	1.575286e+05	
39	-1.95000e+00	1.649253e+05	
40	-2.00000e+00	1.722758e+05	
41	-2.05000e+00	1.795837e+05	
42	-2.10000e+00	1.868517e+05	
43	-2.15000e+00	1.940823e+05	
44	-2.20000e+00	2.012773e+05	
45	-2.25000e+00	2.084382e+05	
46	-2.30000e+00	2.155665e+05	
47	-2.35000e+00	2.226632e+05	
48	-2.40000e+00	2.297291e+05	
49	-2.45000e+00	2.367652e+05	
50	-2.50000e+00	2.437720e+05	
51	-2.55000e+00	2.507500e+05	
52	-2.60000e+00	2.576995e+05	
53	-2.65000e+00	2.646204e+05	
54	-2.70000e+00	2.715125e+05	

Index   v-sweep         rds             
--------------------------------------------------------------------------------
55	-2.75000e+00	2.783746e+05	
56	-2.80000e+00	2.852051e+05	
57	-2.85000e+00	2.920011e+05	
58	-2.90000e+00	2.987581e+05	
59	-2.95000e+00	3.054695e+05	
60	-3.00000e+00	3.121257e+05	
61	-3.05000e+00	3.187138e+05	
62	-3.10000e+00	3.252157e+05	
63	-3.15000e+00	3.316079e+05	
64	-3.20000e+00	3.378596e+05	
65	-3.25000e+00	3.439315e+05	
66	-3.30000e+00	3.497747e+05	
Reset re-loads circuit ***************************

Circuit: ***************************

Doing analysis at TEMP = -40.000000 and TNOM = -40.000000


No. of Data Rows : 67
                          ***************************
                          DC transfer characteristic  Mon Jan  9 13:57:31  2023
--------------------------------------------------------------------------------
Index   v-sweep         rds             
--------------------------------------------------------------------------------
0	0.000000e+00	1.321370e+03	
1	-5.00000e-02	1.369584e+03	
2	-1.00000e-01	1.421150e+03	
3	-1.50000e-01	1.476431e+03	
4	-2.00000e-01	1.535841e+03	
5	-2.50000e-01	1.599861e+03	
6	-3.00000e-01	1.669049e+03	
7	-3.50000e-01	1.744054e+03	
8	-4.00000e-01	1.825641e+03	
9	-4.50000e-01	1.914716e+03	
10	-5.00000e-01	2.012356e+03	
11	-5.50000e-01	2.119856e+03	
12	-6.00000e-01	2.238783e+03	
13	-6.50000e-01	2.371056e+03	
14	-7.00000e-01	2.519044e+03	
15	-7.50000e-01	2.685710e+03	
16	-8.00000e-01	2.874802e+03	
17	-8.50000e-01	3.091134e+03	
18	-9.00000e-01	3.340979e+03	
19	-9.50000e-01	3.632655e+03	
20	-1.00000e+00	3.977403e+03	
21	-1.05000e+00	4.390727e+03	
22	-1.10000e+00	4.894473e+03	
23	-1.15000e+00	5.520115e+03	
24	-1.20000e+00	6.313876e+03	
25	-1.25000e+00	7.344455e+03	
26	-1.30000e+00	8.713263e+03	
27	-1.35000e+00	1.056324e+04	
28	-1.40000e+00	1.307166e+04	
29	-1.45000e+00	1.639913e+04	
30	-1.50000e+00	2.058686e+04	
31	-1.55000e+00	2.548037e+04	
32	-1.60000e+00	3.078902e+04	
33	-1.65000e+00	3.623522e+04	
34	-1.70000e+00	4.164504e+04	
35	-1.75000e+00	4.694401e+04	
36	-1.80000e+00	5.211654e+04	
37	-1.85000e+00	5.717253e+04	
38	-1.90000e+00	6.212936e+04	
39	-1.95000e+00	6.700431e+04	
40	-2.00000e+00	7.181203e+04	
41	-2.05000e+00	7.656423e+04	
42	-2.10000e+00	8.127001e+04	
43	-2.15000e+00	8.593639e+04	
44	-2.20000e+00	9.056877e+04	
45	-2.25000e+00	9.517134e+04	
46	-2.30000e+00	9.974735e+04	
47	-2.35000e+00	1.042994e+05	
48	-2.40000e+00	1.088294e+05	
49	-2.45000e+00	1.133391e+05	
50	-2.50000e+00	1.178298e+05	
51	-2.55000e+00	1.223026e+05	
52	-2.60000e+00	1.267583e+05	
53	-2.65000e+00	1.311976e+05	
54	-2.70000e+00	1.356213e+05	

Index   v-sweep         rds             
--------------------------------------------------------------------------------
55	-2.75000e+00	1.400297e+05	
56	-2.80000e+00	1.444234e+05	
57	-2.85000e+00	1.488026e+05	
58	-2.90000e+00	1.531677e+05	
59	-2.95000e+00	1.575188e+05	
60	-3.00000e+00	1.618560e+05	
61	-3.05000e+00	1.661790e+05	
62	-3.10000e+00	1.704875e+05	
63	-3.15000e+00	1.747805e+05	
64	-3.20000e+00	1.790567e+05	
65	-3.25000e+00	1.833137e+05	
66	-3.30000e+00	1.875481e+05	
Reset re-loads circuit ***************************

Circuit: ***************************

Doing analysis at TEMP = -40.000000 and TNOM = -40.000000


No. of Data Rows : 67
                          ***************************
                          DC transfer characteristic  Mon Jan  9 13:57:31  2023
--------------------------------------------------------------------------------
Index   v-sweep         rds             
--------------------------------------------------------------------------------
0	0.000000e+00	1.143107e+03	
1	-5.00000e-02	1.175912e+03	
2	-1.00000e-01	1.210472e+03	
3	-1.50000e-01	1.246931e+03	
4	-2.00000e-01	1.285450e+03	
5	-2.50000e-01	1.326207e+03	
6	-3.00000e-01	1.369404e+03	
7	-3.50000e-01	1.415267e+03	
8	-4.00000e-01	1.464048e+03	
9	-4.50000e-01	1.516037e+03	
10	-5.00000e-01	1.571558e+03	
11	-5.50000e-01	1.630986e+03	
12	-6.00000e-01	1.694745e+03	
13	-6.50000e-01	1.763327e+03	
14	-7.00000e-01	1.837299e+03	
15	-7.50000e-01	1.917321e+03	
16	-8.00000e-01	2.004166e+03	
17	-8.50000e-01	2.098743e+03	
18	-9.00000e-01	2.202128e+03	
19	-9.50000e-01	2.315609e+03	
20	-1.00000e+00	2.440732e+03	
21	-1.05000e+00	2.579377e+03	
22	-1.10000e+00	2.733847e+03	
23	-1.15000e+00	2.906994e+03	
24	-1.20000e+00	3.102386e+03	
25	-1.25000e+00	3.324550e+03	
26	-1.30000e+00	3.579297e+03	
27	-1.35000e+00	3.874199e+03	
28	-1.40000e+00	4.219267e+03	
29	-1.45000e+00	4.627947e+03	
30	-1.50000e+00	5.118561e+03	
31	-1.55000e+00	5.716391e+03	
32	-1.60000e+00	6.456527e+03	
33	-1.65000e+00	7.387353e+03	
34	-1.70000e+00	8.573477e+03	
35	-1.75000e+00	1.009448e+04	
36	-1.80000e+00	1.203223e+04	
37	-1.85000e+00	1.444040e+04	
38	-1.90000e+00	1.730563e+04	
39	-1.95000e+00	2.053421e+04	
40	-2.00000e+00	2.398737e+04	
41	-2.05000e+00	2.753693e+04	
42	-2.10000e+00	3.109716e+04	
43	-2.15000e+00	3.462444e+04	
44	-2.20000e+00	3.810294e+04	
45	-2.25000e+00	4.153116e+04	
46	-2.30000e+00	4.491348e+04	
47	-2.35000e+00	4.825598e+04	
48	-2.40000e+00	5.156455e+04	
49	-2.45000e+00	5.484429e+04	
50	-2.50000e+00	5.809939e+04	
51	-2.55000e+00	6.133322e+04	
52	-2.60000e+00	6.454845e+04	
53	-2.65000e+00	6.774720e+04	
54	-2.70000e+00	7.093116e+04	

Index   v-sweep         rds             
--------------------------------------------------------------------------------
55	-2.75000e+00	7.410167e+04	
56	-2.80000e+00	7.725982e+04	
57	-2.85000e+00	8.040647e+04	
58	-2.90000e+00	8.354235e+04	
59	-2.95000e+00	8.666803e+04	
60	-3.00000e+00	8.978401e+04	
61	-3.05000e+00	9.289069e+04	
62	-3.10000e+00	9.598840e+04	
63	-3.15000e+00	9.907743e+04	
64	-3.20000e+00	1.021580e+05	
65	-3.25000e+00	1.052303e+05	
66	-3.30000e+00	1.082945e+05	
Reset re-loads circuit ***************************

Circuit: ***************************

Note: No ".plot", ".print", or ".fourier" lines; no simulations run
