
Note: Compatibility modes selected: hs

Warning: m=xx on .subckt line will override multiplier m hierarchy!


Circuit: ***************************

Doing analysis at TEMP = 25.000000 and TNOM = 25.000000


No. of Data Rows : 67
                          ***************************
                          DC transfer characteristic  Mon Jan  9 13:57:30  2023
--------------------------------------------------------------------------------
Index   v-sweep         rds             
--------------------------------------------------------------------------------
0	0.000000e+00	5.622039e+05	
1	-5.00000e-02	1.632768e+06	
2	-1.00000e-01	1.023618e+07	
3	-1.50000e-01	4.575566e+07	
4	-2.00000e-01	1.046902e+08	
5	-2.50000e-01	1.617639e+08	
6	-3.00000e-01	2.068744e+08	
7	-3.50000e-01	2.417707e+08	
8	-4.00000e-01	2.698815e+08	
9	-4.50000e-01	2.936441e+08	
10	-5.00000e-01	3.145366e+08	
11	-5.50000e-01	3.334378e+08	
12	-6.00000e-01	3.508817e+08	
13	-6.50000e-01	3.672048e+08	
14	-7.00000e-01	3.826275e+08	
15	-7.50000e-01	3.973003e+08	
16	-8.00000e-01	4.113295e+08	
17	-8.50000e-01	4.247935e+08	
18	-9.00000e-01	4.377518e+08	
19	-9.50000e-01	4.502508e+08	
20	-1.00000e+00	4.623280e+08	
21	-1.05000e+00	4.740143e+08	
22	-1.10000e+00	4.853359e+08	
23	-1.15000e+00	4.963150e+08	
24	-1.20000e+00	5.069711e+08	
25	-1.25000e+00	5.173216e+08	
26	-1.30000e+00	5.273818e+08	
27	-1.35000e+00	5.371658e+08	
28	-1.40000e+00	5.466861e+08	
29	-1.45000e+00	5.559546e+08	
30	-1.50000e+00	5.649817e+08	
31	-1.55000e+00	5.737775e+08	
32	-1.60000e+00	5.823507e+08	
33	-1.65000e+00	5.907097e+08	
34	-1.70000e+00	5.988617e+08	
35	-1.75000e+00	6.068129e+08	
36	-1.80000e+00	6.145684e+08	
37	-1.85000e+00	6.221319e+08	
38	-1.90000e+00	6.295052e+08	
39	-1.95000e+00	6.366880e+08	
40	-2.00000e+00	6.436773e+08	
41	-2.05000e+00	6.504669e+08	
42	-2.10000e+00	6.570467e+08	
43	-2.15000e+00	6.634018e+08	
44	-2.20000e+00	6.695121e+08	
45	-2.25000e+00	6.753512e+08	
46	-2.30000e+00	6.808857e+08	
47	-2.35000e+00	6.860741e+08	
48	-2.40000e+00	6.908670e+08	
49	-2.45000e+00	6.952053e+08	
50	-2.50000e+00	6.990211e+08	
51	-2.55000e+00	7.022368e+08	
52	-2.60000e+00	7.047656e+08	
53	-2.65000e+00	7.065128e+08	
54	-2.70000e+00	7.073765e+08	

Index   v-sweep         rds             
--------------------------------------------------------------------------------
55	-2.75000e+00	7.072499e+08	
56	-2.80000e+00	7.060238e+08	
57	-2.85000e+00	7.035901e+08	
58	-2.90000e+00	6.998452e+08	
59	-2.95000e+00	6.946950e+08	
60	-3.00000e+00	6.880593e+08	
61	-3.05000e+00	6.798767e+08	
62	-3.10000e+00	6.701089e+08	
63	-3.15000e+00	6.587452e+08	
64	-3.20000e+00	6.458047e+08	
65	-3.25000e+00	6.313389e+08	
66	-3.30000e+00	6.154311e+08	
Reset re-loads circuit ***************************

Circuit: ***************************

Doing analysis at TEMP = 25.000000 and TNOM = 25.000000


No. of Data Rows : 67
                          ***************************
                          DC transfer characteristic  Mon Jan  9 13:57:30  2023
--------------------------------------------------------------------------------
Index   v-sweep         rds             
--------------------------------------------------------------------------------
0	0.000000e+00	5.479090e+04	
1	-5.00000e-02	6.256863e+04	
2	-1.00000e-01	7.284082e+04	
3	-1.50000e-01	8.701393e+04	
4	-2.00000e-01	1.077509e+05	
5	-2.50000e-01	1.406441e+05	
6	-3.00000e-01	1.989631e+05	
7	-3.50000e-01	3.178144e+05	
8	-4.00000e-01	5.882087e+05	
9	-4.50000e-01	1.170052e+06	
10	-5.00000e-01	2.126385e+06	
11	-5.50000e-01	3.261775e+06	
12	-6.00000e-01	4.341952e+06	
13	-6.50000e-01	5.280658e+06	
14	-7.00000e-01	6.088925e+06	
15	-7.50000e-01	6.800836e+06	
16	-8.00000e-01	7.445825e+06	
17	-8.50000e-01	8.044491e+06	
18	-9.00000e-01	8.610428e+06	
19	-9.50000e-01	9.152538e+06	
20	-1.00000e+00	9.676712e+06	
21	-1.05000e+00	1.018692e+07	
22	-1.10000e+00	1.068592e+07	
23	-1.15000e+00	1.117562e+07	
24	-1.20000e+00	1.165743e+07	
25	-1.25000e+00	1.213236e+07	
26	-1.30000e+00	1.260118e+07	
27	-1.35000e+00	1.306448e+07	
28	-1.40000e+00	1.352272e+07	
29	-1.45000e+00	1.397624e+07	
30	-1.50000e+00	1.442535e+07	
31	-1.55000e+00	1.487027e+07	
32	-1.60000e+00	1.531120e+07	
33	-1.65000e+00	1.574830e+07	
34	-1.70000e+00	1.618171e+07	
35	-1.75000e+00	1.661155e+07	
36	-1.80000e+00	1.703792e+07	
37	-1.85000e+00	1.746090e+07	
38	-1.90000e+00	1.788057e+07	
39	-1.95000e+00	1.829697e+07	
40	-2.00000e+00	1.871013e+07	
41	-2.05000e+00	1.912007e+07	
42	-2.10000e+00	1.952674e+07	
43	-2.15000e+00	1.993006e+07	
44	-2.20000e+00	2.032987e+07	
45	-2.25000e+00	2.072591e+07	
46	-2.30000e+00	2.111781e+07	
47	-2.35000e+00	2.150501e+07	
48	-2.40000e+00	2.188676e+07	
49	-2.45000e+00	2.226205e+07	
50	-2.50000e+00	2.262953e+07	
51	-2.55000e+00	2.298748e+07	
52	-2.60000e+00	2.333375e+07	
53	-2.65000e+00	2.366565e+07	
54	-2.70000e+00	2.397993e+07	

Index   v-sweep         rds             
--------------------------------------------------------------------------------
55	-2.75000e+00	2.427271e+07	
56	-2.80000e+00	2.453944e+07	
57	-2.85000e+00	2.477490e+07	
58	-2.90000e+00	2.497323e+07	
59	-2.95000e+00	2.512798e+07	
60	-3.00000e+00	2.523226e+07	
61	-3.05000e+00	2.527892e+07	
62	-3.10000e+00	2.526080e+07	
63	-3.15000e+00	2.517109e+07	
64	-3.20000e+00	2.500367e+07	
65	-3.25000e+00	2.475354e+07	
66	-3.30000e+00	2.441723e+07	
Reset re-loads circuit ***************************

Circuit: ***************************

Doing analysis at TEMP = 25.000000 and TNOM = 25.000000


No. of Data Rows : 67
                          ***************************
                          DC transfer characteristic  Mon Jan  9 13:57:30  2023
--------------------------------------------------------------------------------
Index   v-sweep         rds             
--------------------------------------------------------------------------------
0	0.000000e+00	2.951035e+04	
1	-5.00000e-02	3.157474e+04	
2	-1.00000e-01	3.393706e+04	
3	-1.50000e-01	3.666664e+04	
4	-2.00000e-01	3.985598e+04	
5	-2.50000e-01	4.363131e+04	
6	-3.00000e-01	4.816923e+04	
7	-3.50000e-01	5.372430e+04	
8	-4.00000e-01	6.067618e+04	
9	-4.50000e-01	6.961459e+04	
10	-5.00000e-01	8.149961e+04	
11	-5.50000e-01	9.798039e+04	
12	-6.00000e-01	1.220559e+05	
13	-6.50000e-01	1.594534e+05	
14	-7.00000e-01	2.212162e+05	
15	-7.50000e-01	3.265699e+05	
16	-8.00000e-01	4.986114e+05	
17	-8.50000e-01	7.425270e+05	
18	-9.00000e-01	1.028556e+06	
19	-9.50000e-01	1.315092e+06	
20	-1.00000e+00	1.578543e+06	
21	-1.05000e+00	1.814695e+06	
22	-1.10000e+00	2.027839e+06	
23	-1.15000e+00	2.223708e+06	
24	-1.20000e+00	2.407075e+06	
25	-1.25000e+00	2.581410e+06	
26	-1.30000e+00	2.749128e+06	
27	-1.35000e+00	2.911895e+06	
28	-1.40000e+00	3.070863e+06	
29	-1.45000e+00	3.226839e+06	
30	-1.50000e+00	3.380401e+06	
31	-1.55000e+00	3.531965e+06	
32	-1.60000e+00	3.681838e+06	
33	-1.65000e+00	3.830251e+06	
34	-1.70000e+00	3.977378e+06	
35	-1.75000e+00	4.123353e+06	
36	-1.80000e+00	4.268282e+06	
37	-1.85000e+00	4.412248e+06	
38	-1.90000e+00	4.555318e+06	
39	-1.95000e+00	4.697546e+06	
40	-2.00000e+00	4.838976e+06	
41	-2.05000e+00	4.979644e+06	
42	-2.10000e+00	5.119582e+06	
43	-2.15000e+00	5.258814e+06	
44	-2.20000e+00	5.397362e+06	
45	-2.25000e+00	5.535240e+06	
46	-2.30000e+00	5.672461e+06	
47	-2.35000e+00	5.809029e+06	
48	-2.40000e+00	5.944941e+06	
49	-2.45000e+00	6.080182e+06	
50	-2.50000e+00	6.214722e+06	
51	-2.55000e+00	6.348507e+06	
52	-2.60000e+00	6.481454e+06	
53	-2.65000e+00	6.613441e+06	
54	-2.70000e+00	6.744292e+06	

Index   v-sweep         rds             
--------------------------------------------------------------------------------
55	-2.75000e+00	6.873760e+06	
56	-2.80000e+00	7.001518e+06	
57	-2.85000e+00	7.127127e+06	
58	-2.90000e+00	7.250023e+06	
59	-2.95000e+00	7.369489e+06	
60	-3.00000e+00	7.484629e+06	
61	-3.05000e+00	7.594349e+06	
62	-3.10000e+00	7.697331e+06	
63	-3.15000e+00	7.792022e+06	
64	-3.20000e+00	7.876623e+06	
65	-3.25000e+00	7.949099e+06	
66	-3.30000e+00	8.007198e+06	
Reset re-loads circuit ***************************

Circuit: ***************************

Doing analysis at TEMP = 25.000000 and TNOM = 25.000000


No. of Data Rows : 67
                          ***************************
                          DC transfer characteristic  Mon Jan  9 13:57:30  2023
--------------------------------------------------------------------------------
Index   v-sweep         rds             
--------------------------------------------------------------------------------
0	0.000000e+00	2.113334e+04	
1	-5.00000e-02	2.210892e+04	
2	-1.00000e-01	2.317385e+04	
3	-1.50000e-01	2.434099e+04	
4	-2.00000e-01	2.562576e+04	
5	-2.50000e-01	2.704688e+04	
6	-3.00000e-01	2.862720e+04	
7	-3.50000e-01	3.039500e+04	
8	-4.00000e-01	3.238564e+04	
9	-4.50000e-01	3.464391e+04	
10	-5.00000e-01	3.722740e+04	
11	-5.50000e-01	4.021134e+04	
12	-6.00000e-01	4.369585e+04	
13	-6.50000e-01	4.781692e+04	
14	-7.00000e-01	5.276362e+04	
15	-7.50000e-01	5.880587e+04	
16	-8.00000e-01	6.634052e+04	
17	-8.50000e-01	7.597007e+04	
18	-9.00000e-01	8.864027e+04	
19	-9.50000e-01	1.058811e+05	
20	-1.00000e+00	1.302094e+05	
21	-1.05000e+00	1.656855e+05	
22	-1.10000e+00	2.182214e+05	
23	-1.15000e+00	2.942213e+05	
24	-1.20000e+00	3.959760e+05	
25	-1.25000e+00	5.169664e+05	
26	-1.30000e+00	6.445665e+05	
27	-1.35000e+00	7.681547e+05	
28	-1.40000e+00	8.830227e+05	
29	-1.45000e+00	9.888317e+05	
30	-1.50000e+00	1.087029e+06	
31	-1.55000e+00	1.179347e+06	
32	-1.60000e+00	1.267260e+06	
33	-1.65000e+00	1.351886e+06	
34	-1.70000e+00	1.434037e+06	
35	-1.75000e+00	1.514294e+06	
36	-1.80000e+00	1.593074e+06	
37	-1.85000e+00	1.670677e+06	
38	-1.90000e+00	1.747324e+06	
39	-1.95000e+00	1.823177e+06	
40	-2.00000e+00	1.898357e+06	
41	-2.05000e+00	1.972957e+06	
42	-2.10000e+00	2.047049e+06	
43	-2.15000e+00	2.120687e+06	
44	-2.20000e+00	2.193915e+06	
45	-2.25000e+00	2.266768e+06	
46	-2.30000e+00	2.339274e+06	
47	-2.35000e+00	2.411456e+06	
48	-2.40000e+00	2.483332e+06	
49	-2.45000e+00	2.554917e+06	
50	-2.50000e+00	2.626224e+06	
51	-2.55000e+00	2.697264e+06	
52	-2.60000e+00	2.768044e+06	
53	-2.65000e+00	2.838571e+06	
54	-2.70000e+00	2.908847e+06	

Index   v-sweep         rds             
--------------------------------------------------------------------------------
55	-2.75000e+00	2.978873e+06	
56	-2.80000e+00	3.048641e+06	
57	-2.85000e+00	3.118141e+06	
58	-2.90000e+00	3.187349e+06	
59	-2.95000e+00	3.256231e+06	
60	-3.00000e+00	3.324732e+06	
61	-3.05000e+00	3.392773e+06	
62	-3.10000e+00	3.460246e+06	
63	-3.15000e+00	3.526999e+06	
64	-3.20000e+00	3.592831e+06	
65	-3.25000e+00	3.657479e+06	
66	-3.30000e+00	3.720604e+06	
Reset re-loads circuit ***************************

Circuit: ***************************

Doing analysis at TEMP = 25.000000 and TNOM = 25.000000


No. of Data Rows : 67
                          ***************************
                          DC transfer characteristic  Mon Jan  9 13:57:30  2023
--------------------------------------------------------------------------------
Index   v-sweep         rds             
--------------------------------------------------------------------------------
0	0.000000e+00	1.701486e+04	
1	-5.00000e-02	1.759769e+04	
2	-1.00000e-01	1.821914e+04	
3	-1.50000e-01	1.888317e+04	
4	-2.00000e-01	1.959431e+04	
5	-2.50000e-01	2.035774e+04	
6	-3.00000e-01	2.117947e+04	
7	-3.50000e-01	2.206640e+04	
8	-4.00000e-01	2.302662e+04	
9	-4.50000e-01	2.406958e+04	
10	-5.00000e-01	2.520645e+04	
11	-5.50000e-01	2.645047e+04	
12	-6.00000e-01	2.781750e+04	
13	-6.50000e-01	2.932668e+04	
14	-7.00000e-01	3.100132e+04	
15	-7.50000e-01	3.287009e+04	
16	-8.00000e-01	3.496864e+04	
17	-8.50000e-01	3.734183e+04	
18	-9.00000e-01	4.004689e+04	
19	-9.50000e-01	4.315787e+04	
20	-1.00000e+00	4.677219e+04	
21	-1.05000e+00	5.102032e+04	
22	-1.10000e+00	5.608043e+04	
23	-1.15000e+00	6.220104e+04	
24	-1.20000e+00	6.973640e+04	
25	-1.25000e+00	7.920222e+04	
26	-1.30000e+00	9.136186e+04	
27	-1.35000e+00	1.073512e+05	
28	-1.40000e+00	1.288260e+05	
29	-1.45000e+00	1.580267e+05	
30	-1.50000e+00	1.974578e+05	
31	-1.55000e+00	2.487604e+05	
32	-1.60000e+00	3.110296e+05	
33	-1.65000e+00	3.802878e+05	
34	-1.70000e+00	4.513586e+05	
35	-1.75000e+00	5.203656e+05	
36	-1.80000e+00	5.855872e+05	
37	-1.85000e+00	6.468513e+05	
38	-1.90000e+00	7.046817e+05	
39	-1.95000e+00	7.597642e+05	
40	-2.00000e+00	8.127204e+05	
41	-2.05000e+00	8.640468e+05	
42	-2.10000e+00	9.141190e+05	
43	-2.15000e+00	9.632158e+05	
44	-2.20000e+00	1.011542e+06	
45	-2.25000e+00	1.059251e+06	
46	-2.30000e+00	1.106453e+06	
47	-2.35000e+00	1.153236e+06	
48	-2.40000e+00	1.199662e+06	
49	-2.45000e+00	1.245781e+06	
50	-2.50000e+00	1.291633e+06	
51	-2.55000e+00	1.337246e+06	
52	-2.60000e+00	1.382645e+06	
53	-2.65000e+00	1.427849e+06	
54	-2.70000e+00	1.472874e+06	

Index   v-sweep         rds             
--------------------------------------------------------------------------------
55	-2.75000e+00	1.517731e+06	
56	-2.80000e+00	1.562432e+06	
57	-2.85000e+00	1.606985e+06	
58	-2.90000e+00	1.651396e+06	
59	-2.95000e+00	1.695672e+06	
60	-3.00000e+00	1.739816e+06	
61	-3.05000e+00	1.783832e+06	
62	-3.10000e+00	1.827720e+06	
63	-3.15000e+00	1.871480e+06	
64	-3.20000e+00	1.915106e+06	
65	-3.25000e+00	1.958589e+06	
66	-3.30000e+00	2.001913e+06	
Reset re-loads circuit ***************************

Circuit: ***************************

Doing analysis at TEMP = 25.000000 and TNOM = 25.000000


No. of Data Rows : 67
                          ***************************
                          DC transfer characteristic  Mon Jan  9 13:57:30  2023
--------------------------------------------------------------------------------
Index   v-sweep         rds             
--------------------------------------------------------------------------------
0	0.000000e+00	1.460066e+04	
1	-5.00000e-02	1.499598e+04	
2	-1.00000e-01	1.541159e+04	
3	-1.50000e-01	1.584911e+04	
4	-2.00000e-01	1.631031e+04	
5	-2.50000e-01	1.679716e+04	
6	-3.00000e-01	1.731187e+04	
7	-3.50000e-01	1.785689e+04	
8	-4.00000e-01	1.843498e+04	
9	-4.50000e-01	1.904924e+04	
10	-5.00000e-01	1.970316e+04	
11	-5.50000e-01	2.040072e+04	
12	-6.00000e-01	2.114643e+04	
13	-6.50000e-01	2.194544e+04	
14	-7.00000e-01	2.280366e+04	
15	-7.50000e-01	2.372793e+04	
16	-8.00000e-01	2.472616e+04	
17	-8.50000e-01	2.580757e+04	
18	-9.00000e-01	2.698298e+04	
19	-9.50000e-01	2.826517e+04	
20	-1.00000e+00	2.966934e+04	
21	-1.05000e+00	3.121367e+04	
22	-1.10000e+00	3.292016e+04	
23	-1.15000e+00	3.481559e+04	
24	-1.20000e+00	3.693294e+04	
25	-1.25000e+00	3.931322e+04	
26	-1.30000e+00	4.200805e+04	
27	-1.35000e+00	4.508319e+04	
28	-1.40000e+00	4.862358e+04	
29	-1.45000e+00	5.274056e+04	
30	-1.50000e+00	5.758222e+04	
31	-1.55000e+00	6.334865e+04	
32	-1.60000e+00	7.031401e+04	
33	-1.65000e+00	7.885812e+04	
34	-1.70000e+00	8.950889e+04	
35	-1.75000e+00	1.029913e+05	
36	-1.80000e+00	1.202601e+05	
37	-1.85000e+00	1.424503e+05	
38	-1.90000e+00	1.706283e+05	
39	-1.95000e+00	2.052604e+05	
40	-2.00000e+00	2.456179e+05	
41	-2.05000e+00	2.897162e+05	
42	-2.10000e+00	3.350866e+05	
43	-2.15000e+00	3.797626e+05	
44	-2.20000e+00	4.227065e+05	
45	-2.25000e+00	4.636461e+05	
46	-2.30000e+00	5.027275e+05	
47	-2.35000e+00	5.402476e+05	
48	-2.40000e+00	5.765150e+05	
49	-2.45000e+00	6.117962e+05	
50	-2.50000e+00	6.463037e+05	
51	-2.55000e+00	6.802013e+05	
52	-2.60000e+00	7.136129e+05	
53	-2.65000e+00	7.466322e+05	
54	-2.70000e+00	7.793303e+05	

Index   v-sweep         rds             
--------------------------------------------------------------------------------
55	-2.75000e+00	8.117611e+05	
56	-2.80000e+00	8.439661e+05	
57	-2.85000e+00	8.759774e+05	
58	-2.90000e+00	9.078199e+05	
59	-2.95000e+00	9.395135e+05	
60	-3.00000e+00	9.710739e+05	
61	-3.05000e+00	1.002514e+06	
62	-3.10000e+00	1.033843e+06	
63	-3.15000e+00	1.065070e+06	
64	-3.20000e+00	1.096202e+06	
65	-3.25000e+00	1.127244e+06	
66	-3.30000e+00	1.158202e+06	
Reset re-loads circuit ***************************

Circuit: ***************************

Note: No ".plot", ".print", or ".fourier" lines; no simulations run
