
Note: Compatibility modes selected: hs

Warning: m=xx on .subckt line will override multiplier m hierarchy!


Circuit: ***************************

Doing analysis at TEMP = 125.000000 and TNOM = 125.000000


No. of Data Rows : 67
                          ***************************
                          DC transfer characteristic  Mon Jan  9 13:57:32  2023
--------------------------------------------------------------------------------
Index   v-sweep         rds             
--------------------------------------------------------------------------------
0	0.000000e+00	5.017785e+03	
1	-5.00000e-02	6.616757e+03	
2	-1.00000e-01	9.555347e+03	
3	-1.50000e-01	1.614816e+04	
4	-2.00000e-01	3.390431e+04	
5	-2.50000e-01	7.206952e+04	
6	-3.00000e-01	1.127213e+05	
7	-3.50000e-01	1.384726e+05	
8	-4.00000e-01	1.534934e+05	
9	-4.50000e-01	1.632562e+05	
10	-5.00000e-01	1.703856e+05	
11	-5.50000e-01	1.760299e+05	
12	-6.00000e-01	1.807258e+05	
13	-6.50000e-01	1.847509e+05	
14	-7.00000e-01	1.882643e+05	
15	-7.50000e-01	1.913659e+05	
16	-8.00000e-01	1.941240e+05	
17	-8.50000e-01	1.965881e+05	
18	-9.00000e-01	1.987963e+05	
19	-9.50000e-01	2.007786e+05	
20	-1.00000e+00	2.025601e+05	
21	-1.05000e+00	2.041614e+05	
22	-1.10000e+00	2.056003e+05	
23	-1.15000e+00	2.068921e+05	
24	-1.20000e+00	2.080502e+05	
25	-1.25000e+00	2.090865e+05	
26	-1.30000e+00	2.100114e+05	
27	-1.35000e+00	2.108342e+05	
28	-1.40000e+00	2.115632e+05	
29	-1.45000e+00	2.122059e+05	
30	-1.50000e+00	2.127691e+05	
31	-1.55000e+00	2.132590e+05	
32	-1.60000e+00	2.136810e+05	
33	-1.65000e+00	2.140402e+05	
34	-1.70000e+00	2.143411e+05	
35	-1.75000e+00	2.145880e+05	
36	-1.80000e+00	2.147846e+05	
37	-1.85000e+00	2.149342e+05	
38	-1.90000e+00	2.150399e+05	
39	-1.95000e+00	2.151043e+05	
40	-2.00000e+00	2.151298e+05	
41	-2.05000e+00	2.151181e+05	
42	-2.10000e+00	2.150708e+05	
43	-2.15000e+00	2.149887e+05	
44	-2.20000e+00	2.148723e+05	
45	-2.25000e+00	2.147213e+05	
46	-2.30000e+00	2.145351e+05	
47	-2.35000e+00	2.143118e+05	
48	-2.40000e+00	2.140492e+05	
49	-2.45000e+00	2.137439e+05	
50	-2.50000e+00	2.133917e+05	
51	-2.55000e+00	2.129872e+05	
52	-2.60000e+00	2.125241e+05	
53	-2.65000e+00	2.119949e+05	
54	-2.70000e+00	2.113910e+05	

Index   v-sweep         rds             
--------------------------------------------------------------------------------
55	-2.75000e+00	2.107025e+05	
56	-2.80000e+00	2.099187e+05	
57	-2.85000e+00	2.090276e+05	
58	-2.90000e+00	2.080164e+05	
59	-2.95000e+00	2.068715e+05	
60	-3.00000e+00	2.055790e+05	
61	-3.05000e+00	2.041242e+05	
62	-3.10000e+00	2.024930e+05	
63	-3.15000e+00	2.006712e+05	
64	-3.20000e+00	1.986456e+05	
65	-3.25000e+00	1.964043e+05	
66	-3.30000e+00	1.939368e+05	
Reset re-loads circuit ***************************

Circuit: ***************************

Doing analysis at TEMP = 125.000000 and TNOM = 125.000000


No. of Data Rows : 67
                          ***************************
                          DC transfer characteristic  Mon Jan  9 13:57:32  2023
--------------------------------------------------------------------------------
Index   v-sweep         rds             
--------------------------------------------------------------------------------
0	0.000000e+00	1.425203e+03	
1	-5.00000e-02	1.556811e+03	
2	-1.00000e-01	1.712188e+03	
3	-1.50000e-01	1.898366e+03	
4	-2.00000e-01	2.125414e+03	
5	-2.50000e-01	2.408250e+03	
6	-3.00000e-01	2.769834e+03	
7	-3.50000e-01	3.247097e+03	
8	-4.00000e-01	3.902313e+03	
9	-4.50000e-01	4.844939e+03	
10	-5.00000e-01	6.268629e+03	
11	-5.50000e-01	8.477891e+03	
12	-6.00000e-01	1.174100e+04	
13	-6.50000e-01	1.578134e+04	
14	-7.00000e-01	1.969517e+04	
15	-7.50000e-01	2.288863e+04	
16	-8.00000e-01	2.538827e+04	
17	-8.50000e-01	2.741356e+04	
18	-9.00000e-01	2.913830e+04	
19	-9.50000e-01	3.066691e+04	
20	-1.00000e+00	3.205878e+04	
21	-1.05000e+00	3.334827e+04	
22	-1.10000e+00	3.455622e+04	
23	-1.15000e+00	3.569598e+04	
24	-1.20000e+00	3.677666e+04	
25	-1.25000e+00	3.780480e+04	
26	-1.30000e+00	3.878536e+04	
27	-1.35000e+00	3.972227e+04	
28	-1.40000e+00	4.061877e+04	
29	-1.45000e+00	4.147758e+04	
30	-1.50000e+00	4.230107e+04	
31	-1.55000e+00	4.309134e+04	
32	-1.60000e+00	4.385027e+04	
33	-1.65000e+00	4.457955e+04	
34	-1.70000e+00	4.528073e+04	
35	-1.75000e+00	4.595523e+04	
36	-1.80000e+00	4.660438e+04	
37	-1.85000e+00	4.722940e+04	
38	-1.90000e+00	4.783142e+04	
39	-1.95000e+00	4.841151e+04	
40	-2.00000e+00	4.897067e+04	
41	-2.05000e+00	4.950982e+04	
42	-2.10000e+00	5.002983e+04	
43	-2.15000e+00	5.053149e+04	
44	-2.20000e+00	5.101555e+04	
45	-2.25000e+00	5.148267e+04	
46	-2.30000e+00	5.193343e+04	
47	-2.35000e+00	5.236831e+04	
48	-2.40000e+00	5.278769e+04	
49	-2.45000e+00	5.319177e+04	
50	-2.50000e+00	5.358063e+04	
51	-2.55000e+00	5.395410e+04	
52	-2.60000e+00	5.431178e+04	
53	-2.65000e+00	5.465295e+04	
54	-2.70000e+00	5.497657e+04	

Index   v-sweep         rds             
--------------------------------------------------------------------------------
55	-2.75000e+00	5.528116e+04	
56	-2.80000e+00	5.556480e+04	
57	-2.85000e+00	5.582505e+04	
58	-2.90000e+00	5.605889e+04	
59	-2.95000e+00	5.626268e+04	
60	-3.00000e+00	5.643213e+04	
61	-3.05000e+00	5.656231e+04	
62	-3.10000e+00	5.664757e+04	
63	-3.15000e+00	5.668167e+04	
64	-3.20000e+00	5.665776e+04	
65	-3.25000e+00	5.656852e+04	
66	-3.30000e+00	5.640632e+04	
Reset re-loads circuit ***************************

Circuit: ***************************

Doing analysis at TEMP = 125.000000 and TNOM = 125.000000


No. of Data Rows : 67
                          ***************************
                          DC transfer characteristic  Mon Jan  9 13:57:32  2023
--------------------------------------------------------------------------------
Index   v-sweep         rds             
--------------------------------------------------------------------------------
0	0.000000e+00	9.095609e+02	
1	-5.00000e-02	9.606812e+02	
2	-1.00000e-01	1.016976e+03	
3	-1.50000e-01	1.079270e+03	
4	-2.00000e-01	1.148570e+03	
5	-2.50000e-01	1.226123e+03	
6	-3.00000e-01	1.313488e+03	
7	-3.50000e-01	1.412639e+03	
8	-4.00000e-01	1.526115e+03	
9	-4.50000e-01	1.657230e+03	
10	-5.00000e-01	1.810385e+03	
11	-5.50000e-01	1.991544e+03	
12	-6.00000e-01	2.208954e+03	
13	-6.50000e-01	2.474266e+03	
14	-7.00000e-01	2.804281e+03	
15	-7.50000e-01	3.223553e+03	
16	-8.00000e-01	3.767769e+03	
17	-8.50000e-01	4.485998e+03	
18	-9.00000e-01	5.433869e+03	
19	-9.50000e-01	6.640097e+03	
20	-1.00000e+00	8.044473e+03	
21	-1.05000e+00	9.485757e+03	
22	-1.10000e+00	1.080915e+04	
23	-1.15000e+00	1.195980e+04	
24	-1.20000e+00	1.295845e+04	
25	-1.25000e+00	1.384495e+04	
26	-1.30000e+00	1.465223e+04	
27	-1.35000e+00	1.540242e+04	
28	-1.40000e+00	1.610956e+04	
29	-1.45000e+00	1.678253e+04	
30	-1.50000e+00	1.742708e+04	
31	-1.55000e+00	1.804707e+04	
32	-1.60000e+00	1.864522e+04	
33	-1.65000e+00	1.922351e+04	
34	-1.70000e+00	1.978348e+04	
35	-1.75000e+00	2.032633e+04	
36	-1.80000e+00	2.085306e+04	
37	-1.85000e+00	2.136452e+04	
38	-1.90000e+00	2.186145e+04	
39	-1.95000e+00	2.234449e+04	
40	-2.00000e+00	2.281424e+04	
41	-2.05000e+00	2.327124e+04	
42	-2.10000e+00	2.371599e+04	
43	-2.15000e+00	2.414895e+04	
44	-2.20000e+00	2.457054e+04	
45	-2.25000e+00	2.498119e+04	
46	-2.30000e+00	2.538126e+04	
47	-2.35000e+00	2.577113e+04	
48	-2.40000e+00	2.615113e+04	
49	-2.45000e+00	2.652158e+04	
50	-2.50000e+00	2.688278e+04	
51	-2.55000e+00	2.723500e+04	
52	-2.60000e+00	2.757849e+04	
53	-2.65000e+00	2.791345e+04	
54	-2.70000e+00	2.824004e+04	

Index   v-sweep         rds             
--------------------------------------------------------------------------------
55	-2.75000e+00	2.855834e+04	
56	-2.80000e+00	2.886838e+04	
57	-2.85000e+00	2.917004e+04	
58	-2.90000e+00	2.946311e+04	
59	-2.95000e+00	2.974720e+04	
60	-3.00000e+00	3.002171e+04	
61	-3.05000e+00	3.028580e+04	
62	-3.10000e+00	3.053836e+04	
63	-3.15000e+00	3.077792e+04	
64	-3.20000e+00	3.100264e+04	
65	-3.25000e+00	3.121026e+04	
66	-3.30000e+00	3.139806e+04	
Reset re-loads circuit ***************************

Circuit: ***************************

Doing analysis at TEMP = 125.000000 and TNOM = 125.000000


No. of Data Rows : 67
                          ***************************
                          DC transfer characteristic  Mon Jan  9 13:57:32  2023
--------------------------------------------------------------------------------
Index   v-sweep         rds             
--------------------------------------------------------------------------------
0	0.000000e+00	7.063065e+02	
1	-5.00000e-02	7.354225e+02	
2	-1.00000e-01	7.665967e+02	
3	-1.50000e-01	8.000541e+02	
4	-2.00000e-01	8.360537e+02	
5	-2.50000e-01	8.748951e+02	
6	-3.00000e-01	9.169270e+02	
7	-3.50000e-01	9.625571e+02	
8	-4.00000e-01	1.012266e+03	
9	-4.50000e-01	1.066622e+03	
10	-5.00000e-01	1.126306e+03	
11	-5.50000e-01	1.192137e+03	
12	-6.00000e-01	1.265108e+03	
13	-6.50000e-01	1.346438e+03	
14	-7.00000e-01	1.437636e+03	
15	-7.50000e-01	1.540590e+03	
16	-8.00000e-01	1.657692e+03	
17	-8.50000e-01	1.792009e+03	
18	-9.00000e-01	1.947523e+03	
19	-9.50000e-01	2.129465e+03	
20	-1.00000e+00	2.344769e+03	
21	-1.05000e+00	2.602659e+03	
22	-1.10000e+00	2.915268e+03	
23	-1.15000e+00	3.297898e+03	
24	-1.20000e+00	3.767731e+03	
25	-1.25000e+00	4.338513e+03	
26	-1.30000e+00	5.008816e+03	
27	-1.35000e+00	5.748947e+03	
28	-1.40000e+00	6.504593e+03	
29	-1.45000e+00	7.224571e+03	
30	-1.50000e+00	7.884598e+03	
31	-1.55000e+00	8.485100e+03	
32	-1.60000e+00	9.036940e+03	
33	-1.65000e+00	9.551660e+03	
34	-1.70000e+00	1.003822e+04	
35	-1.75000e+00	1.050284e+04	
36	-1.80000e+00	1.094971e+04	
37	-1.85000e+00	1.138165e+04	
38	-1.90000e+00	1.180060e+04	
39	-1.95000e+00	1.220793e+04	
40	-2.00000e+00	1.260464e+04	
41	-2.05000e+00	1.299149e+04	
42	-2.10000e+00	1.336906e+04	
43	-2.15000e+00	1.373786e+04	
44	-2.20000e+00	1.409829e+04	
45	-2.25000e+00	1.445070e+04	
46	-2.30000e+00	1.479539e+04	
47	-2.35000e+00	1.513265e+04	
48	-2.40000e+00	1.546272e+04	
49	-2.45000e+00	1.578584e+04	
50	-2.50000e+00	1.610222e+04	
51	-2.55000e+00	1.641207e+04	
52	-2.60000e+00	1.671558e+04	
53	-2.65000e+00	1.701292e+04	
54	-2.70000e+00	1.730427e+04	

Index   v-sweep         rds             
--------------------------------------------------------------------------------
55	-2.75000e+00	1.758979e+04	
56	-2.80000e+00	1.786963e+04	
57	-2.85000e+00	1.814393e+04	
58	-2.90000e+00	1.841282e+04	
59	-2.95000e+00	1.867640e+04	
60	-3.00000e+00	1.893475e+04	
61	-3.05000e+00	1.918793e+04	
62	-3.10000e+00	1.943594e+04	
63	-3.15000e+00	1.967871e+04	
64	-3.20000e+00	1.991611e+04	
65	-3.25000e+00	2.014789e+04	
66	-3.30000e+00	2.037368e+04	
Reset re-loads circuit ***************************

Circuit: ***************************

Doing analysis at TEMP = 125.000000 and TNOM = 125.000000


No. of Data Rows : 67
                          ***************************
                          DC transfer characteristic  Mon Jan  9 13:57:32  2023
--------------------------------------------------------------------------------
Index   v-sweep         rds             
--------------------------------------------------------------------------------
0	0.000000e+00	5.975942e+02	
1	-5.00000e-02	6.172446e+02	
2	-1.00000e-01	6.379650e+02	
3	-1.50000e-01	6.598446e+02	
4	-2.00000e-01	6.829828e+02	
5	-2.50000e-01	7.074908e+02	
6	-3.00000e-01	7.334932e+02	
7	-3.50000e-01	7.611301e+02	
8	-4.00000e-01	7.905597e+02	
9	-4.50000e-01	8.219614e+02	
10	-5.00000e-01	8.555390e+02	
11	-5.50000e-01	8.915258e+02	
12	-6.00000e-01	9.301890e+02	
13	-6.50000e-01	9.718372e+02	
14	-7.00000e-01	1.016828e+03	
15	-7.50000e-01	1.065578e+03	
16	-8.00000e-01	1.118575e+03	
17	-8.50000e-01	1.176396e+03	
18	-9.00000e-01	1.239725e+03	
19	-9.50000e-01	1.309380e+03	
20	-1.00000e+00	1.386348e+03	
21	-1.05000e+00	1.471826e+03	
22	-1.10000e+00	1.567281e+03	
23	-1.15000e+00	1.674523e+03	
24	-1.20000e+00	1.795804e+03	
25	-1.25000e+00	1.933946e+03	
26	-1.30000e+00	2.092493e+03	
27	-1.35000e+00	2.275889e+03	
28	-1.40000e+00	2.489634e+03	
29	-1.45000e+00	2.740283e+03	
30	-1.50000e+00	3.034994e+03	
31	-1.55000e+00	3.380045e+03	
32	-1.60000e+00	3.777643e+03	
33	-1.65000e+00	4.221390e+03	
34	-1.70000e+00	4.693768e+03	
35	-1.75000e+00	5.170617e+03	
36	-1.80000e+00	5.631347e+03	
37	-1.85000e+00	6.065800e+03	
38	-1.90000e+00	6.473106e+03	
39	-1.95000e+00	6.856908e+03	
40	-2.00000e+00	7.221732e+03	
41	-2.05000e+00	7.571441e+03	
42	-2.10000e+00	7.908916e+03	
43	-2.15000e+00	8.236206e+03	
44	-2.20000e+00	8.554745e+03	
45	-2.25000e+00	8.865548e+03	
46	-2.30000e+00	9.169347e+03	
47	-2.35000e+00	9.466685e+03	
48	-2.40000e+00	9.757978e+03	
49	-2.45000e+00	1.004355e+04	
50	-2.50000e+00	1.032367e+04	
51	-2.55000e+00	1.059857e+04	
52	-2.60000e+00	1.086842e+04	
53	-2.65000e+00	1.113340e+04	
54	-2.70000e+00	1.139366e+04	

Index   v-sweep         rds             
--------------------------------------------------------------------------------
55	-2.75000e+00	1.164934e+04	
56	-2.80000e+00	1.190057e+04	
57	-2.85000e+00	1.214745e+04	
58	-2.90000e+00	1.239011e+04	
59	-2.95000e+00	1.262864e+04	
60	-3.00000e+00	1.286315e+04	
61	-3.05000e+00	1.309372e+04	
62	-3.10000e+00	1.332045e+04	
63	-3.15000e+00	1.354342e+04	
64	-3.20000e+00	1.376270e+04	
65	-3.25000e+00	1.397836e+04	
66	-3.30000e+00	1.419044e+04	
Reset re-loads circuit ***************************

Circuit: ***************************

Doing analysis at TEMP = 125.000000 and TNOM = 125.000000


No. of Data Rows : 67
                          ***************************
                          DC transfer characteristic  Mon Jan  9 13:57:32  2023
--------------------------------------------------------------------------------
Index   v-sweep         rds             
--------------------------------------------------------------------------------
0	0.000000e+00	5.298808e+02	
1	-5.00000e-02	5.444568e+02	
2	-1.00000e-01	5.596791e+02	
3	-1.50000e-01	5.755913e+02	
4	-2.00000e-01	5.922410e+02	
5	-2.50000e-01	6.096804e+02	
6	-3.00000e-01	6.279666e+02	
7	-3.50000e-01	6.471623e+02	
8	-4.00000e-01	6.673366e+02	
9	-4.50000e-01	6.885658e+02	
10	-5.00000e-01	7.109345e+02	
11	-5.50000e-01	7.345362e+02	
12	-6.00000e-01	7.594752e+02	
13	-6.50000e-01	7.858678e+02	
14	-7.00000e-01	8.138441e+02	
15	-7.50000e-01	8.435504e+02	
16	-8.00000e-01	8.751513e+02	
17	-8.50000e-01	9.088328e+02	
18	-9.00000e-01	9.448064e+02	
19	-9.50000e-01	9.833127e+02	
20	-1.00000e+00	1.024627e+03	
21	-1.05000e+00	1.069067e+03	
22	-1.10000e+00	1.116997e+03	
23	-1.15000e+00	1.168842e+03	
24	-1.20000e+00	1.225097e+03	
25	-1.25000e+00	1.286344e+03	
26	-1.30000e+00	1.353268e+03	
27	-1.35000e+00	1.426683e+03	
28	-1.40000e+00	1.507560e+03	
29	-1.45000e+00	1.597065e+03	
30	-1.50000e+00	1.696605e+03	
31	-1.55000e+00	1.807882e+03	
32	-1.60000e+00	1.932954e+03	
33	-1.65000e+00	2.074301e+03	
34	-1.70000e+00	2.234863e+03	
35	-1.75000e+00	2.418012e+03	
36	-1.80000e+00	2.627337e+03	
37	-1.85000e+00	2.866078e+03	
38	-1.90000e+00	3.135971e+03	
39	-1.95000e+00	3.435510e+03	
40	-2.00000e+00	3.758382e+03	
41	-2.05000e+00	4.093781e+03	
42	-2.10000e+00	4.429592e+03	
43	-2.15000e+00	4.756569e+03	
44	-2.20000e+00	5.070291e+03	
45	-2.25000e+00	5.370245e+03	
46	-2.30000e+00	5.657872e+03	
47	-2.35000e+00	5.935111e+03	
48	-2.40000e+00	6.203712e+03	
49	-2.45000e+00	6.465054e+03	
50	-2.50000e+00	6.720155e+03	
51	-2.55000e+00	6.969759e+03	
52	-2.60000e+00	7.214408e+03	
53	-2.65000e+00	7.454501e+03	
54	-2.70000e+00	7.690341e+03	

Index   v-sweep         rds             
--------------------------------------------------------------------------------
55	-2.75000e+00	7.922163e+03	
56	-2.80000e+00	8.150154e+03	
57	-2.85000e+00	8.374469e+03	
58	-2.90000e+00	8.595236e+03	
59	-2.95000e+00	8.812569e+03	
60	-3.00000e+00	9.026565e+03	
61	-3.05000e+00	9.237314e+03	
62	-3.10000e+00	9.444897e+03	
63	-3.15000e+00	9.649389e+03	
64	-3.20000e+00	9.850860e+03	
65	-3.25000e+00	1.004938e+04	
66	-3.30000e+00	1.024500e+04	
Reset re-loads circuit ***************************

Circuit: ***************************

Note: No ".plot", ".print", or ".fourier" lines; no simulations run
