
Note: Compatibility modes selected: hs

Warning: m=xx on .subckt line will override multiplier m hierarchy!


Circuit: ***************************

Doing analysis at TEMP = 25.000000 and TNOM = 25.000000


No. of Data Rows : 67
                          ***************************
                          DC transfer characteristic  Mon Jan  9 13:57:30  2023
--------------------------------------------------------------------------------
Index   v-sweep         rds             
--------------------------------------------------------------------------------
0	0.000000e+00	2.694009e+05	
1	-5.00000e-02	8.952625e+05	
2	-1.00000e-01	6.555885e+06	
3	-1.50000e-01	3.256283e+07	
4	-2.00000e-01	9.208096e+07	
5	-2.50000e-01	1.819442e+08	
6	-3.00000e-01	2.870541e+08	
7	-3.50000e-01	3.925254e+08	
8	-4.00000e-01	4.898348e+08	
9	-4.50000e-01	5.761209e+08	
10	-5.00000e-01	6.515814e+08	
11	-5.50000e-01	7.175701e+08	
12	-6.00000e-01	7.756518e+08	
13	-6.50000e-01	8.272396e+08	
14	-7.00000e-01	8.735004e+08	
15	-7.50000e-01	9.153637e+08	
16	-8.00000e-01	9.535605e+08	
17	-8.50000e-01	9.886652e+08	
18	-9.00000e-01	1.021132e+09	
19	-9.50000e-01	1.051324e+09	
20	-1.00000e+00	1.079532e+09	
21	-1.05000e+00	1.105995e+09	
22	-1.10000e+00	1.130908e+09	
23	-1.15000e+00	1.154436e+09	
24	-1.20000e+00	1.176716e+09	
25	-1.25000e+00	1.197865e+09	
26	-1.30000e+00	1.217984e+09	
27	-1.35000e+00	1.237159e+09	
28	-1.40000e+00	1.255467e+09	
29	-1.45000e+00	1.272974e+09	
30	-1.50000e+00	1.289738e+09	
31	-1.55000e+00	1.305812e+09	
32	-1.60000e+00	1.321242e+09	
33	-1.65000e+00	1.336069e+09	
34	-1.70000e+00	1.350329e+09	
35	-1.75000e+00	1.364054e+09	
36	-1.80000e+00	1.377271e+09	
37	-1.85000e+00	1.390003e+09	
38	-1.90000e+00	1.402268e+09	
39	-1.95000e+00	1.414077e+09	
40	-2.00000e+00	1.425438e+09	
41	-2.05000e+00	1.436351e+09	
42	-2.10000e+00	1.446806e+09	
43	-2.15000e+00	1.456789e+09	
44	-2.20000e+00	1.466271e+09	
45	-2.25000e+00	1.475217e+09	
46	-2.30000e+00	1.483576e+09	
47	-2.35000e+00	1.491287e+09	
48	-2.40000e+00	1.498274e+09	
49	-2.45000e+00	1.504445e+09	
50	-2.50000e+00	1.509696e+09	
51	-2.55000e+00	1.513905e+09	
52	-2.60000e+00	1.516937e+09	
53	-2.65000e+00	1.518643e+09	
54	-2.70000e+00	1.518864e+09	

Index   v-sweep         rds             
--------------------------------------------------------------------------------
55	-2.75000e+00	1.517430e+09	
56	-2.80000e+00	1.514167e+09	
57	-2.85000e+00	1.508900e+09	
58	-2.90000e+00	1.501455e+09	
59	-2.95000e+00	1.491673e+09	
60	-3.00000e+00	1.479409e+09	
61	-3.05000e+00	1.464539e+09	
62	-3.10000e+00	1.446973e+09	
63	-3.15000e+00	1.426655e+09	
64	-3.20000e+00	1.403571e+09	
65	-3.25000e+00	1.377752e+09	
66	-3.30000e+00	1.349277e+09	
Reset re-loads circuit ***************************

Circuit: ***************************

Doing analysis at TEMP = 25.000000 and TNOM = 25.000000


No. of Data Rows : 67
                          ***************************
                          DC transfer characteristic  Mon Jan  9 13:57:30  2023
--------------------------------------------------------------------------------
Index   v-sweep         rds             
--------------------------------------------------------------------------------
0	0.000000e+00	2.635513e+04	
1	-5.00000e-02	3.042067e+04	
2	-1.00000e-01	3.595028e+04	
3	-1.50000e-01	4.388915e+04	
4	-2.00000e-01	5.617219e+04	
5	-2.50000e-01	7.730604e+04	
6	-3.00000e-01	1.194764e+05	
7	-3.50000e-01	2.195748e+05	
8	-4.00000e-01	4.819334e+05	
9	-4.50000e-01	1.110237e+06	
10	-5.00000e-01	2.313309e+06	
11	-5.50000e-01	4.141070e+06	
12	-6.00000e-01	6.453201e+06	
13	-6.50000e-01	9.027002e+06	
14	-7.00000e-01	1.166848e+07	
15	-7.50000e-01	1.425487e+07	
16	-8.00000e-01	1.672659e+07	
17	-8.50000e-01	1.906441e+07	
18	-9.00000e-01	2.127020e+07	
19	-9.50000e-01	2.335496e+07	
20	-1.00000e+00	2.533244e+07	
21	-1.05000e+00	2.721619e+07	
22	-1.10000e+00	2.901834e+07	
23	-1.15000e+00	3.074932e+07	
24	-1.20000e+00	3.241786e+07	
25	-1.25000e+00	3.403125e+07	
26	-1.30000e+00	3.559551e+07	
27	-1.35000e+00	3.711568e+07	
28	-1.40000e+00	3.859591e+07	
29	-1.45000e+00	4.003973e+07	
30	-1.50000e+00	4.145008e+07	
31	-1.55000e+00	4.282947e+07	
32	-1.60000e+00	4.418006e+07	
33	-1.65000e+00	4.550370e+07	
34	-1.70000e+00	4.680199e+07	
35	-1.75000e+00	4.807633e+07	
36	-1.80000e+00	4.932794e+07	
37	-1.85000e+00	5.055791e+07	
38	-1.90000e+00	5.176715e+07	
39	-1.95000e+00	5.295646e+07	
40	-2.00000e+00	5.412651e+07	
41	-2.05000e+00	5.527778e+07	
42	-2.10000e+00	5.641058e+07	
43	-2.15000e+00	5.752499e+07	
44	-2.20000e+00	5.862080e+07	
45	-2.25000e+00	5.969742e+07	
46	-2.30000e+00	6.075380e+07	
47	-2.35000e+00	6.178832e+07	
48	-2.40000e+00	6.279863e+07	
49	-2.45000e+00	6.378151e+07	
50	-2.50000e+00	6.473274e+07	
51	-2.55000e+00	6.564686e+07	
52	-2.60000e+00	6.651706e+07	
53	-2.65000e+00	6.733498e+07	
54	-2.70000e+00	6.809059e+07	

Index   v-sweep         rds             
--------------------------------------------------------------------------------
55	-2.75000e+00	6.877209e+07	
56	-2.80000e+00	6.936589e+07	
57	-2.85000e+00	6.985669e+07	
58	-2.90000e+00	7.022763e+07	
59	-2.95000e+00	7.046067e+07	
60	-3.00000e+00	7.053705e+07	
61	-3.05000e+00	7.043801e+07	
62	-3.10000e+00	7.014559e+07	
63	-3.15000e+00	6.964366e+07	
64	-3.20000e+00	6.891898e+07	
65	-3.25000e+00	6.796231e+07	
66	-3.30000e+00	6.676939e+07	
Reset re-loads circuit ***************************

Circuit: ***************************

Doing analysis at TEMP = 25.000000 and TNOM = 25.000000


No. of Data Rows : 67
                          ***************************
                          DC transfer characteristic  Mon Jan  9 13:57:30  2023
--------------------------------------------------------------------------------
Index   v-sweep         rds             
--------------------------------------------------------------------------------
0	0.000000e+00	1.418268e+04	
1	-5.00000e-02	1.523880e+04	
2	-1.00000e-01	1.646329e+04	
3	-1.50000e-01	1.789978e+04	
4	-2.00000e-01	1.960829e+04	
5	-2.50000e-01	2.167364e+04	
6	-3.00000e-01	2.421961e+04	
7	-3.50000e-01	2.743369e+04	
8	-4.00000e-01	3.161284e+04	
9	-4.50000e-01	3.725325e+04	
10	-5.00000e-01	4.523822e+04	
11	-5.50000e-01	5.725936e+04	
12	-6.00000e-01	7.681418e+04	
13	-6.50000e-01	1.115838e+05	
14	-7.00000e-01	1.784213e+05	
15	-7.50000e-01	3.098656e+05	
16	-8.00000e-01	5.521908e+05	
17	-8.50000e-01	9.436403e+05	
18	-9.00000e-01	1.487887e+06	
19	-9.50000e-01	2.151407e+06	
20	-1.00000e+00	2.884264e+06	
21	-1.05000e+00	3.641675e+06	
22	-1.10000e+00	4.393356e+06	
23	-1.15000e+00	5.122914e+06	
24	-1.20000e+00	5.823600e+06	
25	-1.25000e+00	6.494227e+06	
26	-1.30000e+00	7.136357e+06	
27	-1.35000e+00	7.752667e+06	
28	-1.40000e+00	8.346089e+06	
29	-1.45000e+00	8.919410e+06	
30	-1.50000e+00	9.475114e+06	
31	-1.55000e+00	1.001534e+07	
32	-1.60000e+00	1.054191e+07	
33	-1.65000e+00	1.105634e+07	
34	-1.70000e+00	1.155992e+07	
35	-1.75000e+00	1.205371e+07	
36	-1.80000e+00	1.253862e+07	
37	-1.85000e+00	1.301541e+07	
38	-1.90000e+00	1.348473e+07	
39	-1.95000e+00	1.394711e+07	
40	-2.00000e+00	1.440303e+07	
41	-2.05000e+00	1.485290e+07	
42	-2.10000e+00	1.529706e+07	
43	-2.15000e+00	1.573581e+07	
44	-2.20000e+00	1.616942e+07	
45	-2.25000e+00	1.659810e+07	
46	-2.30000e+00	1.702202e+07	
47	-2.35000e+00	1.744133e+07	
48	-2.40000e+00	1.785610e+07	
49	-2.45000e+00	1.826636e+07	
50	-2.50000e+00	1.867202e+07	
51	-2.55000e+00	1.907293e+07	
52	-2.60000e+00	1.946875e+07	
53	-2.65000e+00	1.985901e+07	
54	-2.70000e+00	2.024298e+07	

Index   v-sweep         rds             
--------------------------------------------------------------------------------
55	-2.75000e+00	2.061966e+07	
56	-2.80000e+00	2.098771e+07	
57	-2.85000e+00	2.134535e+07	
58	-2.90000e+00	2.169034e+07	
59	-2.95000e+00	2.201987e+07	
60	-3.00000e+00	2.233051e+07	
61	-3.05000e+00	2.261813e+07	
62	-3.10000e+00	2.287789e+07	
63	-3.15000e+00	2.310422e+07	
64	-3.20000e+00	2.329087e+07	
65	-3.25000e+00	2.343098e+07	
66	-3.30000e+00	2.351728e+07	
Reset re-loads circuit ***************************

Circuit: ***************************

Doing analysis at TEMP = 25.000000 and TNOM = 25.000000


No. of Data Rows : 67
                          ***************************
                          DC transfer characteristic  Mon Jan  9 13:57:30  2023
--------------------------------------------------------------------------------
Index   v-sweep         rds             
--------------------------------------------------------------------------------
0	0.000000e+00	1.011448e+04	
1	-5.00000e-02	1.060202e+04	
2	-1.00000e-01	1.113838e+04	
3	-1.50000e-01	1.173129e+04	
4	-2.00000e-01	1.239016e+04	
5	-2.50000e-01	1.312664e+04	
6	-3.00000e-01	1.395527e+04	
7	-3.50000e-01	1.489443e+04	
8	-4.00000e-01	1.596775e+04	
9	-4.50000e-01	1.720605e+04	
10	-5.00000e-01	1.865030e+04	
11	-5.50000e-01	2.035611e+04	
12	-6.00000e-01	2.240080e+04	
13	-6.50000e-01	2.489487e+04	
14	-7.00000e-01	2.800139e+04	
15	-7.50000e-01	3.197000e+04	
16	-8.00000e-01	3.719924e+04	
17	-8.50000e-01	4.435599e+04	
18	-9.00000e-01	5.461284e+04	
19	-9.50000e-01	7.012757e+04	
20	-1.00000e+00	9.497797e+04	
21	-1.05000e+00	1.367205e+05	
22	-1.10000e+00	2.079766e+05	
23	-1.15000e+00	3.255269e+05	
24	-1.20000e+00	5.040944e+05	
25	-1.25000e+00	7.476676e+05	
26	-1.30000e+00	1.046447e+06	
27	-1.35000e+00	1.382103e+06	
28	-1.40000e+00	1.735731e+06	
29	-1.45000e+00	2.092828e+06	
30	-1.50000e+00	2.444382e+06	
31	-1.55000e+00	2.785805e+06	
32	-1.60000e+00	3.115404e+06	
33	-1.65000e+00	3.433115e+06	
34	-1.70000e+00	3.739675e+06	
35	-1.75000e+00	4.036142e+06	
36	-1.80000e+00	4.323633e+06	
37	-1.85000e+00	4.603205e+06	
38	-1.90000e+00	4.875802e+06	
39	-1.95000e+00	5.142247e+06	
40	-2.00000e+00	5.403241e+06	
41	-2.05000e+00	5.659380e+06	
42	-2.10000e+00	5.911169e+06	
43	-2.15000e+00	6.159032e+06	
44	-2.20000e+00	6.403331e+06	
45	-2.25000e+00	6.644370e+06	
46	-2.30000e+00	6.882409e+06	
47	-2.35000e+00	7.117671e+06	
48	-2.40000e+00	7.350347e+06	
49	-2.45000e+00	7.580601e+06	
50	-2.50000e+00	7.808573e+06	
51	-2.55000e+00	8.034384e+06	
52	-2.60000e+00	8.258135e+06	
53	-2.65000e+00	8.479908e+06	
54	-2.70000e+00	8.699764e+06	

Index   v-sweep         rds             
--------------------------------------------------------------------------------
55	-2.75000e+00	8.917738e+06	
56	-2.80000e+00	9.133837e+06	
57	-2.85000e+00	9.348023e+06	
58	-2.90000e+00	9.560210e+06	
59	-2.95000e+00	9.770240e+06	
60	-3.00000e+00	9.977868e+06	
61	-3.05000e+00	1.018273e+07	
62	-3.10000e+00	1.038433e+07	
63	-3.15000e+00	1.058198e+07	
64	-3.20000e+00	1.077479e+07	
65	-3.25000e+00	1.096160e+07	
66	-3.30000e+00	1.114097e+07	
Reset re-loads circuit ***************************

Circuit: ***************************

Doing analysis at TEMP = 25.000000 and TNOM = 25.000000


No. of Data Rows : 67
                          ***************************
                          DC transfer characteristic  Mon Jan  9 13:57:30  2023
--------------------------------------------------------------------------------
Index   v-sweep         rds             
--------------------------------------------------------------------------------
0	0.000000e+00	8.111805e+03	
1	-5.00000e-02	8.396761e+03	
2	-1.00000e-01	8.702182e+03	
3	-1.50000e-01	9.030354e+03	
4	-2.00000e-01	9.383917e+03	
5	-2.50000e-01	9.765932e+03	
6	-3.00000e-01	1.017998e+04	
7	-3.50000e-01	1.063025e+04	
8	-4.00000e-01	1.112171e+04	
9	-4.50000e-01	1.166029e+04	
10	-5.00000e-01	1.225307e+04	
11	-5.50000e-01	1.290867e+04	
12	-6.00000e-01	1.363759e+04	
13	-6.50000e-01	1.445284e+04	
14	-7.00000e-01	1.537063e+04	
15	-7.50000e-01	1.641153e+04	
16	-8.00000e-01	1.760191e+04	
17	-8.50000e-01	1.897620e+04	
18	-9.00000e-01	2.058013e+04	
19	-9.50000e-01	2.247566e+04	
20	-1.00000e+00	2.474871e+04	
21	-1.05000e+00	2.752152e+04	
22	-1.10000e+00	3.097307e+04	
23	-1.15000e+00	3.537396e+04	
24	-1.20000e+00	4.114772e+04	
25	-1.25000e+00	4.898090e+04	
26	-1.30000e+00	6.002207e+04	
27	-1.35000e+00	7.622964e+04	
28	-1.40000e+00	1.009141e+05	
29	-1.45000e+00	1.393496e+05	
30	-1.50000e+00	1.988485e+05	
31	-1.55000e+00	2.872420e+05	
32	-1.60000e+00	4.095690e+05	
33	-1.65000e+00	5.650858e+05	
34	-1.70000e+00	7.472648e+05	
35	-1.75000e+00	9.466734e+05	
36	-1.80000e+00	1.154262e+06	
37	-1.85000e+00	1.363216e+06	
38	-1.90000e+00	1.569262e+06	
39	-1.95000e+00	1.770166e+06	
40	-2.00000e+00	1.965051e+06	
41	-2.05000e+00	2.153834e+06	
42	-2.10000e+00	2.336839e+06	
43	-2.15000e+00	2.514567e+06	
44	-2.20000e+00	2.687567e+06	
45	-2.25000e+00	2.856371e+06	
46	-2.30000e+00	3.021461e+06	
47	-2.35000e+00	3.183265e+06	
48	-2.40000e+00	3.342151e+06	
49	-2.45000e+00	3.498436e+06	
50	-2.50000e+00	3.652388e+06	
51	-2.55000e+00	3.804239e+06	
52	-2.60000e+00	3.954183e+06	
53	-2.65000e+00	4.102386e+06	
54	-2.70000e+00	4.248991e+06	

Index   v-sweep         rds             
--------------------------------------------------------------------------------
55	-2.75000e+00	4.394120e+06	
56	-2.80000e+00	4.537878e+06	
57	-2.85000e+00	4.680355e+06	
58	-2.90000e+00	4.821629e+06	
59	-2.95000e+00	4.961764e+06	
60	-3.00000e+00	5.100815e+06	
61	-3.05000e+00	5.238824e+06	
62	-3.10000e+00	5.375822e+06	
63	-3.15000e+00	5.511821e+06	
64	-3.20000e+00	5.646813e+06	
65	-3.25000e+00	5.780763e+06	
66	-3.30000e+00	5.913602e+06	
Reset re-loads circuit ***************************

Circuit: ***************************

Doing analysis at TEMP = 25.000000 and TNOM = 25.000000


No. of Data Rows : 67
                          ***************************
                          DC transfer characteristic  Mon Jan  9 13:57:30  2023
--------------------------------------------------------------------------------
Index   v-sweep         rds             
--------------------------------------------------------------------------------
0	0.000000e+00	6.939610e+03	
1	-5.00000e-02	7.129041e+03	
2	-1.00000e-01	7.328933e+03	
3	-1.50000e-01	7.540176e+03	
4	-2.00000e-01	7.763764e+03	
5	-2.50000e-01	8.000811e+03	
6	-3.00000e-01	8.252571e+03	
7	-3.50000e-01	8.520456e+03	
8	-4.00000e-01	8.806066e+03	
9	-4.50000e-01	9.111218e+03	
10	-5.00000e-01	9.437987e+03	
11	-5.50000e-01	9.788754e+03	
12	-6.00000e-01	1.016626e+04	
13	-6.50000e-01	1.057368e+04	
14	-7.00000e-01	1.101471e+04	
15	-7.50000e-01	1.149368e+04	
16	-8.00000e-01	1.201570e+04	
17	-8.50000e-01	1.258683e+04	
18	-9.00000e-01	1.321432e+04	
19	-9.50000e-01	1.390693e+04	
20	-1.00000e+00	1.467531e+04	
21	-1.05000e+00	1.553254e+04	
22	-1.10000e+00	1.649490e+04	
23	-1.15000e+00	1.758285e+04	
24	-1.20000e+00	1.882245e+04	
25	-1.25000e+00	2.024743e+04	
26	-1.30000e+00	2.190210e+04	
27	-1.35000e+00	2.384577e+04	
28	-1.40000e+00	2.615945e+04	
29	-1.45000e+00	2.895624e+04	
30	-1.50000e+00	3.239792e+04	
31	-1.55000e+00	3.672202e+04	
32	-1.60000e+00	4.228668e+04	
33	-1.65000e+00	4.964554e+04	
34	-1.70000e+00	5.967137e+04	
35	-1.75000e+00	7.374854e+04	
36	-1.80000e+00	9.403207e+04	
37	-1.85000e+00	1.236780e+05	
38	-1.90000e+00	1.667594e+05	
39	-1.95000e+00	2.274595e+05	
40	-2.00000e+00	3.085077e+05	
41	-2.05000e+00	4.097162e+05	
42	-2.10000e+00	5.277904e+05	
43	-2.15000e+00	6.575763e+05	
44	-2.20000e+00	7.937591e+05	
45	-2.25000e+00	9.320280e+05	
46	-2.30000e+00	1.069451e+06	
47	-2.35000e+00	1.204324e+06	
48	-2.40000e+00	1.335838e+06	
49	-2.45000e+00	1.463746e+06	
50	-2.50000e+00	1.588122e+06	
51	-2.55000e+00	1.709201e+06	
52	-2.60000e+00	1.827282e+06	
53	-2.65000e+00	1.942675e+06	
54	-2.70000e+00	2.055675e+06	

Index   v-sweep         rds             
--------------------------------------------------------------------------------
55	-2.75000e+00	2.166549e+06	
56	-2.80000e+00	2.275532e+06	
57	-2.85000e+00	2.382830e+06	
58	-2.90000e+00	2.488618e+06	
59	-2.95000e+00	2.593049e+06	
60	-3.00000e+00	2.696252e+06	
61	-3.05000e+00	2.798338e+06	
62	-3.10000e+00	2.899403e+06	
63	-3.15000e+00	2.999528e+06	
64	-3.20000e+00	3.098784e+06	
65	-3.25000e+00	3.197232e+06	
66	-3.30000e+00	3.294924e+06	
Reset re-loads circuit ***************************

Circuit: ***************************

Note: No ".plot", ".print", or ".fourier" lines; no simulations run
