
Note: Compatibility modes selected: hs

Warning: m=xx on .subckt line will override multiplier m hierarchy!


Circuit: ***************************

Doing analysis at TEMP = 125.000000 and TNOM = 125.000000


No. of Data Rows : 67
                          ***************************
                          DC transfer characteristic  Mon Jan  9 13:57:32  2023
--------------------------------------------------------------------------------
Index   v-sweep         rds             
--------------------------------------------------------------------------------
0	0.000000e+00	9.972102e+03	
1	-5.00000e-02	1.308491e+04	
2	-1.00000e-01	1.873676e+04	
3	-1.50000e-01	3.118603e+04	
4	-2.00000e-01	6.427193e+04	
5	-2.50000e-01	1.372136e+05	
6	-3.00000e-01	2.185571e+05	
7	-3.50000e-01	2.711402e+05	
8	-4.00000e-01	3.016624e+05	
9	-4.50000e-01	3.212818e+05	
10	-5.00000e-01	3.354859e+05	
11	-5.50000e-01	3.466746e+05	
12	-6.00000e-01	3.559611e+05	
13	-6.50000e-01	3.639154e+05	
14	-7.00000e-01	3.708604e+05	
15	-7.50000e-01	3.769968e+05	
16	-8.00000e-01	3.824604e+05	
17	-8.50000e-01	3.873491e+05	
18	-9.00000e-01	3.917374e+05	
19	-9.50000e-01	3.956843e+05	
20	-1.00000e+00	3.992382e+05	
21	-1.05000e+00	4.024396e+05	
22	-1.10000e+00	4.053228e+05	
23	-1.15000e+00	4.079178e+05	
24	-1.20000e+00	4.102505e+05	
25	-1.25000e+00	4.123439e+05	
26	-1.30000e+00	4.142182e+05	
27	-1.35000e+00	4.158915e+05	
28	-1.40000e+00	4.173802e+05	
29	-1.45000e+00	4.186988e+05	
30	-1.50000e+00	4.198605e+05	
31	-1.55000e+00	4.208772e+05	
32	-1.60000e+00	4.217597e+05	
33	-1.65000e+00	4.225180e+05	
34	-1.70000e+00	4.231609e+05	
35	-1.75000e+00	4.236966e+05	
36	-1.80000e+00	4.241324e+05	
37	-1.85000e+00	4.244750e+05	
38	-1.90000e+00	4.247303e+05	
39	-1.95000e+00	4.249036e+05	
40	-2.00000e+00	4.249993e+05	
41	-2.05000e+00	4.250211e+05	
42	-2.10000e+00	4.249719e+05	
43	-2.15000e+00	4.248535e+05	
44	-2.20000e+00	4.246668e+05	
45	-2.25000e+00	4.244114e+05	
46	-2.30000e+00	4.240857e+05	
47	-2.35000e+00	4.236866e+05	
48	-2.40000e+00	4.232094e+05	
49	-2.45000e+00	4.226475e+05	
50	-2.50000e+00	4.219926e+05	
51	-2.55000e+00	4.212342e+05	
52	-2.60000e+00	4.203597e+05	
53	-2.65000e+00	4.193544e+05	
54	-2.70000e+00	4.182012e+05	

Index   v-sweep         rds             
--------------------------------------------------------------------------------
55	-2.75000e+00	4.168806e+05	
56	-2.80000e+00	4.153712e+05	
57	-2.85000e+00	4.136493e+05	
58	-2.90000e+00	4.116896e+05	
59	-2.95000e+00	4.094650e+05	
60	-3.00000e+00	4.069476e+05	
61	-3.05000e+00	4.041085e+05	
62	-3.10000e+00	4.009193e+05	
63	-3.15000e+00	3.973517e+05	
64	-3.20000e+00	3.933795e+05	
65	-3.25000e+00	3.889784e+05	
66	-3.30000e+00	3.841276e+05	
Reset re-loads circuit ***************************

Circuit: ***************************

Doing analysis at TEMP = 125.000000 and TNOM = 125.000000


No. of Data Rows : 67
                          ***************************
                          DC transfer characteristic  Mon Jan  9 13:57:32  2023
--------------------------------------------------------------------------------
Index   v-sweep         rds             
--------------------------------------------------------------------------------
0	0.000000e+00	2.867950e+03	
1	-5.00000e-02	3.130467e+03	
2	-1.00000e-01	3.439980e+03	
3	-1.50000e-01	3.810255e+03	
4	-2.00000e-01	4.260953e+03	
5	-2.50000e-01	4.821086e+03	
6	-3.00000e-01	5.535118e+03	
7	-3.50000e-01	6.474210e+03	
8	-4.00000e-01	7.757705e+03	
9	-4.50000e-01	9.594365e+03	
10	-5.00000e-01	1.235347e+04	
11	-5.50000e-01	1.662567e+04	
12	-6.00000e-01	2.298270e+04	
13	-6.50000e-01	3.100776e+04	
14	-7.00000e-01	3.893945e+04	
15	-7.50000e-01	4.546174e+04	
16	-8.00000e-01	5.054641e+04	
17	-8.50000e-01	5.463323e+04	
18	-9.00000e-01	5.808924e+04	
19	-9.50000e-01	6.113771e+04	
20	-1.00000e+00	6.390553e+04	
21	-1.05000e+00	6.646571e+04	
22	-1.10000e+00	6.886210e+04	
23	-1.15000e+00	7.112257e+04	
24	-1.20000e+00	7.326588e+04	
25	-1.25000e+00	7.530537e+04	
26	-1.30000e+00	7.725109e+04	
27	-1.35000e+00	7.911089e+04	
28	-1.40000e+00	8.089122e+04	
29	-1.45000e+00	8.259748e+04	
30	-1.50000e+00	8.423434e+04	
31	-1.55000e+00	8.580590e+04	
32	-1.60000e+00	8.731584e+04	
33	-1.65000e+00	8.876747e+04	
34	-1.70000e+00	9.016382e+04	
35	-1.75000e+00	9.150768e+04	
36	-1.80000e+00	9.280161e+04	
37	-1.85000e+00	9.404800e+04	
38	-1.90000e+00	9.524906e+04	
39	-1.95000e+00	9.640689e+04	
40	-2.00000e+00	9.752340e+04	
41	-2.05000e+00	9.860043e+04	
42	-2.10000e+00	9.963965e+04	
43	-2.15000e+00	1.006426e+05	
44	-2.20000e+00	1.016108e+05	
45	-2.25000e+00	1.025455e+05	
46	-2.30000e+00	1.034479e+05	
47	-2.35000e+00	1.043188e+05	
48	-2.40000e+00	1.051591e+05	
49	-2.45000e+00	1.059692e+05	
50	-2.50000e+00	1.067492e+05	
51	-2.55000e+00	1.074988e+05	
52	-2.60000e+00	1.082172e+05	
53	-2.65000e+00	1.089031e+05	
54	-2.70000e+00	1.095545e+05	

Index   v-sweep         rds             
--------------------------------------------------------------------------------
55	-2.75000e+00	1.101684e+05	
56	-2.80000e+00	1.107412e+05	
57	-2.85000e+00	1.112680e+05	
58	-2.90000e+00	1.117429e+05	
59	-2.95000e+00	1.121589e+05	
60	-3.00000e+00	1.125074e+05	
61	-3.05000e+00	1.127788e+05	
62	-3.10000e+00	1.129620e+05	
63	-3.15000e+00	1.130445e+05	
64	-3.20000e+00	1.130129e+05	
65	-3.25000e+00	1.128526e+05	
66	-3.30000e+00	1.125484e+05	
Reset re-loads circuit ***************************

Circuit: ***************************

Doing analysis at TEMP = 125.000000 and TNOM = 125.000000


No. of Data Rows : 67
                          ***************************
                          DC transfer characteristic  Mon Jan  9 13:57:32  2023
--------------------------------------------------------------------------------
Index   v-sweep         rds             
--------------------------------------------------------------------------------
0	0.000000e+00	1.831902e+03	
1	-5.00000e-02	1.934146e+03	
2	-1.00000e-01	2.046675e+03	
3	-1.50000e-01	2.171115e+03	
4	-2.00000e-01	2.309452e+03	
5	-2.50000e-01	2.464142e+03	
6	-3.00000e-01	2.638249e+03	
7	-3.50000e-01	2.835648e+03	
8	-4.00000e-01	3.061310e+03	
9	-4.50000e-01	3.321713e+03	
10	-5.00000e-01	3.625441e+03	
11	-5.50000e-01	3.984089e+03	
12	-6.00000e-01	4.413647e+03	
13	-6.50000e-01	4.936636e+03	
14	-7.00000e-01	5.585435e+03	
15	-7.50000e-01	6.407270e+03	
16	-8.00000e-01	7.470844e+03	
17	-8.50000e-01	8.871450e+03	
18	-9.00000e-01	1.072069e+04	
19	-9.50000e-01	1.308731e+04	
20	-1.00000e+00	1.587545e+04	
21	-1.05000e+00	1.877623e+04	
22	-1.10000e+00	2.146179e+04	
23	-1.15000e+00	2.379699e+04	
24	-1.20000e+00	2.581366e+04	
25	-1.25000e+00	2.759330e+04	
26	-1.30000e+00	2.920609e+04	
27	-1.35000e+00	3.069986e+04	
28	-1.40000e+00	3.210494e+04	
29	-1.45000e+00	3.344044e+04	
30	-1.50000e+00	3.471863e+04	
31	-1.55000e+00	3.594772e+04	
32	-1.60000e+00	3.713339e+04	
33	-1.65000e+00	3.827976e+04	
34	-1.70000e+00	3.938995e+04	
35	-1.75000e+00	4.046644e+04	
36	-1.80000e+00	4.151122e+04	
37	-1.85000e+00	4.252599e+04	
38	-1.90000e+00	4.351222e+04	
39	-1.95000e+00	4.447120e+04	
40	-2.00000e+00	4.540408e+04	
41	-2.05000e+00	4.631194e+04	
42	-2.10000e+00	4.719573e+04	
43	-2.15000e+00	4.805636e+04	
44	-2.20000e+00	4.889468e+04	
45	-2.25000e+00	4.971148e+04	
46	-2.30000e+00	5.050750e+04	
47	-2.35000e+00	5.128345e+04	
48	-2.40000e+00	5.203998e+04	
49	-2.45000e+00	5.277774e+04	
50	-2.50000e+00	5.349729e+04	
51	-2.55000e+00	5.419917e+04	
52	-2.60000e+00	5.488386e+04	
53	-2.65000e+00	5.555175e+04	
54	-2.70000e+00	5.620317e+04	

Index   v-sweep         rds             
--------------------------------------------------------------------------------
55	-2.75000e+00	5.683829e+04	
56	-2.80000e+00	5.745715e+04	
57	-2.85000e+00	5.805958e+04	
58	-2.90000e+00	5.864516e+04	
59	-2.95000e+00	5.921315e+04	
60	-3.00000e+00	5.976242e+04	
61	-3.05000e+00	6.029136e+04	
62	-3.10000e+00	6.079782e+04	
63	-3.15000e+00	6.127897e+04	
64	-3.20000e+00	6.173128e+04	
65	-3.25000e+00	6.215034e+04	
66	-3.30000e+00	6.253086e+04	
Reset re-loads circuit ***************************

Circuit: ***************************

Doing analysis at TEMP = 125.000000 and TNOM = 125.000000


No. of Data Rows : 67
                          ***************************
                          DC transfer characteristic  Mon Jan  9 13:57:32  2023
--------------------------------------------------------------------------------
Index   v-sweep         rds             
--------------------------------------------------------------------------------
0	0.000000e+00	1.421748e+03	
1	-5.00000e-02	1.479994e+03	
2	-1.00000e-01	1.542335e+03	
3	-1.50000e-01	1.609216e+03	
4	-2.00000e-01	1.681148e+03	
5	-2.50000e-01	1.758725e+03	
6	-3.00000e-01	1.842633e+03	
7	-3.50000e-01	1.933677e+03	
8	-4.00000e-01	2.032804e+03	
9	-4.50000e-01	2.141132e+03	
10	-5.00000e-01	2.259998e+03	
11	-5.50000e-01	2.391009e+03	
12	-6.00000e-01	2.536113e+03	
13	-6.50000e-01	2.697693e+03	
14	-7.00000e-01	2.878698e+03	
15	-7.50000e-01	3.082808e+03	
16	-8.00000e-01	3.314680e+03	
17	-8.50000e-01	3.580268e+03	
18	-9.00000e-01	3.887287e+03	
19	-9.50000e-01	4.245850e+03	
20	-1.00000e+00	4.669341e+03	
21	-1.05000e+00	5.175548e+03	
22	-1.10000e+00	5.787908e+03	
23	-1.15000e+00	6.536192e+03	
24	-1.20000e+00	7.454548e+03	
25	-1.25000e+00	8.572308e+03	
26	-1.30000e+00	9.892218e+03	
27	-1.35000e+00	1.136287e+04	
28	-1.40000e+00	1.287892e+04	
29	-1.45000e+00	1.433218e+04	
30	-1.50000e+00	1.566522e+04	
31	-1.55000e+00	1.687408e+04	
32	-1.60000e+00	1.798003e+04	
33	-1.65000e+00	1.900746e+04	
34	-1.70000e+00	1.997578e+04	
35	-1.75000e+00	2.089856e+04	
36	-1.80000e+00	2.178495e+04	
37	-1.85000e+00	2.264104e+04	
38	-1.90000e+00	2.347102e+04	
39	-1.95000e+00	2.427779e+04	
40	-2.00000e+00	2.506348e+04	
41	-2.05000e+00	2.582967e+04	
42	-2.10000e+00	2.657759e+04	
43	-2.15000e+00	2.730824e+04	
44	-2.20000e+00	2.802244e+04	
45	-2.25000e+00	2.872090e+04	
46	-2.30000e+00	2.940422e+04	
47	-2.35000e+00	3.007297e+04	
48	-2.40000e+00	3.072763e+04	
49	-2.45000e+00	3.136866e+04	
50	-2.50000e+00	3.199649e+04	
51	-2.55000e+00	3.261150e+04	
52	-2.60000e+00	3.321408e+04	
53	-2.65000e+00	3.380457e+04	
54	-2.70000e+00	3.438330e+04	

Index   v-sweep         rds             
--------------------------------------------------------------------------------
55	-2.75000e+00	3.495059e+04	
56	-2.80000e+00	3.550674e+04	
57	-2.85000e+00	3.605202e+04	
58	-2.90000e+00	3.658667e+04	
59	-2.95000e+00	3.711091e+04	
60	-3.00000e+00	3.762490e+04	
61	-3.05000e+00	3.812874e+04	
62	-3.10000e+00	3.862244e+04	
63	-3.15000e+00	3.910591e+04	
64	-3.20000e+00	3.957889e+04	
65	-3.25000e+00	4.004092e+04	
66	-3.30000e+00	4.049133e+04	
Reset re-loads circuit ***************************

Circuit: ***************************

Doing analysis at TEMP = 125.000000 and TNOM = 125.000000


No. of Data Rows : 67
                          ***************************
                          DC transfer characteristic  Mon Jan  9 13:57:32  2023
--------------------------------------------------------------------------------
Index   v-sweep         rds             
--------------------------------------------------------------------------------
0	0.000000e+00	1.201749e+03	
1	-5.00000e-02	1.241041e+03	
2	-1.00000e-01	1.282462e+03	
3	-1.50000e-01	1.326189e+03	
4	-2.00000e-01	1.372417e+03	
5	-2.50000e-01	1.421368e+03	
6	-3.00000e-01	1.473286e+03	
7	-3.50000e-01	1.528449e+03	
8	-4.00000e-01	1.587169e+03	
9	-4.50000e-01	1.649800e+03	
10	-5.00000e-01	1.716743e+03	
11	-5.50000e-01	1.788458e+03	
12	-6.00000e-01	1.865470e+03	
13	-6.50000e-01	1.948385e+03	
14	-7.00000e-01	2.037906e+03	
15	-7.50000e-01	2.134850e+03	
16	-8.00000e-01	2.240173e+03	
17	-8.50000e-01	2.355004e+03	
18	-9.00000e-01	2.480678e+03	
19	-9.50000e-01	2.618793e+03	
20	-1.00000e+00	2.771271e+03	
21	-1.05000e+00	2.940440e+03	
22	-1.10000e+00	3.129150e+03	
23	-1.15000e+00	3.340909e+03	
24	-1.20000e+00	3.580077e+03	
25	-1.25000e+00	3.852105e+03	
26	-1.30000e+00	4.163834e+03	
27	-1.35000e+00	4.523845e+03	
28	-1.40000e+00	4.942776e+03	
29	-1.45000e+00	5.433390e+03	
30	-1.50000e+00	6.009868e+03	
31	-1.55000e+00	6.685254e+03	
32	-1.60000e+00	7.465660e+03	
33	-1.65000e+00	8.341364e+03	
34	-1.70000e+00	9.280384e+03	
35	-1.75000e+00	1.023481e+04	
36	-1.80000e+00	1.116056e+04	
37	-1.85000e+00	1.203361e+04	
38	-1.90000e+00	1.285009e+04	
39	-1.95000e+00	1.361690e+04	
40	-2.00000e+00	1.434356e+04	
41	-2.05000e+00	1.503846e+04	
42	-2.10000e+00	1.570793e+04	
43	-2.15000e+00	1.635647e+04	
44	-2.20000e+00	1.698721e+04	
45	-2.25000e+00	1.760239e+04	
46	-2.30000e+00	1.820356e+04	
47	-2.35000e+00	1.879190e+04	
48	-2.40000e+00	1.936828e+04	
49	-2.45000e+00	1.993339e+04	
50	-2.50000e+00	2.048777e+04	
51	-2.55000e+00	2.103189e+04	
52	-2.60000e+00	2.156612e+04	
53	-2.65000e+00	2.209081e+04	
54	-2.70000e+00	2.260625e+04	

Index   v-sweep         rds             
--------------------------------------------------------------------------------
55	-2.75000e+00	2.311272e+04	
56	-2.80000e+00	2.361047e+04	
57	-2.85000e+00	2.409973e+04	
58	-2.90000e+00	2.458070e+04	
59	-2.95000e+00	2.505361e+04	
60	-3.00000e+00	2.551863e+04	
61	-3.05000e+00	2.597596e+04	
62	-3.10000e+00	2.642576e+04	
63	-3.15000e+00	2.686820e+04	
64	-3.20000e+00	2.730341e+04	
65	-3.25000e+00	2.773153e+04	
66	-3.30000e+00	2.815265e+04	
Reset re-loads circuit ***************************

Circuit: ***************************

Doing analysis at TEMP = 125.000000 and TNOM = 125.000000


No. of Data Rows : 67
                          ***************************
                          DC transfer characteristic  Mon Jan  9 13:57:32  2023
--------------------------------------------------------------------------------
Index   v-sweep         rds             
--------------------------------------------------------------------------------
0	0.000000e+00	1.064359e+03	
1	-5.00000e-02	1.093485e+03	
2	-1.00000e-01	1.123897e+03	
3	-1.50000e-01	1.155679e+03	
4	-2.00000e-01	1.188928e+03	
5	-2.50000e-01	1.223746e+03	
6	-3.00000e-01	1.260245e+03	
7	-3.50000e-01	1.298550e+03	
8	-4.00000e-01	1.338798e+03	
9	-4.50000e-01	1.381138e+03	
10	-5.00000e-01	1.425738e+03	
11	-5.50000e-01	1.472782e+03	
12	-6.00000e-01	1.522475e+03	
13	-6.50000e-01	1.575047e+03	
14	-7.00000e-01	1.630753e+03	
15	-7.50000e-01	1.689881e+03	
16	-8.00000e-01	1.752754e+03	
17	-8.50000e-01	1.819739e+03	
18	-9.00000e-01	1.891248e+03	
19	-9.50000e-01	1.967755e+03	
20	-1.00000e+00	2.049798e+03	
21	-1.05000e+00	2.137996e+03	
22	-1.10000e+00	2.233065e+03	
23	-1.15000e+00	2.335833e+03	
24	-1.20000e+00	2.447264e+03	
25	-1.25000e+00	2.568490e+03	
26	-1.30000e+00	2.700843e+03	
27	-1.35000e+00	2.845905e+03	
28	-1.40000e+00	3.005556e+03	
29	-1.45000e+00	3.182055e+03	
30	-1.50000e+00	3.378119e+03	
31	-1.55000e+00	3.597035e+03	
32	-1.60000e+00	3.842775e+03	
33	-1.65000e+00	4.120127e+03	
34	-1.70000e+00	4.434783e+03	
35	-1.75000e+00	4.793307e+03	
36	-1.80000e+00	5.202798e+03	
37	-1.85000e+00	5.669904e+03	
38	-1.90000e+00	6.198750e+03	
39	-1.95000e+00	6.787616e+03	
40	-2.00000e+00	7.425547e+03	
41	-2.05000e+00	8.092029e+03	
42	-2.10000e+00	8.762438e+03	
43	-2.15000e+00	9.416637e+03	
44	-2.20000e+00	1.004408e+04	
45	-2.25000e+00	1.064280e+04	
46	-2.30000e+00	1.121552e+04	
47	-2.35000e+00	1.176632e+04	
48	-2.40000e+00	1.229902e+04	
49	-2.45000e+00	1.281667e+04	
50	-2.50000e+00	1.332153e+04	
51	-2.55000e+00	1.381524e+04	
52	-2.60000e+00	1.429898e+04	
53	-2.65000e+00	1.477364e+04	
54	-2.70000e+00	1.523985e+04	

Index   v-sweep         rds             
--------------------------------------------------------------------------------
55	-2.75000e+00	1.569813e+04	
56	-2.80000e+00	1.614886e+04	
57	-2.85000e+00	1.659237e+04	
58	-2.90000e+00	1.702892e+04	
59	-2.95000e+00	1.745874e+04	
60	-3.00000e+00	1.788204e+04	
61	-3.05000e+00	1.829898e+04	
62	-3.10000e+00	1.870973e+04	
63	-3.15000e+00	1.911444e+04	
64	-3.20000e+00	1.951325e+04	
65	-3.25000e+00	1.990628e+04	
66	-3.30000e+00	2.029366e+04	
Reset re-loads circuit ***************************

Circuit: ***************************

Note: No ".plot", ".print", or ".fourier" lines; no simulations run
