
Note: Compatibility modes selected: hs

Warning: m=xx on .subckt line will override multiplier m hierarchy!


Circuit: ***************************

Doing analysis at TEMP = 125.000000 and TNOM = 125.000000


No. of Data Rows : 67
                          ***************************
                          DC transfer characteristic  Mon Jan  9 13:57:31  2023
--------------------------------------------------------------------------------
Index   v-sweep         rds             
--------------------------------------------------------------------------------
0	0.000000e+00	2.707068e+05	
1	-5.00000e-02	4.407920e+05	
2	-1.00000e-01	1.000525e+06	
3	-1.50000e-01	3.784008e+06	
4	-2.00000e-01	1.549573e+07	
5	-2.50000e-01	4.628887e+07	
6	-3.00000e-01	1.030992e+08	
7	-3.50000e-01	1.859163e+08	
8	-4.00000e-01	2.884186e+08	
9	-4.50000e-01	4.014574e+08	
10	-5.00000e-01	5.165915e+08	
11	-5.50000e-01	6.278845e+08	
12	-6.00000e-01	7.320415e+08	
13	-6.50000e-01	8.277511e+08	
14	-7.00000e-01	9.149205e+08	
15	-7.50000e-01	9.940882e+08	
16	-8.00000e-01	1.066054e+09	
17	-8.50000e-01	1.131674e+09	
18	-9.00000e-01	1.191757e+09	
19	-9.50000e-01	1.247029e+09	
20	-1.00000e+00	1.298116e+09	
21	-1.05000e+00	1.345553e+09	
22	-1.10000e+00	1.389792e+09	
23	-1.15000e+00	1.431216e+09	
24	-1.20000e+00	1.470145e+09	
25	-1.25000e+00	1.506854e+09	
26	-1.30000e+00	1.541572e+09	
27	-1.35000e+00	1.574498e+09	
28	-1.40000e+00	1.605802e+09	
29	-1.45000e+00	1.635630e+09	
30	-1.50000e+00	1.664109e+09	
31	-1.55000e+00	1.691349e+09	
32	-1.60000e+00	1.717449e+09	
33	-1.65000e+00	1.742492e+09	
34	-1.70000e+00	1.766553e+09	
35	-1.75000e+00	1.789698e+09	
36	-1.80000e+00	1.811983e+09	
37	-1.85000e+00	1.833457e+09	
38	-1.90000e+00	1.854160e+09	
39	-1.95000e+00	1.874125e+09	
40	-2.00000e+00	1.893374e+09	
41	-2.05000e+00	1.911920e+09	
42	-2.10000e+00	1.929765e+09	
43	-2.15000e+00	1.946897e+09	
44	-2.20000e+00	1.963293e+09	
45	-2.25000e+00	1.978910e+09	
46	-2.30000e+00	1.993690e+09	
47	-2.35000e+00	2.007552e+09	
48	-2.40000e+00	2.020397e+09	
49	-2.45000e+00	2.032099e+09	
50	-2.50000e+00	2.042511e+09	
51	-2.55000e+00	2.051457e+09	
52	-2.60000e+00	2.058738e+09	
53	-2.65000e+00	2.064131e+09	
54	-2.70000e+00	2.067390e+09	

Index   v-sweep         rds             
--------------------------------------------------------------------------------
55	-2.75000e+00	2.068250e+09	
56	-2.80000e+00	2.066434e+09	
57	-2.85000e+00	2.061657e+09	
58	-2.90000e+00	2.053635e+09	
59	-2.95000e+00	2.042096e+09	
60	-3.00000e+00	2.026791e+09	
61	-3.05000e+00	2.007504e+09	
62	-3.10000e+00	1.984065e+09	
63	-3.15000e+00	1.956366e+09	
64	-3.20000e+00	1.924361e+09	
65	-3.25000e+00	1.888087e+09	
66	-3.30000e+00	1.847658e+09	
Reset re-loads circuit ***************************

Circuit: ***************************

Doing analysis at TEMP = 125.000000 and TNOM = 125.000000


No. of Data Rows : 67
                          ***************************
                          DC transfer characteristic  Mon Jan  9 13:57:32  2023
--------------------------------------------------------------------------------
Index   v-sweep         rds             
--------------------------------------------------------------------------------
0	0.000000e+00	6.118446e+04	
1	-5.00000e-02	6.883599e+04	
2	-1.00000e-01	7.865930e+04	
3	-1.50000e-01	9.171963e+04	
4	-2.00000e-01	1.098955e+05	
5	-2.50000e-01	1.367935e+05	
6	-3.00000e-01	1.801135e+05	
7	-3.50000e-01	2.584838e+05	
8	-4.00000e-01	4.225375e+05	
9	-4.50000e-01	8.134057e+05	
10	-5.00000e-01	1.760839e+06	
11	-5.50000e-01	3.792699e+06	
12	-6.00000e-01	7.431997e+06	
13	-6.50000e-01	1.294188e+07	
14	-7.00000e-01	2.022196e+07	
15	-7.50000e-01	2.888467e+07	
16	-8.00000e-01	3.842155e+07	
17	-8.50000e-01	4.835292e+07	
18	-9.00000e-01	5.830799e+07	
19	-9.50000e-01	6.804102e+07	
20	-1.00000e+00	7.741196e+07	
21	-1.05000e+00	8.635658e+07	
22	-1.10000e+00	9.485907e+07	
23	-1.15000e+00	1.029316e+08	
24	-1.20000e+00	1.106007e+08	
25	-1.25000e+00	1.178990e+08	
26	-1.30000e+00	1.248600e+08	
27	-1.35000e+00	1.315163e+08	
28	-1.40000e+00	1.378973e+08	
29	-1.45000e+00	1.440298e+08	
30	-1.50000e+00	1.499373e+08	
31	-1.55000e+00	1.556404e+08	
32	-1.60000e+00	1.611572e+08	
33	-1.65000e+00	1.665034e+08	
34	-1.70000e+00	1.716927e+08	
35	-1.75000e+00	1.767373e+08	
36	-1.80000e+00	1.816476e+08	
37	-1.85000e+00	1.864329e+08	
38	-1.90000e+00	1.911013e+08	
39	-1.95000e+00	1.956599e+08	
40	-2.00000e+00	2.001150e+08	
41	-2.05000e+00	2.044720e+08	
42	-2.10000e+00	2.087353e+08	
43	-2.15000e+00	2.129087e+08	
44	-2.20000e+00	2.169947e+08	
45	-2.25000e+00	2.209948e+08	
46	-2.30000e+00	2.249093e+08	
47	-2.35000e+00	2.287366e+08	
48	-2.40000e+00	2.324731e+08	
49	-2.45000e+00	2.361130e+08	
50	-2.50000e+00	2.396474e+08	
51	-2.55000e+00	2.430639e+08	
52	-2.60000e+00	2.463463e+08	
53	-2.65000e+00	2.494735e+08	
54	-2.70000e+00	2.524194e+08	

Index   v-sweep         rds             
--------------------------------------------------------------------------------
55	-2.75000e+00	2.551523e+08	
56	-2.80000e+00	2.576341e+08	
57	-2.85000e+00	2.598207e+08	
58	-2.90000e+00	2.616618e+08	
59	-2.95000e+00	2.631013e+08	
60	-3.00000e+00	2.640782e+08	
61	-3.05000e+00	2.645280e+08	
62	-3.10000e+00	2.643850e+08	
63	-3.15000e+00	2.635843e+08	
64	-3.20000e+00	2.620656e+08	
65	-3.25000e+00	2.597761e+08	
66	-3.30000e+00	2.566749e+08	
Reset re-loads circuit ***************************

Circuit: ***************************

Doing analysis at TEMP = 125.000000 and TNOM = 125.000000


No. of Data Rows : 67
                          ***************************
                          DC transfer characteristic  Mon Jan  9 13:57:32  2023
--------------------------------------------------------------------------------
Index   v-sweep         rds             
--------------------------------------------------------------------------------
0	0.000000e+00	3.565358e+04	
1	-5.00000e-02	3.803296e+04	
2	-1.00000e-01	4.075111e+04	
3	-1.50000e-01	4.388574e+04	
4	-2.00000e-01	4.754017e+04	
5	-2.50000e-01	5.185480e+04	
6	-3.00000e-01	5.702512e+04	
7	-3.50000e-01	6.333138e+04	
8	-4.00000e-01	7.118916e+04	
9	-4.50000e-01	8.123993e+04	
10	-5.00000e-01	9.452207e+04	
11	-5.50000e-01	1.128140e+05	
12	-6.00000e-01	1.393672e+05	
13	-6.50000e-01	1.805692e+05	
14	-7.00000e-01	2.498407e+05	
15	-7.50000e-01	3.764226e+05	
16	-8.00000e-01	6.215470e+05	
17	-8.50000e-01	1.094842e+06	
18	-9.00000e-01	1.945409e+06	
19	-9.50000e-01	3.312335e+06	
20	-1.00000e+00	5.264854e+06	
21	-1.05000e+00	7.775331e+06	
22	-1.10000e+00	1.073651e+07	
23	-1.15000e+00	1.400346e+07	
24	-1.20000e+00	1.743388e+07	
25	-1.25000e+00	2.091215e+07	
26	-1.30000e+00	2.435662e+07	
27	-1.35000e+00	2.771645e+07	
28	-1.40000e+00	3.096437e+07	
29	-1.45000e+00	3.408922e+07	
30	-1.50000e+00	3.708989e+07	
31	-1.55000e+00	3.997107e+07	
32	-1.60000e+00	4.274036e+07	
33	-1.65000e+00	4.540652e+07	
34	-1.70000e+00	4.797852e+07	
35	-1.75000e+00	5.046488e+07	
36	-1.80000e+00	5.287348e+07	
37	-1.85000e+00	5.521143e+07	
38	-1.90000e+00	5.748506e+07	
39	-1.95000e+00	5.969994e+07	
40	-2.00000e+00	6.186099e+07	
41	-2.05000e+00	6.397254e+07	
42	-2.10000e+00	6.603838e+07	
43	-2.15000e+00	6.806181e+07	
44	-2.20000e+00	7.004577e+07	
45	-2.25000e+00	7.199280e+07	
46	-2.30000e+00	7.390515e+07	
47	-2.35000e+00	7.578473e+07	
48	-2.40000e+00	7.763319e+07	
49	-2.45000e+00	7.945183e+07	
50	-2.50000e+00	8.124165e+07	
51	-2.55000e+00	8.300324e+07	
52	-2.60000e+00	8.473671e+07	
53	-2.65000e+00	8.644160e+07	
54	-2.70000e+00	8.811670e+07	

Index   v-sweep         rds             
--------------------------------------------------------------------------------
55	-2.75000e+00	8.975992e+07	
56	-2.80000e+00	9.136803e+07	
57	-2.85000e+00	9.293647e+07	
58	-2.90000e+00	9.445905e+07	
59	-2.95000e+00	9.592766e+07	
60	-3.00000e+00	9.733198e+07	
61	-3.05000e+00	9.865921e+07	
62	-3.10000e+00	9.989380e+07	
63	-3.15000e+00	1.010173e+08	
64	-3.20000e+00	1.020081e+08	
65	-3.25000e+00	1.028419e+08	
66	-3.30000e+00	1.034916e+08	
Reset re-loads circuit ***************************

Circuit: ***************************

Doing analysis at TEMP = 125.000000 and TNOM = 125.000000


No. of Data Rows : 67
                          ***************************
                          DC transfer characteristic  Mon Jan  9 13:57:32  2023
--------------------------------------------------------------------------------
Index   v-sweep         rds             
--------------------------------------------------------------------------------
0	0.000000e+00	2.595757e+04	
1	-5.00000e-02	2.711763e+04	
2	-1.00000e-01	2.838569e+04	
3	-1.50000e-01	2.977757e+04	
4	-2.00000e-01	3.131229e+04	
5	-2.50000e-01	3.301302e+04	
6	-3.00000e-01	3.490817e+04	
7	-3.50000e-01	3.703302e+04	
8	-4.00000e-01	3.943193e+04	
9	-4.50000e-01	4.216136e+04	
10	-5.00000e-01	4.529437e+04	
11	-5.50000e-01	4.892708e+04	
12	-6.00000e-01	5.318846e+04	
13	-6.50000e-01	5.825542e+04	
14	-7.00000e-01	6.437694e+04	
15	-7.50000e-01	7.191374e+04	
16	-8.00000e-01	8.140646e+04	
17	-8.50000e-01	9.369722e+04	
18	-9.00000e-01	1.101565e+05	
19	-9.50000e-01	1.331237e+05	
20	-1.00000e+00	1.667908e+05	
21	-1.05000e+00	2.189810e+05	
22	-1.10000e+00	3.045345e+05	
23	-1.15000e+00	4.506887e+05	
24	-1.20000e+00	7.023243e+05	
25	-1.25000e+00	1.120296e+06	
26	-1.30000e+00	1.766580e+06	
27	-1.35000e+00	2.681386e+06	
28	-1.40000e+00	3.867006e+06	
29	-1.45000e+00	5.288054e+06	
30	-1.50000e+00	6.885283e+06	
31	-1.55000e+00	8.593208e+06	
32	-1.60000e+00	1.035343e+07	
33	-1.65000e+00	1.212100e+07	
34	-1.70000e+00	1.386523e+07	
35	-1.75000e+00	1.556746e+07	
36	-1.80000e+00	1.721801e+07	
37	-1.85000e+00	1.881320e+07	
38	-1.90000e+00	2.035315e+07	
39	-1.95000e+00	2.184014e+07	
40	-2.00000e+00	2.327754e+07	
41	-2.05000e+00	2.466920e+07	
42	-2.10000e+00	2.601897e+07	
43	-2.15000e+00	2.733058e+07	
44	-2.20000e+00	2.860745e+07	
45	-2.25000e+00	2.985268e+07	
46	-2.30000e+00	3.106906e+07	
47	-2.35000e+00	3.225905e+07	
48	-2.40000e+00	3.342483e+07	
49	-2.45000e+00	3.456833e+07	
50	-2.50000e+00	3.569123e+07	
51	-2.55000e+00	3.679503e+07	
52	-2.60000e+00	3.788102e+07	
53	-2.65000e+00	3.895034e+07	
54	-2.70000e+00	4.000398e+07	

Index   v-sweep         rds             
--------------------------------------------------------------------------------
55	-2.75000e+00	4.104276e+07	
56	-2.80000e+00	4.206737e+07	
57	-2.85000e+00	4.307830e+07	
58	-2.90000e+00	4.407586e+07	
59	-2.95000e+00	4.506009e+07	
60	-3.00000e+00	4.603076e+07	
61	-3.05000e+00	4.698723e+07	
62	-3.10000e+00	4.792837e+07	
63	-3.15000e+00	4.885249e+07	
64	-3.20000e+00	4.975711e+07	
65	-3.25000e+00	5.063890e+07	
66	-3.30000e+00	5.149343e+07	
Reset re-loads circuit ***************************

Circuit: ***************************

Doing analysis at TEMP = 125.000000 and TNOM = 125.000000


No. of Data Rows : 67
                          ***************************
                          DC transfer characteristic  Mon Jan  9 13:57:32  2023
--------------------------------------------------------------------------------
Index   v-sweep         rds             
--------------------------------------------------------------------------------
0	0.000000e+00	2.086659e+04	
1	-5.00000e-02	2.155740e+04	
2	-1.00000e-01	2.229523e+04	
3	-1.50000e-01	2.308506e+04	
4	-2.00000e-01	2.393259e+04	
5	-2.50000e-01	2.484436e+04	
6	-3.00000e-01	2.582798e+04	
7	-3.50000e-01	2.689227e+04	
8	-4.00000e-01	2.804757e+04	
9	-4.50000e-01	2.930605e+04	
10	-5.00000e-01	3.068218e+04	
11	-5.50000e-01	3.219321e+04	
12	-6.00000e-01	3.385998e+04	
13	-6.50000e-01	3.570780e+04	
14	-7.00000e-01	3.776777e+04	
15	-7.50000e-01	4.007852e+04	
16	-8.00000e-01	4.268857e+04	
17	-8.50000e-01	4.565975e+04	
18	-9.00000e-01	4.907200e+04	
19	-9.50000e-01	5.303044e+04	
20	-1.00000e+00	5.767587e+04	
21	-1.05000e+00	6.320105e+04	
22	-1.10000e+00	6.987615e+04	
23	-1.15000e+00	7.809033e+04	
24	-1.20000e+00	8.842126e+04	
25	-1.25000e+00	1.017556e+05	
26	-1.30000e+00	1.195040e+05	
27	-1.35000e+00	1.439914e+05	
28	-1.40000e+00	1.791715e+05	
29	-1.45000e+00	2.318845e+05	
30	-1.50000e+00	3.138436e+05	
31	-1.55000e+00	4.440269e+05	
32	-1.60000e+00	6.498093e+05	
33	-1.65000e+00	9.639261e+05	
34	-1.70000e+00	1.415974e+06	
35	-1.75000e+00	2.021956e+06	
36	-1.80000e+00	2.778119e+06	
37	-1.85000e+00	3.662479e+06	
38	-1.90000e+00	4.642131e+06	
39	-1.95000e+00	5.681846e+06	
40	-2.00000e+00	6.750423e+06	
41	-2.05000e+00	7.823707e+06	
42	-2.10000e+00	8.884961e+06	
43	-2.15000e+00	9.923786e+06	
44	-2.20000e+00	1.093456e+07	
45	-2.25000e+00	1.191496e+07	
46	-2.30000e+00	1.286479e+07	
47	-2.35000e+00	1.378509e+07	
48	-2.40000e+00	1.467759e+07	
49	-2.45000e+00	1.554431e+07	
50	-2.50000e+00	1.638736e+07	
51	-2.55000e+00	1.720876e+07	
52	-2.60000e+00	1.801043e+07	
53	-2.65000e+00	1.879411e+07	
54	-2.70000e+00	1.956137e+07	

Index   v-sweep         rds             
--------------------------------------------------------------------------------
55	-2.75000e+00	2.031360e+07	
56	-2.80000e+00	2.105207e+07	
57	-2.85000e+00	2.177787e+07	
58	-2.90000e+00	2.249197e+07	
59	-2.95000e+00	2.319524e+07	
60	-3.00000e+00	2.388842e+07	
61	-3.05000e+00	2.457216e+07	
62	-3.10000e+00	2.524704e+07	
63	-3.15000e+00	2.591352e+07	
64	-3.20000e+00	2.657198e+07	
65	-3.25000e+00	2.722267e+07	
66	-3.30000e+00	2.786572e+07	
Reset re-loads circuit ***************************

Circuit: ***************************

Doing analysis at TEMP = 125.000000 and TNOM = 125.000000


No. of Data Rows : 67
                          ***************************
                          DC transfer characteristic  Mon Jan  9 13:57:32  2023
--------------------------------------------------------------------------------
Index   v-sweep         rds             
--------------------------------------------------------------------------------
0	0.000000e+00	1.773561e+04	
1	-5.00000e-02	1.819607e+04	
2	-1.00000e-01	1.868091e+04	
3	-1.50000e-01	1.919211e+04	
4	-2.00000e-01	1.973189e+04	
5	-2.50000e-01	2.030271e+04	
6	-3.00000e-01	2.090733e+04	
7	-3.50000e-01	2.154883e+04	
8	-4.00000e-01	2.223071e+04	
9	-4.50000e-01	2.295688e+04	
10	-5.00000e-01	2.373182e+04	
11	-5.50000e-01	2.456059e+04	
12	-6.00000e-01	2.544900e+04	
13	-6.50000e-01	2.640374e+04	
14	-7.00000e-01	2.743249e+04	
15	-7.50000e-01	2.854421e+04	
16	-8.00000e-01	2.974934e+04	
17	-8.50000e-01	3.106014e+04	
18	-9.00000e-01	3.249113e+04	
19	-9.50000e-01	3.405957e+04	
20	-1.00000e+00	3.578621e+04	
21	-1.05000e+00	3.769618e+04	
22	-1.10000e+00	3.982017e+04	
23	-1.15000e+00	4.219610e+04	
24	-1.20000e+00	4.487131e+04	
25	-1.25000e+00	4.790568e+04	
26	-1.30000e+00	5.137599e+04	
27	-1.35000e+00	5.538219e+04	
28	-1.40000e+00	6.005668e+04	
29	-1.45000e+00	6.557815e+04	
30	-1.50000e+00	7.219296e+04	
31	-1.55000e+00	8.024873e+04	
32	-1.60000e+00	9.024867e+04	
33	-1.65000e+00	1.029413e+05	
34	-1.70000e+00	1.194719e+05	
35	-1.75000e+00	1.416394e+05	
36	-1.80000e+00	1.723311e+05	
37	-1.85000e+00	2.162224e+05	
38	-1.90000e+00	2.807860e+05	
39	-1.95000e+00	3.774118e+05	
40	-2.00000e+00	5.218944e+05	
41	-2.05000e+00	7.330315e+05	
42	-2.10000e+00	1.028575e+06	
43	-2.15000e+00	1.419717e+06	
44	-2.20000e+00	1.907002e+06	
45	-2.25000e+00	2.479956e+06	
46	-2.30000e+00	3.120312e+06	
47	-2.35000e+00	3.806781e+06	
48	-2.40000e+00	4.519201e+06	
49	-2.45000e+00	5.240997e+06	
50	-2.50000e+00	5.959968e+06	
51	-2.55000e+00	6.667996e+06	
52	-2.60000e+00	7.360242e+06	
53	-2.65000e+00	8.034268e+06	
54	-2.70000e+00	8.689260e+06	

Index   v-sweep         rds             
--------------------------------------------------------------------------------
55	-2.75000e+00	9.325428e+06	
56	-2.80000e+00	9.943584e+06	
57	-2.85000e+00	1.054485e+07	
58	-2.90000e+00	1.113049e+07	
59	-2.95000e+00	1.170177e+07	
60	-3.00000e+00	1.225992e+07	
61	-3.05000e+00	1.280607e+07	
62	-3.10000e+00	1.334126e+07	
63	-3.15000e+00	1.386645e+07	
64	-3.20000e+00	1.438246e+07	
65	-3.25000e+00	1.489006e+07	
66	-3.30000e+00	1.538989e+07	
Reset re-loads circuit ***************************

Circuit: ***************************

Note: No ".plot", ".print", or ".fourier" lines; no simulations run
