
Note: Compatibility modes selected: hs

Warning: m=xx on .subckt line will override multiplier m hierarchy!


Circuit: ***************************

Doing analysis at TEMP = 25.000000 and TNOM = 25.000000


No. of Data Rows : 67
                          ***************************
                          DC transfer characteristic  Mon Jan  9 13:57:30  2023
--------------------------------------------------------------------------------
Index   v-sweep         rds             
--------------------------------------------------------------------------------
0	0.000000e+00	1.483283e+05	
1	-5.00000e-02	2.355689e+05	
2	-1.00000e-01	4.914263e+05	
3	-1.50000e-01	1.414164e+06	
4	-2.00000e-01	3.128060e+06	
5	-2.50000e-01	4.322789e+06	
6	-3.00000e-01	4.895740e+06	
7	-3.50000e-01	5.193510e+06	
8	-4.00000e-01	5.376134e+06	
9	-4.50000e-01	5.503553e+06	
10	-5.00000e-01	5.600006e+06	
11	-5.50000e-01	5.676575e+06	
12	-6.00000e-01	5.738993e+06	
13	-6.50000e-01	5.790570e+06	
14	-7.00000e-01	5.833415e+06	
15	-7.50000e-01	5.868984e+06	
16	-8.00000e-01	5.898347e+06	
17	-8.50000e-01	5.922330e+06	
18	-9.00000e-01	5.941598e+06	
19	-9.50000e-01	5.956696e+06	
20	-1.00000e+00	5.968087e+06	
21	-1.05000e+00	5.976163e+06	
22	-1.10000e+00	5.981266e+06	
23	-1.15000e+00	5.983693e+06	
24	-1.20000e+00	5.983706e+06	
25	-1.25000e+00	5.981539e+06	
26	-1.30000e+00	5.977397e+06	
27	-1.35000e+00	5.971465e+06	
28	-1.40000e+00	5.963909e+06	
29	-1.45000e+00	5.954878e+06	
30	-1.50000e+00	5.944506e+06	
31	-1.55000e+00	5.932914e+06	
32	-1.60000e+00	5.920213e+06	
33	-1.65000e+00	5.906501e+06	
34	-1.70000e+00	5.891869e+06	
35	-1.75000e+00	5.876396e+06	
36	-1.80000e+00	5.860156e+06	
37	-1.85000e+00	5.843213e+06	
38	-1.90000e+00	5.825622e+06	
39	-1.95000e+00	5.807432e+06	
40	-2.00000e+00	5.788680e+06	
41	-2.05000e+00	5.769397e+06	
42	-2.10000e+00	5.749601e+06	
43	-2.15000e+00	5.729301e+06	
44	-2.20000e+00	5.708493e+06	
45	-2.25000e+00	5.687159e+06	
46	-2.30000e+00	5.665267e+06	
47	-2.35000e+00	5.642769e+06	
48	-2.40000e+00	5.619601e+06	
49	-2.45000e+00	5.595678e+06	
50	-2.50000e+00	5.570898e+06	
51	-2.55000e+00	5.545137e+06	
52	-2.60000e+00	5.518252e+06	
53	-2.65000e+00	5.490076e+06	
54	-2.70000e+00	5.460425e+06	

Index   v-sweep         rds             
--------------------------------------------------------------------------------
55	-2.75000e+00	5.429090e+06	
56	-2.80000e+00	5.395846e+06	
57	-2.85000e+00	5.360450e+06	
58	-2.90000e+00	5.322642e+06	
59	-2.95000e+00	5.282154e+06	
60	-3.00000e+00	5.238706e+06	
61	-3.05000e+00	5.192018e+06	
62	-3.10000e+00	5.141813e+06	
63	-3.15000e+00	5.087819e+06	
64	-3.20000e+00	5.029785e+06	
65	-3.25000e+00	4.967481e+06	
66	-3.30000e+00	4.900707e+06	
Reset re-loads circuit ***************************

Circuit: ***************************

Doing analysis at TEMP = 25.000000 and TNOM = 25.000000


No. of Data Rows : 67
                          ***************************
                          DC transfer characteristic  Mon Jan  9 13:57:30  2023
--------------------------------------------------------------------------------
Index   v-sweep         rds             
--------------------------------------------------------------------------------
0	0.000000e+00	2.697649e+04	
1	-5.00000e-02	2.979288e+04	
2	-1.00000e-01	3.319293e+04	
3	-1.50000e-01	3.737724e+04	
4	-2.00000e-01	4.264859e+04	
5	-2.50000e-01	4.948398e+04	
6	-3.00000e-01	5.867314e+04	
7	-3.50000e-01	7.159586e+04	
8	-4.00000e-01	9.077858e+04	
9	-4.50000e-01	1.208482e+05	
10	-5.00000e-01	1.689046e+05	
11	-5.50000e-01	2.389284e+05	
12	-6.00000e-01	3.187337e+05	
13	-6.50000e-01	3.875831e+05	
14	-7.00000e-01	4.390065e+05	
15	-7.50000e-01	4.775317e+05	
16	-8.00000e-01	5.082976e+05	
17	-8.50000e-01	5.344678e+05	
18	-9.00000e-01	5.577493e+05	
19	-9.50000e-01	5.790594e+05	
20	-1.00000e+00	5.989109e+05	
21	-1.05000e+00	6.176072e+05	
22	-1.10000e+00	6.353387e+05	
23	-1.15000e+00	6.522328e+05	
24	-1.20000e+00	6.683796e+05	
25	-1.25000e+00	6.838468e+05	
26	-1.30000e+00	6.986870e+05	
27	-1.35000e+00	7.129436e+05	
28	-1.40000e+00	7.266527e+05	
29	-1.45000e+00	7.398460e+05	
30	-1.50000e+00	7.525511e+05	
31	-1.55000e+00	7.647929e+05	
32	-1.60000e+00	7.765942e+05	
33	-1.65000e+00	7.879757e+05	
34	-1.70000e+00	7.989566e+05	
35	-1.75000e+00	8.095547e+05	
36	-1.80000e+00	8.197866e+05	
37	-1.85000e+00	8.296680e+05	
38	-1.90000e+00	8.392135e+05	
39	-1.95000e+00	8.484369e+05	
40	-2.00000e+00	8.573510e+05	
41	-2.05000e+00	8.659680e+05	
42	-2.10000e+00	8.742990e+05	
43	-2.15000e+00	8.823544e+05	
44	-2.20000e+00	8.901435e+05	
45	-2.25000e+00	8.976742e+05	
46	-2.30000e+00	9.049533e+05	
47	-2.35000e+00	9.119856e+05	
48	-2.40000e+00	9.187738e+05	
49	-2.45000e+00	9.253179e+05	
50	-2.50000e+00	9.316147e+05	
51	-2.55000e+00	9.376572e+05	
52	-2.60000e+00	9.434338e+05	
53	-2.65000e+00	9.489272e+05	
54	-2.70000e+00	9.541144e+05	

Index   v-sweep         rds             
--------------------------------------------------------------------------------
55	-2.75000e+00	9.589647e+05	
56	-2.80000e+00	9.634399e+05	
57	-2.85000e+00	9.674927e+05	
58	-2.90000e+00	9.710666e+05	
59	-2.95000e+00	9.740949e+05	
60	-3.00000e+00	9.765006e+05	
61	-3.05000e+00	9.781964e+05	
62	-3.10000e+00	9.790848e+05	
63	-3.15000e+00	9.790593e+05	
64	-3.20000e+00	9.780054e+05	
65	-3.25000e+00	9.758028e+05	
66	-3.30000e+00	9.723281e+05	
Reset re-loads circuit ***************************

Circuit: ***************************

Doing analysis at TEMP = 25.000000 and TNOM = 25.000000


No. of Data Rows : 67
                          ***************************
                          DC transfer characteristic  Mon Jan  9 13:57:30  2023
--------------------------------------------------------------------------------
Index   v-sweep         rds             
--------------------------------------------------------------------------------
0	0.000000e+00	1.623084e+04	
1	-5.00000e-02	1.720766e+04	
2	-1.00000e-01	1.829032e+04	
3	-1.50000e-01	1.949693e+04	
4	-2.00000e-01	2.084993e+04	
5	-2.50000e-01	2.237752e+04	
6	-3.00000e-01	2.411559e+04	
7	-3.50000e-01	2.611049e+04	
8	-4.00000e-01	2.842310e+04	
9	-4.50000e-01	3.113479e+04	
10	-5.00000e-01	3.435667e+04	
11	-5.50000e-01	3.824363e+04	
12	-6.00000e-01	4.301661e+04	
13	-6.50000e-01	4.899726e+04	
14	-7.00000e-01	5.665957e+04	
15	-7.50000e-01	6.669334e+04	
16	-8.00000e-01	8.002619e+04	
17	-8.50000e-01	9.760098e+04	
18	-9.00000e-01	1.195321e+05	
19	-9.50000e-01	1.439217e+05	
20	-1.00000e+00	1.673930e+05	
21	-1.05000e+00	1.876696e+05	
22	-1.10000e+00	2.045820e+05	
23	-1.15000e+00	2.189507e+05	
24	-1.20000e+00	2.316054e+05	
25	-1.25000e+00	2.431195e+05	
26	-1.30000e+00	2.538454e+05	
27	-1.35000e+00	2.639947e+05	
28	-1.40000e+00	2.736962e+05	
29	-1.45000e+00	2.830306e+05	
30	-1.50000e+00	2.920509e+05	
31	-1.55000e+00	3.007930e+05	
32	-1.60000e+00	3.092827e+05	
33	-1.65000e+00	3.175391e+05	
34	-1.70000e+00	3.255772e+05	
35	-1.75000e+00	3.334090e+05	
36	-1.80000e+00	3.410446e+05	
37	-1.85000e+00	3.484925e+05	
38	-1.90000e+00	3.557604e+05	
39	-1.95000e+00	3.628549e+05	
40	-2.00000e+00	3.697824e+05	
41	-2.05000e+00	3.765485e+05	
42	-2.10000e+00	3.831584e+05	
43	-2.15000e+00	3.896171e+05	
44	-2.20000e+00	3.959293e+05	
45	-2.25000e+00	4.020995e+05	
46	-2.30000e+00	4.081316e+05	
47	-2.35000e+00	4.140298e+05	
48	-2.40000e+00	4.197978e+05	
49	-2.45000e+00	4.254389e+05	
50	-2.50000e+00	4.309563e+05	
51	-2.55000e+00	4.363527e+05	
52	-2.60000e+00	4.416304e+05	
53	-2.65000e+00	4.467910e+05	
54	-2.70000e+00	4.518350e+05	

Index   v-sweep         rds             
--------------------------------------------------------------------------------
55	-2.75000e+00	4.567620e+05	
56	-2.80000e+00	4.615701e+05	
57	-2.85000e+00	4.662553e+05	
58	-2.90000e+00	4.708116e+05	
59	-2.95000e+00	4.752298e+05	
60	-3.00000e+00	4.794974e+05	
61	-3.05000e+00	4.835977e+05	
62	-3.10000e+00	4.875094e+05	
63	-3.15000e+00	4.912055e+05	
64	-3.20000e+00	4.946532e+05	
65	-3.25000e+00	4.978129e+05	
66	-3.30000e+00	5.006377e+05	
Reset re-loads circuit ***************************

Circuit: ***************************

Doing analysis at TEMP = 25.000000 and TNOM = 25.000000


No. of Data Rows : 67
                          ***************************
                          DC transfer characteristic  Mon Jan  9 13:57:30  2023
--------------------------------------------------------------------------------
Index   v-sweep         rds             
--------------------------------------------------------------------------------
0	0.000000e+00	1.230562e+04	
1	-5.00000e-02	1.283934e+04	
2	-1.00000e-01	1.341246e+04	
3	-1.50000e-01	1.402950e+04	
4	-2.00000e-01	1.469566e+04	
5	-2.50000e-01	1.541704e+04	
6	-3.00000e-01	1.620074e+04	
7	-3.50000e-01	1.705516e+04	
8	-4.00000e-01	1.799026e+04	
9	-4.50000e-01	1.901798e+04	
10	-5.00000e-01	2.015267e+04	
11	-5.50000e-01	2.141184e+04	
12	-6.00000e-01	2.281697e+04	
13	-6.50000e-01	2.439472e+04	
14	-7.00000e-01	2.617855e+04	
15	-7.50000e-01	2.821093e+04	
16	-8.00000e-01	3.054648e+04	
17	-8.50000e-01	3.325624e+04	
18	-9.00000e-01	3.643372e+04	
19	-9.50000e-01	4.020292e+04	
20	-1.00000e+00	4.472816e+04	
21	-1.05000e+00	5.022298e+04	
22	-1.10000e+00	5.694801e+04	
23	-1.15000e+00	6.517015e+04	
24	-1.20000e+00	7.503279e+04	
25	-1.25000e+00	8.631739e+04	
26	-1.30000e+00	9.827680e+04	
27	-1.35000e+00	1.098968e+05	
28	-1.40000e+00	1.204742e+05	
29	-1.45000e+00	1.298606e+05	
30	-1.50000e+00	1.382457e+05	
31	-1.55000e+00	1.458904e+05	
32	-1.60000e+00	1.530074e+05	
33	-1.65000e+00	1.597434e+05	
34	-1.70000e+00	1.661936e+05	
35	-1.75000e+00	1.724188e+05	
36	-1.80000e+00	1.784588e+05	
37	-1.85000e+00	1.843398e+05	
38	-1.90000e+00	1.900800e+05	
39	-1.95000e+00	1.956922e+05	
40	-2.00000e+00	2.011858e+05	
41	-2.05000e+00	2.065681e+05	
42	-2.10000e+00	2.118448e+05	
43	-2.15000e+00	2.170205e+05	
44	-2.20000e+00	2.220992e+05	
45	-2.25000e+00	2.270842e+05	
46	-2.30000e+00	2.319786e+05	
47	-2.35000e+00	2.367851e+05	
48	-2.40000e+00	2.415061e+05	
49	-2.45000e+00	2.461439e+05	
50	-2.50000e+00	2.507007e+05	
51	-2.55000e+00	2.551784e+05	
52	-2.60000e+00	2.595790e+05	
53	-2.65000e+00	2.639042e+05	
54	-2.70000e+00	2.681558e+05	

Index   v-sweep         rds             
--------------------------------------------------------------------------------
55	-2.75000e+00	2.723352e+05	
56	-2.80000e+00	2.764440e+05	
57	-2.85000e+00	2.804835e+05	
58	-2.90000e+00	2.844545e+05	
59	-2.95000e+00	2.883578e+05	
60	-3.00000e+00	2.921937e+05	
61	-3.05000e+00	2.959616e+05	
62	-3.10000e+00	2.996604e+05	
63	-3.15000e+00	3.032877e+05	
64	-3.20000e+00	3.068396e+05	
65	-3.25000e+00	3.103106e+05	
66	-3.30000e+00	3.136929e+05	
Reset re-loads circuit ***************************

Circuit: ***************************

Doing analysis at TEMP = 25.000000 and TNOM = 25.000000


No. of Data Rows : 67
                          ***************************
                          DC transfer characteristic  Mon Jan  9 13:57:30  2023
--------------------------------------------------------------------------------
Index   v-sweep         rds             
--------------------------------------------------------------------------------
0	0.000000e+00	1.027806e+04	
1	-5.00000e-02	1.063088e+04	
2	-1.00000e-01	1.100353e+04	
3	-1.50000e-01	1.139770e+04	
4	-2.00000e-01	1.181531e+04	
5	-2.50000e-01	1.225850e+04	
6	-3.00000e-01	1.272966e+04	
7	-3.50000e-01	1.323153e+04	
8	-4.00000e-01	1.376718e+04	
9	-4.50000e-01	1.434012e+04	
10	-5.00000e-01	1.495436e+04	
11	-5.50000e-01	1.561451e+04	
12	-6.00000e-01	1.632587e+04	
13	-6.50000e-01	1.709461e+04	
14	-7.00000e-01	1.792791e+04	
15	-7.50000e-01	1.883420e+04	
16	-8.00000e-01	1.982344e+04	
17	-8.50000e-01	2.090743e+04	
18	-9.00000e-01	2.210033e+04	
19	-9.50000e-01	2.341920e+04	
20	-1.00000e+00	2.488476e+04	
21	-1.05000e+00	2.652239e+04	
22	-1.10000e+00	2.836341e+04	
23	-1.15000e+00	3.044676e+04	
24	-1.20000e+00	3.282104e+04	
25	-1.25000e+00	3.554701e+04	
26	-1.30000e+00	3.870005e+04	
27	-1.35000e+00	4.237146e+04	
28	-1.40000e+00	4.666543e+04	
29	-1.45000e+00	5.168496e+04	
30	-1.50000e+00	5.749530e+04	
31	-1.55000e+00	6.405791e+04	
32	-1.60000e+00	7.116046e+04	
33	-1.65000e+00	7.842571e+04	
34	-1.70000e+00	8.545648e+04	
35	-1.75000e+00	9.200976e+04	
36	-1.80000e+00	9.803859e+04	
37	-1.85000e+00	1.036133e+05	
38	-1.90000e+00	1.088349e+05	
39	-1.95000e+00	1.137913e+05	
40	-2.00000e+00	1.185474e+05	
41	-2.05000e+00	1.231478e+05	
42	-2.10000e+00	1.276223e+05	
43	-2.15000e+00	1.319911e+05	
44	-2.20000e+00	1.362679e+05	
45	-2.25000e+00	1.404625e+05	
46	-2.30000e+00	1.445816e+05	
47	-2.35000e+00	1.486304e+05	
48	-2.40000e+00	1.526129e+05	
49	-2.45000e+00	1.565321e+05	
50	-2.50000e+00	1.603905e+05	
51	-2.55000e+00	1.641903e+05	
52	-2.60000e+00	1.679332e+05	
53	-2.65000e+00	1.716208e+05	
54	-2.70000e+00	1.752546e+05	

Index   v-sweep         rds             
--------------------------------------------------------------------------------
55	-2.75000e+00	1.788358e+05	
56	-2.80000e+00	1.823656e+05	
57	-2.85000e+00	1.858452e+05	
58	-2.90000e+00	1.892756e+05	
59	-2.95000e+00	1.926577e+05	
60	-3.00000e+00	1.959925e+05	
61	-3.05000e+00	1.992808e+05	
62	-3.10000e+00	2.025235e+05	
63	-3.15000e+00	2.057212e+05	
64	-3.20000e+00	2.088744e+05	
65	-3.25000e+00	2.119836e+05	
66	-3.30000e+00	2.150487e+05	
Reset re-loads circuit ***************************

Circuit: ***************************

Doing analysis at TEMP = 25.000000 and TNOM = 25.000000


No. of Data Rows : 67
                          ***************************
                          DC transfer characteristic  Mon Jan  9 13:57:30  2023
--------------------------------------------------------------------------------
Index   v-sweep         rds             
--------------------------------------------------------------------------------
0	0.000000e+00	9.042895e+03	
1	-5.00000e-02	9.301513e+03	
2	-1.00000e-01	9.571877e+03	
3	-1.50000e-01	9.854800e+03	
4	-2.00000e-01	1.015117e+04	
5	-2.50000e-01	1.046196e+04	
6	-3.00000e-01	1.078823e+04	
7	-3.50000e-01	1.113117e+04	
8	-4.00000e-01	1.149208e+04	
9	-4.50000e-01	1.187240e+04	
10	-5.00000e-01	1.227372e+04	
11	-5.50000e-01	1.269781e+04	
12	-6.00000e-01	1.314667e+04	
13	-6.50000e-01	1.362252e+04	
14	-7.00000e-01	1.412783e+04	
15	-7.50000e-01	1.466543e+04	
16	-8.00000e-01	1.523848e+04	
17	-8.50000e-01	1.585059e+04	
18	-9.00000e-01	1.650587e+04	
19	-9.50000e-01	1.720901e+04	
20	-1.00000e+00	1.796541e+04	
21	-1.05000e+00	1.878131e+04	
22	-1.10000e+00	1.966395e+04	
23	-1.15000e+00	2.062178e+04	
24	-1.20000e+00	2.166468e+04	
25	-1.25000e+00	2.280435e+04	
26	-1.30000e+00	2.405462e+04	
27	-1.35000e+00	2.543199e+04	
28	-1.40000e+00	2.695623e+04	
29	-1.45000e+00	2.865107e+04	
30	-1.50000e+00	3.054506e+04	
31	-1.55000e+00	3.267241e+04	
32	-1.60000e+00	3.507365e+04	
33	-1.65000e+00	3.779545e+04	
34	-1.70000e+00	4.088850e+04	
35	-1.75000e+00	4.440095e+04	
36	-1.80000e+00	4.836412e+04	
37	-1.85000e+00	5.276804e+04	
38	-1.90000e+00	5.753300e+04	
39	-1.95000e+00	6.249998e+04	
40	-2.00000e+00	6.746789e+04	
41	-2.05000e+00	7.226686e+04	
42	-2.10000e+00	7.681037e+04	
43	-2.15000e+00	8.109093e+04	
44	-2.20000e+00	8.514359e+04	
45	-2.25000e+00	8.901374e+04	
46	-2.30000e+00	9.274133e+04	
47	-2.35000e+00	9.635673e+04	
48	-2.40000e+00	9.988158e+04	
49	-2.45000e+00	1.033309e+05	
50	-2.50000e+00	1.067153e+05	
51	-2.55000e+00	1.100420e+05	
52	-2.60000e+00	1.133163e+05	
53	-2.65000e+00	1.165420e+05	
54	-2.70000e+00	1.197220e+05	

Index   v-sweep         rds             
--------------------------------------------------------------------------------
55	-2.75000e+00	1.228586e+05	
56	-2.80000e+00	1.259535e+05	
57	-2.85000e+00	1.290082e+05	
58	-2.90000e+00	1.320238e+05	
59	-2.95000e+00	1.350015e+05	
60	-3.00000e+00	1.379421e+05	
61	-3.05000e+00	1.408464e+05	
62	-3.10000e+00	1.437153e+05	
63	-3.15000e+00	1.465494e+05	
64	-3.20000e+00	1.493493e+05	
65	-3.25000e+00	1.521156e+05	
66	-3.30000e+00	1.548490e+05	
Reset re-loads circuit ***************************

Circuit: ***************************

Note: No ".plot", ".print", or ".fourier" lines; no simulations run
