
Note: Compatibility modes selected: hs

Warning: m=xx on .subckt line will override multiplier m hierarchy!


Circuit: ***************************

Doing analysis at TEMP = -40.000000 and TNOM = -40.000000


No. of Data Rows : 67
                          ***************************
                          DC transfer characteristic  Mon Jan  9 13:57:30  2023
--------------------------------------------------------------------------------
Index   v-sweep         rds             
--------------------------------------------------------------------------------
0	0.000000e+00	4.938674e+04	
1	-5.00000e-02	2.089765e+05	
2	-1.00000e-01	1.062556e+06	
3	-1.50000e-01	1.859125e+06	
4	-2.00000e-01	2.173730e+06	
5	-2.50000e-01	2.305182e+06	
6	-3.00000e-01	2.370246e+06	
7	-3.50000e-01	2.405127e+06	
8	-4.00000e-01	2.423250e+06	
9	-4.50000e-01	2.430692e+06	
10	-5.00000e-01	2.430697e+06	
11	-5.50000e-01	2.425231e+06	
12	-6.00000e-01	2.415598e+06	
13	-6.50000e-01	2.402723e+06	
14	-7.00000e-01	2.387290e+06	
15	-7.50000e-01	2.369821e+06	
16	-8.00000e-01	2.350729e+06	
17	-8.50000e-01	2.330339e+06	
18	-9.00000e-01	2.308917e+06	
19	-9.50000e-01	2.286679e+06	
20	-1.00000e+00	2.263803e+06	
21	-1.05000e+00	2.240438e+06	
22	-1.10000e+00	2.216708e+06	
23	-1.15000e+00	2.192716e+06	
24	-1.20000e+00	2.168550e+06	
25	-1.25000e+00	2.144283e+06	
26	-1.30000e+00	2.119978e+06	
27	-1.35000e+00	2.095689e+06	
28	-1.40000e+00	2.071459e+06	
29	-1.45000e+00	2.047328e+06	
30	-1.50000e+00	2.023328e+06	
31	-1.55000e+00	1.999486e+06	
32	-1.60000e+00	1.975826e+06	
33	-1.65000e+00	1.952366e+06	
34	-1.70000e+00	1.929124e+06	
35	-1.75000e+00	1.906112e+06	
36	-1.80000e+00	1.883340e+06	
37	-1.85000e+00	1.860817e+06	
38	-1.90000e+00	1.838547e+06	
39	-1.95000e+00	1.816535e+06	
40	-2.00000e+00	1.794780e+06	
41	-2.05000e+00	1.773282e+06	
42	-2.10000e+00	1.752036e+06	
43	-2.15000e+00	1.731035e+06	
44	-2.20000e+00	1.710272e+06	
45	-2.25000e+00	1.689734e+06	
46	-2.30000e+00	1.669406e+06	
47	-2.35000e+00	1.649271e+06	
48	-2.40000e+00	1.629309e+06	
49	-2.45000e+00	1.609496e+06	
50	-2.50000e+00	1.589806e+06	
51	-2.55000e+00	1.570208e+06	
52	-2.60000e+00	1.550671e+06	
53	-2.65000e+00	1.531158e+06	
54	-2.70000e+00	1.511631e+06	

Index   v-sweep         rds             
--------------------------------------------------------------------------------
55	-2.75000e+00	1.492049e+06	
56	-2.80000e+00	1.472369e+06	
57	-2.85000e+00	1.452546e+06	
58	-2.90000e+00	1.432534e+06	
59	-2.95000e+00	1.412287e+06	
60	-3.00000e+00	1.391755e+06	
61	-3.05000e+00	1.370894e+06	
62	-3.10000e+00	1.349658e+06	
63	-3.15000e+00	1.328003e+06	
64	-3.20000e+00	1.305890e+06	
65	-3.25000e+00	1.283282e+06	
66	-3.30000e+00	1.260149e+06	
Reset re-loads circuit ***************************

Circuit: ***************************

Doing analysis at TEMP = -40.000000 and TNOM = -40.000000


No. of Data Rows : 67
                          ***************************
                          DC transfer characteristic  Mon Jan  9 13:57:31  2023
--------------------------------------------------------------------------------
Index   v-sweep         rds             
--------------------------------------------------------------------------------
0	0.000000e+00	2.362089e+03	
1	-5.00000e-02	2.682642e+03	
2	-1.00000e-01	3.090833e+03	
3	-1.50000e-01	3.627618e+03	
4	-2.00000e-01	4.363156e+03	
5	-2.50000e-01	5.426006e+03	
6	-3.00000e-01	7.067971e+03	
7	-3.50000e-01	9.793584e+03	
8	-4.00000e-01	1.444922e+04	
9	-4.50000e-01	2.148579e+04	
10	-5.00000e-01	2.939425e+04	
11	-5.50000e-01	3.620174e+04	
12	-6.00000e-01	4.158204e+04	
13	-6.50000e-01	4.596204e+04	
14	-7.00000e-01	4.970842e+04	
15	-7.50000e-01	5.303293e+04	
16	-8.00000e-01	5.605198e+04	
17	-8.50000e-01	5.883257e+04	
18	-9.00000e-01	6.141621e+04	
19	-9.50000e-01	6.383072e+04	
20	-1.00000e+00	6.609616e+04	
21	-1.05000e+00	6.822787e+04	
22	-1.10000e+00	7.023816e+04	
23	-1.15000e+00	7.213726e+04	
24	-1.20000e+00	7.393389e+04	
25	-1.25000e+00	7.563569e+04	
26	-1.30000e+00	7.724937e+04	
27	-1.35000e+00	7.878094e+04	
28	-1.40000e+00	8.023584e+04	
29	-1.45000e+00	8.161898e+04	
30	-1.50000e+00	8.293484e+04	
31	-1.55000e+00	8.418753e+04	
32	-1.60000e+00	8.538081e+04	
33	-1.65000e+00	8.651816e+04	
34	-1.70000e+00	8.760280e+04	
35	-1.75000e+00	8.863768e+04	
36	-1.80000e+00	8.962555e+04	
37	-1.85000e+00	9.056897e+04	
38	-1.90000e+00	9.147029e+04	
39	-1.95000e+00	9.233171e+04	
40	-2.00000e+00	9.315522e+04	
41	-2.05000e+00	9.394267e+04	
42	-2.10000e+00	9.469572e+04	
43	-2.15000e+00	9.541584e+04	
44	-2.20000e+00	9.610427e+04	
45	-2.25000e+00	9.676203e+04	
46	-2.30000e+00	9.738985e+04	
47	-2.35000e+00	9.798813e+04	
48	-2.40000e+00	9.855688e+04	
49	-2.45000e+00	9.909567e+04	
50	-2.50000e+00	9.960355e+04	
51	-2.55000e+00	1.000790e+05	
52	-2.60000e+00	1.005197e+05	
53	-2.65000e+00	1.009228e+05	
54	-2.70000e+00	1.012845e+05	

Index   v-sweep         rds             
--------------------------------------------------------------------------------
55	-2.75000e+00	1.015999e+05	
56	-2.80000e+00	1.018634e+05	
57	-2.85000e+00	1.020684e+05	
58	-2.90000e+00	1.022071e+05	
59	-2.95000e+00	1.022707e+05	
60	-3.00000e+00	1.022496e+05	
61	-3.05000e+00	1.021331e+05	
62	-3.10000e+00	1.019100e+05	
63	-3.15000e+00	1.015685e+05	
64	-3.20000e+00	1.010966e+05	
65	-3.25000e+00	1.004824e+05	
66	-3.30000e+00	9.971457e+04	
Reset re-loads circuit ***************************

Circuit: ***************************

Doing analysis at TEMP = -40.000000 and TNOM = -40.000000


No. of Data Rows : 67
                          ***************************
                          DC transfer characteristic  Mon Jan  9 13:57:31  2023
--------------------------------------------------------------------------------
Index   v-sweep         rds             
--------------------------------------------------------------------------------
0	0.000000e+00	1.324524e+03	
1	-5.00000e-02	1.419347e+03	
2	-1.00000e-01	1.526152e+03	
3	-1.50000e-01	1.647345e+03	
4	-2.00000e-01	1.786021e+03	
5	-2.50000e-01	1.946222e+03	
6	-3.00000e-01	2.133327e+03	
7	-3.50000e-01	2.354641e+03	
8	-4.00000e-01	2.620314e+03	
9	-4.50000e-01	2.944800e+03	
10	-5.00000e-01	3.349228e+03	
11	-5.50000e-01	3.865216e+03	
12	-6.00000e-01	4.540671e+03	
13	-6.50000e-01	5.446585e+03	
14	-7.00000e-01	6.676155e+03	
15	-7.50000e-01	8.307120e+03	
16	-8.00000e-01	1.029942e+04	
17	-8.50000e-01	1.243675e+04	
18	-9.00000e-01	1.448122e+04	
19	-9.50000e-01	1.633660e+04	
20	-1.00000e+00	1.801574e+04	
21	-1.05000e+00	1.955867e+04	
22	-1.10000e+00	2.099868e+04	
23	-1.15000e+00	2.235810e+04	
24	-1.20000e+00	2.365126e+04	
25	-1.25000e+00	2.488759e+04	
26	-1.30000e+00	2.607354e+04	
27	-1.35000e+00	2.721379e+04	
28	-1.40000e+00	2.831193e+04	
29	-1.45000e+00	2.937080e+04	
30	-1.50000e+00	3.039282e+04	
31	-1.55000e+00	3.138002e+04	
32	-1.60000e+00	3.233423e+04	
33	-1.65000e+00	3.325705e+04	
34	-1.70000e+00	3.414998e+04	
35	-1.75000e+00	3.501437e+04	
36	-1.80000e+00	3.585147e+04	
37	-1.85000e+00	3.666247e+04	
38	-1.90000e+00	3.744846e+04	
39	-1.95000e+00	3.821047e+04	
40	-2.00000e+00	3.894947e+04	
41	-2.05000e+00	3.966638e+04	
42	-2.10000e+00	4.036206e+04	
43	-2.15000e+00	4.103734e+04	
44	-2.20000e+00	4.169300e+04	
45	-2.25000e+00	4.232975e+04	
46	-2.30000e+00	4.294829e+04	
47	-2.35000e+00	4.354924e+04	
48	-2.40000e+00	4.413319e+04	
49	-2.45000e+00	4.470064e+04	
50	-2.50000e+00	4.525202e+04	
51	-2.55000e+00	4.578766e+04	
52	-2.60000e+00	4.630775e+04	
53	-2.65000e+00	4.681232e+04	
54	-2.70000e+00	4.730120e+04	

Index   v-sweep         rds             
--------------------------------------------------------------------------------
55	-2.75000e+00	4.777396e+04	
56	-2.80000e+00	4.822989e+04	
57	-2.85000e+00	4.866788e+04	
58	-2.90000e+00	4.908641e+04	
59	-2.95000e+00	4.948345e+04	
60	-3.00000e+00	4.985640e+04	
61	-3.05000e+00	5.020202e+04	
62	-3.10000e+00	5.051635e+04	
63	-3.15000e+00	5.079470e+04	
64	-3.20000e+00	5.103160e+04	
65	-3.25000e+00	5.122075e+04	
66	-3.30000e+00	5.135514e+04	
Reset re-loads circuit ***************************

Circuit: ***************************

Doing analysis at TEMP = -40.000000 and TNOM = -40.000000


No. of Data Rows : 67
                          ***************************
                          DC transfer characteristic  Mon Jan  9 13:57:31  2023
--------------------------------------------------------------------------------
Index   v-sweep         rds             
--------------------------------------------------------------------------------
0	0.000000e+00	9.966595e+02	
1	-5.00000e-02	1.046705e+03	
2	-1.00000e-01	1.100900e+03	
3	-1.50000e-01	1.159778e+03	
4	-2.00000e-01	1.223969e+03	
5	-2.50000e-01	1.294218e+03	
6	-3.00000e-01	1.371421e+03	
7	-3.50000e-01	1.456654e+03	
8	-4.00000e-01	1.551228e+03	
9	-4.50000e-01	1.656755e+03	
10	-5.00000e-01	1.775233e+03	
11	-5.50000e-01	1.909177e+03	
12	-6.00000e-01	2.061780e+03	
13	-6.50000e-01	2.237162e+03	
14	-7.00000e-01	2.440703e+03	
15	-7.50000e-01	2.679532e+03	
16	-8.00000e-01	2.963204e+03	
17	-8.50000e-01	3.304605e+03	
18	-9.00000e-01	3.720973e+03	
19	-9.50000e-01	4.234474e+03	
20	-1.00000e+00	4.870397e+03	
21	-1.05000e+00	5.648899e+03	
22	-1.10000e+00	6.567149e+03	
23	-1.15000e+00	7.583396e+03	
24	-1.20000e+00	8.630525e+03	
25	-1.25000e+00	9.654278e+03	
26	-1.30000e+00	1.063178e+04	
27	-1.35000e+00	1.156160e+04	
28	-1.40000e+00	1.244969e+04	
29	-1.45000e+00	1.330248e+04	
30	-1.50000e+00	1.412501e+04	
31	-1.55000e+00	1.492094e+04	
32	-1.60000e+00	1.569287e+04	
33	-1.65000e+00	1.644272e+04	
34	-1.70000e+00	1.717196e+04	
35	-1.75000e+00	1.788175e+04	
36	-1.80000e+00	1.857306e+04	
37	-1.85000e+00	1.924672e+04	
38	-1.90000e+00	1.990345e+04	
39	-1.95000e+00	2.054391e+04	
40	-2.00000e+00	2.116870e+04	
41	-2.05000e+00	2.177837e+04	
42	-2.10000e+00	2.237345e+04	
43	-2.15000e+00	2.295441e+04	
44	-2.20000e+00	2.352172e+04	
45	-2.25000e+00	2.407581e+04	
46	-2.30000e+00	2.461711e+04	
47	-2.35000e+00	2.514601e+04	
48	-2.40000e+00	2.566288e+04	
49	-2.45000e+00	2.616810e+04	
50	-2.50000e+00	2.666201e+04	
51	-2.55000e+00	2.714494e+04	
52	-2.60000e+00	2.761719e+04	
53	-2.65000e+00	2.807907e+04	
54	-2.70000e+00	2.853082e+04	

Index   v-sweep         rds             
--------------------------------------------------------------------------------
55	-2.75000e+00	2.897269e+04	
56	-2.80000e+00	2.940485e+04	
57	-2.85000e+00	2.982741e+04	
58	-2.90000e+00	3.024044e+04	
59	-2.95000e+00	3.064385e+04	
60	-3.00000e+00	3.103744e+04	
61	-3.05000e+00	3.142084e+04	
62	-3.10000e+00	3.179345e+04	
63	-3.15000e+00	3.215440e+04	
64	-3.20000e+00	3.250251e+04	
65	-3.25000e+00	3.283619e+04	
66	-3.30000e+00	3.315344e+04	
Reset re-loads circuit ***************************

Circuit: ***************************

Doing analysis at TEMP = -40.000000 and TNOM = -40.000000


No. of Data Rows : 67
                          ***************************
                          DC transfer characteristic  Mon Jan  9 13:57:31  2023
--------------------------------------------------------------------------------
Index   v-sweep         rds             
--------------------------------------------------------------------------------
0	0.000000e+00	8.389481e+02	
1	-5.00000e-02	8.718035e+02	
2	-1.00000e-01	9.066936e+02	
3	-1.50000e-01	9.438113e+02	
4	-2.00000e-01	9.833750e+02	
5	-2.50000e-01	1.025632e+03	
6	-3.00000e-01	1.070865e+03	
7	-3.50000e-01	1.119396e+03	
8	-4.00000e-01	1.171597e+03	
9	-4.50000e-01	1.227897e+03	
10	-5.00000e-01	1.288794e+03	
11	-5.50000e-01	1.354871e+03	
12	-6.00000e-01	1.426812e+03	
13	-6.50000e-01	1.505427e+03	
14	-7.00000e-01	1.591681e+03	
15	-7.50000e-01	1.686734e+03	
16	-8.00000e-01	1.791986e+03	
17	-8.50000e-01	1.909148e+03	
18	-9.00000e-01	2.040326e+03	
19	-9.50000e-01	2.188134e+03	
20	-1.00000e+00	2.355850e+03	
21	-1.05000e+00	2.547602e+03	
22	-1.10000e+00	2.768618e+03	
23	-1.15000e+00	3.025495e+03	
24	-1.20000e+00	3.326395e+03	
25	-1.25000e+00	3.680934e+03	
26	-1.30000e+00	4.099133e+03	
27	-1.35000e+00	4.588480e+03	
28	-1.40000e+00	5.148656e+03	
29	-1.45000e+00	5.766652e+03	
30	-1.50000e+00	6.418603e+03	
31	-1.55000e+00	7.079783e+03	
32	-1.60000e+00	7.733574e+03	
33	-1.65000e+00	8.372541e+03	
34	-1.70000e+00	8.994853e+03	
35	-1.75000e+00	9.600984e+03	
36	-1.80000e+00	1.019202e+04	
37	-1.85000e+00	1.076902e+04	
38	-1.90000e+00	1.133289e+04	
39	-1.95000e+00	1.188436e+04	
40	-2.00000e+00	1.242402e+04	
41	-2.05000e+00	1.295236e+04	
42	-2.10000e+00	1.346980e+04	
43	-2.15000e+00	1.397671e+04	
44	-2.20000e+00	1.447344e+04	
45	-2.25000e+00	1.496028e+04	
46	-2.30000e+00	1.543751e+04	
47	-2.35000e+00	1.590542e+04	
48	-2.40000e+00	1.636425e+04	
49	-2.45000e+00	1.681425e+04	
50	-2.50000e+00	1.725564e+04	
51	-2.55000e+00	1.768865e+04	
52	-2.60000e+00	1.811349e+04	
53	-2.65000e+00	1.853037e+04	
54	-2.70000e+00	1.893949e+04	

Index   v-sweep         rds             
--------------------------------------------------------------------------------
55	-2.75000e+00	1.934104e+04	
56	-2.80000e+00	1.973520e+04	
57	-2.85000e+00	2.012215e+04	
58	-2.90000e+00	2.050205e+04	
59	-2.95000e+00	2.087507e+04	
60	-3.00000e+00	2.124133e+04	
61	-3.05000e+00	2.160096e+04	
62	-3.10000e+00	2.195404e+04	
63	-3.15000e+00	2.230060e+04	
64	-3.20000e+00	2.264064e+04	
65	-3.25000e+00	2.297405e+04	
66	-3.30000e+00	2.330063e+04	
Reset re-loads circuit ***************************

Circuit: ***************************

Doing analysis at TEMP = -40.000000 and TNOM = -40.000000


No. of Data Rows : 67
                          ***************************
                          DC transfer characteristic  Mon Jan  9 13:57:31  2023
--------------------------------------------------------------------------------
Index   v-sweep         rds             
--------------------------------------------------------------------------------
0	0.000000e+00	7.480358e+02	
1	-5.00000e-02	7.721766e+02	
2	-1.00000e-01	7.975122e+02	
3	-1.50000e-01	8.241325e+02	
4	-2.00000e-01	8.521365e+02	
5	-2.50000e-01	8.816336e+02	
6	-3.00000e-01	9.127452e+02	
7	-3.50000e-01	9.456062e+02	
8	-4.00000e-01	9.803668e+02	
9	-4.50000e-01	1.017195e+03	
10	-5.00000e-01	1.056279e+03	
11	-5.50000e-01	1.097832e+03	
12	-6.00000e-01	1.142092e+03	
13	-6.50000e-01	1.189330e+03	
14	-7.00000e-01	1.239855e+03	
15	-7.50000e-01	1.294021e+03	
16	-8.00000e-01	1.352230e+03	
17	-8.50000e-01	1.414951e+03	
18	-9.00000e-01	1.482724e+03	
19	-9.50000e-01	1.556179e+03	
20	-1.00000e+00	1.636053e+03	
21	-1.05000e+00	1.723218e+03	
22	-1.10000e+00	1.818703e+03	
23	-1.15000e+00	1.923739e+03	
24	-1.20000e+00	2.039803e+03	
25	-1.25000e+00	2.168679e+03	
26	-1.30000e+00	2.312529e+03	
27	-1.35000e+00	2.473986e+03	
28	-1.40000e+00	2.656246e+03	
29	-1.45000e+00	2.863157e+03	
30	-1.50000e+00	3.099237e+03	
31	-1.55000e+00	3.369508e+03	
32	-1.60000e+00	3.678910e+03	
33	-1.65000e+00	4.031001e+03	
34	-1.70000e+00	4.425898e+03	
35	-1.75000e+00	4.858363e+03	
36	-1.80000e+00	5.318024e+03	
37	-1.85000e+00	5.792576e+03	
38	-1.90000e+00	6.271676e+03	
39	-1.95000e+00	6.748684e+03	
40	-2.00000e+00	7.220140e+03	
41	-2.05000e+00	7.684523e+03	
42	-2.10000e+00	8.141285e+03	
43	-2.15000e+00	8.590315e+03	
44	-2.20000e+00	9.031678e+03	
45	-2.25000e+00	9.465509e+03	
46	-2.30000e+00	9.891965e+03	
47	-2.35000e+00	1.031121e+04	
48	-2.40000e+00	1.072339e+04	
49	-2.45000e+00	1.112868e+04	
50	-2.50000e+00	1.152722e+04	
51	-2.55000e+00	1.191915e+04	
52	-2.60000e+00	1.230463e+04	
53	-2.65000e+00	1.268378e+04	
54	-2.70000e+00	1.305675e+04	

Index   v-sweep         rds             
--------------------------------------------------------------------------------
55	-2.75000e+00	1.342365e+04	
56	-2.80000e+00	1.378463e+04	
57	-2.85000e+00	1.413981e+04	
58	-2.90000e+00	1.448930e+04	
59	-2.95000e+00	1.483322e+04	
60	-3.00000e+00	1.517170e+04	
61	-3.05000e+00	1.550485e+04	
62	-3.10000e+00	1.583276e+04	
63	-3.15000e+00	1.615555e+04	
64	-3.20000e+00	1.647332e+04	
65	-3.25000e+00	1.678615e+04	
66	-3.30000e+00	1.709413e+04	
Reset re-loads circuit ***************************

Circuit: ***************************

Note: No ".plot", ".print", or ".fourier" lines; no simulations run
