
Note: Compatibility modes selected: hs

Warning: m=xx on .subckt line will override multiplier m hierarchy!


Circuit: ***************************

Doing analysis at TEMP = 125.000000 and TNOM = 125.000000


No. of Data Rows : 67
                          ***************************
                          DC transfer characteristic  Mon Jan  9 13:57:32  2023
--------------------------------------------------------------------------------
Index   v-sweep         rds             
--------------------------------------------------------------------------------
0	0.000000e+00	2.747670e+04	
1	-5.00000e-02	4.284949e+04	
2	-1.00000e-01	8.769151e+04	
3	-1.50000e-01	2.830028e+05	
4	-2.00000e-01	1.037033e+06	
5	-2.50000e-01	2.613638e+06	
6	-3.00000e-01	4.533254e+06	
7	-3.50000e-01	6.273118e+06	
8	-4.00000e-01	7.700401e+06	
9	-4.50000e-01	8.870293e+06	
10	-5.00000e-01	9.860538e+06	
11	-5.50000e-01	1.072897e+07	
12	-6.00000e-01	1.151323e+07	
13	-6.50000e-01	1.223715e+07	
14	-7.00000e-01	1.291601e+07	
15	-7.50000e-01	1.355979e+07	
16	-8.00000e-01	1.417525e+07	
17	-8.50000e-01	1.476707e+07	
18	-9.00000e-01	1.533861e+07	
19	-9.50000e-01	1.589233e+07	
20	-1.00000e+00	1.643010e+07	
21	-1.05000e+00	1.695338e+07	
22	-1.10000e+00	1.746331e+07	
23	-1.15000e+00	1.796084e+07	
24	-1.20000e+00	1.844673e+07	
25	-1.25000e+00	1.892165e+07	
26	-1.30000e+00	1.938617e+07	
27	-1.35000e+00	1.984077e+07	
28	-1.40000e+00	2.028590e+07	
29	-1.45000e+00	2.072194e+07	
30	-1.50000e+00	2.114925e+07	
31	-1.55000e+00	2.156815e+07	
32	-1.60000e+00	2.197892e+07	
33	-1.65000e+00	2.238183e+07	
34	-1.70000e+00	2.277711e+07	
35	-1.75000e+00	2.316495e+07	
36	-1.80000e+00	2.354550e+07	
37	-1.85000e+00	2.391889e+07	
38	-1.90000e+00	2.428514e+07	
39	-1.95000e+00	2.464421e+07	
40	-2.00000e+00	2.499595e+07	
41	-2.05000e+00	2.534007e+07	
42	-2.10000e+00	2.567611e+07	
43	-2.15000e+00	2.600339e+07	
44	-2.20000e+00	2.632097e+07	
45	-2.25000e+00	2.662763e+07	
46	-2.30000e+00	2.692176e+07	
47	-2.35000e+00	2.720135e+07	
48	-2.40000e+00	2.746396e+07	
49	-2.45000e+00	2.770660e+07	
50	-2.50000e+00	2.792578e+07	
51	-2.55000e+00	2.811744e+07	
52	-2.60000e+00	2.827699e+07	
53	-2.65000e+00	2.839931e+07	
54	-2.70000e+00	2.847883e+07	

Index   v-sweep         rds             
--------------------------------------------------------------------------------
55	-2.75000e+00	2.850966e+07	
56	-2.80000e+00	2.848574e+07	
57	-2.85000e+00	2.840102e+07	
58	-2.90000e+00	2.824975e+07	
59	-2.95000e+00	2.802676e+07	
60	-3.00000e+00	2.772775e+07	
61	-3.05000e+00	2.734963e+07	
62	-3.10000e+00	2.689084e+07	
63	-3.15000e+00	2.635152e+07	
64	-3.20000e+00	2.573373e+07	
65	-3.25000e+00	2.504150e+07	
66	-3.30000e+00	2.428073e+07	
Reset re-loads circuit ***************************

Circuit: ***************************

Doing analysis at TEMP = 125.000000 and TNOM = 125.000000


No. of Data Rows : 67
                          ***************************
                          DC transfer characteristic  Mon Jan  9 13:57:32  2023
--------------------------------------------------------------------------------
Index   v-sweep         rds             
--------------------------------------------------------------------------------
0	0.000000e+00	5.951631e+03	
1	-5.00000e-02	6.625168e+03	
2	-1.00000e-01	7.465807e+03	
3	-1.50000e-01	8.543918e+03	
4	-2.00000e-01	9.975025e+03	
5	-2.50000e-01	1.196149e+04	
6	-3.00000e-01	1.488724e+04	
7	-3.50000e-01	1.955346e+04	
8	-4.00000e-01	2.780847e+04	
9	-4.50000e-01	4.418305e+04	
10	-5.00000e-01	7.874899e+04	
11	-5.50000e-01	1.455108e+05	
12	-6.00000e-01	2.466697e+05	
13	-6.50000e-01	3.637945e+05	
14	-7.00000e-01	4.765677e+05	
15	-7.50000e-01	5.766210e+05	
16	-8.00000e-01	6.641015e+05	
17	-8.50000e-01	7.417574e+05	
18	-9.00000e-01	8.122889e+05	
19	-9.50000e-01	8.777289e+05	
20	-1.00000e+00	9.394893e+05	
21	-1.05000e+00	9.985292e+05	
22	-1.10000e+00	1.055502e+06	
23	-1.15000e+00	1.110859e+06	
24	-1.20000e+00	1.164915e+06	
25	-1.25000e+00	1.217897e+06	
26	-1.30000e+00	1.269968e+06	
27	-1.35000e+00	1.321252e+06	
28	-1.40000e+00	1.371840e+06	
29	-1.45000e+00	1.421803e+06	
30	-1.50000e+00	1.471196e+06	
31	-1.55000e+00	1.520062e+06	
32	-1.60000e+00	1.568436e+06	
33	-1.65000e+00	1.616348e+06	
34	-1.70000e+00	1.663820e+06	
35	-1.75000e+00	1.710872e+06	
36	-1.80000e+00	1.757522e+06	
37	-1.85000e+00	1.803782e+06	
38	-1.90000e+00	1.849665e+06	
39	-1.95000e+00	1.895181e+06	
40	-2.00000e+00	1.940338e+06	
41	-2.05000e+00	1.985141e+06	
42	-2.10000e+00	2.029593e+06	
43	-2.15000e+00	2.073694e+06	
44	-2.20000e+00	2.117437e+06	
45	-2.25000e+00	2.160809e+06	
46	-2.30000e+00	2.203786e+06	
47	-2.35000e+00	2.246332e+06	
48	-2.40000e+00	2.288393e+06	
49	-2.45000e+00	2.329894e+06	
50	-2.50000e+00	2.370731e+06	
51	-2.55000e+00	2.410764e+06	
52	-2.60000e+00	2.449813e+06	
53	-2.65000e+00	2.487646e+06	
54	-2.70000e+00	2.523972e+06	

Index   v-sweep         rds             
--------------------------------------------------------------------------------
55	-2.75000e+00	2.558436e+06	
56	-2.80000e+00	2.590606e+06	
57	-2.85000e+00	2.619974e+06	
58	-2.90000e+00	2.645949e+06	
59	-2.95000e+00	2.667862e+06	
60	-3.00000e+00	2.684971e+06	
61	-3.05000e+00	2.696477e+06	
62	-3.10000e+00	2.701542e+06	
63	-3.15000e+00	2.699327e+06	
64	-3.20000e+00	2.689025e+06	
65	-3.25000e+00	2.669912e+06	
66	-3.30000e+00	2.641397e+06	
Reset re-loads circuit ***************************

Circuit: ***************************

Doing analysis at TEMP = 125.000000 and TNOM = 125.000000


No. of Data Rows : 67
                          ***************************
                          DC transfer characteristic  Mon Jan  9 13:57:32  2023
--------------------------------------------------------------------------------
Index   v-sweep         rds             
--------------------------------------------------------------------------------
0	0.000000e+00	3.490830e+03	
1	-5.00000e-02	3.705564e+03	
2	-1.00000e-01	3.947381e+03	
3	-1.50000e-01	4.221736e+03	
4	-2.00000e-01	4.535653e+03	
5	-2.50000e-01	4.898323e+03	
6	-3.00000e-01	5.322002e+03	
7	-3.50000e-01	5.823398e+03	
8	-4.00000e-01	6.425858e+03	
9	-4.50000e-01	7.162965e+03	
10	-5.00000e-01	8.084668e+03	
11	-5.50000e-01	9.268216e+03	
12	-6.00000e-01	1.083853e+04	
13	-6.50000e-01	1.300793e+04	
14	-7.00000e-01	1.615607e+04	
15	-7.50000e-01	2.098920e+04	
16	-8.00000e-01	2.881867e+04	
17	-8.50000e-01	4.182969e+04	
18	-9.00000e-01	6.258744e+04	
19	-9.50000e-01	9.185457e+04	
20	-1.00000e+00	1.267300e+05	
21	-1.05000e+00	1.625820e+05	
22	-1.10000e+00	1.962728e+05	
23	-1.15000e+00	2.268391e+05	
24	-1.20000e+00	2.545245e+05	
25	-1.25000e+00	2.799233e+05	
26	-1.30000e+00	3.036051e+05	
27	-1.35000e+00	3.260156e+05	
28	-1.40000e+00	3.474795e+05	
29	-1.45000e+00	3.682273e+05	
30	-1.50000e+00	3.884225e+05	
31	-1.55000e+00	4.081817e+05	
32	-1.60000e+00	4.275890e+05	
33	-1.65000e+00	4.467058e+05	
34	-1.70000e+00	4.655778e+05	
35	-1.75000e+00	4.842393e+05	
36	-1.80000e+00	5.027166e+05	
37	-1.85000e+00	5.210300e+05	
38	-1.90000e+00	5.391952e+05	
39	-1.95000e+00	5.572250e+05	
40	-2.00000e+00	5.751294e+05	
41	-2.05000e+00	5.929168e+05	
42	-2.10000e+00	6.105937e+05	
43	-2.15000e+00	6.281658e+05	
44	-2.20000e+00	6.456378e+05	
45	-2.25000e+00	6.630133e+05	
46	-2.30000e+00	6.802957e+05	
47	-2.35000e+00	6.974873e+05	
48	-2.40000e+00	7.145899e+05	
49	-2.45000e+00	7.316041e+05	
50	-2.50000e+00	7.485295e+05	
51	-2.55000e+00	7.653638e+05	
52	-2.60000e+00	7.821026e+05	
53	-2.65000e+00	7.987378e+05	
54	-2.70000e+00	8.152572e+05	

Index   v-sweep         rds             
--------------------------------------------------------------------------------
55	-2.75000e+00	8.316422e+05	
56	-2.80000e+00	8.478667e+05	
57	-2.85000e+00	8.638942e+05	
58	-2.90000e+00	8.796757e+05	
59	-2.95000e+00	8.951463e+05	
60	-3.00000e+00	9.102225e+05	
61	-3.05000e+00	9.247981e+05	
62	-3.10000e+00	9.387414e+05	
63	-3.15000e+00	9.518917e+05	
64	-3.20000e+00	9.640565e+05	
65	-3.25000e+00	9.750103e+05	
66	-3.30000e+00	9.844941e+05	
Reset re-loads circuit ***************************

Circuit: ***************************

Doing analysis at TEMP = 125.000000 and TNOM = 125.000000


No. of Data Rows : 67
                          ***************************
                          DC transfer characteristic  Mon Jan  9 13:57:32  2023
--------------------------------------------------------------------------------
Index   v-sweep         rds             
--------------------------------------------------------------------------------
0	0.000000e+00	2.567527e+03	
1	-5.00000e-02	2.675262e+03	
2	-1.00000e-01	2.791968e+03	
3	-1.50000e-01	2.918816e+03	
4	-2.00000e-01	3.057183e+03	
5	-2.50000e-01	3.208713e+03	
6	-3.00000e-01	3.375373e+03	
7	-3.50000e-01	3.559546e+03	
8	-4.00000e-01	3.764137e+03	
9	-4.50000e-01	3.992731e+03	
10	-5.00000e-01	4.249801e+03	
11	-5.50000e-01	4.540999e+03	
12	-6.00000e-01	4.873563e+03	
13	-6.50000e-01	5.256920e+03	
14	-7.00000e-01	5.703555e+03	
15	-7.50000e-01	6.230342e+03	
16	-8.00000e-01	6.860605e+03	
17	-8.50000e-01	7.627392e+03	
18	-9.00000e-01	8.578872e+03	
19	-9.50000e-01	9.787402e+03	
20	-1.00000e+00	1.136515e+04	
21	-1.05000e+00	1.349098e+04	
22	-1.10000e+00	1.645513e+04	
23	-1.15000e+00	2.072246e+04	
24	-1.20000e+00	2.698081e+04	
25	-1.25000e+00	3.604351e+04	
26	-1.30000e+00	4.841069e+04	
27	-1.35000e+00	6.365314e+04	
28	-1.40000e+00	8.040108e+04	
29	-1.45000e+00	9.716439e+04	
30	-1.50000e+00	1.130403e+05	
31	-1.55000e+00	1.277559e+05	
32	-1.60000e+00	1.413897e+05	
33	-1.65000e+00	1.541369e+05	
34	-1.70000e+00	1.661955e+05	
35	-1.75000e+00	1.777288e+05	
36	-1.80000e+00	1.888613e+05	
37	-1.85000e+00	1.996851e+05	
38	-1.90000e+00	2.102675e+05	
39	-1.95000e+00	2.206577e+05	
40	-2.00000e+00	2.308920e+05	
41	-2.05000e+00	2.409977e+05	
42	-2.10000e+00	2.509950e+05	
43	-2.15000e+00	2.608995e+05	
44	-2.20000e+00	2.707232e+05	
45	-2.25000e+00	2.804754e+05	
46	-2.30000e+00	2.901634e+05	
47	-2.35000e+00	2.997932e+05	
48	-2.40000e+00	3.093695e+05	
49	-2.45000e+00	3.188961e+05	
50	-2.50000e+00	3.283761e+05	
51	-2.55000e+00	3.378122e+05	
52	-2.60000e+00	3.472064e+05	
53	-2.65000e+00	3.565607e+05	
54	-2.70000e+00	3.658762e+05	

Index   v-sweep         rds             
--------------------------------------------------------------------------------
55	-2.75000e+00	3.751542e+05	
56	-2.80000e+00	3.843952e+05	
57	-2.85000e+00	3.935993e+05	
58	-2.90000e+00	4.027658e+05	
59	-2.95000e+00	4.118930e+05	
60	-3.00000e+00	4.209780e+05	
61	-3.05000e+00	4.300155e+05	
62	-3.10000e+00	4.389978e+05	
63	-3.15000e+00	4.479136e+05	
64	-3.20000e+00	4.567467e+05	
65	-3.25000e+00	4.654751e+05	
66	-3.30000e+00	4.740692e+05	
Reset re-loads circuit ***************************

Circuit: ***************************

Doing analysis at TEMP = 125.000000 and TNOM = 125.000000


No. of Data Rows : 67
                          ***************************
                          DC transfer characteristic  Mon Jan  9 13:57:32  2023
--------------------------------------------------------------------------------
Index   v-sweep         rds             
--------------------------------------------------------------------------------
0	0.000000e+00	2.085033e+03	
1	-5.00000e-02	2.151018e+03	
2	-1.00000e-01	2.221058e+03	
3	-1.50000e-01	2.295535e+03	
4	-2.00000e-01	2.374887e+03	
5	-2.50000e-01	2.459606e+03	
6	-3.00000e-01	2.550257e+03	
7	-3.50000e-01	2.647485e+03	
8	-4.00000e-01	2.752029e+03	
9	-4.50000e-01	2.864750e+03	
10	-5.00000e-01	2.986641e+03	
11	-5.50000e-01	3.118870e+03	
12	-6.00000e-01	3.262805e+03	
13	-6.50000e-01	3.420071e+03	
14	-7.00000e-01	3.592604e+03	
15	-7.50000e-01	3.782735e+03	
16	-8.00000e-01	3.993290e+03	
17	-8.50000e-01	4.227733e+03	
18	-9.00000e-01	4.490349e+03	
19	-9.50000e-01	4.786507e+03	
20	-1.00000e+00	5.123015e+03	
21	-1.05000e+00	5.508629e+03	
22	-1.10000e+00	5.954785e+03	
23	-1.15000e+00	6.476676e+03	
24	-1.20000e+00	7.094865e+03	
25	-1.25000e+00	7.837747e+03	
26	-1.30000e+00	8.745364e+03	
27	-1.35000e+00	9.875366e+03	
28	-1.40000e+00	1.131226e+04	
29	-1.45000e+00	1.318119e+04	
30	-1.50000e+00	1.566603e+04	
31	-1.55000e+00	1.902504e+04	
32	-1.60000e+00	2.357980e+04	
33	-1.65000e+00	2.962935e+04	
34	-1.70000e+00	3.726385e+04	
35	-1.75000e+00	4.619190e+04	
36	-1.80000e+00	5.580339e+04	
37	-1.85000e+00	6.546586e+04	
38	-1.90000e+00	7.476829e+04	
39	-1.95000e+00	8.355225e+04	
40	-2.00000e+00	9.182062e+04	
41	-2.05000e+00	9.964467e+04	
42	-2.10000e+00	1.071098e+05	
43	-2.15000e+00	1.142930e+05	
44	-2.20000e+00	1.212562e+05	
45	-2.25000e+00	1.280472e+05	
46	-2.30000e+00	1.347022e+05	
47	-2.35000e+00	1.412481e+05	
48	-2.40000e+00	1.477055e+05	
49	-2.45000e+00	1.540895e+05	
50	-2.50000e+00	1.604121e+05	
51	-2.55000e+00	1.666821e+05	
52	-2.60000e+00	1.729066e+05	
53	-2.65000e+00	1.790911e+05	
54	-2.70000e+00	1.852400e+05	

Index   v-sweep         rds             
--------------------------------------------------------------------------------
55	-2.75000e+00	1.913566e+05	
56	-2.80000e+00	1.974439e+05	
57	-2.85000e+00	2.035042e+05	
58	-2.90000e+00	2.095392e+05	
59	-2.95000e+00	2.155505e+05	
60	-3.00000e+00	2.215395e+05	
61	-3.05000e+00	2.275071e+05	
62	-3.10000e+00	2.334541e+05	
63	-3.15000e+00	2.393813e+05	
64	-3.20000e+00	2.452888e+05	
65	-3.25000e+00	2.511767e+05	
66	-3.30000e+00	2.570446e+05	
Reset re-loads circuit ***************************

Circuit: ***************************

Doing analysis at TEMP = 125.000000 and TNOM = 125.000000


No. of Data Rows : 67
                          ***************************
                          DC transfer characteristic  Mon Jan  9 13:57:32  2023
--------------------------------------------------------------------------------
Index   v-sweep         rds             
--------------------------------------------------------------------------------
0	0.000000e+00	1.788996e+03	
1	-5.00000e-02	1.834185e+03	
2	-1.00000e-01	1.881551e+03	
3	-1.50000e-01	1.931256e+03	
4	-2.00000e-01	1.983475e+03	
5	-2.50000e-01	2.038406e+03	
6	-3.00000e-01	2.096264e+03	
7	-3.50000e-01	2.157290e+03	
8	-4.00000e-01	2.221752e+03	
9	-4.50000e-01	2.289946e+03	
10	-5.00000e-01	2.362208e+03	
11	-5.50000e-01	2.438911e+03	
12	-6.00000e-01	2.520477e+03	
13	-6.50000e-01	2.607384e+03	
14	-7.00000e-01	2.700174e+03	
15	-7.50000e-01	2.799463e+03	
16	-8.00000e-01	2.905958e+03	
17	-8.50000e-01	3.020472e+03	
18	-9.00000e-01	3.143945e+03	
19	-9.50000e-01	3.277467e+03	
20	-1.00000e+00	3.422315e+03	
21	-1.05000e+00	3.579989e+03	
22	-1.10000e+00	3.752266e+03	
23	-1.15000e+00	3.941265e+03	
24	-1.20000e+00	4.149531e+03	
25	-1.25000e+00	4.380151e+03	
26	-1.30000e+00	4.636902e+03	
27	-1.35000e+00	4.924451e+03	
28	-1.40000e+00	5.248628e+03	
29	-1.45000e+00	5.616804e+03	
30	-1.50000e+00	6.038419e+03	
31	-1.55000e+00	6.525730e+03	
32	-1.60000e+00	7.094883e+03	
33	-1.65000e+00	7.767477e+03	
34	-1.70000e+00	8.572828e+03	
35	-1.75000e+00	9.551254e+03	
36	-1.80000e+00	1.075868e+04	
37	-1.85000e+00	1.227266e+04	
38	-1.90000e+00	1.419865e+04	
39	-1.95000e+00	1.667262e+04	
40	-2.00000e+00	1.984969e+04	
41	-2.05000e+00	2.386354e+04	
42	-2.10000e+00	2.875245e+04	
43	-2.15000e+00	3.439092e+04	
44	-2.20000e+00	4.050102e+04	
45	-2.25000e+00	4.675990e+04	
46	-2.30000e+00	5.291723e+04	
47	-2.35000e+00	5.884025e+04	
48	-2.40000e+00	6.449174e+04	
49	-2.45000e+00	6.988796e+04	
50	-2.50000e+00	7.506595e+04	
51	-2.55000e+00	8.006577e+04	
52	-2.60000e+00	8.492298e+04	
53	-2.65000e+00	8.966667e+04	
54	-2.70000e+00	9.431969e+04	

Index   v-sweep         rds             
--------------------------------------------------------------------------------
55	-2.75000e+00	9.889967e+04	
56	-2.80000e+00	1.034201e+05	
57	-2.85000e+00	1.078915e+05	
58	-2.90000e+00	1.123217e+05	
59	-2.95000e+00	1.167170e+05	
60	-3.00000e+00	1.210822e+05	
61	-3.05000e+00	1.254212e+05	
62	-3.10000e+00	1.297370e+05	
63	-3.15000e+00	1.340319e+05	
64	-3.20000e+00	1.383080e+05	
65	-3.25000e+00	1.425669e+05	
66	-3.30000e+00	1.468099e+05	
Reset re-loads circuit ***************************

Circuit: ***************************

Note: No ".plot", ".print", or ".fourier" lines; no simulations run
