
Note: Compatibility modes selected: hs

Warning: m=xx on .subckt line will override multiplier m hierarchy!


Circuit: ***************************

Doing analysis at TEMP = -40.000000 and TNOM = -40.000000


No. of Data Rows : 67
                          ***************************
                          DC transfer characteristic  Mon Jan  9 13:57:31  2023
--------------------------------------------------------------------------------
Index   v-sweep         rds             
--------------------------------------------------------------------------------
0	0.000000e+00	1.892419e+05	
1	-5.00000e-02	6.286082e+05	
2	-1.00000e-01	3.170677e+06	
3	-1.50000e-01	6.323028e+06	
4	-2.00000e-01	7.671977e+06	
5	-2.50000e-01	8.214373e+06	
6	-3.00000e-01	8.474855e+06	
7	-3.50000e-01	8.615997e+06	
8	-4.00000e-01	8.694877e+06	
9	-4.50000e-01	8.735668e+06	
10	-5.00000e-01	8.750500e+06	
11	-5.50000e-01	8.746358e+06	
12	-6.00000e-01	8.727721e+06	
13	-6.50000e-01	8.697687e+06	
14	-7.00000e-01	8.658532e+06	
15	-7.50000e-01	8.611988e+06	
16	-8.00000e-01	8.559419e+06	
17	-8.50000e-01	8.501917e+06	
18	-9.00000e-01	8.440372e+06	
19	-9.50000e-01	8.375521e+06	
20	-1.00000e+00	8.307975e+06	
21	-1.05000e+00	8.238248e+06	
22	-1.10000e+00	8.166776e+06	
23	-1.15000e+00	8.093926e+06	
24	-1.20000e+00	8.020014e+06	
25	-1.25000e+00	7.945309e+06	
26	-1.30000e+00	7.870041e+06	
27	-1.35000e+00	7.794410e+06	
28	-1.40000e+00	7.718586e+06	
29	-1.45000e+00	7.642717e+06	
30	-1.50000e+00	7.566930e+06	
31	-1.55000e+00	7.491336e+06	
32	-1.60000e+00	7.416029e+06	
33	-1.65000e+00	7.341091e+06	
34	-1.70000e+00	7.266589e+06	
35	-1.75000e+00	7.192582e+06	
36	-1.80000e+00	7.119118e+06	
37	-1.85000e+00	7.046237e+06	
38	-1.90000e+00	6.973966e+06	
39	-1.95000e+00	6.902327e+06	
40	-2.00000e+00	6.831331e+06	
41	-2.05000e+00	6.760981e+06	
42	-2.10000e+00	6.691268e+06	
43	-2.15000e+00	6.622176e+06	
44	-2.20000e+00	6.553676e+06	
45	-2.25000e+00	6.485729e+06	
46	-2.30000e+00	6.418284e+06	
47	-2.35000e+00	6.351279e+06	
48	-2.40000e+00	6.284638e+06	
49	-2.45000e+00	6.218272e+06	
50	-2.50000e+00	6.152078e+06	
51	-2.55000e+00	6.085941e+06	
52	-2.60000e+00	6.019732e+06	
53	-2.65000e+00	5.953310e+06	
54	-2.70000e+00	5.886519e+06	

Index   v-sweep         rds             
--------------------------------------------------------------------------------
55	-2.75000e+00	5.819193e+06	
56	-2.80000e+00	5.751157e+06	
57	-2.85000e+00	5.682225e+06	
58	-2.90000e+00	5.612205e+06	
59	-2.95000e+00	5.540901e+06	
60	-3.00000e+00	5.468114e+06	
61	-3.05000e+00	5.393647e+06	
62	-3.10000e+00	5.317306e+06	
63	-3.15000e+00	5.238908e+06	
64	-3.20000e+00	5.158280e+06	
65	-3.25000e+00	5.075267e+06	
66	-3.30000e+00	4.989732e+06	
Reset re-loads circuit ***************************

Circuit: ***************************

Doing analysis at TEMP = -40.000000 and TNOM = -40.000000


No. of Data Rows : 67
                          ***************************
                          DC transfer characteristic  Mon Jan  9 13:57:31  2023
--------------------------------------------------------------------------------
Index   v-sweep         rds             
--------------------------------------------------------------------------------
0	0.000000e+00	1.232769e+04	
1	-5.00000e-02	1.389746e+04	
2	-1.00000e-01	1.586918e+04	
3	-1.50000e-01	1.841743e+04	
4	-2.00000e-01	2.183166e+04	
5	-2.50000e-01	2.662212e+04	
6	-3.00000e-01	3.374904e+04	
7	-3.50000e-01	4.510340e+04	
8	-4.00000e-01	6.418151e+04	
9	-4.50000e-01	9.490872e+04	
10	-5.00000e-01	1.343611e+05	
11	-5.50000e-01	1.713722e+05	
12	-6.00000e-01	2.003287e+05	
13	-6.50000e-01	2.227401e+05	
14	-7.00000e-01	2.410876e+05	
15	-7.50000e-01	2.569380e+05	
16	-8.00000e-01	2.711356e+05	
17	-8.50000e-01	2.841372e+05	
18	-9.00000e-01	2.962043e+05	
19	-9.50000e-01	3.074982e+05	
20	-1.00000e+00	3.181259e+05	
21	-1.05000e+00	3.281638e+05	
22	-1.10000e+00	3.376697e+05	
23	-1.15000e+00	3.466897e+05	
24	-1.20000e+00	3.552616e+05	
25	-1.25000e+00	3.634180e+05	
26	-1.30000e+00	3.711871e+05	
27	-1.35000e+00	3.785938e+05	
28	-1.40000e+00	3.856607e+05	
29	-1.45000e+00	3.924079e+05	
30	-1.50000e+00	3.988540e+05	
31	-1.55000e+00	4.050161e+05	
32	-1.60000e+00	4.109098e+05	
33	-1.65000e+00	4.165495e+05	
34	-1.70000e+00	4.219488e+05	
35	-1.75000e+00	4.271200e+05	
36	-1.80000e+00	4.320749e+05	
37	-1.85000e+00	4.368242e+05	
38	-1.90000e+00	4.413780e+05	
39	-1.95000e+00	4.457458e+05	
40	-2.00000e+00	4.499362e+05	
41	-2.05000e+00	4.539573e+05	
42	-2.10000e+00	4.578165e+05	
43	-2.15000e+00	4.615201e+05	
44	-2.20000e+00	4.650740e+05	
45	-2.25000e+00	4.684827e+05	
46	-2.30000e+00	4.717497e+05	
47	-2.35000e+00	4.748771e+05	
48	-2.40000e+00	4.778654e+05	
49	-2.45000e+00	4.807131e+05	
50	-2.50000e+00	4.834164e+05	
51	-2.55000e+00	4.859689e+05	
52	-2.60000e+00	4.883612e+05	
53	-2.65000e+00	4.905803e+05	
54	-2.70000e+00	4.926096e+05	

Index   v-sweep         rds             
--------------------------------------------------------------------------------
55	-2.75000e+00	4.944282e+05	
56	-2.80000e+00	4.960105e+05	
57	-2.85000e+00	4.973262e+05	
58	-2.90000e+00	4.983400e+05	
59	-2.95000e+00	4.990117e+05	
60	-3.00000e+00	4.992960e+05	
61	-3.05000e+00	4.991431e+05	
62	-3.10000e+00	4.984993e+05	
63	-3.15000e+00	4.973077e+05	
64	-3.20000e+00	4.955096e+05	
65	-3.25000e+00	4.930458e+05	
66	-3.30000e+00	4.898582e+05	
Reset re-loads circuit ***************************

Circuit: ***************************

Doing analysis at TEMP = -40.000000 and TNOM = -40.000000


No. of Data Rows : 67
                          ***************************
                          DC transfer characteristic  Mon Jan  9 13:57:31  2023
--------------------------------------------------------------------------------
Index   v-sweep         rds             
--------------------------------------------------------------------------------
0	0.000000e+00	6.980646e+03	
1	-5.00000e-02	7.457071e+03	
2	-1.00000e-01	7.991255e+03	
3	-1.50000e-01	8.594307e+03	
4	-2.00000e-01	9.280362e+03	
5	-2.50000e-01	1.006769e+04	
6	-3.00000e-01	1.098027e+04	
7	-3.50000e-01	1.205022e+04	
8	-4.00000e-01	1.332143e+04	
9	-4.50000e-01	1.485528e+04	
10	-5.00000e-01	1.673975e+04	
11	-5.50000e-01	1.910401e+04	
12	-6.00000e-01	2.214132e+04	
13	-6.50000e-01	2.614068e+04	
14	-7.00000e-01	3.151133e+04	
15	-7.50000e-01	3.872117e+04	
16	-8.00000e-01	4.796544e+04	
17	-8.50000e-01	5.860039e+04	
18	-9.00000e-01	6.924769e+04	
19	-9.50000e-01	7.888918e+04	
20	-1.00000e+00	8.735382e+04	
21	-1.05000e+00	9.488354e+04	
22	-1.10000e+00	1.017464e+05	
23	-1.15000e+00	1.081315e+05	
24	-1.20000e+00	1.141569e+05	
25	-1.25000e+00	1.198957e+05	
26	-1.30000e+00	1.253942e+05	
27	-1.35000e+00	1.306829e+05	
28	-1.40000e+00	1.357832e+05	
29	-1.45000e+00	1.407109e+05	
30	-1.50000e+00	1.454781e+05	
31	-1.55000e+00	1.500947e+05	
32	-1.60000e+00	1.545689e+05	
33	-1.65000e+00	1.589079e+05	
34	-1.70000e+00	1.631180e+05	
35	-1.75000e+00	1.672049e+05	
36	-1.80000e+00	1.711737e+05	
37	-1.85000e+00	1.750293e+05	
38	-1.90000e+00	1.787761e+05	
39	-1.95000e+00	1.824182e+05	
40	-2.00000e+00	1.859597e+05	
41	-2.05000e+00	1.894041e+05	
42	-2.10000e+00	1.927551e+05	
43	-2.15000e+00	1.960158e+05	
44	-2.20000e+00	1.991895e+05	
45	-2.25000e+00	2.022792e+05	
46	-2.30000e+00	2.052876e+05	
47	-2.35000e+00	2.082173e+05	
48	-2.40000e+00	2.110709e+05	
49	-2.45000e+00	2.138504e+05	
50	-2.50000e+00	2.165578e+05	
51	-2.55000e+00	2.191945e+05	
52	-2.60000e+00	2.217615e+05	
53	-2.65000e+00	2.242592e+05	
54	-2.70000e+00	2.266873e+05	

Index   v-sweep         rds             
--------------------------------------------------------------------------------
55	-2.75000e+00	2.290443e+05	
56	-2.80000e+00	2.313276e+05	
57	-2.85000e+00	2.335332e+05	
58	-2.90000e+00	2.356552e+05	
59	-2.95000e+00	2.376855e+05	
60	-3.00000e+00	2.396138e+05	
61	-3.05000e+00	2.414269e+05	
62	-3.10000e+00	2.431086e+05	
63	-3.15000e+00	2.446393e+05	
64	-3.20000e+00	2.459956e+05	
65	-3.25000e+00	2.471507e+05	
66	-3.30000e+00	2.480739e+05	
Reset re-loads circuit ***************************

Circuit: ***************************

Doing analysis at TEMP = -40.000000 and TNOM = -40.000000


No. of Data Rows : 67
                          ***************************
                          DC transfer characteristic  Mon Jan  9 13:57:31  2023
--------------------------------------------------------------------------------
Index   v-sweep         rds             
--------------------------------------------------------------------------------
0	0.000000e+00	5.239142e+03	
1	-5.00000e-02	5.491120e+03	
2	-1.00000e-01	5.763275e+03	
3	-1.50000e-01	6.058113e+03	
4	-2.00000e-01	6.378570e+03	
5	-2.50000e-01	6.728113e+03	
6	-3.00000e-01	7.110858e+03	
7	-3.50000e-01	7.531737e+03	
8	-4.00000e-01	7.996704e+03	
9	-4.50000e-01	8.513011e+03	
10	-5.00000e-01	9.089579e+03	
11	-5.50000e-01	9.737500e+03	
12	-6.00000e-01	1.047072e+04	
13	-6.50000e-01	1.130700e+04	
14	-7.00000e-01	1.226925e+04	
15	-7.50000e-01	1.338739e+04	
16	-8.00000e-01	1.470104e+04	
17	-8.50000e-01	1.626310e+04	
18	-9.00000e-01	1.814434e+04	
19	-9.50000e-01	2.043785e+04	
20	-1.00000e+00	2.325906e+04	
21	-1.05000e+00	2.672871e+04	
22	-1.10000e+00	3.091649e+04	
23	-1.15000e+00	3.574001e+04	
24	-1.20000e+00	4.090828e+04	
25	-1.25000e+00	4.604728e+04	
26	-1.30000e+00	5.091194e+04	
27	-1.35000e+00	5.544241e+04	
28	-1.40000e+00	5.967919e+04	
29	-1.45000e+00	6.368357e+04	
30	-1.50000e+00	6.750627e+04	
31	-1.55000e+00	7.118295e+04	
32	-1.60000e+00	7.473752e+04	
33	-1.65000e+00	7.818606e+04	
34	-1.70000e+00	8.153968e+04	
35	-1.75000e+00	8.480631e+04	
36	-1.80000e+00	8.799189e+04	
37	-1.85000e+00	9.110108e+04	
38	-1.90000e+00	9.413761e+04	
39	-1.95000e+00	9.710468e+04	
40	-2.00000e+00	1.000050e+05	
41	-2.05000e+00	1.028410e+05	
42	-2.10000e+00	1.056150e+05	
43	-2.15000e+00	1.083289e+05	
44	-2.20000e+00	1.109846e+05	
45	-2.25000e+00	1.135839e+05	
46	-2.30000e+00	1.161285e+05	
47	-2.35000e+00	1.186199e+05	
48	-2.40000e+00	1.210596e+05	
49	-2.45000e+00	1.234492e+05	
50	-2.50000e+00	1.257898e+05	
51	-2.55000e+00	1.280830e+05	
52	-2.60000e+00	1.303299e+05	
53	-2.65000e+00	1.325317e+05	
54	-2.70000e+00	1.346894e+05	

Index   v-sweep         rds             
--------------------------------------------------------------------------------
55	-2.75000e+00	1.368041e+05	
56	-2.80000e+00	1.388765e+05	
57	-2.85000e+00	1.409073e+05	
58	-2.90000e+00	1.428969e+05	
59	-2.95000e+00	1.448451e+05	
60	-3.00000e+00	1.467515e+05	
61	-3.05000e+00	1.486149e+05	
62	-3.10000e+00	1.504334e+05	
63	-3.15000e+00	1.522041e+05	
64	-3.20000e+00	1.539227e+05	
65	-3.25000e+00	1.555835e+05	
66	-3.30000e+00	1.571791e+05	
Reset re-loads circuit ***************************

Circuit: ***************************

Doing analysis at TEMP = -40.000000 and TNOM = -40.000000


No. of Data Rows : 67
                          ***************************
                          DC transfer characteristic  Mon Jan  9 13:57:31  2023
--------------------------------------------------------------------------------
Index   v-sweep         rds             
--------------------------------------------------------------------------------
0	0.000000e+00	4.388312e+03	
1	-5.00000e-02	4.553397e+03	
2	-1.00000e-01	4.728387e+03	
3	-1.50000e-01	4.914192e+03	
4	-2.00000e-01	5.111836e+03	
5	-2.50000e-01	5.322478e+03	
6	-3.00000e-01	5.547432e+03	
7	-3.50000e-01	5.788196e+03	
8	-4.00000e-01	6.046483e+03	
9	-4.50000e-01	6.324264e+03	
10	-5.00000e-01	6.623814e+03	
11	-5.50000e-01	6.947777e+03	
12	-6.00000e-01	7.299239e+03	
13	-6.50000e-01	7.681828e+03	
14	-7.00000e-01	8.099833e+03	
15	-7.50000e-01	8.558364e+03	
16	-8.00000e-01	9.063546e+03	
17	-8.50000e-01	9.622787e+03	
18	-9.00000e-01	1.024511e+04	
19	-9.50000e-01	1.094162e+04	
20	-1.00000e+00	1.172604e+04	
21	-1.05000e+00	1.261555e+04	
22	-1.10000e+00	1.363167e+04	
23	-1.15000e+00	1.480148e+04	
24	-1.20000e+00	1.615872e+04	
25	-1.25000e+00	1.774446e+04	
26	-1.30000e+00	1.960550e+04	
27	-1.35000e+00	2.178742e+04	
28	-1.40000e+00	2.431726e+04	
29	-1.45000e+00	2.717511e+04	
30	-1.50000e+00	3.027193e+04	
31	-1.55000e+00	3.346798e+04	
32	-1.60000e+00	3.663352e+04	
33	-1.65000e+00	3.969564e+04	
34	-1.70000e+00	4.263577e+04	
35	-1.75000e+00	4.546315e+04	
36	-1.80000e+00	4.819435e+04	
37	-1.85000e+00	5.084438e+04	
38	-1.90000e+00	5.342471e+04	
39	-1.95000e+00	5.594358e+04	
40	-2.00000e+00	5.840687e+04	
41	-2.05000e+00	6.081887e+04	
42	-2.10000e+00	6.318276e+04	
43	-2.15000e+00	6.550103e+04	
44	-2.20000e+00	6.777565e+04	
45	-2.25000e+00	7.000829e+04	
46	-2.30000e+00	7.220037e+04	
47	-2.35000e+00	7.435315e+04	
48	-2.40000e+00	7.646775e+04	
49	-2.45000e+00	7.854522e+04	
50	-2.50000e+00	8.058652e+04	
51	-2.55000e+00	8.259255e+04	
52	-2.60000e+00	8.456419e+04	
53	-2.65000e+00	8.650223e+04	
54	-2.70000e+00	8.840747e+04	

Index   v-sweep         rds             
--------------------------------------------------------------------------------
55	-2.75000e+00	9.028067e+04	
56	-2.80000e+00	9.212253e+04	
57	-2.85000e+00	9.393375e+04	
58	-2.90000e+00	9.571500e+04	
59	-2.95000e+00	9.746689e+04	
60	-3.00000e+00	9.919000e+04	
61	-3.05000e+00	1.008848e+05	
62	-3.10000e+00	1.025518e+05	
63	-3.15000e+00	1.041912e+05	
64	-3.20000e+00	1.058031e+05	
65	-3.25000e+00	1.073874e+05	
66	-3.30000e+00	1.089435e+05	
Reset re-loads circuit ***************************

Circuit: ***************************

Doing analysis at TEMP = -40.000000 and TNOM = -40.000000


No. of Data Rows : 67
                          ***************************
                          DC transfer characteristic  Mon Jan  9 13:57:31  2023
--------------------------------------------------------------------------------
Index   v-sweep         rds             
--------------------------------------------------------------------------------
0	0.000000e+00	3.891324e+03	
1	-5.00000e-02	4.012252e+03	
2	-1.00000e-01	4.138989e+03	
3	-1.50000e-01	4.271959e+03	
4	-2.00000e-01	4.411628e+03	
5	-2.50000e-01	4.558510e+03	
6	-3.00000e-01	4.713172e+03	
7	-3.50000e-01	4.876243e+03	
8	-4.00000e-01	5.048422e+03	
9	-4.50000e-01	5.230485e+03	
10	-5.00000e-01	5.423302e+03	
11	-5.50000e-01	5.627846e+03	
12	-6.00000e-01	5.845212e+03	
13	-6.50000e-01	6.076634e+03	
14	-7.00000e-01	6.323511e+03	
15	-7.50000e-01	6.587430e+03	
16	-8.00000e-01	6.870206e+03	
17	-8.50000e-01	7.173918e+03	
18	-9.00000e-01	7.500960e+03	
19	-9.50000e-01	7.854102e+03	
20	-1.00000e+00	8.236566e+03	
21	-1.05000e+00	8.652122e+03	
22	-1.10000e+00	9.105199e+03	
23	-1.15000e+00	9.601040e+03	
24	-1.20000e+00	1.014588e+04	
25	-1.25000e+00	1.074718e+04	
26	-1.30000e+00	1.141390e+04	
27	-1.35000e+00	1.215687e+04	
28	-1.40000e+00	1.298916e+04	
29	-1.45000e+00	1.392651e+04	
30	-1.50000e+00	1.498760e+04	
31	-1.55000e+00	1.619398e+04	
32	-1.60000e+00	1.756882e+04	
33	-1.65000e+00	1.913358e+04	
34	-1.70000e+00	2.090092e+04	
35	-1.75000e+00	2.286406e+04	
36	-1.80000e+00	2.498773e+04	
37	-1.85000e+00	2.721110e+04	
38	-1.90000e+00	2.946742e+04	
39	-1.95000e+00	3.170623e+04	
40	-2.00000e+00	3.390145e+04	
41	-2.05000e+00	3.604536e+04	
42	-2.10000e+00	3.813929e+04	
43	-2.15000e+00	4.018748e+04	
44	-2.20000e+00	4.219429e+04	
45	-2.25000e+00	4.416335e+04	
46	-2.30000e+00	4.609745e+04	
47	-2.35000e+00	4.799875e+04	
48	-2.40000e+00	4.986889e+04	
49	-2.45000e+00	5.170918e+04	
50	-2.50000e+00	5.352069e+04	
51	-2.55000e+00	5.530431e+04	
52	-2.60000e+00	5.706082e+04	
53	-2.65000e+00	5.879092e+04	
54	-2.70000e+00	6.049522e+04	

Index   v-sweep         rds             
--------------------------------------------------------------------------------
55	-2.75000e+00	6.217432e+04	
56	-2.80000e+00	6.382875e+04	
57	-2.85000e+00	6.545903e+04	
58	-2.90000e+00	6.706565e+04	
59	-2.95000e+00	6.864908e+04	
60	-3.00000e+00	7.020977e+04	
61	-3.05000e+00	7.174816e+04	
62	-3.10000e+00	7.326468e+04	
63	-3.15000e+00	7.475972e+04	
64	-3.20000e+00	7.623368e+04	
65	-3.25000e+00	7.768694e+04	
66	-3.30000e+00	7.911981e+04	
Reset re-loads circuit ***************************

Circuit: ***************************

Note: No ".plot", ".print", or ".fourier" lines; no simulations run
