
Note: Compatibility modes selected: hs

Warning: m=xx on .subckt line will override multiplier m hierarchy!


Circuit: ***************************

Doing analysis at TEMP = 25.000000 and TNOM = 25.000000


No. of Data Rows : 67
                          ***************************
                          DC transfer characteristic  Mon Jan  9 13:57:30  2023
--------------------------------------------------------------------------------
Index   v-sweep         rds             
--------------------------------------------------------------------------------
0	0.000000e+00	5.606894e+06	
1	-5.00000e-02	1.871680e+07	
2	-1.00000e-01	1.382924e+08	
3	-1.50000e-01	7.024664e+08	
4	-2.00000e-01	2.081711e+09	
5	-2.50000e-01	4.391071e+09	
6	-3.00000e-01	7.436106e+09	
7	-3.50000e-01	1.085327e+10	
8	-4.00000e-01	1.429661e+10	
9	-4.50000e-01	1.753741e+10	
10	-5.00000e-01	2.046785e+10	
11	-5.50000e-01	2.306279e+10	
12	-6.00000e-01	2.534095e+10	
13	-6.50000e-01	2.733879e+10	
14	-7.00000e-01	2.909644e+10	
15	-7.50000e-01	3.065133e+10	
16	-8.00000e-01	3.203588e+10	
17	-8.50000e-01	3.327720e+10	
18	-9.00000e-01	3.439760e+10	
19	-9.50000e-01	3.541527e+10	
20	-1.00000e+00	3.634509e+10	
21	-1.05000e+00	3.719921e+10	
22	-1.10000e+00	3.798762e+10	
23	-1.15000e+00	3.871861e+10	
24	-1.20000e+00	3.939906e+10	
25	-1.25000e+00	4.003473e+10	
26	-1.30000e+00	4.063052e+10	
27	-1.35000e+00	4.119056e+10	
28	-1.40000e+00	4.171841e+10	
29	-1.45000e+00	4.221712e+10	
30	-1.50000e+00	4.268934e+10	
31	-1.55000e+00	4.313737e+10	
32	-1.60000e+00	4.356322e+10	
33	-1.65000e+00	4.396866e+10	
34	-1.70000e+00	4.435522e+10	
35	-1.75000e+00	4.472424e+10	
36	-1.80000e+00	4.507688e+10	
37	-1.85000e+00	4.541412e+10	
38	-1.90000e+00	4.573676e+10	
39	-1.95000e+00	4.604544e+10	
40	-2.00000e+00	4.634059e+10	
41	-2.05000e+00	4.662247e+10	
42	-2.10000e+00	4.689112e+10	
43	-2.15000e+00	4.714632e+10	
44	-2.20000e+00	4.738762e+10	
45	-2.25000e+00	4.761429e+10	
46	-2.30000e+00	4.782528e+10	
47	-2.35000e+00	4.801924e+10	
48	-2.40000e+00	4.819446e+10	
49	-2.45000e+00	4.834887e+10	
50	-2.50000e+00	4.848002e+10	
51	-2.55000e+00	4.858511e+10	
52	-2.60000e+00	4.866096e+10	
53	-2.65000e+00	4.870405e+10	
54	-2.70000e+00	4.871052e+10	

Index   v-sweep         rds             
--------------------------------------------------------------------------------
55	-2.75000e+00	4.867629e+10	
56	-2.80000e+00	4.859704e+10	
57	-2.85000e+00	4.846835e+10	
58	-2.90000e+00	4.828578e+10	
59	-2.95000e+00	4.804500e+10	
60	-3.00000e+00	4.774191e+10	
61	-3.05000e+00	4.737279e+10	
62	-3.10000e+00	4.693445e+10	
63	-3.15000e+00	4.642437e+10	
64	-3.20000e+00	4.584084e+10	
65	-3.25000e+00	4.518312e+10	
66	-3.30000e+00	4.445148e+10	
Reset re-loads circuit ***************************

Circuit: ***************************

Doing analysis at TEMP = 25.000000 and TNOM = 25.000000


No. of Data Rows : 67
                          ***************************
                          DC transfer characteristic  Mon Jan  9 13:57:30  2023
--------------------------------------------------------------------------------
Index   v-sweep         rds             
--------------------------------------------------------------------------------
0	0.000000e+00	5.565428e+05	
1	-5.00000e-02	6.437940e+05	
2	-1.00000e-01	7.631441e+05	
3	-1.50000e-01	9.358429e+05	
4	-2.00000e-01	1.206060e+06	
5	-2.50000e-01	1.678780e+06	
6	-3.00000e-01	2.645001e+06	
7	-3.50000e-01	5.005864e+06	
8	-4.00000e-01	1.134075e+07	
9	-4.50000e-01	2.683348e+07	
10	-5.00000e-01	5.770712e+07	
11	-5.50000e-01	1.079550e+08	
12	-6.00000e-01	1.775002e+08	
13	-6.50000e-01	2.627020e+08	
14	-7.00000e-01	3.582100e+08	
15	-7.50000e-01	4.587755e+08	
16	-8.00000e-01	5.602696e+08	
17	-8.50000e-01	6.599238e+08	
18	-9.00000e-01	7.561353e+08	
19	-9.50000e-01	8.481381e+08	
20	-1.00000e+00	9.357011e+08	
21	-1.05000e+00	1.018903e+09	
22	-1.10000e+00	1.097984e+09	
23	-1.15000e+00	1.173253e+09	
24	-1.20000e+00	1.245038e+09	
25	-1.25000e+00	1.313656e+09	
26	-1.30000e+00	1.379400e+09	
27	-1.35000e+00	1.442536e+09	
28	-1.40000e+00	1.503297e+09	
29	-1.45000e+00	1.561893e+09	
30	-1.50000e+00	1.618504e+09	
31	-1.55000e+00	1.673291e+09	
32	-1.60000e+00	1.726393e+09	
33	-1.65000e+00	1.777934e+09	
34	-1.70000e+00	1.828022e+09	
35	-1.75000e+00	1.876753e+09	
36	-1.80000e+00	1.924212e+09	
37	-1.85000e+00	1.970474e+09	
38	-1.90000e+00	2.015606e+09	
39	-1.95000e+00	2.059666e+09	
40	-2.00000e+00	2.102703e+09	
41	-2.05000e+00	2.144760e+09	
42	-2.10000e+00	2.185871e+09	
43	-2.15000e+00	2.226057e+09	
44	-2.20000e+00	2.265330e+09	
45	-2.25000e+00	2.303686e+09	
46	-2.30000e+00	2.341104e+09	
47	-2.35000e+00	2.377543e+09	
48	-2.40000e+00	2.412934e+09	
49	-2.45000e+00	2.447181e+09	
50	-2.50000e+00	2.480151e+09	
51	-2.55000e+00	2.511670e+09	
52	-2.60000e+00	2.541520e+09	
53	-2.65000e+00	2.569429e+09	
54	-2.70000e+00	2.595073e+09	

Index   v-sweep         rds             
--------------------------------------------------------------------------------
55	-2.75000e+00	2.618067e+09	
56	-2.80000e+00	2.637971e+09	
57	-2.85000e+00	2.654287e+09	
58	-2.90000e+00	2.666464e+09	
59	-2.95000e+00	2.673914e+09	
60	-3.00000e+00	2.676021e+09	
61	-3.05000e+00	2.672165e+09	
62	-3.10000e+00	2.661745e+09	
63	-3.15000e+00	2.644211e+09	
64	-3.20000e+00	2.619096e+09	
65	-3.25000e+00	2.586050e+09	
66	-3.30000e+00	2.544875e+09	
Reset re-loads circuit ***************************

Circuit: ***************************

Doing analysis at TEMP = 25.000000 and TNOM = 25.000000


No. of Data Rows : 67
                          ***************************
                          DC transfer characteristic  Mon Jan  9 13:57:30  2023
--------------------------------------------------------------------------------
Index   v-sweep         rds             
--------------------------------------------------------------------------------
0	0.000000e+00	2.962590e+05	
1	-5.00000e-02	3.186711e+05	
2	-1.00000e-01	3.447329e+05	
3	-1.50000e-01	3.754118e+05	
4	-2.00000e-01	4.120479e+05	
5	-2.50000e-01	4.565510e+05	
6	-3.00000e-01	5.117341e+05	
7	-3.50000e-01	5.819078e+05	
8	-4.00000e-01	6.739962e+05	
9	-4.50000e-01	7.997685e+05	
10	-5.00000e-01	9.806236e+05	
11	-5.50000e-01	1.258596e+06	
12	-6.00000e-01	1.723136e+06	
13	-6.50000e-01	2.576316e+06	
14	-7.00000e-01	4.270985e+06	
15	-7.50000e-01	7.696228e+06	
16	-8.00000e-01	1.418070e+07	
17	-8.50000e-01	2.507154e+07	
18	-9.00000e-01	4.112497e+07	
19	-9.50000e-01	6.219360e+07	
20	-1.00000e+00	8.736850e+07	
21	-1.05000e+00	1.153765e+08	
22	-1.10000e+00	1.449605e+08	
23	-1.15000e+00	1.751003e+08	
24	-1.20000e+00	2.050760e+08	
25	-1.25000e+00	2.344369e+08	
26	-1.30000e+00	2.629356e+08	
27	-1.35000e+00	2.904633e+08	
28	-1.40000e+00	3.169974e+08	
29	-1.45000e+00	3.425651e+08	
30	-1.50000e+00	3.672197e+08	
31	-1.55000e+00	3.910258e+08	
32	-1.60000e+00	4.140505e+08	
33	-1.65000e+00	4.363589e+08	
34	-1.70000e+00	4.580116e+08	
35	-1.75000e+00	4.790636e+08	
36	-1.80000e+00	4.995644e+08	
37	-1.85000e+00	5.195580e+08	
38	-1.90000e+00	5.390831e+08	
39	-1.95000e+00	5.581742e+08	
40	-2.00000e+00	5.768617e+08	
41	-2.05000e+00	5.951723e+08	
42	-2.10000e+00	6.131297e+08	
43	-2.15000e+00	6.307550e+08	
44	-2.20000e+00	6.480663e+08	
45	-2.25000e+00	6.650799e+08	
46	-2.30000e+00	6.818095e+08	
47	-2.35000e+00	6.982664e+08	
48	-2.40000e+00	7.144594e+08	
49	-2.45000e+00	7.303941e+08	
50	-2.50000e+00	7.460724e+08	
51	-2.55000e+00	7.614916e+08	
52	-2.60000e+00	7.766432e+08	
53	-2.65000e+00	7.915114e+08	
54	-2.70000e+00	8.060717e+08	

Index   v-sweep         rds             
--------------------------------------------------------------------------------
55	-2.75000e+00	8.202884e+08	
56	-2.80000e+00	8.341128e+08	
57	-2.85000e+00	8.474803e+08	
58	-2.90000e+00	8.603084e+08	
59	-2.95000e+00	8.724938e+08	
60	-3.00000e+00	8.839103e+08	
61	-3.05000e+00	8.944070e+08	
62	-3.10000e+00	9.038069e+08	
63	-3.15000e+00	9.119075e+08	
64	-3.20000e+00	9.184821e+08	
65	-3.25000e+00	9.232833e+08	
66	-3.30000e+00	9.260490e+08	
Reset re-loads circuit ***************************

Circuit: ***************************

Doing analysis at TEMP = 25.000000 and TNOM = 25.000000


No. of Data Rows : 67
                          ***************************
                          DC transfer characteristic  Mon Jan  9 13:57:30  2023
--------------------------------------------------------------------------------
Index   v-sweep         rds             
--------------------------------------------------------------------------------
0	0.000000e+00	2.089586e+05	
1	-5.00000e-02	2.191809e+05	
2	-1.00000e-01	2.304490e+05	
3	-1.50000e-01	2.429318e+05	
4	-2.00000e-01	2.568367e+05	
5	-2.50000e-01	2.724209e+05	
6	-3.00000e-01	2.900074e+05	
7	-3.50000e-01	3.100074e+05	
8	-4.00000e-01	3.329524e+05	
9	-4.50000e-01	3.595413e+05	
10	-5.00000e-01	3.907111e+05	
11	-5.50000e-01	4.277468e+05	
12	-6.00000e-01	4.724553e+05	
13	-6.50000e-01	5.274550e+05	
14	-7.00000e-01	5.966715e+05	
15	-7.50000e-01	6.862284e+05	
16	-8.00000e-01	8.061221e+05	
17	-8.50000e-01	9.735183e+05	
18	-9.00000e-01	1.219500e+06	
19	-9.50000e-01	1.603080e+06	
20	-1.00000e+00	2.239118e+06	
21	-1.05000e+00	3.345558e+06	
22	-1.10000e+00	5.294192e+06	
23	-1.15000e+00	8.602414e+06	
24	-1.20000e+00	1.380120e+07	
25	-1.25000e+00	2.122729e+07	
26	-1.30000e+00	3.088476e+07	
27	-1.35000e+00	4.246142e+07	
28	-1.40000e+00	5.546020e+07	
29	-1.45000e+00	6.935006e+07	
30	-1.50000e+00	8.367018e+07	
31	-1.55000e+00	9.807319e+07	
32	-1.60000e+00	1.123250e+08	
33	-1.65000e+00	1.262840e+08	
34	-1.70000e+00	1.398755e+08	
35	-1.75000e+00	1.530696e+08	
36	-1.80000e+00	1.658639e+08	
37	-1.85000e+00	1.782721e+08	
38	-1.90000e+00	1.903160e+08	
39	-1.95000e+00	2.020212e+08	
40	-2.00000e+00	2.134136e+08	
41	-2.05000e+00	2.245186e+08	
42	-2.10000e+00	2.353596e+08	
43	-2.15000e+00	2.459581e+08	
44	-2.20000e+00	2.563334e+08	
45	-2.25000e+00	2.665028e+08	
46	-2.30000e+00	2.764815e+08	
47	-2.35000e+00	2.862833e+08	
48	-2.40000e+00	2.959202e+08	
49	-2.45000e+00	3.054027e+08	
50	-2.50000e+00	3.147404e+08	
51	-2.55000e+00	3.239415e+08	
52	-2.60000e+00	3.330131e+08	
53	-2.65000e+00	3.419613e+08	
54	-2.70000e+00	3.507911e+08	

Index   v-sweep         rds             
--------------------------------------------------------------------------------
55	-2.75000e+00	3.595062e+08	
56	-2.80000e+00	3.681088e+08	
57	-2.85000e+00	3.765990e+08	
58	-2.90000e+00	3.849749e+08	
59	-2.95000e+00	3.932312e+08	
60	-3.00000e+00	4.013592e+08	
61	-3.05000e+00	4.093452e+08	
62	-3.10000e+00	4.171696e+08	
63	-3.15000e+00	4.248056e+08	
64	-3.20000e+00	4.322180e+08	
65	-3.25000e+00	4.393614e+08	
66	-3.30000e+00	4.461788e+08	
Reset re-loads circuit ***************************

Circuit: ***************************

Doing analysis at TEMP = 25.000000 and TNOM = 25.000000


No. of Data Rows : 67
                          ***************************
                          DC transfer characteristic  Mon Jan  9 13:57:30  2023
--------------------------------------------------------------------------------
Index   v-sweep         rds             
--------------------------------------------------------------------------------
0	0.000000e+00	1.659144e+05	
1	-5.00000e-02	1.718237e+05	
2	-1.00000e-01	1.781665e+05	
3	-1.50000e-01	1.849925e+05	
4	-2.00000e-01	1.923590e+05	
5	-2.50000e-01	2.003328e+05	
6	-3.00000e-01	2.089920e+05	
7	-3.50000e-01	2.184290e+05	
8	-4.00000e-01	2.287534e+05	
9	-4.50000e-01	2.400962e+05	
10	-5.00000e-01	2.526158e+05	
11	-5.50000e-01	2.665048e+05	
12	-6.00000e-01	2.820002e+05	
13	-6.50000e-01	2.993968e+05	
14	-7.00000e-01	3.190660e+05	
15	-7.50000e-01	3.414815e+05	
16	-8.00000e-01	3.672578e+05	
17	-8.50000e-01	3.972049e+05	
18	-9.00000e-01	4.324119e+05	
19	-9.50000e-01	4.743755e+05	
20	-1.00000e+00	5.252044e+05	
21	-1.05000e+00	5.879540e+05	
22	-1.10000e+00	6.671942e+05	
23	-1.15000e+00	7.700046e+05	
24	-1.20000e+00	9.077759e+05	
25	-1.25000e+00	1.099549e+06	
26	-1.30000e+00	1.378227e+06	
27	-1.35000e+00	1.801722e+06	
28	-1.40000e+00	2.470679e+06	
29	-1.45000e+00	3.549229e+06	
30	-1.50000e+00	5.271871e+06	
31	-1.55000e+00	7.909498e+06	
32	-1.60000e+00	1.168881e+07	
33	-1.65000e+00	1.670620e+07	
34	-1.70000e+00	2.289190e+07	
35	-1.75000e+00	3.004111e+07	
36	-1.80000e+00	3.788322e+07	
37	-1.85000e+00	4.614866e+07	
38	-1.90000e+00	5.461069e+07	
39	-1.95000e+00	6.310046e+07	
40	-2.00000e+00	7.150428e+07	
41	-2.05000e+00	7.975290e+07	
42	-2.10000e+00	8.780939e+07	
43	-2.15000e+00	9.565852e+07	
44	-2.20000e+00	1.032988e+08	
45	-2.25000e+00	1.107367e+08	
46	-2.30000e+00	1.179831e+08	
47	-2.35000e+00	1.250508e+08	
48	-2.40000e+00	1.319532e+08	
49	-2.45000e+00	1.387031e+08	
50	-2.50000e+00	1.453129e+08	
51	-2.55000e+00	1.517936e+08	
52	-2.60000e+00	1.581554e+08	
53	-2.65000e+00	1.644076e+08	
54	-2.70000e+00	1.705581e+08	

Index   v-sweep         rds             
--------------------------------------------------------------------------------
55	-2.75000e+00	1.766143e+08	
56	-2.80000e+00	1.825825e+08	
57	-2.85000e+00	1.884685e+08	
58	-2.90000e+00	1.942774e+08	
59	-2.95000e+00	2.000134e+08	
60	-3.00000e+00	2.056803e+08	
61	-3.05000e+00	2.112813e+08	
62	-3.10000e+00	2.168188e+08	
63	-3.15000e+00	2.222943e+08	
64	-3.20000e+00	2.277085e+08	
65	-3.25000e+00	2.330605e+08	
66	-3.30000e+00	2.383481e+08	
Reset re-loads circuit ***************************

Circuit: ***************************

Doing analysis at TEMP = 25.000000 and TNOM = 25.000000


No. of Data Rows : 67
                          ***************************
                          DC transfer characteristic  Mon Jan  9 13:57:30  2023
--------------------------------------------------------------------------------
Index   v-sweep         rds             
--------------------------------------------------------------------------------
0	0.000000e+00	1.406905e+05	
1	-5.00000e-02	1.445807e+05	
2	-1.00000e-01	1.486905e+05	
3	-1.50000e-01	1.530389e+05	
4	-2.00000e-01	1.576474e+05	
5	-2.50000e-01	1.625400e+05	
6	-3.00000e-01	1.677437e+05	
7	-3.50000e-01	1.732893e+05	
8	-4.00000e-01	1.792116e+05	
9	-4.50000e-01	1.855502e+05	
10	-5.00000e-01	1.923506e+05	
11	-5.50000e-01	1.996652e+05	
12	-6.00000e-01	2.075544e+05	
13	-6.50000e-01	2.160887e+05	
14	-7.00000e-01	2.253504e+05	
15	-7.50000e-01	2.354366e+05	
16	-8.00000e-01	2.464621e+05	
17	-8.50000e-01	2.585644e+05	
18	-9.00000e-01	2.719088e+05	
19	-9.50000e-01	2.866962e+05	
20	-1.00000e+00	3.031729e+05	
21	-1.05000e+00	3.216446e+05	
22	-1.10000e+00	3.424944e+05	
23	-1.15000e+00	3.662096e+05	
24	-1.20000e+00	3.934182e+05	
25	-1.25000e+00	4.249433e+05	
26	-1.30000e+00	4.618830e+05	
27	-1.35000e+00	5.057321e+05	
28	-1.40000e+00	5.585710e+05	
29	-1.45000e+00	6.233680e+05	
30	-1.50000e+00	7.044746e+05	
31	-1.55000e+00	8.084567e+05	
32	-1.60000e+00	9.455191e+05	
33	-1.65000e+00	1.131961e+06	
34	-1.70000e+00	1.394349e+06	
35	-1.75000e+00	1.776188e+06	
36	-1.80000e+00	2.347118e+06	
37	-1.85000e+00	3.211639e+06	
38	-1.90000e+00	4.508807e+06	
39	-1.95000e+00	6.391770e+06	
40	-2.00000e+00	8.986143e+06	
41	-2.05000e+00	1.234605e+07	
42	-2.10000e+00	1.643397e+07	
43	-2.15000e+00	2.113461e+07	
44	-2.20000e+00	2.629060e+07	
45	-2.25000e+00	3.174000e+07	
46	-2.30000e+00	3.734187e+07	
47	-2.35000e+00	4.298740e+07	
48	-2.40000e+00	4.860039e+07	
49	-2.45000e+00	5.413214e+07	
50	-2.50000e+00	5.955473e+07	
51	-2.55000e+00	6.485474e+07	
52	-2.60000e+00	7.002831e+07	
53	-2.65000e+00	7.507745e+07	
54	-2.70000e+00	8.000755e+07	

Index   v-sweep         rds             
--------------------------------------------------------------------------------
55	-2.75000e+00	8.482569e+07	
56	-2.80000e+00	8.953967e+07	
57	-2.85000e+00	9.415730e+07	
58	-2.90000e+00	9.868608e+07	
59	-2.95000e+00	1.031330e+08	
60	-3.00000e+00	1.075045e+08	
61	-3.05000e+00	1.118064e+08	
62	-3.10000e+00	1.160440e+08	
63	-3.15000e+00	1.202217e+08	
64	-3.20000e+00	1.243440e+08	
65	-3.25000e+00	1.284143e+08	
66	-3.30000e+00	1.324360e+08	
Reset re-loads circuit ***************************

Circuit: ***************************

Note: No ".plot", ".print", or ".fourier" lines; no simulations run
