
Note: Compatibility modes selected: hs

Warning: m=xx on .subckt line will override multiplier m hierarchy!


Circuit: ***************************

Doing analysis at TEMP = 25.000000 and TNOM = 25.000000


No. of Data Rows : 67
                          ***************************
                          DC transfer characteristic  Mon Jan  9 13:57:30  2023
--------------------------------------------------------------------------------
Index   v-sweep         rds             
--------------------------------------------------------------------------------
0	0.000000e+00	1.827375e+04	
1	-5.00000e-02	3.332912e+04	
2	-1.00000e-01	9.251861e+04	
3	-1.50000e-01	2.928664e+05	
4	-2.00000e-01	5.153037e+05	
5	-2.50000e-01	6.314233e+05	
6	-3.00000e-01	6.892668e+05	
7	-3.50000e-01	7.231656e+05	
8	-4.00000e-01	7.459275e+05	
9	-4.50000e-01	7.625295e+05	
10	-5.00000e-01	7.751987e+05	
11	-5.50000e-01	7.850859e+05	
12	-6.00000e-01	7.928648e+05	
13	-6.50000e-01	7.989717e+05	
14	-7.00000e-01	8.037118e+05	
15	-7.50000e-01	8.073113e+05	
16	-8.00000e-01	8.099449e+05	
17	-8.50000e-01	8.117518e+05	
18	-9.00000e-01	8.128455e+05	
19	-9.50000e-01	8.133201e+05	
20	-1.00000e+00	8.132546e+05	
21	-1.05000e+00	8.127161e+05	
22	-1.10000e+00	8.117621e+05	
23	-1.15000e+00	8.104423e+05	
24	-1.20000e+00	8.087996e+05	
25	-1.25000e+00	8.068717e+05	
26	-1.30000e+00	8.046913e+05	
27	-1.35000e+00	8.022874e+05	
28	-1.40000e+00	7.996855e+05	
29	-1.45000e+00	7.969082e+05	
30	-1.50000e+00	7.939756e+05	
31	-1.55000e+00	7.909055e+05	
32	-1.60000e+00	7.877137e+05	
33	-1.65000e+00	7.844145e+05	
34	-1.70000e+00	7.810204e+05	
35	-1.75000e+00	7.775426e+05	
36	-1.80000e+00	7.739908e+05	
37	-1.85000e+00	7.703737e+05	
38	-1.90000e+00	7.666985e+05	
39	-1.95000e+00	7.629713e+05	
40	-2.00000e+00	7.591970e+05	
41	-2.05000e+00	7.553791e+05	
42	-2.10000e+00	7.515196e+05	
43	-2.15000e+00	7.476193e+05	
44	-2.20000e+00	7.436770e+05	
45	-2.25000e+00	7.396902e+05	
46	-2.30000e+00	7.356542e+05	
47	-2.35000e+00	7.315626e+05	
48	-2.40000e+00	7.274065e+05	
49	-2.45000e+00	7.231752e+05	
50	-2.50000e+00	7.188554e+05	
51	-2.55000e+00	7.144316e+05	
52	-2.60000e+00	7.098856e+05	
53	-2.65000e+00	7.051971e+05	
54	-2.70000e+00	7.003432e+05	

Index   v-sweep         rds             
--------------------------------------------------------------------------------
55	-2.75000e+00	6.952989e+05	
56	-2.80000e+00	6.900369e+05	
57	-2.85000e+00	6.845284e+05	
58	-2.90000e+00	6.787427e+05	
59	-2.95000e+00	6.726482e+05	
60	-3.00000e+00	6.662128e+05	
61	-3.05000e+00	6.594040e+05	
62	-3.10000e+00	6.521903e+05	
63	-3.15000e+00	6.445413e+05	
64	-3.20000e+00	6.364287e+05	
65	-3.25000e+00	6.278272e+05	
66	-3.30000e+00	6.187153e+05	
Reset re-loads circuit ***************************

Circuit: ***************************

Doing analysis at TEMP = 25.000000 and TNOM = 25.000000


No. of Data Rows : 67
                          ***************************
                          DC transfer characteristic  Mon Jan  9 13:57:30  2023
--------------------------------------------------------------------------------
Index   v-sweep         rds             
--------------------------------------------------------------------------------
0	0.000000e+00	2.601893e+03	
1	-5.00000e-02	2.898189e+03	
2	-1.00000e-01	3.261559e+03	
3	-1.50000e-01	3.717412e+03	
4	-2.00000e-01	4.305549e+03	
5	-2.50000e-01	5.091525e+03	
6	-3.00000e-01	6.189671e+03	
7	-3.50000e-01	7.811073e+03	
8	-4.00000e-01	1.035704e+04	
9	-4.50000e-01	1.452283e+04	
10	-5.00000e-01	2.099346e+04	
11	-5.50000e-01	2.911479e+04	
12	-6.00000e-01	3.680127e+04	
13	-6.50000e-01	4.295774e+04	
14	-7.00000e-01	4.780341e+04	
15	-7.50000e-01	5.179866e+04	
16	-8.00000e-01	5.525639e+04	
17	-8.50000e-01	5.835308e+04	
18	-9.00000e-01	6.118711e+04	
19	-9.50000e-01	6.381587e+04	
20	-1.00000e+00	6.627514e+04	
21	-1.05000e+00	6.858880e+04	
22	-1.10000e+00	7.077388e+04	
23	-1.15000e+00	7.284328e+04	
24	-1.20000e+00	7.480719e+04	
25	-1.25000e+00	7.667403e+04	
26	-1.30000e+00	7.845094e+04	
27	-1.35000e+00	8.014412e+04	
28	-1.40000e+00	8.175903e+04	
29	-1.45000e+00	8.330058e+04	
30	-1.50000e+00	8.477319e+04	
31	-1.55000e+00	8.618087e+04	
32	-1.60000e+00	8.752731e+04	
33	-1.65000e+00	8.881591e+04	
34	-1.70000e+00	9.004980e+04	
35	-1.75000e+00	9.123188e+04	
36	-1.80000e+00	9.236483e+04	
37	-1.85000e+00	9.345118e+04	
38	-1.90000e+00	9.449325e+04	
39	-1.95000e+00	9.549321e+04	
40	-2.00000e+00	9.645308e+04	
41	-2.05000e+00	9.737473e+04	
42	-2.10000e+00	9.825989e+04	
43	-2.15000e+00	9.911009e+04	
44	-2.20000e+00	9.992673e+04	
45	-2.25000e+00	1.007110e+05	
46	-2.30000e+00	1.014638e+05	
47	-2.35000e+00	1.021858e+05	
48	-2.40000e+00	1.028774e+05	
49	-2.45000e+00	1.035386e+05	
50	-2.50000e+00	1.041688e+05	
51	-2.55000e+00	1.047671e+05	
52	-2.60000e+00	1.053316e+05	
53	-2.65000e+00	1.058602e+05	
54	-2.70000e+00	1.063495e+05	

Index   v-sweep         rds             
--------------------------------------------------------------------------------
55	-2.75000e+00	1.067954e+05	
56	-2.80000e+00	1.071930e+05	
57	-2.85000e+00	1.075359e+05	
58	-2.90000e+00	1.078169e+05	
59	-2.95000e+00	1.080275e+05	
60	-3.00000e+00	1.081581e+05	
61	-3.05000e+00	1.081978e+05	
62	-3.10000e+00	1.081351e+05	
63	-3.15000e+00	1.079571e+05	
64	-3.20000e+00	1.076506e+05	
65	-3.25000e+00	1.072021e+05	
66	-3.30000e+00	1.065981e+05	
Reset re-loads circuit ***************************

Circuit: ***************************

Doing analysis at TEMP = 25.000000 and TNOM = 25.000000


No. of Data Rows : 67
                          ***************************
                          DC transfer characteristic  Mon Jan  9 13:57:30  2023
--------------------------------------------------------------------------------
Index   v-sweep         rds             
--------------------------------------------------------------------------------
0	0.000000e+00	1.546735e+03	
1	-5.00000e-02	1.645966e+03	
2	-1.00000e-01	1.756572e+03	
3	-1.50000e-01	1.880616e+03	
4	-2.00000e-01	2.020688e+03	
5	-2.50000e-01	2.180089e+03	
6	-3.00000e-01	2.363082e+03	
7	-3.50000e-01	2.575273e+03	
8	-4.00000e-01	2.824168e+03	
9	-4.50000e-01	3.120024e+03	
10	-5.00000e-01	3.477191e+03	
11	-5.50000e-01	3.916217e+03	
12	-6.00000e-01	4.467221e+03	
13	-6.50000e-01	5.175088e+03	
14	-7.00000e-01	6.106444e+03	
15	-7.50000e-01	7.354351e+03	
16	-8.00000e-01	9.022650e+03	
17	-8.50000e-01	1.115131e+04	
18	-9.00000e-01	1.359629e+04	
19	-9.50000e-01	1.605474e+04	
20	-1.00000e+00	1.829617e+04	
21	-1.05000e+00	2.027212e+04	
22	-1.10000e+00	2.203025e+04	
23	-1.15000e+00	2.362944e+04	
24	-1.20000e+00	2.511314e+04	
25	-1.25000e+00	2.650942e+04	
26	-1.30000e+00	2.783594e+04	
27	-1.35000e+00	2.910409e+04	
28	-1.40000e+00	3.032147e+04	
29	-1.45000e+00	3.149344e+04	
30	-1.50000e+00	3.262395e+04	
31	-1.55000e+00	3.371606e+04	
32	-1.60000e+00	3.477225e+04	
33	-1.65000e+00	3.579458e+04	
34	-1.70000e+00	3.678485e+04	
35	-1.75000e+00	3.774461e+04	
36	-1.80000e+00	3.867530e+04	
37	-1.85000e+00	3.957817e+04	
38	-1.90000e+00	4.045443e+04	
39	-1.95000e+00	4.130516e+04	
40	-2.00000e+00	4.213139e+04	
41	-2.05000e+00	4.293406e+04	
42	-2.10000e+00	4.371409e+04	
43	-2.15000e+00	4.447232e+04	
44	-2.20000e+00	4.520956e+04	
45	-2.25000e+00	4.592656e+04	
46	-2.30000e+00	4.662405e+04	
47	-2.35000e+00	4.730269e+04	
48	-2.40000e+00	4.796312e+04	
49	-2.45000e+00	4.860591e+04	
50	-2.50000e+00	4.923159e+04	
51	-2.55000e+00	4.984058e+04	
52	-2.60000e+00	5.043323e+04	
53	-2.65000e+00	5.100978e+04	
54	-2.70000e+00	5.157029e+04	

Index   v-sweep         rds             
--------------------------------------------------------------------------------
55	-2.75000e+00	5.211463e+04	
56	-2.80000e+00	5.264245e+04	
57	-2.85000e+00	5.315306e+04	
58	-2.90000e+00	5.364544e+04	
59	-2.95000e+00	5.411811e+04	
60	-3.00000e+00	5.456909e+04	
61	-3.05000e+00	5.499579e+04	
62	-3.10000e+00	5.539496e+04	
63	-3.15000e+00	5.576260e+04	
64	-3.20000e+00	5.609388e+04	
65	-3.25000e+00	5.638313e+04	
66	-3.30000e+00	5.662376e+04	
Reset re-loads circuit ***************************

Circuit: ***************************

Doing analysis at TEMP = 25.000000 and TNOM = 25.000000


No. of Data Rows : 67
                          ***************************
                          DC transfer characteristic  Mon Jan  9 13:57:30  2023
--------------------------------------------------------------------------------
Index   v-sweep         rds             
--------------------------------------------------------------------------------
0	0.000000e+00	1.178546e+03	
1	-5.00000e-02	1.232572e+03	
2	-1.00000e-01	1.290773e+03	
3	-1.50000e-01	1.353649e+03	
4	-2.00000e-01	1.421784e+03	
5	-2.50000e-01	1.495861e+03	
6	-3.00000e-01	1.576688e+03	
7	-3.50000e-01	1.665225e+03	
8	-4.00000e-01	1.762624e+03	
9	-4.50000e-01	1.870276e+03	
10	-5.00000e-01	1.989877e+03	
11	-5.50000e-01	2.123515e+03	
12	-6.00000e-01	2.273791e+03	
13	-6.50000e-01	2.443976e+03	
14	-7.00000e-01	2.638243e+03	
15	-7.50000e-01	2.861981e+03	
16	-8.00000e-01	3.122241e+03	
17	-8.50000e-01	3.428368e+03	
18	-9.00000e-01	3.792860e+03	
19	-9.50000e-01	4.232467e+03	
20	-1.00000e+00	4.769275e+03	
21	-1.05000e+00	5.430787e+03	
22	-1.10000e+00	6.246190e+03	
23	-1.15000e+00	7.233624e+03	
24	-1.20000e+00	8.376875e+03	
25	-1.25000e+00	9.610440e+03	
26	-1.30000e+00	1.084517e+04	
27	-1.35000e+00	1.201795e+04	
28	-1.40000e+00	1.310952e+04	
29	-1.45000e+00	1.412716e+04	
30	-1.50000e+00	1.508517e+04	
31	-1.55000e+00	1.599623e+04	
32	-1.60000e+00	1.686952e+04	
33	-1.65000e+00	1.771137e+04	
34	-1.70000e+00	1.852608e+04	
35	-1.75000e+00	1.931663e+04	
36	-1.80000e+00	2.008517e+04	
37	-1.85000e+00	2.083333e+04	
38	-1.90000e+00	2.156235e+04	
39	-1.95000e+00	2.227326e+04	
40	-2.00000e+00	2.296691e+04	
41	-2.05000e+00	2.364403e+04	
42	-2.10000e+00	2.430528e+04	
43	-2.15000e+00	2.495124e+04	
44	-2.20000e+00	2.558245e+04	
45	-2.25000e+00	2.619940e+04	
46	-2.30000e+00	2.680256e+04	
47	-2.35000e+00	2.739235e+04	
48	-2.40000e+00	2.796920e+04	
49	-2.45000e+00	2.853349e+04	
50	-2.50000e+00	2.908560e+04	
51	-2.55000e+00	2.962587e+04	
52	-2.60000e+00	3.015465e+04	
53	-2.65000e+00	3.067225e+04	
54	-2.70000e+00	3.117898e+04	

Index   v-sweep         rds             
--------------------------------------------------------------------------------
55	-2.75000e+00	3.167511e+04	
56	-2.80000e+00	3.216088e+04	
57	-2.85000e+00	3.263651e+04	
58	-2.90000e+00	3.310215e+04	
59	-2.95000e+00	3.355790e+04	
60	-3.00000e+00	3.400374e+04	
61	-3.05000e+00	3.443957e+04	
62	-3.10000e+00	3.486510e+04	
63	-3.15000e+00	3.527985e+04	
64	-3.20000e+00	3.568309e+04	
65	-3.25000e+00	3.607381e+04	
66	-3.30000e+00	3.645058e+04	
Reset re-loads circuit ***************************

Circuit: ***************************

Doing analysis at TEMP = 25.000000 and TNOM = 25.000000


No. of Data Rows : 67
                          ***************************
                          DC transfer characteristic  Mon Jan  9 13:57:30  2023
--------------------------------------------------------------------------------
Index   v-sweep         rds             
--------------------------------------------------------------------------------
0	0.000000e+00	9.933378e+02	
1	-5.00000e-02	1.029171e+03	
2	-1.00000e-01	1.067100e+03	
3	-1.50000e-01	1.107311e+03	
4	-2.00000e-01	1.150017e+03	
5	-2.50000e-01	1.195454e+03	
6	-3.00000e-01	1.243891e+03	
7	-3.50000e-01	1.295633e+03	
8	-4.00000e-01	1.351028e+03	
9	-4.50000e-01	1.410475e+03	
10	-5.00000e-01	1.474431e+03	
11	-5.50000e-01	1.543427e+03	
12	-6.00000e-01	1.618078e+03	
13	-6.50000e-01	1.699105e+03	
14	-7.00000e-01	1.787355e+03	
15	-7.50000e-01	1.883830e+03	
16	-8.00000e-01	1.989725e+03	
17	-8.50000e-01	2.106477e+03	
18	-9.00000e-01	2.235824e+03	
19	-9.50000e-01	2.379887e+03	
20	-1.00000e+00	2.541279e+03	
21	-1.05000e+00	2.723244e+03	
22	-1.10000e+00	2.929839e+03	
23	-1.15000e+00	3.166172e+03	
24	-1.20000e+00	3.438690e+03	
25	-1.25000e+00	3.755475e+03	
26	-1.30000e+00	4.126446e+03	
27	-1.35000e+00	4.563103e+03	
28	-1.40000e+00	5.077078e+03	
29	-1.45000e+00	5.676324e+03	
30	-1.50000e+00	6.358411e+03	
31	-1.55000e+00	7.104297e+03	
32	-1.60000e+00	7.880685e+03	
33	-1.65000e+00	8.653706e+03	
34	-1.70000e+00	9.402095e+03	
35	-1.75000e+00	1.011888e+04	
36	-1.80000e+00	1.080545e+04	
37	-1.85000e+00	1.146591e+04	
38	-1.90000e+00	1.210434e+04	
39	-1.95000e+00	1.272398e+04	
40	-2.00000e+00	1.332721e+04	
41	-2.05000e+00	1.391575e+04	
42	-2.10000e+00	1.449084e+04	
43	-2.15000e+00	1.505343e+04	
44	-2.20000e+00	1.560424e+04	
45	-2.25000e+00	1.614384e+04	
46	-2.30000e+00	1.667272e+04	
47	-2.35000e+00	1.719127e+04	
48	-2.40000e+00	1.769985e+04	
49	-2.45000e+00	1.819879e+04	
50	-2.50000e+00	1.868836e+04	
51	-2.55000e+00	1.916884e+04	
52	-2.60000e+00	1.964048e+04	
53	-2.65000e+00	2.010350e+04	
54	-2.70000e+00	2.055814e+04	

Index   v-sweep         rds             
--------------------------------------------------------------------------------
55	-2.75000e+00	2.100461e+04	
56	-2.80000e+00	2.144310e+04	
57	-2.85000e+00	2.187381e+04	
58	-2.90000e+00	2.229692e+04	
59	-2.95000e+00	2.271262e+04	
60	-3.00000e+00	2.312107e+04	
61	-3.05000e+00	2.352241e+04	
62	-3.10000e+00	2.391680e+04	
63	-3.15000e+00	2.430434e+04	
64	-3.20000e+00	2.468511e+04	
65	-3.25000e+00	2.505916e+04	
66	-3.30000e+00	2.542644e+04	
Reset re-loads circuit ***************************

Circuit: ***************************

Doing analysis at TEMP = 25.000000 and TNOM = 25.000000


No. of Data Rows : 67
                          ***************************
                          DC transfer characteristic  Mon Jan  9 13:57:30  2023
--------------------------------------------------------------------------------
Index   v-sweep         rds             
--------------------------------------------------------------------------------
0	0.000000e+00	8.831095e+02	
1	-5.00000e-02	9.095168e+02	
2	-1.00000e-01	9.371677e+02	
3	-1.50000e-01	9.661513e+02	
4	-2.00000e-01	9.965654e+02	
5	-2.50000e-01	1.028517e+03	
6	-3.00000e-01	1.062126e+03	
7	-3.50000e-01	1.097523e+03	
8	-4.00000e-01	1.134852e+03	
9	-4.50000e-01	1.174276e+03	
10	-5.00000e-01	1.215975e+03	
11	-5.50000e-01	1.260150e+03	
12	-6.00000e-01	1.307026e+03	
13	-6.50000e-01	1.356858e+03	
14	-7.00000e-01	1.409932e+03	
15	-7.50000e-01	1.466573e+03	
16	-8.00000e-01	1.527150e+03	
17	-8.50000e-01	1.592085e+03	
18	-9.00000e-01	1.661864e+03	
19	-9.50000e-01	1.737044e+03	
20	-1.00000e+00	1.818273e+03	
21	-1.05000e+00	1.906304e+03	
22	-1.10000e+00	2.002020e+03	
23	-1.15000e+00	2.106460e+03	
24	-1.20000e+00	2.220856e+03	
25	-1.25000e+00	2.346676e+03	
26	-1.30000e+00	2.485679e+03	
27	-1.35000e+00	2.639989e+03	
28	-1.40000e+00	2.812173e+03	
29	-1.45000e+00	3.005349e+03	
30	-1.50000e+00	3.223289e+03	
31	-1.55000e+00	3.470515e+03	
32	-1.60000e+00	3.752309e+03	
33	-1.65000e+00	4.074510e+03	
34	-1.70000e+00	4.442825e+03	
35	-1.75000e+00	4.861303e+03	
36	-1.80000e+00	5.329804e+03	
37	-1.85000e+00	5.841360e+03	
38	-1.90000e+00	6.381867e+03	
39	-1.95000e+00	6.934044e+03	
40	-2.00000e+00	7.483423e+03	
41	-2.05000e+00	8.021647e+03	
42	-2.10000e+00	8.545746e+03	
43	-2.15000e+00	9.055769e+03	
44	-2.20000e+00	9.552885e+03	
45	-2.25000e+00	1.003843e+04	
46	-2.30000e+00	1.051354e+04	
47	-2.35000e+00	1.097914e+04	
48	-2.40000e+00	1.143590e+04	
49	-2.45000e+00	1.188438e+04	
50	-2.50000e+00	1.232497e+04	
51	-2.55000e+00	1.275802e+04	
52	-2.60000e+00	1.318382e+04	
53	-2.65000e+00	1.360258e+04	
54	-2.70000e+00	1.401453e+04	

Index   v-sweep         rds             
--------------------------------------------------------------------------------
55	-2.75000e+00	1.441985e+04	
56	-2.80000e+00	1.481871e+04	
57	-2.85000e+00	1.521126e+04	
58	-2.90000e+00	1.559766e+04	
59	-2.95000e+00	1.597804e+04	
60	-3.00000e+00	1.635253e+04	
61	-3.05000e+00	1.672126e+04	
62	-3.10000e+00	1.708436e+04	
63	-3.15000e+00	1.744194e+04	
64	-3.20000e+00	1.779411e+04	
65	-3.25000e+00	1.814098e+04	
66	-3.30000e+00	1.848266e+04	
Reset re-loads circuit ***************************

Circuit: ***************************

Note: No ".plot", ".print", or ".fourier" lines; no simulations run
