
Note: Compatibility modes selected: hs

Warning: m=xx on .subckt line will override multiplier m hierarchy!


Circuit: ***************************

Doing analysis at TEMP = 125.000000 and TNOM = 125.000000


No. of Data Rows : 67
                          ***************************
                          DC transfer characteristic  Mon Jan  9 13:57:32  2023
--------------------------------------------------------------------------------
Index   v-sweep         rds             
--------------------------------------------------------------------------------
0	0.000000e+00	2.726461e+05	
1	-5.00000e-02	4.407942e+05	
2	-1.00000e-01	9.836048e+05	
3	-1.50000e-01	3.633053e+06	
4	-2.00000e-01	1.467732e+07	
5	-2.50000e-01	4.281992e+07	
6	-3.00000e-01	9.135824e+07	
7	-3.50000e-01	1.556718e+08	
8	-4.00000e-01	2.272557e+08	
9	-4.50000e-01	2.987172e+08	
10	-5.00000e-01	3.657795e+08	
11	-5.50000e-01	4.268200e+08	
12	-6.00000e-01	4.817495e+08	
13	-6.50000e-01	5.311492e+08	
14	-7.00000e-01	5.757926e+08	
15	-7.50000e-01	6.164307e+08	
16	-8.00000e-01	6.537150e+08	
17	-8.50000e-01	6.881837e+08	
18	-9.00000e-01	7.202718e+08	
19	-9.50000e-01	7.503285e+08	
20	-1.00000e+00	7.786336e+08	
21	-1.05000e+00	8.054128e+08	
22	-1.10000e+00	8.308493e+08	
23	-1.15000e+00	8.550931e+08	
24	-1.20000e+00	8.782679e+08	
25	-1.25000e+00	9.004774e+08	
26	-1.30000e+00	9.218084e+08	
27	-1.35000e+00	9.423352e+08	
28	-1.40000e+00	9.621213e+08	
29	-1.45000e+00	9.812215e+08	
30	-1.50000e+00	9.996840e+08	
31	-1.55000e+00	1.017551e+09	
32	-1.60000e+00	1.034858e+09	
33	-1.65000e+00	1.051640e+09	
34	-1.70000e+00	1.067925e+09	
35	-1.75000e+00	1.083737e+09	
36	-1.80000e+00	1.099099e+09	
37	-1.85000e+00	1.114028e+09	
38	-1.90000e+00	1.128538e+09	
39	-1.95000e+00	1.142639e+09	
40	-2.00000e+00	1.156333e+09	
41	-2.05000e+00	1.169620e+09	
42	-2.10000e+00	1.182488e+09	
43	-2.15000e+00	1.194920e+09	
44	-2.20000e+00	1.206886e+09	
45	-2.25000e+00	1.218346e+09	
46	-2.30000e+00	1.229245e+09	
47	-2.35000e+00	1.239514e+09	
48	-2.40000e+00	1.249067e+09	
49	-2.45000e+00	1.257799e+09	
50	-2.50000e+00	1.265586e+09	
51	-2.55000e+00	1.272285e+09	
52	-2.60000e+00	1.277733e+09	
53	-2.65000e+00	1.281748e+09	
54	-2.70000e+00	1.284133e+09	

Index   v-sweep         rds             
--------------------------------------------------------------------------------
55	-2.75000e+00	1.284679e+09	
56	-2.80000e+00	1.283166e+09	
57	-2.85000e+00	1.279376e+09	
58	-2.90000e+00	1.273096e+09	
59	-2.95000e+00	1.264129e+09	
60	-3.00000e+00	1.252305e+09	
61	-3.05000e+00	1.237489e+09	
62	-3.10000e+00	1.219591e+09	
63	-3.15000e+00	1.198579e+09	
64	-3.20000e+00	1.174480e+09	
65	-3.25000e+00	1.147392e+09	
66	-3.30000e+00	1.117475e+09	
Reset re-loads circuit ***************************

Circuit: ***************************

Doing analysis at TEMP = 125.000000 and TNOM = 125.000000


No. of Data Rows : 67
                          ***************************
                          DC transfer characteristic  Mon Jan  9 13:57:32  2023
--------------------------------------------------------------------------------
Index   v-sweep         rds             
--------------------------------------------------------------------------------
0	0.000000e+00	6.143998e+04	
1	-5.00000e-02	6.901665e+04	
2	-1.00000e-01	7.870567e+04	
3	-1.50000e-01	9.152220e+04	
4	-2.00000e-01	1.092385e+05	
5	-2.50000e-01	1.352131e+05	
6	-3.00000e-01	1.764969e+05	
7	-3.50000e-01	2.497957e+05	
8	-4.00000e-01	3.995443e+05	
9	-4.50000e-01	7.478278e+05	
10	-5.00000e-01	1.577463e+06	
11	-5.50000e-01	3.320189e+06	
12	-6.00000e-01	6.315438e+06	
13	-6.50000e-01	1.055678e+07	
14	-7.00000e-01	1.570368e+07	
15	-7.50000e-01	2.129709e+07	
16	-8.00000e-01	2.695371e+07	
17	-8.50000e-01	3.243572e+07	
18	-9.00000e-01	3.763150e+07	
19	-9.50000e-01	4.251037e+07	
20	-1.00000e+00	4.708396e+07	
21	-1.05000e+00	5.138185e+07	
22	-1.10000e+00	5.543841e+07	
23	-1.15000e+00	5.928663e+07	
24	-1.20000e+00	6.295574e+07	
25	-1.25000e+00	6.647058e+07	
26	-1.30000e+00	6.985190e+07	
27	-1.35000e+00	7.311681e+07	
28	-1.40000e+00	7.627943e+07	
29	-1.45000e+00	7.935139e+07	
30	-1.50000e+00	8.234230e+07	
31	-1.55000e+00	8.526017e+07	
32	-1.60000e+00	8.811167e+07	
33	-1.65000e+00	9.090242e+07	
34	-1.70000e+00	9.363718e+07	
35	-1.75000e+00	9.632001e+07	
36	-1.80000e+00	9.895438e+07	
37	-1.85000e+00	1.015433e+08	
38	-1.90000e+00	1.040893e+08	
39	-1.95000e+00	1.065946e+08	
40	-2.00000e+00	1.090611e+08	
41	-2.05000e+00	1.114904e+08	
42	-2.10000e+00	1.138837e+08	
43	-2.15000e+00	1.162418e+08	
44	-2.20000e+00	1.185651e+08	
45	-2.25000e+00	1.208534e+08	
46	-2.30000e+00	1.231058e+08	
47	-2.35000e+00	1.253205e+08	
48	-2.40000e+00	1.274945e+08	
49	-2.45000e+00	1.296234e+08	
50	-2.50000e+00	1.317012e+08	
51	-2.55000e+00	1.337197e+08	
52	-2.60000e+00	1.356681e+08	
53	-2.65000e+00	1.375331e+08	
54	-2.70000e+00	1.392979e+08	

Index   v-sweep         rds             
--------------------------------------------------------------------------------
55	-2.75000e+00	1.409422e+08	
56	-2.80000e+00	1.424420e+08	
57	-2.85000e+00	1.437692e+08	
58	-2.90000e+00	1.448917e+08	
59	-2.95000e+00	1.457741e+08	
60	-3.00000e+00	1.463776e+08	
61	-3.05000e+00	1.466617e+08	
62	-3.10000e+00	1.465849e+08	
63	-3.15000e+00	1.461071e+08	
64	-3.20000e+00	1.451910e+08	
65	-3.25000e+00	1.438053e+08	
66	-3.30000e+00	1.419265e+08	
Reset re-loads circuit ***************************

Circuit: ***************************

Doing analysis at TEMP = 125.000000 and TNOM = 125.000000


No. of Data Rows : 67
                          ***************************
                          DC transfer characteristic  Mon Jan  9 13:57:32  2023
--------------------------------------------------------------------------------
Index   v-sweep         rds             
--------------------------------------------------------------------------------
0	0.000000e+00	3.579614e+04	
1	-5.00000e-02	3.815602e+04	
2	-1.00000e-01	4.084644e+04	
3	-1.50000e-01	4.394191e+04	
4	-2.00000e-01	4.754105e+04	
5	-2.50000e-01	5.177711e+04	
6	-3.00000e-01	5.683453e+04	
7	-3.50000e-01	6.297576e+04	
8	-4.00000e-01	7.058664e+04	
9	-4.50000e-01	8.025651e+04	
10	-5.00000e-01	9.292748e+04	
11	-5.50000e-01	1.101885e+05	
12	-6.00000e-01	1.348915e+05	
13	-6.50000e-01	1.725194e+05	
14	-7.00000e-01	2.343278e+05	
15	-7.50000e-01	3.443250e+05	
16	-8.00000e-01	5.519856e+05	
17	-8.50000e-01	9.440934e+05	
18	-9.00000e-01	1.630795e+06	
19	-9.50000e-01	2.691078e+06	
20	-1.00000e+00	4.119132e+06	
21	-1.05000e+00	5.825443e+06	
22	-1.10000e+00	7.685384e+06	
23	-1.15000e+00	9.588230e+06	
24	-1.20000e+00	1.145917e+07	
25	-1.25000e+00	1.325827e+07	
26	-1.30000e+00	1.497019e+07	
27	-1.35000e+00	1.659393e+07	
28	-1.40000e+00	1.813555e+07	
29	-1.45000e+00	1.960378e+07	
30	-1.50000e+00	2.100780e+07	
31	-1.55000e+00	2.235618e+07	
32	-1.60000e+00	2.365643e+07	
33	-1.65000e+00	2.491499e+07	
34	-1.70000e+00	2.613726e+07	
35	-1.75000e+00	2.732776e+07	
36	-1.80000e+00	2.849022e+07	
37	-1.85000e+00	2.962779e+07	
38	-1.90000e+00	3.074306e+07	
39	-1.95000e+00	3.183821e+07	
40	-2.00000e+00	3.291507e+07	
41	-2.05000e+00	3.397520e+07	
42	-2.10000e+00	3.501990e+07	
43	-2.15000e+00	3.605030e+07	
44	-2.20000e+00	3.706736e+07	
45	-2.25000e+00	3.807189e+07	
46	-2.30000e+00	3.906458e+07	
47	-2.35000e+00	4.004603e+07	
48	-2.40000e+00	4.101667e+07	
49	-2.45000e+00	4.197687e+07	
50	-2.50000e+00	4.292680e+07	
51	-2.55000e+00	4.386647e+07	
52	-2.60000e+00	4.479568e+07	
53	-2.65000e+00	4.571391e+07	
54	-2.70000e+00	4.662027e+07	

Index   v-sweep         rds             
--------------------------------------------------------------------------------
55	-2.75000e+00	4.751342e+07	
56	-2.80000e+00	4.839139e+07	
57	-2.85000e+00	4.925149e+07	
58	-2.90000e+00	5.009012e+07	
59	-2.95000e+00	5.090263e+07	
60	-3.00000e+00	5.168312e+07	
61	-3.05000e+00	5.242427e+07	
62	-3.10000e+00	5.311719e+07	
63	-3.15000e+00	5.375129e+07	
64	-3.20000e+00	5.431424e+07	
65	-3.25000e+00	5.479197e+07	
66	-3.30000e+00	5.516884e+07	
Reset re-loads circuit ***************************

Circuit: ***************************

Doing analysis at TEMP = 125.000000 and TNOM = 125.000000


No. of Data Rows : 67
                          ***************************
                          DC transfer characteristic  Mon Jan  9 13:57:32  2023
--------------------------------------------------------------------------------
Index   v-sweep         rds             
--------------------------------------------------------------------------------
0	0.000000e+00	2.606502e+04	
1	-5.00000e-02	2.721755e+04	
2	-1.00000e-01	2.847571e+04	
3	-1.50000e-01	2.985473e+04	
4	-2.00000e-01	3.137288e+04	
5	-2.50000e-01	3.305228e+04	
6	-3.00000e-01	3.492004e+04	
7	-3.50000e-01	3.700965e+04	
8	-4.00000e-01	3.936304e+04	
9	-4.50000e-01	4.203333e+04	
10	-5.00000e-01	4.508888e+04	
11	-5.50000e-01	4.861907e+04	
12	-6.00000e-01	5.274298e+04	
13	-6.50000e-01	5.762267e+04	
14	-7.00000e-01	6.348401e+04	
15	-7.50000e-01	7.065077e+04	
16	-8.00000e-01	7.960195e+04	
17	-8.50000e-01	9.107251e+04	
18	-9.00000e-01	1.062376e+05	
19	-9.50000e-01	1.270625e+05	
20	-1.00000e+00	1.569890e+05	
21	-1.05000e+00	2.022864e+05	
22	-1.10000e+00	2.745734e+05	
23	-1.15000e+00	3.947275e+05	
24	-1.20000e+00	5.962679e+05	
25	-1.25000e+00	9.220125e+05	
26	-1.30000e+00	1.408303e+06	
27	-1.35000e+00	2.064207e+06	
28	-1.40000e+00	2.863896e+06	
29	-1.45000e+00	3.758837e+06	
30	-1.50000e+00	4.697761e+06	
31	-1.55000e+00	5.640422e+06	
32	-1.60000e+00	6.561466e+06	
33	-1.65000e+00	7.448117e+06	
34	-1.70000e+00	8.296043e+06	
35	-1.75000e+00	9.105746e+06	
36	-1.80000e+00	9.880085e+06	
37	-1.85000e+00	1.062281e+07	
38	-1.90000e+00	1.133777e+07	
39	-1.95000e+00	1.202856e+07	
40	-2.00000e+00	1.269834e+07	
41	-2.05000e+00	1.334986e+07	
42	-2.10000e+00	1.398541e+07	
43	-2.15000e+00	1.460696e+07	
44	-2.20000e+00	1.521614e+07	
45	-2.25000e+00	1.581432e+07	
46	-2.30000e+00	1.640266e+07	
47	-2.35000e+00	1.698211e+07	
48	-2.40000e+00	1.755351e+07	
49	-2.45000e+00	1.811754e+07	
50	-2.50000e+00	1.867481e+07	
51	-2.55000e+00	1.922580e+07	
52	-2.60000e+00	1.977095e+07	
53	-2.65000e+00	2.031063e+07	
54	-2.70000e+00	2.084514e+07	

Index   v-sweep         rds             
--------------------------------------------------------------------------------
55	-2.75000e+00	2.137472e+07	
56	-2.80000e+00	2.189957e+07	
57	-2.85000e+00	2.241978e+07	
58	-2.90000e+00	2.293539e+07	
59	-2.95000e+00	2.344629e+07	
60	-3.00000e+00	2.395226e+07	
61	-3.05000e+00	2.445288e+07	
62	-3.10000e+00	2.494747e+07	
63	-3.15000e+00	2.543509e+07	
64	-3.20000e+00	2.591437e+07	
65	-3.25000e+00	2.638351e+07	
66	-3.30000e+00	2.684012e+07	
Reset re-loads circuit ***************************

Circuit: ***************************

Doing analysis at TEMP = 125.000000 and TNOM = 125.000000


No. of Data Rows : 67
                          ***************************
                          DC transfer characteristic  Mon Jan  9 13:57:32  2023
--------------------------------------------------------------------------------
Index   v-sweep         rds             
--------------------------------------------------------------------------------
0	0.000000e+00	2.095691e+04	
1	-5.00000e-02	2.164439e+04	
2	-1.00000e-01	2.237796e+04	
3	-1.50000e-01	2.316244e+04	
4	-2.00000e-01	2.400330e+04	
5	-2.50000e-01	2.490684e+04	
6	-3.00000e-01	2.588034e+04	
7	-3.50000e-01	2.693225e+04	
8	-4.00000e-01	2.807242e+04	
9	-4.50000e-01	2.931244e+04	
10	-5.00000e-01	3.066601e+04	
11	-5.50000e-01	3.214943e+04	
12	-6.00000e-01	3.378231e+04	
13	-6.50000e-01	3.558836e+04	
14	-7.00000e-01	3.759659e+04	
15	-7.50000e-01	3.984286e+04	
16	-8.00000e-01	4.237194e+04	
17	-8.50000e-01	4.524052e+04	
18	-9.00000e-01	4.852139e+04	
19	-9.50000e-01	5.230949e+04	
20	-1.00000e+00	5.673086e+04	
21	-1.05000e+00	6.195624e+04	
22	-1.10000e+00	6.822214e+04	
23	-1.15000e+00	7.586459e+04	
24	-1.20000e+00	8.537463e+04	
25	-1.25000e+00	9.749251e+04	
26	-1.30000e+00	1.133717e+05	
27	-1.35000e+00	1.348706e+05	
28	-1.40000e+00	1.650717e+05	
29	-1.45000e+00	2.091738e+05	
30	-1.50000e+00	2.758571e+05	
31	-1.55000e+00	3.788094e+05	
32	-1.60000e+00	5.369837e+05	
33	-1.65000e+00	7.710746e+05	
34	-1.70000e+00	1.095439e+06	
35	-1.75000e+00	1.509953e+06	
36	-1.80000e+00	1.998579e+06	
37	-1.85000e+00	2.535827e+06	
38	-1.90000e+00	3.095717e+06	
39	-1.95000e+00	3.657795e+06	
40	-2.00000e+00	4.208856e+06	
41	-2.05000e+00	4.741935e+06	
42	-2.10000e+00	5.254394e+06	
43	-2.15000e+00	5.746189e+06	
44	-2.20000e+00	6.218618e+06	
45	-2.25000e+00	6.673549e+06	
46	-2.30000e+00	7.112982e+06	
47	-2.35000e+00	7.538826e+06	
48	-2.40000e+00	7.952807e+06	
49	-2.45000e+00	8.356430e+06	
50	-2.50000e+00	8.750990e+06	
51	-2.55000e+00	9.137585e+06	
52	-2.60000e+00	9.517147e+06	
53	-2.65000e+00	9.890460e+06	
54	-2.70000e+00	1.025819e+07	

Index   v-sweep         rds             
--------------------------------------------------------------------------------
55	-2.75000e+00	1.062089e+07	
56	-2.80000e+00	1.097905e+07	
57	-2.85000e+00	1.133307e+07	
58	-2.90000e+00	1.168329e+07	
59	-2.95000e+00	1.203000e+07	
60	-3.00000e+00	1.237347e+07	
61	-3.05000e+00	1.271390e+07	
62	-3.10000e+00	1.305146e+07	
63	-3.15000e+00	1.338630e+07	
64	-3.20000e+00	1.371852e+07	
65	-3.25000e+00	1.404817e+07	
66	-3.30000e+00	1.437525e+07	
Reset re-loads circuit ***************************

Circuit: ***************************

Doing analysis at TEMP = 125.000000 and TNOM = 125.000000


No. of Data Rows : 67
                          ***************************
                          DC transfer characteristic  Mon Jan  9 13:57:32  2023
--------------------------------------------------------------------------------
Index   v-sweep         rds             
--------------------------------------------------------------------------------
0	0.000000e+00	1.781558e+04	
1	-5.00000e-02	1.827458e+04	
2	-1.00000e-01	1.875752e+04	
3	-1.50000e-01	1.926632e+04	
4	-2.00000e-01	1.980314e+04	
5	-2.50000e-01	2.037033e+04	
6	-3.00000e-01	2.097057e+04	
7	-3.50000e-01	2.160680e+04	
8	-4.00000e-01	2.228239e+04	
9	-4.50000e-01	2.300108e+04	
10	-5.00000e-01	2.376714e+04	
11	-5.50000e-01	2.458540e+04	
12	-6.00000e-01	2.546140e+04	
13	-6.50000e-01	2.640144e+04	
14	-7.00000e-01	2.741283e+04	
15	-7.50000e-01	2.850398e+04	
16	-8.00000e-01	2.968471e+04	
17	-8.50000e-01	3.096650e+04	
18	-9.00000e-01	3.236287e+04	
19	-9.50000e-01	3.388988e+04	
20	-1.00000e+00	3.556670e+04	
21	-1.05000e+00	3.741644e+04	
22	-1.10000e+00	3.946719e+04	
23	-1.15000e+00	4.175342e+04	
24	-1.20000e+00	4.431791e+04	
25	-1.25000e+00	4.721435e+04	
26	-1.30000e+00	5.051103e+04	
27	-1.35000e+00	5.429604e+04	
28	-1.40000e+00	5.868485e+04	
29	-1.45000e+00	6.383149e+04	
30	-1.50000e+00	6.994553e+04	
31	-1.55000e+00	7.731828e+04	
32	-1.60000e+00	8.636422e+04	
33	-1.65000e+00	9.768819e+04	
34	-1.70000e+00	1.121956e+05	
35	-1.75000e+00	1.312752e+05	
36	-1.80000e+00	1.570991e+05	
37	-1.85000e+00	1.930903e+05	
38	-1.90000e+00	2.445684e+05	
39	-1.95000e+00	3.193877e+05	
40	-2.00000e+00	4.279618e+05	
41	-2.05000e+00	5.816613e+05	
42	-2.10000e+00	7.891335e+05	
43	-2.15000e+00	1.052081e+06	
44	-2.20000e+00	1.363537e+06	
45	-2.25000e+00	1.710105e+06	
46	-2.30000e+00	2.076462e+06	
47	-2.35000e+00	2.449248e+06	
48	-2.40000e+00	2.818886e+06	
49	-2.45000e+00	3.179617e+06	
50	-2.50000e+00	3.528646e+06	
51	-2.55000e+00	3.865142e+06	
52	-2.60000e+00	4.189417e+06	
53	-2.65000e+00	4.502360e+06	
54	-2.70000e+00	4.805090e+06	

Index   v-sweep         rds             
--------------------------------------------------------------------------------
55	-2.75000e+00	5.098761e+06	
56	-2.80000e+00	5.384462e+06	
57	-2.85000e+00	5.663174e+06	
58	-2.90000e+00	5.935757e+06	
59	-2.95000e+00	6.202951e+06	
60	-3.00000e+00	6.465392e+06	
61	-3.05000e+00	6.723619e+06	
62	-3.10000e+00	6.978092e+06	
63	-3.15000e+00	7.229200e+06	
64	-3.20000e+00	7.477276e+06	
65	-3.25000e+00	7.722603e+06	
66	-3.30000e+00	7.965423e+06	
Reset re-loads circuit ***************************

Circuit: ***************************

Note: No ".plot", ".print", or ".fourier" lines; no simulations run
