
Note: Compatibility modes selected: hs

Warning: m=xx on .subckt line will override multiplier m hierarchy!


Circuit: ***************************

Doing analysis at TEMP = 125.000000 and TNOM = 125.000000


No. of Data Rows : 67
                          ***************************
                          DC transfer characteristic  Mon Jan  9 13:57:32  2023
--------------------------------------------------------------------------------
Index   v-sweep         rds             
--------------------------------------------------------------------------------
0	0.000000e+00	5.403250e+05	
1	-5.00000e-02	8.229258e+05	
2	-1.00000e-01	1.598214e+06	
3	-1.50000e-01	4.771822e+06	
4	-2.00000e-01	1.741170e+07	
5	-2.50000e-01	4.591729e+07	
6	-3.00000e-01	8.240077e+07	
7	-3.50000e-01	1.156996e+08	
8	-4.00000e-01	1.424229e+08	
9	-4.50000e-01	1.636468e+08	
10	-5.00000e-01	1.810928e+08	
11	-5.50000e-01	1.960495e+08	
12	-6.00000e-01	2.093446e+08	
13	-6.50000e-01	2.214925e+08	
14	-7.00000e-01	2.328157e+08	
15	-7.50000e-01	2.435207e+08	
16	-8.00000e-01	2.537438e+08	
17	-8.50000e-01	2.635771e+08	
18	-9.00000e-01	2.730851e+08	
19	-9.50000e-01	2.823140e+08	
20	-1.00000e+00	2.912978e+08	
21	-1.05000e+00	3.000623e+08	
22	-1.10000e+00	3.086271e+08	
23	-1.15000e+00	3.170081e+08	
24	-1.20000e+00	3.252179e+08	
25	-1.25000e+00	3.332669e+08	
26	-1.30000e+00	3.411638e+08	
27	-1.35000e+00	3.489161e+08	
28	-1.40000e+00	3.565302e+08	
29	-1.45000e+00	3.640117e+08	
30	-1.50000e+00	3.713657e+08	
31	-1.55000e+00	3.785967e+08	
32	-1.60000e+00	3.857085e+08	
33	-1.65000e+00	3.927048e+08	
34	-1.70000e+00	3.995887e+08	
35	-1.75000e+00	4.063626e+08	
36	-1.80000e+00	4.130285e+08	
37	-1.85000e+00	4.195877e+08	
38	-1.90000e+00	4.260402e+08	
39	-1.95000e+00	4.323850e+08	
40	-2.00000e+00	4.386191e+08	
41	-2.05000e+00	4.447375e+08	
42	-2.10000e+00	4.507325e+08	
43	-2.15000e+00	4.565928e+08	
44	-2.20000e+00	4.623033e+08	
45	-2.25000e+00	4.678436e+08	
46	-2.30000e+00	4.731877e+08	
47	-2.35000e+00	4.783028e+08	
48	-2.40000e+00	4.831485e+08	
49	-2.45000e+00	4.876763e+08	
50	-2.50000e+00	4.918284e+08	
51	-2.55000e+00	4.955378e+08	
52	-2.60000e+00	4.987279e+08	
53	-2.65000e+00	5.013129e+08	
54	-2.70000e+00	5.031990e+08	

Index   v-sweep         rds             
--------------------------------------------------------------------------------
55	-2.75000e+00	5.042856e+08	
56	-2.80000e+00	5.044678e+08	
57	-2.85000e+00	5.036397e+08	
58	-2.90000e+00	5.016979e+08	
59	-2.95000e+00	4.985470e+08	
60	-3.00000e+00	4.941038e+08	
61	-3.05000e+00	4.883034e+08	
62	-3.10000e+00	4.811043e+08	
63	-3.15000e+00	4.724928e+08	
64	-3.20000e+00	4.624868e+08	
65	-3.25000e+00	4.511371e+08	
66	-3.30000e+00	4.385284e+08	
Reset re-loads circuit ***************************

Circuit: ***************************

Doing analysis at TEMP = 125.000000 and TNOM = 125.000000


No. of Data Rows : 67
                          ***************************
                          DC transfer characteristic  Mon Jan  9 13:57:32  2023
--------------------------------------------------------------------------------
Index   v-sweep         rds             
--------------------------------------------------------------------------------
0	0.000000e+00	1.236456e+05	
1	-5.00000e-02	1.375548e+05	
2	-1.00000e-01	1.548995e+05	
3	-1.50000e-01	1.771193e+05	
4	-2.00000e-01	2.065725e+05	
5	-2.50000e-01	2.473790e+05	
6	-3.00000e-01	3.073298e+05	
7	-3.50000e-01	4.026217e+05	
8	-4.00000e-01	5.705031e+05	
9	-4.50000e-01	9.023718e+05	
10	-5.00000e-01	1.604129e+06	
11	-5.50000e-01	2.972938e+06	
12	-6.00000e-01	5.069340e+06	
13	-6.50000e-01	7.494397e+06	
14	-7.00000e-01	9.789649e+06	
15	-7.50000e-01	1.176990e+07	
16	-8.00000e-01	1.344945e+07	
17	-8.50000e-01	1.490049e+07	
18	-9.00000e-01	1.619032e+07	
19	-9.50000e-01	1.736807e+07	
20	-1.00000e+00	1.846705e+07	
21	-1.05000e+00	1.950943e+07	
22	-1.10000e+00	2.051001e+07	
23	-1.15000e+00	2.147884e+07	
24	-1.20000e+00	2.242284e+07	
25	-1.25000e+00	2.334688e+07	
26	-1.30000e+00	2.425447e+07	
27	-1.35000e+00	2.514815e+07	
28	-1.40000e+00	2.602984e+07	
29	-1.45000e+00	2.690096e+07	
30	-1.50000e+00	2.776264e+07	
31	-1.55000e+00	2.861572e+07	
32	-1.60000e+00	2.946089e+07	
33	-1.65000e+00	3.029870e+07	
34	-1.70000e+00	3.112960e+07	
35	-1.75000e+00	3.195394e+07	
36	-1.80000e+00	3.277204e+07	
37	-1.85000e+00	3.358414e+07	
38	-1.90000e+00	3.439045e+07	
39	-1.95000e+00	3.519115e+07	
40	-2.00000e+00	3.598638e+07	
41	-2.05000e+00	3.677623e+07	
42	-2.10000e+00	3.756075e+07	
43	-2.15000e+00	3.833992e+07	
44	-2.20000e+00	3.911365e+07	
45	-2.25000e+00	3.988170e+07	
46	-2.30000e+00	4.064371e+07	
47	-2.35000e+00	4.139909e+07	
48	-2.40000e+00	4.214696e+07	
49	-2.45000e+00	4.288609e+07	
50	-2.50000e+00	4.361482e+07	
51	-2.55000e+00	4.433088e+07	
52	-2.60000e+00	4.503136e+07	
53	-2.65000e+00	4.571251e+07	
54	-2.70000e+00	4.636964e+07	

Index   v-sweep         rds             
--------------------------------------------------------------------------------
55	-2.75000e+00	4.699696e+07	
56	-2.80000e+00	4.758749e+07	
57	-2.85000e+00	4.813293e+07	
58	-2.90000e+00	4.862363e+07	
59	-2.95000e+00	4.904855e+07	
60	-3.00000e+00	4.939539e+07	
61	-3.05000e+00	4.965073e+07	
62	-3.10000e+00	4.980038e+07	
63	-3.15000e+00	4.982978e+07	
64	-3.20000e+00	4.972460e+07	
65	-3.25000e+00	4.947150e+07	
66	-3.30000e+00	4.905885e+07	
Reset re-loads circuit ***************************

Circuit: ***************************

Doing analysis at TEMP = 125.000000 and TNOM = 125.000000


No. of Data Rows : 67
                          ***************************
                          DC transfer characteristic  Mon Jan  9 13:57:32  2023
--------------------------------------------------------------------------------
Index   v-sweep         rds             
--------------------------------------------------------------------------------
0	0.000000e+00	7.194266e+04	
1	-5.00000e-02	7.635975e+04	
2	-1.00000e-01	8.133457e+04	
3	-1.50000e-01	8.697963e+04	
4	-2.00000e-01	9.343978e+04	
5	-2.50000e-01	1.009046e+05	
6	-3.00000e-01	1.096272e+05	
7	-3.50000e-01	1.199525e+05	
8	-4.00000e-01	1.323628e+05	
9	-4.50000e-01	1.475524e+05	
10	-5.00000e-01	1.665546e+05	
11	-5.50000e-01	1.909689e+05	
12	-6.00000e-01	2.233849e+05	
13	-6.50000e-01	2.682101e+05	
14	-7.00000e-01	3.333404e+05	
15	-7.50000e-01	4.335027e+05	
16	-8.00000e-01	5.961391e+05	
17	-8.50000e-01	8.671629e+05	
18	-9.00000e-01	1.300431e+06	
19	-9.50000e-01	1.910111e+06	
20	-1.00000e+00	2.629332e+06	
21	-1.05000e+00	3.354234e+06	
22	-1.10000e+00	4.017507e+06	
23	-1.15000e+00	4.602299e+06	
24	-1.20000e+00	5.118234e+06	
25	-1.25000e+00	5.581376e+06	
26	-1.30000e+00	6.006013e+06	
27	-1.35000e+00	6.402890e+06	
28	-1.40000e+00	6.779616e+06	
29	-1.45000e+00	7.141475e+06	
30	-1.50000e+00	7.492141e+06	
31	-1.55000e+00	7.834190e+06	
32	-1.60000e+00	8.169453e+06	
33	-1.65000e+00	8.499250e+06	
34	-1.70000e+00	8.824548e+06	
35	-1.75000e+00	9.146067e+06	
36	-1.80000e+00	9.464349e+06	
37	-1.85000e+00	9.779809e+06	
38	-1.90000e+00	1.009277e+07	
39	-1.95000e+00	1.040348e+07	
40	-2.00000e+00	1.071215e+07	
41	-2.05000e+00	1.101893e+07	
42	-2.10000e+00	1.132395e+07	
43	-2.15000e+00	1.162732e+07	
44	-2.20000e+00	1.192913e+07	
45	-2.25000e+00	1.222946e+07	
46	-2.30000e+00	1.252835e+07	
47	-2.35000e+00	1.282585e+07	
48	-2.40000e+00	1.312200e+07	
49	-2.45000e+00	1.341682e+07	
50	-2.50000e+00	1.371029e+07	
51	-2.55000e+00	1.400238e+07	
52	-2.60000e+00	1.429302e+07	
53	-2.65000e+00	1.458209e+07	
54	-2.70000e+00	1.486938e+07	

Index   v-sweep         rds             
--------------------------------------------------------------------------------
55	-2.75000e+00	1.515461e+07	
56	-2.80000e+00	1.543735e+07	
57	-2.85000e+00	1.571703e+07	
58	-2.90000e+00	1.599287e+07	
59	-2.95000e+00	1.626382e+07	
60	-3.00000e+00	1.652858e+07	
61	-3.05000e+00	1.678544e+07	
62	-3.10000e+00	1.703231e+07	
63	-3.15000e+00	1.726663e+07	
64	-3.20000e+00	1.748534e+07	
65	-3.25000e+00	1.768482e+07	
66	-3.30000e+00	1.786092e+07	
Reset re-loads circuit ***************************

Circuit: ***************************

Doing analysis at TEMP = 125.000000 and TNOM = 125.000000


No. of Data Rows : 67
                          ***************************
                          DC transfer characteristic  Mon Jan  9 13:57:32  2023
--------------------------------------------------------------------------------
Index   v-sweep         rds             
--------------------------------------------------------------------------------
0	0.000000e+00	5.226374e+04	
1	-5.00000e-02	5.445522e+04	
2	-1.00000e-01	5.682973e+04	
3	-1.50000e-01	5.941117e+04	
4	-2.00000e-01	6.222780e+04	
5	-2.50000e-01	6.531324e+04	
6	-3.00000e-01	6.870783e+04	
7	-3.50000e-01	7.246040e+04	
8	-4.00000e-01	7.663060e+04	
9	-4.50000e-01	8.129205e+04	
10	-5.00000e-01	8.653667e+04	
11	-5.50000e-01	9.248072e+04	
12	-6.00000e-01	9.927329e+04	
13	-6.50000e-01	1.071087e+05	
14	-7.00000e-01	1.162448e+05	
15	-7.50000e-01	1.270304e+05	
16	-8.00000e-01	1.399485e+05	
17	-8.50000e-01	1.556852e+05	
18	-9.00000e-01	1.752420e+05	
19	-9.50000e-01	2.001279e+05	
20	-1.00000e+00	2.326877e+05	
21	-1.05000e+00	2.766722e+05	
22	-1.10000e+00	3.381805e+05	
23	-1.15000e+00	4.269896e+05	
24	-1.20000e+00	5.575037e+05	
25	-1.25000e+00	7.464145e+05	
26	-1.30000e+00	1.002845e+06	
27	-1.35000e+00	1.315066e+06	
28	-1.40000e+00	1.651494e+06	
29	-1.45000e+00	1.979904e+06	
30	-1.50000e+00	2.282581e+06	
31	-1.55000e+00	2.555943e+06	
32	-1.60000e+00	2.803577e+06	
33	-1.65000e+00	3.030946e+06	
34	-1.70000e+00	3.243057e+06	
35	-1.75000e+00	3.443838e+06	
36	-1.80000e+00	3.636185e+06	
37	-1.85000e+00	3.822184e+06	
38	-1.90000e+00	4.003330e+06	
39	-1.95000e+00	4.180698e+06	
40	-2.00000e+00	4.355071e+06	
41	-2.05000e+00	4.527022e+06	
42	-2.10000e+00	4.696980e+06	
43	-2.15000e+00	4.865265e+06	
44	-2.20000e+00	5.032125e+06	
45	-2.25000e+00	5.197747e+06	
46	-2.30000e+00	5.362280e+06	
47	-2.35000e+00	5.525841e+06	
48	-2.40000e+00	5.688523e+06	
49	-2.45000e+00	5.850402e+06	
50	-2.50000e+00	6.011537e+06	
51	-2.55000e+00	6.171980e+06	
52	-2.60000e+00	6.331770e+06	
53	-2.65000e+00	6.490941e+06	
54	-2.70000e+00	6.649520e+06	

Index   v-sweep         rds             
--------------------------------------------------------------------------------
55	-2.75000e+00	6.807526e+06	
56	-2.80000e+00	6.964973e+06	
57	-2.85000e+00	7.121862e+06	
58	-2.90000e+00	7.278185e+06	
59	-2.95000e+00	7.433916e+06	
60	-3.00000e+00	7.589007e+06	
61	-3.05000e+00	7.743377e+06	
62	-3.10000e+00	7.896904e+06	
63	-3.15000e+00	8.049408e+06	
64	-3.20000e+00	8.200634e+06	
65	-3.25000e+00	8.350235e+06	
66	-3.30000e+00	8.497744e+06	
Reset re-loads circuit ***************************

Circuit: ***************************

Doing analysis at TEMP = 125.000000 and TNOM = 125.000000


No. of Data Rows : 67
                          ***************************
                          DC transfer characteristic  Mon Jan  9 13:57:32  2023
--------------------------------------------------------------------------------
Index   v-sweep         rds             
--------------------------------------------------------------------------------
0	0.000000e+00	4.185810e+04	
1	-5.00000e-02	4.318291e+04	
2	-1.00000e-01	4.458940e+04	
3	-1.50000e-01	4.608537e+04	
4	-2.00000e-01	4.767962e+04	
5	-2.50000e-01	4.938216e+04	
6	-3.00000e-01	5.120440e+04	
7	-3.50000e-01	5.315940e+04	
8	-4.00000e-01	5.526221e+04	
9	-4.50000e-01	5.753024e+04	
10	-5.00000e-01	5.998371e+04	
11	-5.50000e-01	6.264630e+04	
12	-6.00000e-01	6.554588e+04	
13	-6.50000e-01	6.871551e+04	
14	-7.00000e-01	7.219465e+04	
15	-7.50000e-01	7.603081e+04	
16	-8.00000e-01	8.028172e+04	
17	-8.50000e-01	8.501818e+04	
18	-9.00000e-01	9.032792e+04	
19	-9.50000e-01	9.632100e+04	
20	-1.00000e+00	1.031372e+05	
21	-1.05000e+00	1.109567e+05	
22	-1.10000e+00	1.200151e+05	
23	-1.15000e+00	1.306262e+05	
24	-1.20000e+00	1.432160e+05	
25	-1.25000e+00	1.583737e+05	
26	-1.30000e+00	1.769330e+05	
27	-1.35000e+00	2.000970e+05	
28	-1.40000e+00	2.296336e+05	
29	-1.45000e+00	2.681640e+05	
30	-1.50000e+00	3.195328e+05	
31	-1.55000e+00	3.890978e+05	
32	-1.60000e+00	4.833776e+05	
33	-1.65000e+00	6.080065e+05	
34	-1.70000e+00	7.636041e+05	
35	-1.75000e+00	9.424198e+05	
36	-1.80000e+00	1.130552e+06	
37	-1.85000e+00	1.314835e+06	
38	-1.90000e+00	1.487699e+06	
39	-1.95000e+00	1.647109e+06	
40	-2.00000e+00	1.794187e+06	
41	-2.05000e+00	1.931150e+06	
42	-2.10000e+00	2.060230e+06	
43	-2.15000e+00	2.183292e+06	
44	-2.20000e+00	2.301777e+06	
45	-2.25000e+00	2.416761e+06	
46	-2.30000e+00	2.529037e+06	
47	-2.35000e+00	2.639188e+06	
48	-2.40000e+00	2.747646e+06	
49	-2.45000e+00	2.854733e+06	
50	-2.50000e+00	2.960692e+06	
51	-2.55000e+00	3.065706e+06	
52	-2.60000e+00	3.169918e+06	
53	-2.65000e+00	3.273438e+06	
54	-2.70000e+00	3.376351e+06	

Index   v-sweep         rds             
--------------------------------------------------------------------------------
55	-2.75000e+00	3.478727e+06	
56	-2.80000e+00	3.580620e+06	
57	-2.85000e+00	3.682075e+06	
58	-2.90000e+00	3.783127e+06	
59	-2.95000e+00	3.883806e+06	
60	-3.00000e+00	3.984136e+06	
61	-3.05000e+00	4.084137e+06	
62	-3.10000e+00	4.183823e+06	
63	-3.15000e+00	4.283208e+06	
64	-3.20000e+00	4.382296e+06	
65	-3.25000e+00	4.481090e+06	
66	-3.30000e+00	4.579583e+06	
Reset re-loads circuit ***************************

Circuit: ***************************

Doing analysis at TEMP = 125.000000 and TNOM = 125.000000


No. of Data Rows : 67
                          ***************************
                          DC transfer characteristic  Mon Jan  9 13:57:32  2023
--------------------------------------------------------------------------------
Index   v-sweep         rds             
--------------------------------------------------------------------------------
0	0.000000e+00	3.539206e+04	
1	-5.00000e-02	3.628694e+04	
2	-1.00000e-01	3.722510e+04	
3	-1.50000e-01	3.820977e+04	
4	-2.00000e-01	3.924449e+04	
5	-2.50000e-01	4.033318e+04	
6	-3.00000e-01	4.148016e+04	
7	-3.50000e-01	4.269023e+04	
8	-4.00000e-01	4.396876e+04	
9	-4.50000e-01	4.532171e+04	
10	-5.00000e-01	4.675577e+04	
11	-5.50000e-01	4.827845e+04	
12	-6.00000e-01	4.989821e+04	
13	-6.50000e-01	5.162464e+04	
14	-7.00000e-01	5.346862e+04	
15	-7.50000e-01	5.544255e+04	
16	-8.00000e-01	5.756067e+04	
17	-8.50000e-01	5.983932e+04	
18	-9.00000e-01	6.229746e+04	
19	-9.50000e-01	6.495710e+04	
20	-1.00000e+00	6.784401e+04	
21	-1.05000e+00	7.098854e+04	
22	-1.10000e+00	7.442666e+04	
23	-1.15000e+00	7.820130e+04	
24	-1.20000e+00	8.236417e+04	
25	-1.25000e+00	8.697803e+04	
26	-1.30000e+00	9.211980e+04	
27	-1.35000e+00	9.788468e+04	
28	-1.40000e+00	1.043919e+05	
29	-1.45000e+00	1.117924e+05	
30	-1.50000e+00	1.202801e+05	
31	-1.55000e+00	1.301073e+05	
32	-1.60000e+00	1.416072e+05	
33	-1.65000e+00	1.552266e+05	
34	-1.70000e+00	1.715735e+05	
35	-1.75000e+00	1.914852e+05	
36	-1.80000e+00	2.161241e+05	
37	-1.85000e+00	2.470978e+05	
38	-1.90000e+00	2.865765e+05	
39	-1.95000e+00	3.373065e+05	
40	-2.00000e+00	4.022867e+05	
41	-2.05000e+00	4.837930e+05	
42	-2.10000e+00	5.817678e+05	
43	-2.15000e+00	6.926011e+05	
44	-2.20000e+00	8.098624e+05	
45	-2.25000e+00	9.269024e+05	
46	-2.30000e+00	1.039174e+06	
47	-2.35000e+00	1.144761e+06	
48	-2.40000e+00	1.243619e+06	
49	-2.45000e+00	1.336595e+06	
50	-2.50000e+00	1.424775e+06	
51	-2.55000e+00	1.509175e+06	
52	-2.60000e+00	1.590633e+06	
53	-2.65000e+00	1.669806e+06	
54	-2.70000e+00	1.747193e+06	

Index   v-sweep         rds             
--------------------------------------------------------------------------------
55	-2.75000e+00	1.823170e+06	
56	-2.80000e+00	1.898021e+06	
57	-2.85000e+00	1.971961e+06	
58	-2.90000e+00	2.045150e+06	
59	-2.95000e+00	2.117715e+06	
60	-3.00000e+00	2.189752e+06	
61	-3.05000e+00	2.261335e+06	
62	-3.10000e+00	2.332525e+06	
63	-3.15000e+00	2.403367e+06	
64	-3.20000e+00	2.473901e+06	
65	-3.25000e+00	2.544155e+06	
66	-3.30000e+00	2.614156e+06	
Reset re-loads circuit ***************************

Circuit: ***************************

Note: No ".plot", ".print", or ".fourier" lines; no simulations run
