
Note: Compatibility modes selected: hs

Warning: m=xx on .subckt line will override multiplier m hierarchy!


Circuit: ***************************

Doing analysis at TEMP = 125.000000 and TNOM = 125.000000


No. of Data Rows : 67
                          ***************************
                          DC transfer characteristic  Mon Jan  9 13:57:32  2023
--------------------------------------------------------------------------------
Index   v-sweep         rds             
--------------------------------------------------------------------------------
0	0.000000e+00	2.837645e+06	
1	-5.00000e-02	4.579960e+06	
2	-1.00000e-01	1.018560e+07	
3	-1.50000e-01	3.756876e+07	
4	-2.00000e-01	1.539052e+08	
5	-2.50000e-01	4.648096e+08	
6	-3.00000e-01	1.046586e+09	
7	-3.50000e-01	1.905073e+09	
8	-4.00000e-01	2.978452e+09	
9	-4.50000e-01	4.171415e+09	
10	-5.00000e-01	5.392929e+09	
11	-5.50000e-01	6.577229e+09	
12	-6.00000e-01	7.686836e+09	
13	-6.50000e-01	8.706193e+09	
14	-7.00000e-01	9.633506e+09	
15	-7.50000e-01	1.047425e+10	
16	-8.00000e-01	1.123701e+10	
17	-8.50000e-01	1.193107e+10	
18	-9.00000e-01	1.256531e+10	
19	-9.50000e-01	1.314768e+10	
20	-1.00000e+00	1.368505e+10	
21	-1.05000e+00	1.418328e+10	
22	-1.10000e+00	1.464733e+10	
23	-1.15000e+00	1.508135e+10	
24	-1.20000e+00	1.548886e+10	
25	-1.25000e+00	1.587282e+10	
26	-1.30000e+00	1.623574e+10	
27	-1.35000e+00	1.657974e+10	
28	-1.40000e+00	1.690667e+10	
29	-1.45000e+00	1.721808e+10	
30	-1.50000e+00	1.751534e+10	
31	-1.55000e+00	1.779963e+10	
32	-1.60000e+00	1.807199e+10	
33	-1.65000e+00	1.833331e+10	
34	-1.70000e+00	1.858439e+10	
35	-1.75000e+00	1.882591e+10	
36	-1.80000e+00	1.905849e+10	
37	-1.85000e+00	1.928262e+10	
38	-1.90000e+00	1.949873e+10	
39	-1.95000e+00	1.970716e+10	
40	-2.00000e+00	1.990814e+10	
41	-2.05000e+00	2.010181e+10	
42	-2.10000e+00	2.028818e+10	
43	-2.15000e+00	2.046713e+10	
44	-2.20000e+00	2.063840e+10	
45	-2.25000e+00	2.080154e+10	
46	-2.30000e+00	2.095591e+10	
47	-2.35000e+00	2.110068e+10	
48	-2.40000e+00	2.123476e+10	
49	-2.45000e+00	2.135685e+10	
50	-2.50000e+00	2.146534e+10	
51	-2.55000e+00	2.155840e+10	
52	-2.60000e+00	2.163390e+10	
53	-2.65000e+00	2.168946e+10	
54	-2.70000e+00	2.172248e+10	

Index   v-sweep         rds             
--------------------------------------------------------------------------------
55	-2.75000e+00	2.173013e+10	
56	-2.80000e+00	2.170948e+10	
57	-2.85000e+00	2.165749e+10	
58	-2.90000e+00	2.157116e+10	
59	-2.95000e+00	2.144762e+10	
60	-3.00000e+00	2.128421e+10	
61	-3.05000e+00	2.107866e+10	
62	-3.10000e+00	2.082921e+10	
63	-3.15000e+00	2.053469e+10	
64	-3.20000e+00	2.019469e+10	
65	-3.25000e+00	1.980961e+10	
66	-3.30000e+00	1.938071e+10	
Reset re-loads circuit ***************************

Circuit: ***************************

Doing analysis at TEMP = 125.000000 and TNOM = 125.000000


No. of Data Rows : 67
                          ***************************
                          DC transfer characteristic  Mon Jan  9 13:57:32  2023
--------------------------------------------------------------------------------
Index   v-sweep         rds             
--------------------------------------------------------------------------------
0	0.000000e+00	6.478701e+05	
1	-5.00000e-02	7.287035e+05	
2	-1.00000e-01	8.324244e+05	
3	-1.50000e-01	9.702278e+05	
4	-2.00000e-01	1.161829e+06	
5	-2.50000e-01	1.445012e+06	
6	-3.00000e-01	1.900271e+06	
7	-3.50000e-01	2.721843e+06	
8	-4.00000e-01	4.436644e+06	
9	-4.50000e-01	8.514692e+06	
10	-5.00000e-01	1.841253e+07	
11	-5.50000e-01	3.973334e+07	
12	-6.00000e-01	7.815052e+07	
13	-6.50000e-01	1.366877e+08	
14	-7.00000e-01	2.145026e+08	
15	-7.50000e-01	3.075731e+08	
16	-8.00000e-01	4.104289e+08	
17	-8.50000e-01	5.177966e+08	
18	-9.00000e-01	6.255356e+08	
19	-9.50000e-01	7.308679e+08	
20	-1.00000e+00	8.321947e+08	
21	-1.05000e+00	9.287745e+08	
22	-1.10000e+00	1.020419e+09	
23	-1.15000e+00	1.107263e+09	
24	-1.20000e+00	1.189606e+09	
25	-1.25000e+00	1.267818e+09	
26	-1.30000e+00	1.342282e+09	
27	-1.35000e+00	1.413367e+09	
28	-1.40000e+00	1.481410e+09	
29	-1.45000e+00	1.546712e+09	
30	-1.50000e+00	1.609542e+09	
31	-1.55000e+00	1.670132e+09	
32	-1.60000e+00	1.728687e+09	
33	-1.65000e+00	1.785383e+09	
34	-1.70000e+00	1.840376e+09	
35	-1.75000e+00	1.893800e+09	
36	-1.80000e+00	1.945773e+09	
37	-1.85000e+00	1.996398e+09	
38	-1.90000e+00	2.045766e+09	
39	-1.95000e+00	2.093955e+09	
40	-2.00000e+00	2.141034e+09	
41	-2.05000e+00	2.187064e+09	
42	-2.10000e+00	2.232094e+09	
43	-2.15000e+00	2.276165e+09	
44	-2.20000e+00	2.319306e+09	
45	-2.25000e+00	2.361533e+09	
46	-2.30000e+00	2.402849e+09	
47	-2.35000e+00	2.443239e+09	
48	-2.40000e+00	2.482665e+09	
49	-2.45000e+00	2.521063e+09	
50	-2.50000e+00	2.558340e+09	
51	-2.55000e+00	2.594363e+09	
52	-2.60000e+00	2.628958e+09	
53	-2.65000e+00	2.661901e+09	
54	-2.70000e+00	2.692912e+09	

Index   v-sweep         rds             
--------------------------------------------------------------------------------
55	-2.75000e+00	2.721649e+09	
56	-2.80000e+00	2.747709e+09	
57	-2.85000e+00	2.770618e+09	
58	-2.90000e+00	2.789838e+09	
59	-2.95000e+00	2.804769e+09	
60	-3.00000e+00	2.814761e+09	
61	-3.05000e+00	2.819124e+09	
62	-3.10000e+00	2.817158e+09	
63	-3.15000e+00	2.808170e+09	
64	-3.20000e+00	2.791520e+09	
65	-3.25000e+00	2.766647e+09	
66	-3.30000e+00	2.733117e+09	
Reset re-loads circuit ***************************

Circuit: ***************************

Doing analysis at TEMP = 125.000000 and TNOM = 125.000000


No. of Data Rows : 67
                          ***************************
                          DC transfer characteristic  Mon Jan  9 13:57:32  2023
--------------------------------------------------------------------------------
Index   v-sweep         rds             
--------------------------------------------------------------------------------
0	0.000000e+00	3.748155e+05	
1	-5.00000e-02	3.998606e+05	
2	-1.00000e-01	4.284773e+05	
3	-1.50000e-01	4.614861e+05	
4	-2.00000e-01	4.999789e+05	
5	-2.50000e-01	5.454395e+05	
6	-3.00000e-01	5.999360e+05	
7	-3.50000e-01	6.664347e+05	
8	-4.00000e-01	7.493384e+05	
9	-4.50000e-01	8.554497e+05	
10	-5.00000e-01	9.957944e+05	
11	-5.50000e-01	1.189283e+06	
12	-6.00000e-01	1.470556e+06	
13	-6.50000e-01	1.907792e+06	
14	-7.00000e-01	2.644539e+06	
15	-7.50000e-01	3.994014e+06	
16	-8.00000e-01	6.612262e+06	
17	-8.50000e-01	1.167283e+07	
18	-9.00000e-01	2.077165e+07	
19	-9.50000e-01	3.540380e+07	
20	-1.00000e+00	5.632846e+07	
21	-1.05000e+00	8.327204e+07	
22	-1.10000e+00	1.150974e+08	
23	-1.15000e+00	1.502449e+08	
24	-1.20000e+00	1.871673e+08	
25	-1.25000e+00	2.245983e+08	
26	-1.30000e+00	2.616386e+08	
27	-1.35000e+00	2.977271e+08	
28	-1.40000e+00	3.325631e+08	
29	-1.45000e+00	3.660246e+08	
30	-1.50000e+00	3.981021e+08	
31	-1.55000e+00	4.288501e+08	
32	-1.60000e+00	4.583558e+08	
33	-1.65000e+00	4.867191e+08	
34	-1.70000e+00	5.140417e+08	
35	-1.75000e+00	5.404201e+08	
36	-1.80000e+00	5.659434e+08	
37	-1.85000e+00	5.906917e+08	
38	-1.90000e+00	6.147362e+08	
39	-1.95000e+00	6.381396e+08	
40	-2.00000e+00	6.609571e+08	
41	-2.05000e+00	6.832370e+08	
42	-2.10000e+00	7.050216e+08	
43	-2.15000e+00	7.263480e+08	
44	-2.20000e+00	7.472487e+08	
45	-2.25000e+00	7.677520e+08	
46	-2.30000e+00	7.878827e+08	
47	-2.35000e+00	8.076622e+08	
48	-2.40000e+00	8.271084e+08	
49	-2.45000e+00	8.462362e+08	
50	-2.50000e+00	8.650563e+08	
51	-2.55000e+00	8.835753e+08	
52	-2.60000e+00	9.017948e+08	
53	-2.65000e+00	9.197097e+08	
54	-2.70000e+00	9.373073e+08	

Index   v-sweep         rds             
--------------------------------------------------------------------------------
55	-2.75000e+00	9.545651e+08	
56	-2.80000e+00	9.714485e+08	
57	-2.85000e+00	9.879085e+08	
58	-2.90000e+00	1.003879e+09	
59	-2.95000e+00	1.019272e+09	
60	-3.00000e+00	1.033978e+09	
61	-3.05000e+00	1.047859e+09	
62	-3.10000e+00	1.060749e+09	
63	-3.15000e+00	1.072450e+09	
64	-3.20000e+00	1.082734e+09	
65	-3.25000e+00	1.091338e+09	
66	-3.30000e+00	1.097974e+09	
Reset re-loads circuit ***************************

Circuit: ***************************

Doing analysis at TEMP = 125.000000 and TNOM = 125.000000


No. of Data Rows : 67
                          ***************************
                          DC transfer characteristic  Mon Jan  9 13:57:32  2023
--------------------------------------------------------------------------------
Index   v-sweep         rds             
--------------------------------------------------------------------------------
0	0.000000e+00	2.705508e+05	
1	-5.00000e-02	2.826772e+05	
2	-1.00000e-01	2.959365e+05	
3	-1.50000e-01	3.104950e+05	
4	-2.00000e-01	3.265532e+05	
5	-2.50000e-01	3.443551e+05	
6	-3.00000e-01	3.642005e+05	
7	-3.50000e-01	3.864619e+05	
8	-4.00000e-01	4.116078e+05	
9	-4.50000e-01	4.402356e+05	
10	-5.00000e-01	4.731189e+05	
11	-5.50000e-01	5.112770e+05	
12	-6.00000e-01	5.560798e+05	
13	-6.50000e-01	6.094095e+05	
14	-7.00000e-01	6.739204e+05	
15	-7.50000e-01	7.534676e+05	
16	-8.00000e-01	8.538445e+05	
17	-8.50000e-01	9.841045e+05	
18	-9.00000e-01	1.159035e+06	
19	-9.50000e-01	1.403980e+06	
20	-1.00000e+00	1.764545e+06	
21	-1.05000e+00	2.326141e+06	
22	-1.10000e+00	3.251060e+06	
23	-1.15000e+00	4.836602e+06	
24	-1.20000e+00	7.569490e+06	
25	-1.25000e+00	1.210283e+07	
26	-1.30000e+00	1.909305e+07	
27	-1.35000e+00	2.895751e+07	
28	-1.40000e+00	4.170794e+07	
29	-1.45000e+00	5.695689e+07	
30	-1.50000e+00	7.406553e+07	
31	-1.55000e+00	9.233062e+07	
32	-1.60000e+00	1.111261e+08	
33	-1.65000e+00	1.299709e+08	
34	-1.70000e+00	1.485374e+08	
35	-1.75000e+00	1.666279e+08	
36	-1.80000e+00	1.841410e+08	
37	-1.85000e+00	2.010403e+08	
38	-1.90000e+00	2.173298e+08	
39	-1.95000e+00	2.330367e+08	
40	-2.00000e+00	2.482000e+08	
41	-2.05000e+00	2.628627e+08	
42	-2.10000e+00	2.770684e+08	
43	-2.15000e+00	2.908586e+08	
44	-2.20000e+00	3.042713e+08	
45	-2.25000e+00	3.173412e+08	
46	-2.30000e+00	3.300989e+08	
47	-2.35000e+00	3.425718e+08	
48	-2.40000e+00	3.547840e+08	
49	-2.45000e+00	3.667566e+08	
50	-2.50000e+00	3.785082e+08	
51	-2.55000e+00	3.900551e+08	
52	-2.60000e+00	4.014117e+08	
53	-2.65000e+00	4.125904e+08	
54	-2.70000e+00	4.236019e+08	

Index   v-sweep         rds             
--------------------------------------------------------------------------------
55	-2.75000e+00	4.344553e+08	
56	-2.80000e+00	4.451579e+08	
57	-2.85000e+00	4.557153e+08	
58	-2.90000e+00	4.661307e+08	
59	-2.95000e+00	4.764046e+08	
60	-3.00000e+00	4.865342e+08	
61	-3.05000e+00	4.965127e+08	
62	-3.10000e+00	5.063280e+08	
63	-3.15000e+00	5.159614e+08	
64	-3.20000e+00	5.253864e+08	
65	-3.25000e+00	5.345668e+08	
66	-3.30000e+00	5.434550e+08	
Reset re-loads circuit ***************************

Circuit: ***************************

Doing analysis at TEMP = 125.000000 and TNOM = 125.000000


No. of Data Rows : 67
                          ***************************
                          DC transfer characteristic  Mon Jan  9 13:57:32  2023
--------------------------------------------------------------------------------
Index   v-sweep         rds             
--------------------------------------------------------------------------------
0	0.000000e+00	2.156263e+05	
1	-5.00000e-02	2.227940e+05	
2	-1.00000e-01	2.304519e+05	
3	-1.50000e-01	2.386521e+05	
4	-2.00000e-01	2.474542e+05	
5	-2.50000e-01	2.569270e+05	
6	-3.00000e-01	2.671501e+05	
7	-3.50000e-01	2.782163e+05	
8	-4.00000e-01	2.902343e+05	
9	-4.50000e-01	3.033321e+05	
10	-5.00000e-01	3.176620e+05	
11	-5.50000e-01	3.334060e+05	
12	-6.00000e-01	3.507839e+05	
13	-6.50000e-01	3.700632e+05	
14	-7.00000e-01	3.915731e+05	
15	-7.50000e-01	4.157229e+05	
16	-8.00000e-01	4.430281e+05	
17	-8.50000e-01	4.741462e+05	
18	-9.00000e-01	5.099296e+05	
19	-9.50000e-01	5.515017e+05	
20	-1.00000e+00	6.003717e+05	
21	-1.05000e+00	6.586119e+05	
22	-1.10000e+00	7.291375e+05	
23	-1.15000e+00	8.161646e+05	
24	-1.20000e+00	9.259805e+05	
25	-1.25000e+00	1.068285e+06	
26	-1.30000e+00	1.258594e+06	
27	-1.35000e+00	1.522624e+06	
28	-1.40000e+00	1.904315e+06	
29	-1.45000e+00	2.479887e+06	
30	-1.50000e+00	3.379677e+06	
31	-1.55000e+00	4.813268e+06	
32	-1.60000e+00	7.078480e+06	
33	-1.65000e+00	1.052342e+07	
34	-1.70000e+00	1.545227e+07	
35	-1.75000e+00	2.201654e+07	
36	-1.80000e+00	3.015682e+07	
37	-1.85000e+00	3.962536e+07	
38	-1.90000e+00	5.006625e+07	
39	-1.95000e+00	6.110549e+07	
40	-2.00000e+00	7.241577e+07	
41	-2.05000e+00	8.374623e+07	
42	-2.10000e+00	9.492482e+07	
43	-2.15000e+00	1.058461e+08	
44	-2.20000e+00	1.164546e+08	
45	-2.25000e+00	1.267291e+08	
46	-2.30000e+00	1.366698e+08	
47	-2.35000e+00	1.462901e+08	
48	-2.40000e+00	1.556100e+08	
49	-2.45000e+00	1.646521e+08	
50	-2.50000e+00	1.734397e+08	
51	-2.55000e+00	1.819953e+08	
52	-2.60000e+00	1.903397e+08	
53	-2.65000e+00	1.984920e+08	
54	-2.70000e+00	2.064692e+08	

Index   v-sweep         rds             
--------------------------------------------------------------------------------
55	-2.75000e+00	2.142865e+08	
56	-2.80000e+00	2.219575e+08	
57	-2.85000e+00	2.294940e+08	
58	-2.90000e+00	2.369067e+08	
59	-2.95000e+00	2.442046e+08	
60	-3.00000e+00	2.513959e+08	
61	-3.05000e+00	2.584877e+08	
62	-3.10000e+00	2.654860e+08	
63	-3.15000e+00	2.723957e+08	
64	-3.20000e+00	2.792208e+08	
65	-3.25000e+00	2.859641e+08	
66	-3.30000e+00	2.926268e+08	
Reset re-loads circuit ***************************

Circuit: ***************************

Doing analysis at TEMP = 125.000000 and TNOM = 125.000000


No. of Data Rows : 67
                          ***************************
                          DC transfer characteristic  Mon Jan  9 13:57:32  2023
--------------------------------------------------------------------------------
Index   v-sweep         rds             
--------------------------------------------------------------------------------
0	0.000000e+00	1.817503e+05	
1	-5.00000e-02	1.864929e+05	
2	-1.00000e-01	1.914881e+05	
3	-1.50000e-01	1.967564e+05	
4	-2.00000e-01	2.023210e+05	
5	-2.50000e-01	2.082076e+05	
6	-3.00000e-01	2.144448e+05	
7	-3.50000e-01	2.210651e+05	
8	-4.00000e-01	2.281047e+05	
9	-4.50000e-01	2.356048e+05	
10	-5.00000e-01	2.436120e+05	
11	-5.50000e-01	2.521797e+05	
12	-6.00000e-01	2.613686e+05	
13	-6.50000e-01	2.712489e+05	
14	-7.00000e-01	2.819015e+05	
15	-7.50000e-01	2.934205e+05	
16	-8.00000e-01	3.059159e+05	
17	-8.50000e-01	3.195172e+05	
18	-9.00000e-01	3.343775e+05	
19	-9.50000e-01	3.506798e+05	
20	-1.00000e+00	3.686440e+05	
21	-1.05000e+00	3.885369e+05	
22	-1.10000e+00	4.106852e+05	
23	-1.15000e+00	4.354934e+05	
24	-1.20000e+00	4.634680e+05	
25	-1.25000e+00	4.952512e+05	
26	-1.30000e+00	5.316690e+05	
27	-1.35000e+00	5.738009e+05	
28	-1.40000e+00	6.230820e+05	
29	-1.45000e+00	6.814582e+05	
30	-1.50000e+00	7.516249e+05	
31	-1.55000e+00	8.374071e+05	
32	-1.60000e+00	9.443746e+05	
33	-1.65000e+00	1.080866e+06	
34	-1.70000e+00	1.259725e+06	
35	-1.75000e+00	1.501255e+06	
36	-1.80000e+00	1.838199e+06	
37	-1.85000e+00	2.323675e+06	
38	-1.90000e+00	3.042297e+06	
39	-1.95000e+00	4.121597e+06	
40	-2.00000e+00	5.734743e+06	
41	-2.05000e+00	8.081151e+06	
42	-2.10000e+00	1.133974e+07	
43	-2.15000e+00	1.561128e+07	
44	-2.20000e+00	2.088091e+07	
45	-2.25000e+00	2.702125e+07	
46	-2.30000e+00	3.383065e+07	
47	-2.35000e+00	4.108356e+07	
48	-2.40000e+00	4.857186e+07	
49	-2.45000e+00	5.612779e+07	
50	-2.50000e+00	6.363010e+07	
51	-2.55000e+00	7.099964e+07	
52	-2.60000e+00	7.819059e+07	
53	-2.65000e+00	8.518116e+07	
54	-2.70000e+00	9.196557e+07	

Index   v-sweep         rds             
--------------------------------------------------------------------------------
55	-2.75000e+00	9.854804e+07	
56	-2.80000e+00	1.049385e+08	
57	-2.85000e+00	1.111499e+08	
58	-2.90000e+00	1.171959e+08	
59	-2.95000e+00	1.230906e+08	
60	-3.00000e+00	1.288470e+08	
61	-3.05000e+00	1.344774e+08	
62	-3.10000e+00	1.399930e+08	
63	-3.15000e+00	1.454037e+08	
64	-3.20000e+00	1.507185e+08	
65	-3.25000e+00	1.559453e+08	
66	-3.30000e+00	1.610911e+08	
Reset re-loads circuit ***************************

Circuit: ***************************

Note: No ".plot", ".print", or ".fourier" lines; no simulations run
