
Note: Compatibility modes selected: hs

Warning: m=xx on .subckt line will override multiplier m hierarchy!


Circuit: ***************************

Doing analysis at TEMP = -40.000000 and TNOM = -40.000000


No. of Data Rows : 67
                          ***************************
                          DC transfer characteristic  Mon Jan  9 13:57:31  2023
--------------------------------------------------------------------------------
Index   v-sweep         rds             
--------------------------------------------------------------------------------
0	0.000000e+00	2.743481e+07	
1	-5.00000e-02	2.990752e+08	
2	-1.00000e-01	2.832385e+09	
3	-1.50000e-01	1.087113e+10	
4	-2.00000e-01	2.564358e+10	
5	-2.50000e-01	4.546924e+10	
6	-3.00000e-01	6.720462e+10	
7	-3.50000e-01	8.816304e+10	
8	-4.00000e-01	1.068988e+11	
9	-4.50000e-01	1.229928e+11	
10	-5.00000e-01	1.365828e+11	
11	-5.50000e-01	1.480167e+11	
12	-6.00000e-01	1.576739e+11	
13	-6.50000e-01	1.658935e+11	
14	-7.00000e-01	1.729552e+11	
15	-7.50000e-01	1.790817e+11	
16	-8.00000e-01	1.844476e+11	
17	-8.50000e-01	1.891895e+11	
18	-9.00000e-01	1.934147e+11	
19	-9.50000e-01	1.972076e+11	
20	-1.00000e+00	2.006354e+11	
21	-1.05000e+00	2.037520e+11	
22	-1.10000e+00	2.066013e+11	
23	-1.15000e+00	2.092188e+11	
24	-1.20000e+00	2.116341e+11	
25	-1.25000e+00	2.138715e+11	
26	-1.30000e+00	2.159517e+11	
27	-1.35000e+00	2.178920e+11	
28	-1.40000e+00	2.197071e+11	
29	-1.45000e+00	2.214098e+11	
30	-1.50000e+00	2.230109e+11	
31	-1.55000e+00	2.245199e+11	
32	-1.60000e+00	2.259449e+11	
33	-1.65000e+00	2.272931e+11	
34	-1.70000e+00	2.285708e+11	
35	-1.75000e+00	2.297832e+11	
36	-1.80000e+00	2.309351e+11	
37	-1.85000e+00	2.320304e+11	
38	-1.90000e+00	2.330723e+11	
39	-1.95000e+00	2.340634e+11	
40	-2.00000e+00	2.350055e+11	
41	-2.05000e+00	2.358998e+11	
42	-2.10000e+00	2.367467e+11	
43	-2.15000e+00	2.375457e+11	
44	-2.20000e+00	2.382956e+11	
45	-2.25000e+00	2.389940e+11	
46	-2.30000e+00	2.396379e+11	
47	-2.35000e+00	2.402230e+11	
48	-2.40000e+00	2.407439e+11	
49	-2.45000e+00	2.411941e+11	
50	-2.50000e+00	2.415661e+11	
51	-2.55000e+00	2.418509e+11	
52	-2.60000e+00	2.420387e+11	
53	-2.65000e+00	2.421184e+11	
54	-2.70000e+00	2.420779e+11	

Index   v-sweep         rds             
--------------------------------------------------------------------------------
55	-2.75000e+00	2.419042e+11	
56	-2.80000e+00	2.415834e+11	
57	-2.85000e+00	2.411012e+11	
58	-2.90000e+00	2.404429e+11	
59	-2.95000e+00	2.395936e+11	
60	-3.00000e+00	2.385386e+11	
61	-3.05000e+00	2.372639e+11	
62	-3.10000e+00	2.357565e+11	
63	-3.15000e+00	2.340044e+11	
64	-3.20000e+00	2.319975e+11	
65	-3.25000e+00	2.297279e+11	
66	-3.30000e+00	2.271899e+11	
Reset re-loads circuit ***************************

Circuit: ***************************

Doing analysis at TEMP = -40.000000 and TNOM = -40.000000


No. of Data Rows : 67
                          ***************************
                          DC transfer characteristic  Mon Jan  9 13:57:32  2023
--------------------------------------------------------------------------------
Index   v-sweep         rds             
--------------------------------------------------------------------------------
0	0.000000e+00	9.271821e+05	
1	-5.00000e-02	1.099293e+06	
2	-1.00000e-01	1.348677e+06	
3	-1.50000e-01	1.740160e+06	
4	-2.00000e-01	2.430738e+06	
5	-2.50000e-01	3.872972e+06	
6	-3.00000e-01	7.570580e+06	
7	-3.50000e-01	1.820456e+07	
8	-4.00000e-01	4.566009e+07	
9	-4.50000e-01	1.017101e+08	
10	-5.00000e-01	1.933181e+08	
11	-5.50000e-01	3.194774e+08	
12	-6.00000e-01	4.728428e+08	
13	-6.50000e-01	6.435318e+08	
14	-7.00000e-01	8.223454e+08	
15	-7.50000e-01	1.002319e+09	
16	-8.00000e-01	1.178913e+09	
17	-8.50000e-01	1.349554e+09	
18	-9.00000e-01	1.513032e+09	
19	-9.50000e-01	1.668989e+09	
20	-1.00000e+00	1.817555e+09	
21	-1.05000e+00	1.959110e+09	
22	-1.10000e+00	2.094147e+09	
23	-1.15000e+00	2.223186e+09	
24	-1.20000e+00	2.346731e+09	
25	-1.25000e+00	2.465255e+09	
26	-1.30000e+00	2.579185e+09	
27	-1.35000e+00	2.688904e+09	
28	-1.40000e+00	2.794750e+09	
29	-1.45000e+00	2.897026e+09	
30	-1.50000e+00	2.995998e+09	
31	-1.55000e+00	3.091900e+09	
32	-1.60000e+00	3.184943e+09	
33	-1.65000e+00	3.275311e+09	
34	-1.70000e+00	3.363170e+09	
35	-1.75000e+00	3.448669e+09	
36	-1.80000e+00	3.531938e+09	
37	-1.85000e+00	3.613097e+09	
38	-1.90000e+00	3.692248e+09	
39	-1.95000e+00	3.769482e+09	
40	-2.00000e+00	3.844878e+09	
41	-2.05000e+00	3.918496e+09	
42	-2.10000e+00	3.990381e+09	
43	-2.15000e+00	4.060559e+09	
44	-2.20000e+00	4.129030e+09	
45	-2.25000e+00	4.195765e+09	
46	-2.30000e+00	4.260699e+09	
47	-2.35000e+00	4.323726e+09	
48	-2.40000e+00	4.384688e+09	
49	-2.45000e+00	4.443369e+09	
50	-2.50000e+00	4.499483e+09	
51	-2.55000e+00	4.552669e+09	
52	-2.60000e+00	4.602479e+09	
53	-2.65000e+00	4.648372e+09	
54	-2.70000e+00	4.689711e+09	

Index   v-sweep         rds             
--------------------------------------------------------------------------------
55	-2.75000e+00	4.725758e+09	
56	-2.80000e+00	4.755679e+09	
57	-2.85000e+00	4.778553e+09	
58	-2.90000e+00	4.793385e+09	
59	-2.95000e+00	4.799132e+09	
60	-3.00000e+00	4.794733e+09	
61	-3.05000e+00	4.779152e+09	
62	-3.10000e+00	4.751424e+09	
63	-3.15000e+00	4.710711e+09	
64	-3.20000e+00	4.656359e+09	
65	-3.25000e+00	4.587952e+09	
66	-3.30000e+00	4.505360e+09	
Reset re-loads circuit ***************************

Circuit: ***************************

Doing analysis at TEMP = -40.000000 and TNOM = -40.000000


No. of Data Rows : 67
                          ***************************
                          DC transfer characteristic  Mon Jan  9 13:57:32  2023
--------------------------------------------------------------------------------
Index   v-sweep         rds             
--------------------------------------------------------------------------------
0	0.000000e+00	4.624234e+05	
1	-5.00000e-02	5.007313e+05	
2	-1.00000e-01	5.459176e+05	
3	-1.50000e-01	6.000094e+05	
4	-2.00000e-01	6.659102e+05	
5	-2.50000e-01	7.479252e+05	
6	-3.00000e-01	8.527042e+05	
7	-3.50000e-01	9.910393e+05	
8	-4.00000e-01	1.181523e+06	
9	-4.50000e-01	1.458570e+06	
10	-5.00000e-01	1.891404e+06	
11	-5.50000e-01	2.631861e+06	
12	-6.00000e-01	4.034579e+06	
13	-6.50000e-01	6.913701e+06	
14	-7.00000e-01	1.286051e+07	
15	-7.50000e-01	2.414444e+07	
16	-8.00000e-01	4.284561e+07	
17	-8.50000e-01	6.985258e+07	
18	-9.00000e-01	1.045561e+08	
19	-9.50000e-01	1.452845e+08	
20	-1.00000e+00	1.900022e+08	
21	-1.05000e+00	2.368491e+08	
22	-1.10000e+00	2.843913e+08	
23	-1.15000e+00	3.316511e+08	
24	-1.20000e+00	3.780286e+08	
25	-1.25000e+00	4.231975e+08	
26	-1.30000e+00	4.670127e+08	
27	-1.35000e+00	5.094406e+08	
28	-1.40000e+00	5.505121e+08	
29	-1.45000e+00	5.902921e+08	
30	-1.50000e+00	6.288607e+08	
31	-1.55000e+00	6.663026e+08	
32	-1.60000e+00	7.027004e+08	
33	-1.65000e+00	7.381320e+08	
34	-1.70000e+00	7.726690e+08	
35	-1.75000e+00	8.063761e+08	
36	-1.80000e+00	8.393115e+08	
37	-1.85000e+00	8.715274e+08	
38	-1.90000e+00	9.030701e+08	
39	-1.95000e+00	9.339811e+08	
40	-2.00000e+00	9.642973e+08	
41	-2.05000e+00	9.940518e+08	
42	-2.10000e+00	1.023274e+09	
43	-2.15000e+00	1.051990e+09	
44	-2.20000e+00	1.080222e+09	
45	-2.25000e+00	1.107990e+09	
46	-2.30000e+00	1.135310e+09	
47	-2.35000e+00	1.162195e+09	
48	-2.40000e+00	1.188652e+09	
49	-2.45000e+00	1.214682e+09	
50	-2.50000e+00	1.240280e+09	
51	-2.55000e+00	1.265431e+09	
52	-2.60000e+00	1.290109e+09	
53	-2.65000e+00	1.314271e+09	
54	-2.70000e+00	1.337860e+09	

Index   v-sweep         rds             
--------------------------------------------------------------------------------
55	-2.75000e+00	1.360796e+09	
56	-2.80000e+00	1.382972e+09	
57	-2.85000e+00	1.404256e+09	
58	-2.90000e+00	1.424478e+09	
59	-2.95000e+00	1.443435e+09	
60	-3.00000e+00	1.460881e+09	
61	-3.05000e+00	1.476531e+09	
62	-3.10000e+00	1.490057e+09	
63	-3.15000e+00	1.501094e+09	
64	-3.20000e+00	1.509242e+09	
65	-3.25000e+00	1.514079e+09	
66	-3.30000e+00	1.515174e+09	
Reset re-loads circuit ***************************

Circuit: ***************************

Doing analysis at TEMP = -40.000000 and TNOM = -40.000000


No. of Data Rows : 67
                          ***************************
                          DC transfer characteristic  Mon Jan  9 13:57:32  2023
--------------------------------------------------------------------------------
Index   v-sweep         rds             
--------------------------------------------------------------------------------
0	0.000000e+00	3.188845e+05	
1	-5.00000e-02	3.355564e+05	
2	-1.00000e-01	3.540557e+05	
3	-1.50000e-01	3.746999e+05	
4	-2.00000e-01	3.978842e+05	
5	-2.50000e-01	4.241072e+05	
6	-3.00000e-01	4.540063e+05	
7	-3.50000e-01	4.884101e+05	
8	-4.00000e-01	5.284142e+05	
9	-4.50000e-01	5.754984e+05	
10	-5.00000e-01	6.317079e+05	
11	-5.50000e-01	6.999470e+05	
12	-6.00000e-01	7.844715e+05	
13	-6.50000e-01	8.917491e+05	
14	-7.00000e-01	1.032035e+06	
15	-7.50000e-01	1.222399e+06	
16	-8.00000e-01	1.492839e+06	
17	-8.50000e-01	1.899094e+06	
18	-9.00000e-01	2.549713e+06	
19	-9.50000e-01	3.659612e+06	
20	-1.00000e+00	5.634593e+06	
21	-1.05000e+00	9.138458e+06	
22	-1.10000e+00	1.501543e+07	
23	-1.15000e+00	2.400573e+07	
24	-1.20000e+00	3.642776e+07	
25	-1.25000e+00	5.206605e+07	
26	-1.30000e+00	7.030429e+07	
27	-1.35000e+00	9.036421e+07	
28	-1.40000e+00	1.115062e+08	
29	-1.45000e+00	1.331349e+08	
30	-1.50000e+00	1.548238e+08	
31	-1.55000e+00	1.762948e+08	
32	-1.60000e+00	1.973828e+08	
33	-1.65000e+00	2.180015e+08	
34	-1.70000e+00	2.381159e+08	
35	-1.75000e+00	2.577221e+08	
36	-1.80000e+00	2.768347e+08	
37	-1.85000e+00	2.954776e+08	
38	-1.90000e+00	3.136792e+08	
39	-1.95000e+00	3.314688e+08	
40	-2.00000e+00	3.488753e+08	
41	-2.05000e+00	3.659255e+08	
42	-2.10000e+00	3.826443e+08	
43	-2.15000e+00	3.990546e+08	
44	-2.20000e+00	4.151767e+08	
45	-2.25000e+00	4.310290e+08	
46	-2.30000e+00	4.466280e+08	
47	-2.35000e+00	4.619885e+08	
48	-2.40000e+00	4.771235e+08	
49	-2.45000e+00	4.920447e+08	
50	-2.50000e+00	5.067625e+08	
51	-2.55000e+00	5.212858e+08	
52	-2.60000e+00	5.356222e+08	
53	-2.65000e+00	5.497775e+08	
54	-2.70000e+00	5.637560e+08	

Index   v-sweep         rds             
--------------------------------------------------------------------------------
55	-2.75000e+00	5.775593e+08	
56	-2.80000e+00	5.911864e+08	
57	-2.85000e+00	6.046323e+08	
58	-2.90000e+00	6.178872e+08	
59	-2.95000e+00	6.309352e+08	
60	-3.00000e+00	6.437529e+08	
61	-3.05000e+00	6.563069e+08	
62	-3.10000e+00	6.685526e+08	
63	-3.15000e+00	6.804314e+08	
64	-3.20000e+00	6.918687e+08	
65	-3.25000e+00	7.027712e+08	
66	-3.30000e+00	7.130253e+08	
Reset re-loads circuit ***************************

Circuit: ***************************

Doing analysis at TEMP = -40.000000 and TNOM = -40.000000


No. of Data Rows : 67
                          ***************************
                          DC transfer characteristic  Mon Jan  9 13:57:32  2023
--------------------------------------------------------------------------------
Index   v-sweep         rds             
--------------------------------------------------------------------------------
0	0.000000e+00	2.506320e+05	
1	-5.00000e-02	2.600606e+05	
2	-1.00000e-01	2.702205e+05	
3	-1.50000e-01	2.812003e+05	
4	-2.00000e-01	2.931031e+05	
5	-2.50000e-01	3.060505e+05	
6	-3.00000e-01	3.201860e+05	
7	-3.50000e-01	3.356809e+05	
8	-4.00000e-01	3.527408e+05	
9	-4.50000e-01	3.716150e+05	
10	-5.00000e-01	3.926085e+05	
11	-5.50000e-01	4.160985e+05	
12	-6.00000e-01	4.425568e+05	
13	-6.50000e-01	4.725813e+05	
14	-7.00000e-01	5.069413e+05	
15	-7.50000e-01	5.466418e+05	
16	-8.00000e-01	5.930208e+05	
17	-8.50000e-01	6.478967e+05	
18	-9.00000e-01	7.137996e+05	
19	-9.50000e-01	7.943452e+05	
20	-1.00000e+00	8.948598e+05	
21	-1.05000e+00	1.023462e+06	
22	-1.10000e+00	1.193004e+06	
23	-1.15000e+00	1.424659e+06	
24	-1.20000e+00	1.754688e+06	
25	-1.25000e+00	2.247076e+06	
26	-1.30000e+00	3.015576e+06	
27	-1.35000e+00	4.255402e+06	
28	-1.40000e+00	6.269609e+06	
29	-1.45000e+00	9.450562e+06	
30	-1.50000e+00	1.418264e+07	
31	-1.55000e+00	2.070099e+07	
32	-1.60000e+00	2.900031e+07	
33	-1.65000e+00	3.885002e+07	
34	-1.70000e+00	4.988745e+07	
35	-1.75000e+00	6.172313e+07	
36	-1.80000e+00	7.401338e+07	
37	-1.85000e+00	8.649167e+07	
38	-1.90000e+00	9.897020e+07	
39	-1.95000e+00	1.113272e+08	
40	-2.00000e+00	1.234904e+08	
41	-2.05000e+00	1.354216e+08	
42	-2.10000e+00	1.471054e+08	
43	-2.15000e+00	1.585402e+08	
44	-2.20000e+00	1.697327e+08	
45	-2.25000e+00	1.806940e+08	
46	-2.30000e+00	1.914375e+08	
47	-2.35000e+00	2.019770e+08	
48	-2.40000e+00	2.123260e+08	
49	-2.45000e+00	2.224976e+08	
50	-2.50000e+00	2.325038e+08	
51	-2.55000e+00	2.423555e+08	
52	-2.60000e+00	2.520628e+08	
53	-2.65000e+00	2.616346e+08	
54	-2.70000e+00	2.710790e+08	

Index   v-sweep         rds             
--------------------------------------------------------------------------------
55	-2.75000e+00	2.804034e+08	
56	-2.80000e+00	2.896140e+08	
57	-2.85000e+00	2.987168e+08	
58	-2.90000e+00	3.077165e+08	
59	-2.95000e+00	3.166175e+08	
60	-3.00000e+00	3.254232e+08	
61	-3.05000e+00	3.341358e+08	
62	-3.10000e+00	3.427565e+08	
63	-3.15000e+00	3.512848e+08	
64	-3.20000e+00	3.597181e+08	
65	-3.25000e+00	3.680511e+08	
66	-3.30000e+00	3.762750e+08	
Reset re-loads circuit ***************************

Circuit: ***************************

Doing analysis at TEMP = -40.000000 and TNOM = -40.000000


No. of Data Rows : 67
                          ***************************
                          DC transfer characteristic  Mon Jan  9 13:57:32  2023
--------------------------------------------------------------------------------
Index   v-sweep         rds             
--------------------------------------------------------------------------------
0	0.000000e+00	2.116528e+05	
1	-5.00000e-02	2.177921e+05	
2	-1.00000e-01	2.242947e+05	
3	-1.50000e-01	2.311940e+05	
4	-2.00000e-01	2.385273e+05	
5	-2.50000e-01	2.463368e+05	
6	-3.00000e-01	2.546705e+05	
7	-3.50000e-01	2.635830e+05	
8	-4.00000e-01	2.731367e+05	
9	-4.50000e-01	2.834033e+05	
10	-5.00000e-01	2.944657e+05	
11	-5.50000e-01	3.064199e+05	
12	-6.00000e-01	3.193782e+05	
13	-6.50000e-01	3.334725e+05	
14	-7.00000e-01	3.488587e+05	
15	-7.50000e-01	3.657227e+05	
16	-8.00000e-01	3.842874e+05	
17	-8.50000e-01	4.048231e+05	
18	-9.00000e-01	4.276601e+05	
19	-9.50000e-01	4.532063e+05	
20	-1.00000e+00	4.819718e+05	
21	-1.05000e+00	5.146015e+05	
22	-1.10000e+00	5.519233e+05	
23	-1.15000e+00	5.950163e+05	
24	-1.20000e+00	6.453118e+05	
25	-1.25000e+00	7.047456e+05	
26	-1.30000e+00	7.759937e+05	
27	-1.35000e+00	8.628462e+05	
28	-1.40000e+00	9.708172e+05	
29	-1.45000e+00	1.108166e+06	
30	-1.50000e+00	1.287646e+06	
31	-1.55000e+00	1.529544e+06	
32	-1.60000e+00	1.866931e+06	
33	-1.65000e+00	2.354379e+06	
34	-1.70000e+00	3.080845e+06	
35	-1.75000e+00	4.184057e+06	
36	-1.80000e+00	5.855667e+06	
37	-1.85000e+00	8.319271e+06	
38	-1.90000e+00	1.177353e+07	
39	-1.95000e+00	1.632369e+07	
40	-2.00000e+00	2.194354e+07	
41	-2.05000e+00	2.848927e+07	
42	-2.10000e+00	3.574926e+07	
43	-2.15000e+00	4.349884e+07	
44	-2.20000e+00	5.153842e+07	
45	-2.25000e+00	5.971078e+07	
46	-2.30000e+00	6.790271e+07	
47	-2.35000e+00	7.603871e+07	
48	-2.40000e+00	8.407221e+07	
49	-2.45000e+00	9.197722e+07	
50	-2.50000e+00	9.974163e+07	
51	-2.55000e+00	1.073622e+08	
52	-2.60000e+00	1.148413e+08	
53	-2.65000e+00	1.221842e+08	
54	-2.70000e+00	1.293980e+08	

Index   v-sweep         rds             
--------------------------------------------------------------------------------
55	-2.75000e+00	1.364903e+08	
56	-2.80000e+00	1.434687e+08	
57	-2.85000e+00	1.503409e+08	
58	-2.90000e+00	1.571137e+08	
59	-2.95000e+00	1.637938e+08	
60	-3.00000e+00	1.703871e+08	
61	-3.05000e+00	1.768989e+08	
62	-3.10000e+00	1.833341e+08	
63	-3.15000e+00	1.896971e+08	
64	-3.20000e+00	1.959918e+08	
65	-3.25000e+00	2.022216e+08	
66	-3.30000e+00	2.083896e+08	
Reset re-loads circuit ***************************

Circuit: ***************************

Note: No ".plot", ".print", or ".fourier" lines; no simulations run
