
Note: Compatibility modes selected: hs

Warning: m=xx on .subckt line will override multiplier m hierarchy!


Circuit: ***************************

Doing analysis at TEMP = 125.000000 and TNOM = 125.000000


No. of Data Rows : 67
                          ***************************
                          DC transfer characteristic  Mon Jan  9 13:57:32  2023
--------------------------------------------------------------------------------
Index   v-sweep         rds             
--------------------------------------------------------------------------------
0	0.000000e+00	5.444581e+05	
1	-5.00000e-02	8.852118e+05	
2	-1.00000e-01	2.002302e+06	
3	-1.50000e-01	7.541025e+06	
4	-2.00000e-01	3.088389e+07	
5	-2.50000e-01	9.242068e+07	
6	-3.00000e-01	2.062019e+08	
7	-3.50000e-01	3.723757e+08	
8	-4.00000e-01	5.783561e+08	
9	-4.50000e-01	8.057676e+08	
10	-5.00000e-01	1.037572e+09	
11	-5.50000e-01	1.261744e+09	
12	-6.00000e-01	1.471581e+09	
13	-6.50000e-01	1.664399e+09	
14	-7.00000e-01	1.839990e+09	
15	-7.50000e-01	1.999431e+09	
16	-8.00000e-01	2.144334e+09	
17	-8.50000e-01	2.276426e+09	
18	-9.00000e-01	2.397345e+09	
19	-9.50000e-01	2.508555e+09	
20	-1.00000e+00	2.611325e+09	
21	-1.05000e+00	2.706736e+09	
22	-1.10000e+00	2.795702e+09	
23	-1.15000e+00	2.878994e+09	
24	-1.20000e+00	2.957263e+09	
25	-1.25000e+00	3.031059e+09	
26	-1.30000e+00	3.100850e+09	
27	-1.35000e+00	3.167034e+09	
28	-1.40000e+00	3.229955e+09	
29	-1.45000e+00	3.289907e+09	
30	-1.50000e+00	3.347146e+09	
31	-1.55000e+00	3.401896e+09	
32	-1.60000e+00	3.454352e+09	
33	-1.65000e+00	3.504684e+09	
34	-1.70000e+00	3.553044e+09	
35	-1.75000e+00	3.599562e+09	
36	-1.80000e+00	3.644353e+09	
37	-1.85000e+00	3.687514e+09	
38	-1.90000e+00	3.729128e+09	
39	-1.95000e+00	3.769257e+09	
40	-2.00000e+00	3.807949e+09	
41	-2.05000e+00	3.845229e+09	
42	-2.10000e+00	3.881100e+09	
43	-2.15000e+00	3.915540e+09	
44	-2.20000e+00	3.948500e+09	
45	-2.25000e+00	3.979894e+09	
46	-2.30000e+00	4.009605e+09	
47	-2.35000e+00	4.037473e+09	
48	-2.40000e+00	4.063294e+09	
49	-2.45000e+00	4.086818e+09	
50	-2.50000e+00	4.107746e+09	
51	-2.55000e+00	4.125725e+09	
52	-2.60000e+00	4.140355e+09	
53	-2.65000e+00	4.151184e+09	
54	-2.70000e+00	4.157719e+09	

Index   v-sweep         rds             
--------------------------------------------------------------------------------
55	-2.75000e+00	4.159426e+09	
56	-2.80000e+00	4.155746e+09	
57	-2.85000e+00	4.146104e+09	
58	-2.90000e+00	4.129932e+09	
59	-2.95000e+00	4.106680e+09	
60	-3.00000e+00	4.075845e+09	
61	-3.05000e+00	4.036994e+09	
62	-3.10000e+00	3.989787e+09	
63	-3.15000e+00	3.934002e+09	
64	-3.20000e+00	3.869552e+09	
65	-3.25000e+00	3.796508e+09	
66	-3.30000e+00	3.715103e+09	
Reset re-loads circuit ***************************

Circuit: ***************************

Doing analysis at TEMP = 125.000000 and TNOM = 125.000000


No. of Data Rows : 67
                          ***************************
                          DC transfer characteristic  Mon Jan  9 13:57:32  2023
--------------------------------------------------------------------------------
Index   v-sweep         rds             
--------------------------------------------------------------------------------
0	0.000000e+00	1.232739e+05	
1	-5.00000e-02	1.386787e+05	
2	-1.00000e-01	1.584523e+05	
3	-1.50000e-01	1.847358e+05	
4	-2.00000e-01	2.213027e+05	
5	-2.50000e-01	2.753938e+05	
6	-3.00000e-01	3.624568e+05	
7	-3.50000e-01	5.198305e+05	
8	-4.00000e-01	8.489326e+05	
9	-4.50000e-01	1.632483e+06	
10	-5.00000e-01	3.532148e+06	
11	-5.50000e-01	7.610398e+06	
12	-6.00000e-01	1.492482e+07	
13	-6.50000e-01	2.601352e+07	
14	-7.00000e-01	4.068207e+07	
15	-7.50000e-01	5.815320e+07	
16	-8.00000e-01	7.740102e+07	
17	-8.50000e-01	9.745417e+07	
18	-9.00000e-01	1.175599e+08	
19	-9.50000e-01	1.372184e+08	
20	-1.00000e+00	1.561442e+08	
21	-1.05000e+00	1.742061e+08	
22	-1.10000e+00	1.913715e+08	
23	-1.15000e+00	2.076651e+08	
24	-1.20000e+00	2.231405e+08	
25	-1.25000e+00	2.378640e+08	
26	-1.30000e+00	2.519041e+08	
27	-1.35000e+00	2.653265e+08	
28	-1.40000e+00	2.781914e+08	
29	-1.45000e+00	2.905530e+08	
30	-1.50000e+00	3.024591e+08	
31	-1.55000e+00	3.139518e+08	
32	-1.60000e+00	3.250676e+08	
33	-1.65000e+00	3.358386e+08	
34	-1.70000e+00	3.462926e+08	
35	-1.75000e+00	3.564541e+08	
36	-1.80000e+00	3.663444e+08	
37	-1.85000e+00	3.759823e+08	
38	-1.90000e+00	3.853843e+08	
39	-1.95000e+00	3.945648e+08	
40	-2.00000e+00	4.035364e+08	
41	-2.05000e+00	4.123101e+08	
42	-2.10000e+00	4.208950e+08	
43	-2.15000e+00	4.292985e+08	
44	-2.20000e+00	4.375259e+08	
45	-2.25000e+00	4.455804e+08	
46	-2.30000e+00	4.534622e+08	
47	-2.35000e+00	4.611684e+08	
48	-2.40000e+00	4.686917e+08	
49	-2.45000e+00	4.760204e+08	
50	-2.50000e+00	4.831365e+08	
51	-2.55000e+00	4.900152e+08	
52	-2.60000e+00	4.966236e+08	
53	-2.65000e+00	5.029196e+08	
54	-2.70000e+00	5.088503e+08	

Index   v-sweep         rds             
--------------------------------------------------------------------------------
55	-2.75000e+00	5.143517e+08	
56	-2.80000e+00	5.193473e+08	
57	-2.85000e+00	5.237481e+08	
58	-2.90000e+00	5.274527e+08	
59	-2.95000e+00	5.303478e+08	
60	-3.00000e+00	5.323107e+08	
61	-3.05000e+00	5.332114e+08	
62	-3.10000e+00	5.329172e+08	
63	-3.15000e+00	5.312976e+08	
64	-3.20000e+00	5.282306e+08	
65	-3.25000e+00	5.236102e+08	
66	-3.30000e+00	5.173536e+08	
Reset re-loads circuit ***************************

Circuit: ***************************

Doing analysis at TEMP = 125.000000 and TNOM = 125.000000


No. of Data Rows : 67
                          ***************************
                          DC transfer characteristic  Mon Jan  9 13:57:32  2023
--------------------------------------------------------------------------------
Index   v-sweep         rds             
--------------------------------------------------------------------------------
0	0.000000e+00	7.178269e+04	
1	-5.00000e-02	7.657221e+04	
2	-1.00000e-01	8.204353e+04	
3	-1.50000e-01	8.835301e+04	
4	-2.00000e-01	9.570855e+04	
5	-2.50000e-01	1.043926e+05	
6	-3.00000e-01	1.147984e+05	
7	-3.50000e-01	1.274899e+05	
8	-4.00000e-01	1.433028e+05	
9	-4.50000e-01	1.635272e+05	
10	-5.00000e-01	1.902514e+05	
11	-5.50000e-01	2.270509e+05	
12	-6.00000e-01	2.804621e+05	
13	-6.50000e-01	3.633225e+05	
14	-7.00000e-01	5.026012e+05	
15	-7.50000e-01	7.570603e+05	
16	-8.00000e-01	1.249797e+06	
17	-8.50000e-01	2.201413e+06	
18	-9.00000e-01	3.912437e+06	
19	-9.50000e-01	6.664028e+06	
20	-1.00000e+00	1.059726e+07	
21	-1.05000e+00	1.565795e+07	
22	-1.10000e+00	2.163063e+07	
23	-1.15000e+00	2.822292e+07	
24	-1.20000e+00	3.514698e+07	
25	-1.25000e+00	4.216852e+07	
26	-1.30000e+00	4.912185e+07	
27	-1.35000e+00	5.590373e+07	
28	-1.40000e+00	6.245874e+07	
29	-1.45000e+00	6.876414e+07	
30	-1.50000e+00	7.481771e+07	
31	-1.55000e+00	8.062893e+07	
32	-1.60000e+00	8.621326e+07	
33	-1.65000e+00	9.158856e+07	
34	-1.70000e+00	9.677300e+07	
35	-1.75000e+00	1.017839e+08	
36	-1.80000e+00	1.066374e+08	
37	-1.85000e+00	1.113478e+08	
38	-1.90000e+00	1.159280e+08	
39	-1.95000e+00	1.203894e+08	
40	-2.00000e+00	1.247419e+08	
41	-2.05000e+00	1.289943e+08	
42	-2.10000e+00	1.331543e+08	
43	-2.15000e+00	1.372286e+08	
44	-2.20000e+00	1.412232e+08	
45	-2.25000e+00	1.451432e+08	
46	-2.30000e+00	1.489932e+08	
47	-2.35000e+00	1.527771e+08	
48	-2.40000e+00	1.564982e+08	
49	-2.45000e+00	1.601591e+08	
50	-2.50000e+00	1.637619e+08	
51	-2.55000e+00	1.673078e+08	
52	-2.60000e+00	1.707970e+08	
53	-2.65000e+00	1.742285e+08	
54	-2.70000e+00	1.776001e+08	

Index   v-sweep         rds             
--------------------------------------------------------------------------------
55	-2.75000e+00	1.809074e+08	
56	-2.80000e+00	1.841439e+08	
57	-2.85000e+00	1.873005e+08	
58	-2.90000e+00	1.903647e+08	
59	-2.95000e+00	1.933201e+08	
60	-3.00000e+00	1.961460e+08	
61	-3.05000e+00	1.988166e+08	
62	-3.10000e+00	2.013004e+08	
63	-3.15000e+00	2.035604e+08	
64	-3.20000e+00	2.055530e+08	
65	-3.25000e+00	2.072292e+08	
66	-3.30000e+00	2.085342e+08	
Reset re-loads circuit ***************************

Circuit: ***************************

Doing analysis at TEMP = 125.000000 and TNOM = 125.000000


No. of Data Rows : 67
                          ***************************
                          DC transfer characteristic  Mon Jan  9 13:57:32  2023
--------------------------------------------------------------------------------
Index   v-sweep         rds             
--------------------------------------------------------------------------------
0	0.000000e+00	5.221411e+04	
1	-5.00000e-02	5.454771e+04	
2	-1.00000e-01	5.709859e+04	
3	-1.50000e-01	5.989855e+04	
4	-2.00000e-01	6.298591e+04	
5	-2.50000e-01	6.640725e+04	
6	-3.00000e-01	7.021975e+04	
7	-3.50000e-01	7.449441e+04	
8	-4.00000e-01	7.932046e+04	
9	-4.50000e-01	8.481154e+04	
10	-5.00000e-01	9.111465e+04	
11	-5.50000e-01	9.842325e+04	
12	-6.00000e-01	1.069969e+05	
13	-6.50000e-01	1.171916e+05	
14	-7.00000e-01	1.295085e+05	
15	-7.50000e-01	1.446736e+05	
16	-8.00000e-01	1.637753e+05	
17	-8.50000e-01	1.885090e+05	
18	-9.00000e-01	2.216338e+05	
19	-9.50000e-01	2.678607e+05	
20	-1.00000e+00	3.356319e+05	
21	-1.05000e+00	4.407050e+05	
22	-1.10000e+00	6.129761e+05	
23	-1.15000e+00	9.073236e+05	
24	-1.20000e+00	1.414190e+06	
25	-1.25000e+00	2.256246e+06	
26	-1.30000e+00	3.558519e+06	
27	-1.35000e+00	5.402290e+06	
28	-1.40000e+00	7.792467e+06	
29	-1.45000e+00	1.065791e+07	
30	-1.50000e+00	1.387918e+07	
31	-1.55000e+00	1.732406e+07	
32	-1.60000e+00	2.087450e+07	
33	-1.65000e+00	2.443960e+07	
34	-1.70000e+00	2.795725e+07	
35	-1.75000e+00	3.138970e+07	
36	-1.80000e+00	3.471734e+07	
37	-1.85000e+00	3.793277e+07	
38	-1.90000e+00	4.103624e+07	
39	-1.95000e+00	4.403239e+07	
40	-2.00000e+00	4.692812e+07	
41	-2.05000e+00	4.973119e+07	
42	-2.10000e+00	5.244949e+07	
43	-2.15000e+00	5.509054e+07	
44	-2.20000e+00	5.766129e+07	
45	-2.25000e+00	6.016805e+07	
46	-2.30000e+00	6.261647e+07	
47	-2.35000e+00	6.501155e+07	
48	-2.40000e+00	6.735771e+07	
49	-2.45000e+00	6.965885e+07	
50	-2.50000e+00	7.191840e+07	
51	-2.55000e+00	7.413936e+07	
52	-2.60000e+00	7.632437e+07	
53	-2.65000e+00	7.847575e+07	
54	-2.70000e+00	8.059549e+07	

Index   v-sweep         rds             
--------------------------------------------------------------------------------
55	-2.75000e+00	8.268526e+07	
56	-2.80000e+00	8.474644e+07	
57	-2.85000e+00	8.678005e+07	
58	-2.90000e+00	8.878669e+07	
59	-2.95000e+00	9.076648e+07	
60	-3.00000e+00	9.271892e+07	
61	-3.05000e+00	9.464274e+07	
62	-3.10000e+00	9.653569e+07	
63	-3.15000e+00	9.839431e+07	
64	-3.20000e+00	1.002137e+08	
65	-3.25000e+00	1.019870e+08	
66	-3.30000e+00	1.037053e+08	
Reset re-loads circuit ***************************

Circuit: ***************************

Doing analysis at TEMP = 125.000000 and TNOM = 125.000000


No. of Data Rows : 67
                          ***************************
                          DC transfer characteristic  Mon Jan  9 13:57:32  2023
--------------------------------------------------------------------------------
Index   v-sweep         rds             
--------------------------------------------------------------------------------
0	0.000000e+00	4.193603e+04	
1	-5.00000e-02	4.332466e+04	
2	-1.00000e-01	4.480786e+04	
3	-1.50000e-01	4.639562e+04	
4	-2.00000e-01	4.809939e+04	
5	-2.50000e-01	4.993237e+04	
6	-3.00000e-01	5.190981e+04	
7	-3.50000e-01	5.404949e+04	
8	-4.00000e-01	5.637220e+04	
9	-4.50000e-01	5.890245e+04	
10	-5.00000e-01	6.166930e+04	
11	-5.50000e-01	6.470751e+04	
12	-6.00000e-01	6.805899e+04	
13	-6.50000e-01	7.177467e+04	
14	-7.00000e-01	7.591717e+04	
15	-7.50000e-01	8.056420e+04	
16	-8.00000e-01	8.581347e+04	
17	-8.50000e-01	9.178945e+04	
18	-9.00000e-01	9.865309e+04	
19	-9.50000e-01	1.066161e+05	
20	-1.00000e+00	1.159620e+05	
21	-1.05000e+00	1.270792e+05	
22	-1.10000e+00	1.405120e+05	
23	-1.15000e+00	1.570448e+05	
24	-1.20000e+00	1.778421e+05	
25	-1.25000e+00	2.046923e+05	
26	-1.30000e+00	2.404405e+05	
27	-1.35000e+00	2.897793e+05	
28	-1.40000e+00	3.606899e+05	
29	-1.45000e+00	4.669840e+05	
30	-1.50000e+00	6.323136e+05	
31	-1.55000e+00	8.949908e+05	
32	-1.60000e+00	1.310246e+06	
33	-1.65000e+00	1.944068e+06	
34	-1.70000e+00	2.856051e+06	
35	-1.75000e+00	4.078340e+06	
36	-1.80000e+00	5.603266e+06	
37	-1.85000e+00	7.386423e+06	
38	-1.90000e+00	9.361417e+06	
39	-1.95000e+00	1.145718e+07	
40	-2.00000e+00	1.361078e+07	
41	-2.05000e+00	1.577350e+07	
42	-2.10000e+00	1.791159e+07	
43	-2.15000e+00	2.000411e+07	
44	-2.20000e+00	2.203974e+07	
45	-2.25000e+00	2.401385e+07	
46	-2.30000e+00	2.592605e+07	
47	-2.35000e+00	2.777850e+07	
48	-2.40000e+00	2.957471e+07	
49	-2.45000e+00	3.131879e+07	
50	-2.50000e+00	3.301500e+07	
51	-2.55000e+00	3.466747e+07	
52	-2.60000e+00	3.628006e+07	
53	-2.65000e+00	3.785631e+07	
54	-2.70000e+00	3.939940e+07	

Index   v-sweep         rds             
--------------------------------------------------------------------------------
55	-2.75000e+00	4.091216e+07	
56	-2.80000e+00	4.239712e+07	
57	-2.85000e+00	4.385652e+07	
58	-2.90000e+00	4.529233e+07	
59	-2.95000e+00	4.670627e+07	
60	-3.00000e+00	4.809987e+07	
61	-3.05000e+00	4.947445e+07	
62	-3.10000e+00	5.083116e+07	
63	-3.15000e+00	5.217094e+07	
64	-3.20000e+00	5.349455e+07	
65	-3.25000e+00	5.480251e+07	
66	-3.30000e+00	5.609509e+07	
Reset re-loads circuit ***************************

Circuit: ***************************

Doing analysis at TEMP = 125.000000 and TNOM = 125.000000


No. of Data Rows : 67
                          ***************************
                          DC transfer characteristic  Mon Jan  9 13:57:32  2023
--------------------------------------------------------------------------------
Index   v-sweep         rds             
--------------------------------------------------------------------------------
0	0.000000e+00	3.561348e+04	
1	-5.00000e-02	3.653843e+04	
2	-1.00000e-01	3.751238e+04	
3	-1.50000e-01	3.853931e+04	
4	-2.00000e-01	3.962368e+04	
5	-2.50000e-01	4.077043e+04	
6	-3.00000e-01	4.198511e+04	
7	-3.50000e-01	4.327394e+04	
8	-4.00000e-01	4.464391e+04	
9	-4.50000e-01	4.610294e+04	
10	-5.00000e-01	4.765998e+04	
11	-5.50000e-01	4.932527e+04	
12	-6.00000e-01	5.111046e+04	
13	-6.50000e-01	5.302900e+04	
14	-7.00000e-01	5.509638e+04	
15	-7.50000e-01	5.733059e+04	
16	-8.00000e-01	5.975265e+04	
17	-8.50000e-01	6.238725e+04	
18	-9.00000e-01	6.526358e+04	
19	-9.50000e-01	6.841642e+04	
20	-1.00000e+00	7.188754e+04	
21	-1.05000e+00	7.572751e+04	
22	-1.10000e+00	7.999817e+04	
23	-1.15000e+00	8.477587e+04	
24	-1.20000e+00	9.015600e+04	
25	-1.25000e+00	9.625923e+04	
26	-1.30000e+00	1.032403e+05	
27	-1.35000e+00	1.113007e+05	
28	-1.40000e+00	1.207075e+05	
29	-1.45000e+00	1.318211e+05	
30	-1.50000e+00	1.451387e+05	
31	-1.55000e+00	1.613623e+05	
32	-1.60000e+00	1.815082e+05	
33	-1.65000e+00	2.070892e+05	
34	-1.70000e+00	2.404208e+05	
35	-1.75000e+00	2.851428e+05	
36	-1.80000e+00	3.470987e+05	
37	-1.85000e+00	4.357530e+05	
38	-1.90000e+00	5.662312e+05	
39	-1.95000e+00	7.615724e+05	
40	-2.00000e+00	1.053683e+06	
41	-2.05000e+00	1.480455e+06	
42	-2.10000e+00	2.077560e+06	
43	-2.15000e+00	2.867340e+06	
44	-2.20000e+00	3.850640e+06	
45	-2.25000e+00	5.006143e+06	
46	-2.30000e+00	6.296921e+06	
47	-2.35000e+00	7.680042e+06	
48	-2.40000e+00	9.114916e+06	
49	-2.45000e+00	1.056821e+07	
50	-2.50000e+00	1.201541e+07	
51	-2.55000e+00	1.344025e+07	
52	-2.60000e+00	1.483302e+07	
53	-2.65000e+00	1.618888e+07	
54	-2.70000e+00	1.750623e+07	

Index   v-sweep         rds             
--------------------------------------------------------------------------------
55	-2.75000e+00	1.878551e+07	
56	-2.80000e+00	2.002841e+07	
57	-2.85000e+00	2.123720e+07	
58	-2.90000e+00	2.241444e+07	
59	-2.95000e+00	2.356271e+07	
60	-3.00000e+00	2.468446e+07	
61	-3.05000e+00	2.578203e+07	
62	-3.10000e+00	2.685750e+07	
63	-3.15000e+00	2.791279e+07	
64	-3.20000e+00	2.894960e+07	
65	-3.25000e+00	2.996944e+07	
66	-3.30000e+00	3.097364e+07	
Reset re-loads circuit ***************************

Circuit: ***************************

Note: No ".plot", ".print", or ".fourier" lines; no simulations run
