
Note: Compatibility modes selected: hs

Warning: m=xx on .subckt line will override multiplier m hierarchy!


Circuit: ***************************

Doing analysis at TEMP = 25.000000 and TNOM = 25.000000


No. of Data Rows : 67
                          ***************************
                          DC transfer characteristic  Mon Jan  9 13:57:30  2023
--------------------------------------------------------------------------------
Index   v-sweep         rds             
--------------------------------------------------------------------------------
0	0.000000e+00	5.885427e+04	
1	-5.00000e-02	1.595135e+05	
2	-1.00000e-01	8.856503e+05	
3	-1.50000e-01	3.391667e+06	
4	-2.00000e-01	6.405448e+06	
5	-2.50000e-01	8.618047e+06	
6	-3.00000e-01	1.015326e+07	
7	-3.50000e-01	1.130414e+07	
8	-4.00000e-01	1.223743e+07	
9	-4.50000e-01	1.303670e+07	
10	-5.00000e-01	1.374523e+07	
11	-5.50000e-01	1.438711e+07	
12	-6.00000e-01	1.497675e+07	
13	-6.50000e-01	1.552348e+07	
14	-7.00000e-01	1.603368e+07	
15	-7.50000e-01	1.651204e+07	
16	-8.00000e-01	1.696210e+07	
17	-8.50000e-01	1.738671e+07	
18	-9.00000e-01	1.778818e+07	
19	-9.50000e-01	1.816847e+07	
20	-1.00000e+00	1.852925e+07	
21	-1.05000e+00	1.887197e+07	
22	-1.10000e+00	1.919793e+07	
23	-1.15000e+00	1.950826e+07	
24	-1.20000e+00	1.980401e+07	
25	-1.25000e+00	2.008609e+07	
26	-1.30000e+00	2.035536e+07	
27	-1.35000e+00	2.061257e+07	
28	-1.40000e+00	2.085845e+07	
29	-1.45000e+00	2.109364e+07	
30	-1.50000e+00	2.131873e+07	
31	-1.55000e+00	2.153427e+07	
32	-1.60000e+00	2.174077e+07	
33	-1.65000e+00	2.193869e+07	
34	-1.70000e+00	2.212844e+07	
35	-1.75000e+00	2.231040e+07	
36	-1.80000e+00	2.248490e+07	
37	-1.85000e+00	2.265221e+07	
38	-1.90000e+00	2.281254e+07	
39	-1.95000e+00	2.296604e+07	
40	-2.00000e+00	2.311278e+07	
41	-2.05000e+00	2.325273e+07	
42	-2.10000e+00	2.338575e+07	
43	-2.15000e+00	2.351159e+07	
44	-2.20000e+00	2.362985e+07	
45	-2.25000e+00	2.373998e+07	
46	-2.30000e+00	2.384123e+07	
47	-2.35000e+00	2.393269e+07	
48	-2.40000e+00	2.401322e+07	
49	-2.45000e+00	2.408146e+07	
50	-2.50000e+00	2.413584e+07	
51	-2.55000e+00	2.417453e+07	
52	-2.60000e+00	2.419552e+07	
53	-2.65000e+00	2.419655e+07	
54	-2.70000e+00	2.417520e+07	

Index   v-sweep         rds             
--------------------------------------------------------------------------------
55	-2.75000e+00	2.412890e+07	
56	-2.80000e+00	2.405498e+07	
57	-2.85000e+00	2.395073e+07	
58	-2.90000e+00	2.381350e+07	
59	-2.95000e+00	2.364076e+07	
60	-3.00000e+00	2.343023e+07	
61	-3.05000e+00	2.317993e+07	
62	-3.10000e+00	2.288835e+07	
63	-3.15000e+00	2.255450e+07	
64	-3.20000e+00	2.217803e+07	
65	-3.25000e+00	2.175928e+07	
66	-3.30000e+00	2.129933e+07	
Reset re-loads circuit ***************************

Circuit: ***************************

Doing analysis at TEMP = 25.000000 and TNOM = 25.000000


No. of Data Rows : 67
                          ***************************
                          DC transfer characteristic  Mon Jan  9 13:57:30  2023
--------------------------------------------------------------------------------
Index   v-sweep         rds             
--------------------------------------------------------------------------------
0	0.000000e+00	5.087400e+03	
1	-5.00000e-02	5.750827e+03	
2	-1.00000e-01	6.600522e+03	
3	-1.50000e-01	7.726580e+03	
4	-2.00000e-01	9.286502e+03	
5	-2.50000e-01	1.157838e+04	
6	-3.00000e-01	1.522164e+04	
7	-3.50000e-01	2.162636e+04	
8	-4.00000e-01	3.406932e+04	
9	-4.50000e-01	5.848004e+04	
10	-5.00000e-01	9.804288e+04	
11	-5.50000e-01	1.446637e+05	
12	-6.00000e-01	1.879441e+05	
13	-6.50000e-01	2.249084e+05	
14	-7.00000e-01	2.567519e+05	
15	-7.50000e-01	2.851297e+05	
16	-8.00000e-01	3.112144e+05	
17	-8.50000e-01	3.357312e+05	
18	-9.00000e-01	3.591194e+05	
19	-9.50000e-01	3.816501e+05	
20	-1.00000e+00	4.034952e+05	
21	-1.05000e+00	4.247680e+05	
22	-1.10000e+00	4.455457e+05	
23	-1.15000e+00	4.658830e+05	
24	-1.20000e+00	4.858196e+05	
25	-1.25000e+00	5.053856e+05	
26	-1.30000e+00	5.246045e+05	
27	-1.35000e+00	5.434950e+05	
28	-1.40000e+00	5.620724e+05	
29	-1.45000e+00	5.803498e+05	
30	-1.50000e+00	5.983382e+05	
31	-1.55000e+00	6.160474e+05	
32	-1.60000e+00	6.334862e+05	
33	-1.65000e+00	6.506623e+05	
34	-1.70000e+00	6.675829e+05	
35	-1.75000e+00	6.842547e+05	
36	-1.80000e+00	7.006837e+05	
37	-1.85000e+00	7.168756e+05	
38	-1.90000e+00	7.328355e+05	
39	-1.95000e+00	7.485681e+05	
40	-2.00000e+00	7.640775e+05	
41	-2.05000e+00	7.793666e+05	
42	-2.10000e+00	7.944375e+05	
43	-2.15000e+00	8.092904e+05	
44	-2.20000e+00	8.239232e+05	
45	-2.25000e+00	8.383308e+05	
46	-2.30000e+00	8.525041e+05	
47	-2.35000e+00	8.664283e+05	
48	-2.40000e+00	8.800820e+05	
49	-2.45000e+00	8.934350e+05	
50	-2.50000e+00	9.064469e+05	
51	-2.55000e+00	9.190640e+05	
52	-2.60000e+00	9.312182e+05	
53	-2.65000e+00	9.428236e+05	
54	-2.70000e+00	9.537749e+05	

Index   v-sweep         rds             
--------------------------------------------------------------------------------
55	-2.75000e+00	9.639452e+05	
56	-2.80000e+00	9.731846e+05	
57	-2.85000e+00	9.813191e+05	
58	-2.90000e+00	9.881514e+05	
59	-2.95000e+00	9.934620e+05	
60	-3.00000e+00	9.970134e+05	
61	-3.05000e+00	9.985547e+05	
62	-3.10000e+00	9.978305e+05	
63	-3.15000e+00	9.945898e+05	
64	-3.20000e+00	9.885995e+05	
65	-3.25000e+00	9.796573e+05	
66	-3.30000e+00	9.676067e+05	
Reset re-loads circuit ***************************

Circuit: ***************************

Doing analysis at TEMP = 25.000000 and TNOM = 25.000000


No. of Data Rows : 67
                          ***************************
                          DC transfer characteristic  Mon Jan  9 13:57:30  2023
--------------------------------------------------------------------------------
Index   v-sweep         rds             
--------------------------------------------------------------------------------
0	0.000000e+00	2.805636e+03	
1	-5.00000e-02	2.993440e+03	
2	-1.00000e-01	3.205717e+03	
3	-1.50000e-01	3.447566e+03	
4	-2.00000e-01	3.725603e+03	
5	-2.50000e-01	4.048568e+03	
6	-3.00000e-01	4.428233e+03	
7	-3.50000e-01	4.880832e+03	
8	-4.00000e-01	5.429350e+03	
9	-4.50000e-01	6.107327e+03	
10	-5.00000e-01	6.965435e+03	
11	-5.50000e-01	8.083229e+03	
12	-6.00000e-01	9.590775e+03	
13	-6.50000e-01	1.170840e+04	
14	-7.00000e-01	1.481372e+04	
15	-7.50000e-01	1.951612e+04	
16	-8.00000e-01	2.657889e+04	
17	-8.50000e-01	3.634469e+04	
18	-9.00000e-01	4.796618e+04	
19	-9.50000e-01	5.986645e+04	
20	-1.00000e+00	7.101107e+04	
21	-1.05000e+00	8.118190e+04	
22	-1.10000e+00	9.053754e+04	
23	-1.15000e+00	9.929321e+04	
24	-1.20000e+00	1.076195e+05	
25	-1.25000e+00	1.156341e+05	
26	-1.30000e+00	1.234150e+05	
27	-1.35000e+00	1.310136e+05	
28	-1.40000e+00	1.384645e+05	
29	-1.45000e+00	1.457912e+05	
30	-1.50000e+00	1.530102e+05	
31	-1.55000e+00	1.601334e+05	
32	-1.60000e+00	1.671694e+05	
33	-1.65000e+00	1.741247e+05	
34	-1.70000e+00	1.810045e+05	
35	-1.75000e+00	1.878126e+05	
36	-1.80000e+00	1.945522e+05	
37	-1.85000e+00	2.012259e+05	
38	-1.90000e+00	2.078358e+05	
39	-1.95000e+00	2.143839e+05	
40	-2.00000e+00	2.208716e+05	
41	-2.05000e+00	2.273005e+05	
42	-2.10000e+00	2.336718e+05	
43	-2.15000e+00	2.399866e+05	
44	-2.20000e+00	2.462458e+05	
45	-2.25000e+00	2.524504e+05	
46	-2.30000e+00	2.586011e+05	
47	-2.35000e+00	2.646984e+05	
48	-2.40000e+00	2.707427e+05	
49	-2.45000e+00	2.767338e+05	
50	-2.50000e+00	2.826712e+05	
51	-2.55000e+00	2.885536e+05	
52	-2.60000e+00	2.943784e+05	
53	-2.65000e+00	3.001417e+05	
54	-2.70000e+00	3.058379e+05	

Index   v-sweep         rds             
--------------------------------------------------------------------------------
55	-2.75000e+00	3.114583e+05	
56	-2.80000e+00	3.169912e+05	
57	-2.85000e+00	3.224210e+05	
58	-2.90000e+00	3.277265e+05	
59	-2.95000e+00	3.328809e+05	
60	-3.00000e+00	3.378498e+05	
61	-3.05000e+00	3.425908e+05	
62	-3.10000e+00	3.470522e+05	
63	-3.15000e+00	3.511719e+05	
64	-3.20000e+00	3.548774e+05	
65	-3.25000e+00	3.580852e+05	
66	-3.30000e+00	3.607019e+05	
Reset re-loads circuit ***************************

Circuit: ***************************

Doing analysis at TEMP = 25.000000 and TNOM = 25.000000


No. of Data Rows : 67
                          ***************************
                          DC transfer characteristic  Mon Jan  9 13:57:30  2023
--------------------------------------------------------------------------------
Index   v-sweep         rds             
--------------------------------------------------------------------------------
0	0.000000e+00	2.055809e+03	
1	-5.00000e-02	2.149648e+03	
2	-1.00000e-01	2.251419e+03	
3	-1.50000e-01	2.362168e+03	
4	-2.00000e-01	2.483135e+03	
5	-2.50000e-01	2.615797e+03	
6	-3.00000e-01	2.761933e+03	
7	-3.50000e-01	2.923697e+03	
8	-4.00000e-01	3.103729e+03	
9	-4.50000e-01	3.305295e+03	
10	-5.00000e-01	3.532484e+03	
11	-5.50000e-01	3.790482e+03	
12	-6.00000e-01	4.085962e+03	
13	-6.50000e-01	4.427647e+03	
14	-7.00000e-01	4.827142e+03	
15	-7.50000e-01	5.300191e+03	
16	-8.00000e-01	5.868611e+03	
17	-8.50000e-01	6.563318e+03	
18	-9.00000e-01	7.429108e+03	
19	-9.50000e-01	8.532090e+03	
20	-1.00000e+00	9.970483e+03	
21	-1.05000e+00	1.188699e+04	
22	-1.10000e+00	1.447094e+04	
23	-1.15000e+00	1.791595e+04	
24	-1.20000e+00	2.229192e+04	
25	-1.25000e+00	2.739797e+04	
26	-1.30000e+00	3.281491e+04	
27	-1.35000e+00	3.816399e+04	
28	-1.40000e+00	4.326479e+04	
29	-1.45000e+00	4.809397e+04	
30	-1.50000e+00	5.269295e+04	
31	-1.55000e+00	5.711340e+04	
32	-1.60000e+00	6.139845e+04	
33	-1.65000e+00	6.557990e+04	
34	-1.70000e+00	6.968016e+04	
35	-1.75000e+00	7.371487e+04	
36	-1.80000e+00	7.769501e+04	
37	-1.85000e+00	8.162835e+04	
38	-1.90000e+00	8.552052e+04	
39	-1.95000e+00	8.937563e+04	
40	-2.00000e+00	9.319676e+04	
41	-2.05000e+00	9.698626e+04	
42	-2.10000e+00	1.007459e+05	
43	-2.15000e+00	1.044773e+05	
44	-2.20000e+00	1.081813e+05	
45	-2.25000e+00	1.118592e+05	
46	-2.30000e+00	1.155115e+05	
47	-2.35000e+00	1.191390e+05	
48	-2.40000e+00	1.227422e+05	
49	-2.45000e+00	1.263217e+05	
50	-2.50000e+00	1.298778e+05	
51	-2.55000e+00	1.334110e+05	
52	-2.60000e+00	1.369215e+05	
53	-2.65000e+00	1.404096e+05	
54	-2.70000e+00	1.438755e+05	

Index   v-sweep         rds             
--------------------------------------------------------------------------------
55	-2.75000e+00	1.473193e+05	
56	-2.80000e+00	1.507407e+05	
57	-2.85000e+00	1.541394e+05	
58	-2.90000e+00	1.575146e+05	
59	-2.95000e+00	1.608651e+05	
60	-3.00000e+00	1.641886e+05	
61	-3.05000e+00	1.674821e+05	
62	-3.10000e+00	1.707410e+05	
63	-3.15000e+00	1.739591e+05	
64	-3.20000e+00	1.771277e+05	
65	-3.25000e+00	1.802355e+05	
66	-3.30000e+00	1.832675e+05	
Reset re-loads circuit ***************************

Circuit: ***************************

Doing analysis at TEMP = 25.000000 and TNOM = 25.000000


No. of Data Rows : 67
                          ***************************
                          DC transfer characteristic  Mon Jan  9 13:57:30  2023
--------------------------------------------------------------------------------
Index   v-sweep         rds             
--------------------------------------------------------------------------------
0	0.000000e+00	1.688016e+03	
1	-5.00000e-02	1.746807e+03	
2	-1.00000e-01	1.809261e+03	
3	-1.50000e-01	1.875731e+03	
4	-2.00000e-01	1.946616e+03	
5	-2.50000e-01	2.022369e+03	
6	-3.00000e-01	2.103508e+03	
7	-3.50000e-01	2.190627e+03	
8	-4.00000e-01	2.284411e+03	
9	-4.50000e-01	2.385652e+03	
10	-5.00000e-01	2.495274e+03	
11	-5.50000e-01	2.614359e+03	
12	-6.00000e-01	2.744184e+03	
13	-6.50000e-01	2.886264e+03	
14	-7.00000e-01	3.042414e+03	
15	-7.50000e-01	3.214822e+03	
16	-8.00000e-01	3.406151e+03	
17	-8.50000e-01	3.619676e+03	
18	-9.00000e-01	3.859462e+03	
19	-9.50000e-01	4.130620e+03	
20	-1.00000e+00	4.439650e+03	
21	-1.05000e+00	4.794932e+03	
22	-1.10000e+00	5.207425e+03	
23	-1.15000e+00	5.691668e+03	
24	-1.20000e+00	6.267222e+03	
25	-1.25000e+00	6.960698e+03	
26	-1.30000e+00	7.808490e+03	
27	-1.35000e+00	8.859915e+03	
28	-1.40000e+00	1.017927e+04	
29	-1.45000e+00	1.184225e+04	
30	-1.50000e+00	1.391789e+04	
31	-1.55000e+00	1.642917e+04	
32	-1.60000e+00	1.931071e+04	
33	-1.65000e+00	2.241422e+04	
34	-1.70000e+00	2.557748e+04	
35	-1.75000e+00	2.869134e+04	
36	-1.80000e+00	3.171151e+04	
37	-1.85000e+00	3.463460e+04	
38	-1.90000e+00	3.747355e+04	
39	-1.95000e+00	4.024430e+04	
40	-2.00000e+00	4.296075e+04	
41	-2.05000e+00	4.563366e+04	
42	-2.10000e+00	4.827105e+04	
43	-2.15000e+00	5.087871e+04	
44	-2.20000e+00	5.346091e+04	
45	-2.25000e+00	5.602074e+04	
46	-2.30000e+00	5.856052e+04	
47	-2.35000e+00	6.108199e+04	
48	-2.40000e+00	6.358645e+04	
49	-2.45000e+00	6.607494e+04	
50	-2.50000e+00	6.854825e+04	
51	-2.55000e+00	7.100703e+04	
52	-2.60000e+00	7.345180e+04	
53	-2.65000e+00	7.588298e+04	
54	-2.70000e+00	7.830093e+04	

Index   v-sweep         rds             
--------------------------------------------------------------------------------
55	-2.75000e+00	8.070595e+04	
56	-2.80000e+00	8.309829e+04	
57	-2.85000e+00	8.547818e+04	
58	-2.90000e+00	8.784581e+04	
59	-2.95000e+00	9.020132e+04	
60	-3.00000e+00	9.254485e+04	
61	-3.05000e+00	9.487647e+04	
62	-3.10000e+00	9.719618e+04	
63	-3.15000e+00	9.950387e+04	
64	-3.20000e+00	1.017993e+05	
65	-3.25000e+00	1.040820e+05	
66	-3.30000e+00	1.063511e+05	
Reset re-loads circuit ***************************

Circuit: ***************************

Doing analysis at TEMP = 25.000000 and TNOM = 25.000000


No. of Data Rows : 67
                          ***************************
                          DC transfer characteristic  Mon Jan  9 13:57:30  2023
--------------------------------------------------------------------------------
Index   v-sweep         rds             
--------------------------------------------------------------------------------
0	0.000000e+00	1.472541e+03	
1	-5.00000e-02	1.514087e+03	
2	-1.00000e-01	1.557675e+03	
3	-1.50000e-01	1.603459e+03	
4	-2.00000e-01	1.651610e+03	
5	-2.50000e-01	1.702315e+03	
6	-3.00000e-01	1.755781e+03	
7	-3.50000e-01	1.812241e+03	
8	-4.00000e-01	1.871952e+03	
9	-4.50000e-01	1.935201e+03	
10	-5.00000e-01	2.002313e+03	
11	-5.50000e-01	2.073652e+03	
12	-6.00000e-01	2.149627e+03	
13	-6.50000e-01	2.230706e+03	
14	-7.00000e-01	2.317419e+03	
15	-7.50000e-01	2.410371e+03	
16	-8.00000e-01	2.510261e+03	
17	-8.50000e-01	2.617891e+03	
18	-9.00000e-01	2.734194e+03	
19	-9.50000e-01	2.860258e+03	
20	-1.00000e+00	2.997361e+03	
21	-1.05000e+00	3.147011e+03	
22	-1.10000e+00	3.311003e+03	
23	-1.15000e+00	3.491486e+03	
24	-1.20000e+00	3.691060e+03	
25	-1.25000e+00	3.912888e+03	
26	-1.30000e+00	4.160863e+03	
27	-1.35000e+00	4.439817e+03	
28	-1.40000e+00	4.755807e+03	
29	-1.45000e+00	5.116508e+03	
30	-1.50000e+00	5.531734e+03	
31	-1.55000e+00	6.014140e+03	
32	-1.60000e+00	6.580111e+03	
33	-1.65000e+00	7.250810e+03	
34	-1.70000e+00	8.053109e+03	
35	-1.75000e+00	9.019657e+03	
36	-1.80000e+00	1.018637e+04	
37	-1.85000e+00	1.158461e+04	
38	-1.90000e+00	1.322659e+04	
39	-1.95000e+00	1.508938e+04	
40	-2.00000e+00	1.711253e+04	
41	-2.05000e+00	1.921853e+04	
42	-2.10000e+00	2.134171e+04	
43	-2.15000e+00	2.344295e+04	
44	-2.20000e+00	2.550664e+04	
45	-2.25000e+00	2.753091e+04	
46	-2.30000e+00	2.951969e+04	
47	-2.35000e+00	3.147834e+04	
48	-2.40000e+00	3.341185e+04	
49	-2.45000e+00	3.532432e+04	
50	-2.50000e+00	3.721893e+04	
51	-2.55000e+00	3.909808e+04	
52	-2.60000e+00	4.096359e+04	
53	-2.65000e+00	4.281684e+04	
54	-2.70000e+00	4.465887e+04	

Index   v-sweep         rds             
--------------------------------------------------------------------------------
55	-2.75000e+00	4.649049e+04	
56	-2.80000e+00	4.831231e+04	
57	-2.85000e+00	5.012483e+04	
58	-2.90000e+00	5.192844e+04	
59	-2.95000e+00	5.372345e+04	
60	-3.00000e+00	5.551013e+04	
61	-3.05000e+00	5.728867e+04	
62	-3.10000e+00	5.905927e+04	
63	-3.15000e+00	6.082208e+04	
64	-3.20000e+00	6.257721e+04	
65	-3.25000e+00	6.432479e+04	
66	-3.30000e+00	6.606491e+04	
Reset re-loads circuit ***************************

Circuit: ***************************

Note: No ".plot", ".print", or ".fourier" lines; no simulations run
