
Note: Compatibility modes selected: hs

Warning: m=xx on .subckt line will override multiplier m hierarchy!


Circuit: ***************************

Doing analysis at TEMP = 25.000000 and TNOM = 25.000000


No. of Data Rows : 67
                          ***************************
                          DC transfer characteristic  Mon Jan  9 13:57:30  2023
--------------------------------------------------------------------------------
Index   v-sweep         rds             
--------------------------------------------------------------------------------
0	0.000000e+00	5.314767e+05	
1	-5.00000e-02	1.780193e+06	
2	-1.00000e-01	1.318450e+07	
3	-1.50000e-01	6.683313e+07	
4	-2.00000e-01	1.974643e+08	
5	-2.50000e-01	4.152144e+08	
6	-3.00000e-01	7.011465e+08	
7	-3.50000e-01	1.021046e+09	
8	-4.00000e-01	1.342879e+09	
9	-4.50000e-01	1.645710e+09	
10	-5.00000e-01	1.919763e+09	
11	-5.50000e-01	2.162808e+09	
12	-6.00000e-01	2.376586e+09	
13	-6.50000e-01	2.564438e+09	
14	-7.00000e-01	2.730036e+09	
15	-7.50000e-01	2.876805e+09	
16	-8.00000e-01	3.007717e+09	
17	-8.50000e-01	3.125262e+09	
18	-9.00000e-01	3.231493e+09	
19	-9.50000e-01	3.328091e+09	
20	-1.00000e+00	3.416429e+09	
21	-1.05000e+00	3.497638e+09	
22	-1.10000e+00	3.572646e+09	
23	-1.15000e+00	3.642224e+09	
24	-1.20000e+00	3.707016e+09	
25	-1.25000e+00	3.767564e+09	
26	-1.30000e+00	3.824324e+09	
27	-1.35000e+00	3.877687e+09	
28	-1.40000e+00	3.927987e+09	
29	-1.45000e+00	3.975512e+09	
30	-1.50000e+00	4.020514e+09	
31	-1.55000e+00	4.063209e+09	
32	-1.60000e+00	4.103789e+09	
33	-1.65000e+00	4.142420e+09	
34	-1.70000e+00	4.179249e+09	
35	-1.75000e+00	4.214404e+09	
36	-1.80000e+00	4.247994e+09	
37	-1.85000e+00	4.280114e+09	
38	-1.90000e+00	4.310840e+09	
39	-1.95000e+00	4.340233e+09	
40	-2.00000e+00	4.368337e+09	
41	-2.05000e+00	4.395175e+09	
42	-2.10000e+00	4.420753e+09	
43	-2.15000e+00	4.445051e+09	
44	-2.20000e+00	4.468030e+09	
45	-2.25000e+00	4.489620e+09	
46	-2.30000e+00	4.509725e+09	
47	-2.35000e+00	4.528219e+09	
48	-2.40000e+00	4.544941e+09	
49	-2.45000e+00	4.559700e+09	
50	-2.50000e+00	4.572266e+09	
51	-2.55000e+00	4.582376e+09	
52	-2.60000e+00	4.589733e+09	
53	-2.65000e+00	4.594007e+09	
54	-2.70000e+00	4.594837e+09	

Index   v-sweep         rds             
--------------------------------------------------------------------------------
55	-2.75000e+00	4.591838e+09	
56	-2.80000e+00	4.584607e+09	
57	-2.85000e+00	4.572729e+09	
58	-2.90000e+00	4.555785e+09	
59	-2.95000e+00	4.533370e+09	
60	-3.00000e+00	4.505097e+09	
61	-3.05000e+00	4.470615e+09	
62	-3.10000e+00	4.429623e+09	
63	-3.15000e+00	4.381882e+09	
64	-3.20000e+00	4.327230e+09	
65	-3.25000e+00	4.265592e+09	
66	-3.30000e+00	4.196992e+09	
Reset re-loads circuit ***************************

Circuit: ***************************

Doing analysis at TEMP = 25.000000 and TNOM = 25.000000


No. of Data Rows : 67
                          ***************************
                          DC transfer characteristic  Mon Jan  9 13:57:30  2023
--------------------------------------------------------------------------------
Index   v-sweep         rds             
--------------------------------------------------------------------------------
0	0.000000e+00	5.283139e+04	
1	-5.00000e-02	6.108588e+04	
2	-1.00000e-01	7.236457e+04	
3	-1.50000e-01	8.865984e+04	
4	-2.00000e-01	1.141009e+05	
5	-2.50000e-01	1.584642e+05	
6	-3.00000e-01	2.487292e+05	
7	-3.50000e-01	4.681893e+05	
8	-4.00000e-01	1.055677e+06	
9	-4.50000e-01	2.493972e+06	
10	-5.00000e-01	5.365036e+06	
11	-5.50000e-01	1.004113e+07	
12	-6.00000e-01	1.651218e+07	
13	-6.50000e-01	2.443697e+07	
14	-7.00000e-01	3.331886e+07	
15	-7.50000e-01	4.267371e+07	
16	-8.00000e-01	5.212214e+07	
17	-8.50000e-01	6.141011e+07	
18	-9.00000e-01	7.039015e+07	
19	-9.50000e-01	7.899108e+07	
20	-1.00000e+00	8.719038e+07	
21	-1.05000e+00	9.499387e+07	
22	-1.10000e+00	1.024222e+08	
23	-1.15000e+00	1.095025e+08	
24	-1.20000e+00	1.162637e+08	
25	-1.25000e+00	1.227342e+08	
26	-1.30000e+00	1.289401e+08	
27	-1.35000e+00	1.349051e+08	
28	-1.40000e+00	1.406506e+08	
29	-1.45000e+00	1.461950e+08	
30	-1.50000e+00	1.515550e+08	
31	-1.55000e+00	1.567451e+08	
32	-1.60000e+00	1.617779e+08	
33	-1.65000e+00	1.666647e+08	
34	-1.70000e+00	1.714154e+08	
35	-1.75000e+00	1.760388e+08	
36	-1.80000e+00	1.805427e+08	
37	-1.85000e+00	1.849340e+08	
38	-1.90000e+00	1.892188e+08	
39	-1.95000e+00	1.934026e+08	
40	-2.00000e+00	1.974899e+08	
41	-2.05000e+00	2.014846e+08	
42	-2.10000e+00	2.053899e+08	
43	-2.15000e+00	2.092079e+08	
44	-2.20000e+00	2.129395e+08	
45	-2.25000e+00	2.165845e+08	
46	-2.30000e+00	2.201410e+08	
47	-2.35000e+00	2.236050e+08	
48	-2.40000e+00	2.269702e+08	
49	-2.45000e+00	2.302277e+08	
50	-2.50000e+00	2.333651e+08	
51	-2.55000e+00	2.363661e+08	
52	-2.60000e+00	2.392104e+08	
53	-2.65000e+00	2.418725e+08	
54	-2.70000e+00	2.443222e+08	

Index   v-sweep         rds             
--------------------------------------------------------------------------------
55	-2.75000e+00	2.465235e+08	
56	-2.80000e+00	2.484349e+08	
57	-2.85000e+00	2.500099e+08	
58	-2.90000e+00	2.511968e+08	
59	-2.95000e+00	2.519401e+08	
60	-3.00000e+00	2.521821e+08	
61	-3.05000e+00	2.518641e+08	
62	-3.10000e+00	2.509294e+08	
63	-3.15000e+00	2.493258e+08	
64	-3.20000e+00	2.470089e+08	
65	-3.25000e+00	2.439451e+08	
66	-3.30000e+00	2.401150e+08	
Reset re-loads circuit ***************************

Circuit: ***************************

Doing analysis at TEMP = 25.000000 and TNOM = 25.000000


No. of Data Rows : 67
                          ***************************
                          DC transfer characteristic  Mon Jan  9 13:57:30  2023
--------------------------------------------------------------------------------
Index   v-sweep         rds             
--------------------------------------------------------------------------------
0	0.000000e+00	2.842794e+04	
1	-5.00000e-02	3.056880e+04	
2	-1.00000e-01	3.305649e+04	
3	-1.50000e-01	3.598244e+04	
4	-2.00000e-01	3.947309e+04	
5	-2.50000e-01	4.370824e+04	
6	-3.00000e-01	4.895218e+04	
7	-3.50000e-01	5.560870e+04	
8	-4.00000e-01	6.432419e+04	
9	-4.50000e-01	7.619289e+04	
10	-5.00000e-01	9.319433e+04	
11	-5.50000e-01	1.191944e+05	
12	-6.00000e-01	1.623702e+05	
13	-6.50000e-01	2.411120e+05	
14	-7.00000e-01	3.966533e+05	
15	-7.50000e-01	7.106168e+05	
16	-8.00000e-01	1.306790e+06	
17	-8.50000e-01	2.312981e+06	
18	-9.00000e-01	3.803067e+06	
19	-9.50000e-01	5.766019e+06	
20	-1.00000e+00	8.118407e+06	
21	-1.05000e+00	1.074171e+07	
22	-1.10000e+00	1.351830e+07	
23	-1.15000e+00	1.635236e+07	
24	-1.20000e+00	1.917599e+07	
25	-1.25000e+00	2.194638e+07	
26	-1.30000e+00	2.463973e+07	
27	-1.35000e+00	2.724522e+07	
28	-1.40000e+00	2.976017e+07	
29	-1.45000e+00	3.218662e+07	
30	-1.50000e+00	3.452912e+07	
31	-1.55000e+00	3.679336e+07	
32	-1.60000e+00	3.898531e+07	
33	-1.65000e+00	4.111082e+07	
34	-1.70000e+00	4.317536e+07	
35	-1.75000e+00	4.518393e+07	
36	-1.80000e+00	4.714102e+07	
37	-1.85000e+00	4.905063e+07	
38	-1.90000e+00	5.091632e+07	
39	-1.95000e+00	5.274125e+07	
40	-2.00000e+00	5.452819e+07	
41	-2.05000e+00	5.627963e+07	
42	-2.10000e+00	5.799773e+07	
43	-2.15000e+00	5.968444e+07	
44	-2.20000e+00	6.134146e+07	
45	-2.25000e+00	6.297027e+07	
46	-2.30000e+00	6.457215e+07	
47	-2.35000e+00	6.614817e+07	
48	-2.40000e+00	6.769914e+07	
49	-2.45000e+00	6.922559e+07	
50	-2.50000e+00	7.072771e+07	
51	-2.55000e+00	7.220526e+07	
52	-2.60000e+00	7.365746e+07	
53	-2.65000e+00	7.508286e+07	
54	-2.70000e+00	7.647918e+07	

Index   v-sweep         rds             
--------------------------------------------------------------------------------
55	-2.75000e+00	7.784310e+07	
56	-2.80000e+00	7.917008e+07	
57	-2.85000e+00	8.045412e+07	
58	-2.90000e+00	8.168750e+07	
59	-2.95000e+00	8.286055e+07	
60	-3.00000e+00	8.396145e+07	
61	-3.05000e+00	8.497601e+07	
62	-3.10000e+00	8.588761e+07	
63	-3.15000e+00	8.667715e+07	
64	-3.20000e+00	8.732324e+07	
65	-3.25000e+00	8.780248e+07	
66	-3.30000e+00	8.809000e+07	
Reset re-loads circuit ***************************

Circuit: ***************************

Doing analysis at TEMP = 25.000000 and TNOM = 25.000000


No. of Data Rows : 67
                          ***************************
                          DC transfer characteristic  Mon Jan  9 13:57:30  2023
--------------------------------------------------------------------------------
Index   v-sweep         rds             
--------------------------------------------------------------------------------
0	0.000000e+00	2.025516e+04	
1	-5.00000e-02	2.124086e+04	
2	-1.00000e-01	2.232682e+04	
3	-1.50000e-01	2.352913e+04	
4	-2.00000e-01	2.486752e+04	
5	-2.50000e-01	2.636644e+04	
6	-3.00000e-01	2.805654e+04	
7	-3.50000e-01	2.997679e+04	
8	-4.00000e-01	3.217745e+04	
9	-4.50000e-01	3.472447e+04	
10	-5.00000e-01	3.770607e+04	
11	-5.50000e-01	4.124287e+04	
12	-6.00000e-01	4.550400e+04	
13	-6.50000e-01	5.073356e+04	
14	-7.00000e-01	5.729598e+04	
15	-7.50000e-01	6.575683e+04	
16	-8.00000e-01	7.703394e+04	
17	-8.50000e-01	9.269301e+04	
18	-9.00000e-01	1.155493e+05	
19	-9.50000e-01	1.509144e+05	
20	-1.00000e+00	2.090924e+05	
21	-1.05000e+00	3.096928e+05	
22	-1.10000e+00	4.865800e+05	
23	-1.15000e+00	7.879257e+05	
24	-1.20000e+00	1.264755e+06	
25	-1.25000e+00	1.951296e+06	
26	-1.30000e+00	2.850770e+06	
27	-1.35000e+00	3.935793e+06	
28	-1.40000e+00	5.160334e+06	
29	-1.45000e+00	6.474168e+06	
30	-1.50000e+00	7.833138e+06	
31	-1.55000e+00	9.203609e+06	
32	-1.60000e+00	1.056267e+07	
33	-1.65000e+00	1.189624e+07	
34	-1.70000e+00	1.319674e+07	
35	-1.75000e+00	1.446089e+07	
36	-1.80000e+00	1.568814e+07	
37	-1.85000e+00	1.687955e+07	
38	-1.90000e+00	1.803698e+07	
39	-1.95000e+00	1.916271e+07	
40	-2.00000e+00	2.025909e+07	
41	-2.05000e+00	2.132842e+07	
42	-2.10000e+00	2.237286e+07	
43	-2.15000e+00	2.339439e+07	
44	-2.20000e+00	2.439479e+07	
45	-2.25000e+00	2.537567e+07	
46	-2.30000e+00	2.633846e+07	
47	-2.35000e+00	2.728442e+07	
48	-2.40000e+00	2.821467e+07	
49	-2.45000e+00	2.913022e+07	
50	-2.50000e+00	3.003195e+07	
51	-2.55000e+00	3.092062e+07	
52	-2.60000e+00	3.179693e+07	
53	-2.65000e+00	3.266143e+07	
54	-2.70000e+00	3.351461e+07	

Index   v-sweep         rds             
--------------------------------------------------------------------------------
55	-2.75000e+00	3.435681e+07	
56	-2.80000e+00	3.518825e+07	
57	-2.85000e+00	3.600897e+07	
58	-2.90000e+00	3.681879e+07	
59	-2.95000e+00	3.761725e+07	
60	-3.00000e+00	3.840353e+07	
61	-3.05000e+00	3.917639e+07	
62	-3.10000e+00	3.993401e+07	
63	-3.15000e+00	4.067393e+07	
64	-3.20000e+00	4.139285e+07	
65	-3.25000e+00	4.208654e+07	
66	-3.30000e+00	4.274968e+07	
Reset re-loads circuit ***************************

Circuit: ***************************

Doing analysis at TEMP = 25.000000 and TNOM = 25.000000


No. of Data Rows : 67
                          ***************************
                          DC transfer characteristic  Mon Jan  9 13:57:30  2023
--------------------------------------------------------------------------------
Index   v-sweep         rds             
--------------------------------------------------------------------------------
0	0.000000e+00	1.622915e+04	
1	-5.00000e-02	1.680376e+04	
2	-1.00000e-01	1.742027e+04	
3	-1.50000e-01	1.808342e+04	
4	-2.00000e-01	1.879872e+04	
5	-2.50000e-01	1.957255e+04	
6	-3.00000e-01	2.041241e+04	
7	-3.50000e-01	2.132711e+04	
8	-4.00000e-01	2.232711e+04	
9	-4.50000e-01	2.342490e+04	
10	-5.00000e-01	2.463554e+04	
11	-5.50000e-01	2.597734e+04	
12	-6.00000e-01	2.747277e+04	
13	-6.50000e-01	2.914972e+04	
14	-7.00000e-01	3.104324e+04	
15	-7.50000e-01	3.319795e+04	
16	-8.00000e-01	3.567153e+04	
17	-8.50000e-01	3.853978e+04	
18	-9.00000e-01	4.190424e+04	
19	-9.50000e-01	4.590389e+04	
20	-1.00000e+00	5.073357e+04	
21	-1.05000e+00	5.667406e+04	
22	-1.10000e+00	6.414273e+04	
23	-1.15000e+00	7.378168e+04	
24	-1.20000e+00	8.661629e+04	
25	-1.25000e+00	1.043475e+05	
26	-1.30000e+00	1.298948e+05	
27	-1.35000e+00	1.683777e+05	
28	-1.40000e+00	2.287122e+05	
29	-1.45000e+00	3.256078e+05	
30	-1.50000e+00	4.805794e+05	
31	-1.55000e+00	7.194167e+05	
32	-1.60000e+00	1.065001e+06	
33	-1.65000e+00	1.528774e+06	
34	-1.70000e+00	2.106387e+06	
35	-1.75000e+00	2.779853e+06	
36	-1.80000e+00	3.523896e+06	
37	-1.85000e+00	4.312542e+06	
38	-1.90000e+00	5.123482e+06	
39	-1.95000e+00	5.939815e+06	
40	-2.00000e+00	6.749968e+06	
41	-2.05000e+00	7.546744e+06	
42	-2.10000e+00	8.326170e+06	
43	-2.15000e+00	9.086467e+06	
44	-2.20000e+00	9.827256e+06	
45	-2.25000e+00	1.054900e+07	
46	-2.30000e+00	1.125262e+07	
47	-2.35000e+00	1.193926e+07	
48	-2.40000e+00	1.261014e+07	
49	-2.45000e+00	1.326646e+07	
50	-2.50000e+00	1.390935e+07	
51	-2.55000e+00	1.453987e+07	
52	-2.60000e+00	1.515898e+07	
53	-2.65000e+00	1.576753e+07	
54	-2.70000e+00	1.636631e+07	

Index   v-sweep         rds             
--------------------------------------------------------------------------------
55	-2.75000e+00	1.695599e+07	
56	-2.80000e+00	1.753719e+07	
57	-2.85000e+00	1.811046e+07	
58	-2.90000e+00	1.867627e+07	
59	-2.95000e+00	1.923504e+07	
60	-3.00000e+00	1.978714e+07	
61	-3.05000e+00	2.033287e+07	
62	-3.10000e+00	2.087246e+07	
63	-3.15000e+00	2.140608e+07	
64	-3.20000e+00	2.193379e+07	
65	-3.25000e+00	2.245555e+07	
66	-3.30000e+00	2.297114e+07	
Reset re-loads circuit ***************************

Circuit: ***************************

Doing analysis at TEMP = 25.000000 and TNOM = 25.000000


No. of Data Rows : 67
                          ***************************
                          DC transfer characteristic  Mon Jan  9 13:57:30  2023
--------------------------------------------------------------------------------
Index   v-sweep         rds             
--------------------------------------------------------------------------------
0	0.000000e+00	1.387204e+04	
1	-5.00000e-02	1.425310e+04	
2	-1.00000e-01	1.465550e+04	
3	-1.50000e-01	1.508111e+04	
4	-2.00000e-01	1.553198e+04	
5	-2.50000e-01	1.601042e+04	
6	-3.00000e-01	1.651906e+04	
7	-3.50000e-01	1.706083e+04	
8	-4.00000e-01	1.763908e+04	
9	-4.50000e-01	1.825762e+04	
10	-5.00000e-01	1.892082e+04	
11	-5.50000e-01	1.963368e+04	
12	-6.00000e-01	2.040200e+04	
13	-6.50000e-01	2.123249e+04	
14	-7.00000e-01	2.213302e+04	
15	-7.50000e-01	2.311281e+04	
16	-8.00000e-01	2.418279e+04	
17	-8.50000e-01	2.535600e+04	
18	-9.00000e-01	2.664807e+04	
19	-9.50000e-01	2.807797e+04	
20	-1.00000e+00	2.966892e+04	
21	-1.05000e+00	3.144959e+04	
22	-1.10000e+00	3.345589e+04	
23	-1.15000e+00	3.573323e+04	
24	-1.20000e+00	3.834001e+04	
25	-1.25000e+00	4.135236e+04	
26	-1.30000e+00	4.487140e+04	
27	-1.35000e+00	4.903400e+04	
28	-1.40000e+00	5.402950e+04	
29	-1.45000e+00	6.012622e+04	
30	-1.50000e+00	6.771452e+04	
31	-1.55000e+00	7.737872e+04	
32	-1.60000e+00	9.001939e+04	
33	-1.65000e+00	1.070638e+05	
34	-1.70000e+00	1.308247e+05	
35	-1.75000e+00	1.650830e+05	
36	-1.80000e+00	2.159266e+05	
37	-1.85000e+00	2.926450e+05	
38	-1.90000e+00	4.079889e+05	
39	-1.95000e+00	5.767025e+05	
40	-2.00000e+00	8.118873e+05	
41	-2.05000e+00	1.120592e+06	
42	-2.10000e+00	1.501196e+06	
43	-2.15000e+00	1.944054e+06	
44	-2.20000e+00	2.434632e+06	
45	-2.25000e+00	2.957219e+06	
46	-2.30000e+00	3.497686e+06	
47	-2.35000e+00	4.044851e+06	
48	-2.40000e+00	4.590696e+06	
49	-2.45000e+00	5.129970e+06	
50	-2.50000e+00	5.659551e+06	
51	-2.55000e+00	6.177841e+06	
52	-2.60000e+00	6.684249e+06	
53	-2.65000e+00	7.178825e+06	
54	-2.70000e+00	7.661990e+06	

Index   v-sweep         rds             
--------------------------------------------------------------------------------
55	-2.75000e+00	8.134366e+06	
56	-2.80000e+00	8.596665e+06	
57	-2.85000e+00	9.049615e+06	
58	-2.90000e+00	9.493928e+06	
59	-2.95000e+00	9.930271e+06	
60	-3.00000e+00	1.035926e+07	
61	-3.05000e+00	1.078145e+07	
62	-3.10000e+00	1.119735e+07	
63	-3.15000e+00	1.160742e+07	
64	-3.20000e+00	1.201205e+07	
65	-3.25000e+00	1.241161e+07	
66	-3.30000e+00	1.280641e+07	
Reset re-loads circuit ***************************

Circuit: ***************************

Note: No ".plot", ".print", or ".fourier" lines; no simulations run
