
Note: Compatibility modes selected: hs

Warning: m=xx on .subckt line will override multiplier m hierarchy!


Circuit: ***************************

Doing analysis at TEMP = 25.000000 and TNOM = 25.000000


No. of Data Rows : 67
                          ***************************
                          DC transfer characteristic  Mon Jan  9 13:57:30  2023
--------------------------------------------------------------------------------
Index   v-sweep         rds             
--------------------------------------------------------------------------------
0	0.000000e+00	2.796147e+06	
1	-5.00000e-02	9.167574e+06	
2	-1.00000e-01	6.644616e+07	
3	-1.50000e-01	3.319725e+08	
4	-2.00000e-01	9.454295e+08	
5	-2.50000e-01	1.878676e+09	
6	-3.00000e-01	2.975112e+09	
7	-3.50000e-01	4.076482e+09	
8	-4.00000e-01	5.091071e+09	
9	-4.50000e-01	5.988056e+09	
10	-5.00000e-01	6.769795e+09	
11	-5.50000e-01	7.451145e+09	
12	-6.00000e-01	8.049145e+09	
13	-6.50000e-01	8.579087e+09	
14	-7.00000e-01	9.053517e+09	
15	-7.50000e-01	9.482368e+09	
16	-8.00000e-01	9.873400e+09	
17	-8.50000e-01	1.023268e+10	
18	-9.00000e-01	1.056497e+10	
19	-9.50000e-01	1.087406e+10	
20	-1.00000e+00	1.116297e+10	
21	-1.05000e+00	1.143417e+10	
22	-1.10000e+00	1.168966e+10	
23	-1.15000e+00	1.193114e+10	
24	-1.20000e+00	1.215999e+10	
25	-1.25000e+00	1.237742e+10	
26	-1.30000e+00	1.258443e+10	
27	-1.35000e+00	1.278192e+10	
28	-1.40000e+00	1.297064e+10	
29	-1.45000e+00	1.315126e+10	
30	-1.50000e+00	1.332438e+10	
31	-1.55000e+00	1.349052e+10	
32	-1.60000e+00	1.365014e+10	
33	-1.65000e+00	1.380365e+10	
34	-1.70000e+00	1.395142e+10	
35	-1.75000e+00	1.409376e+10	
36	-1.80000e+00	1.423094e+10	
37	-1.85000e+00	1.436320e+10	
38	-1.90000e+00	1.449070e+10	
39	-1.95000e+00	1.461357e+10	
40	-2.00000e+00	1.473186e+10	
41	-2.05000e+00	1.484557e+10	
42	-2.10000e+00	1.495460e+10	
43	-2.15000e+00	1.505879e+10	
44	-2.20000e+00	1.515785e+10	
45	-2.25000e+00	1.525139e+10	
46	-2.30000e+00	1.533889e+10	
47	-2.35000e+00	1.541971e+10	
48	-2.40000e+00	1.549306e+10	
49	-2.45000e+00	1.555799e+10	
50	-2.50000e+00	1.561339e+10	
51	-2.55000e+00	1.565801e+10	
52	-2.60000e+00	1.569044e+10	
53	-2.65000e+00	1.570913e+10	
54	-2.70000e+00	1.571242e+10	

Index   v-sweep         rds             
--------------------------------------------------------------------------------
55	-2.75000e+00	1.569854e+10	
56	-2.80000e+00	1.566567e+10	
57	-2.85000e+00	1.561200e+10	
58	-2.90000e+00	1.553572e+10	
59	-2.95000e+00	1.543515e+10	
60	-3.00000e+00	1.530879e+10	
61	-3.05000e+00	1.515535e+10	
62	-3.10000e+00	1.497389e+10	
63	-3.15000e+00	1.476382e+10	
64	-3.20000e+00	1.452498e+10	
65	-3.25000e+00	1.425771e+10	
66	-3.30000e+00	1.396284e+10	
Reset re-loads circuit ***************************

Circuit: ***************************

Doing analysis at TEMP = 25.000000 and TNOM = 25.000000


No. of Data Rows : 67
                          ***************************
                          DC transfer characteristic  Mon Jan  9 13:57:30  2023
--------------------------------------------------------------------------------
Index   v-sweep         rds             
--------------------------------------------------------------------------------
0	0.000000e+00	2.774602e+05	
1	-5.00000e-02	3.204219e+05	
2	-1.00000e-01	3.789282e+05	
3	-1.50000e-01	4.630701e+05	
4	-2.00000e-01	5.935742e+05	
5	-2.50000e-01	8.189246e+05	
6	-3.00000e-01	1.270893e+06	
7	-3.50000e-01	2.349961e+06	
8	-4.00000e-01	5.187290e+06	
9	-4.50000e-01	1.197648e+07	
10	-5.00000e-01	2.494637e+07	
11	-5.50000e-01	4.460525e+07	
12	-6.00000e-01	6.940728e+07	
13	-6.50000e-01	9.691931e+07	
14	-7.00000e-01	1.250330e+08	
15	-7.50000e-01	1.524299e+08	
16	-8.00000e-01	1.784877e+08	
17	-8.50000e-01	2.030245e+08	
18	-9.00000e-01	2.260845e+08	
19	-9.50000e-01	2.478060e+08	
20	-1.00000e+00	2.683525e+08	
21	-1.05000e+00	2.878809e+08	
22	-1.10000e+00	3.065299e+08	
23	-1.15000e+00	3.244173e+08	
24	-1.20000e+00	3.416410e+08	
25	-1.25000e+00	3.582819e+08	
26	-1.30000e+00	3.744066e+08	
27	-1.35000e+00	3.900703e+08	
28	-1.40000e+00	4.053185e+08	
29	-1.45000e+00	4.201892e+08	
30	-1.50000e+00	4.347145e+08	
31	-1.55000e+00	4.489211e+08	
32	-1.60000e+00	4.628322e+08	
33	-1.65000e+00	4.764675e+08	
34	-1.70000e+00	4.898438e+08	
35	-1.75000e+00	5.029761e+08	
36	-1.80000e+00	5.158771e+08	
37	-1.85000e+00	5.285580e+08	
38	-1.90000e+00	5.410286e+08	
39	-1.95000e+00	5.532970e+08	
40	-2.00000e+00	5.653702e+08	
41	-2.05000e+00	5.772530e+08	
42	-2.10000e+00	5.889488e+08	
43	-2.15000e+00	6.004581e+08	
44	-2.20000e+00	6.117787e+08	
45	-2.25000e+00	6.229043e+08	
46	-2.30000e+00	6.338242e+08	
47	-2.35000e+00	6.445212e+08	
48	-2.40000e+00	6.549710e+08	
49	-2.45000e+00	6.651404e+08	
50	-2.50000e+00	6.749855e+08	
51	-2.55000e+00	6.844499e+08	
52	-2.60000e+00	6.934631e+08	
53	-2.65000e+00	7.019388e+08	
54	-2.70000e+00	7.097733e+08	

Index   v-sweep         rds             
--------------------------------------------------------------------------------
55	-2.75000e+00	7.168449e+08	
56	-2.80000e+00	7.230132e+08	
57	-2.85000e+00	7.281203e+08	
58	-2.90000e+00	7.319920e+08	
59	-2.95000e+00	7.344421e+08	
60	-3.00000e+00	7.352767e+08	
61	-3.05000e+00	7.343013e+08	
62	-3.10000e+00	7.313300e+08	
63	-3.15000e+00	7.261949e+08	
64	-3.20000e+00	7.187577e+08	
65	-3.25000e+00	7.089208e+08	
66	-3.30000e+00	6.966378e+08	
Reset re-loads circuit ***************************

Circuit: ***************************

Doing analysis at TEMP = 25.000000 and TNOM = 25.000000


No. of Data Rows : 67
                          ***************************
                          DC transfer characteristic  Mon Jan  9 13:57:30  2023
--------------------------------------------------------------------------------
Index   v-sweep         rds             
--------------------------------------------------------------------------------
0	0.000000e+00	1.478841e+05	
1	-5.00000e-02	1.589491e+05	
2	-1.00000e-01	1.717883e+05	
3	-1.50000e-01	1.868641e+05	
4	-2.00000e-01	2.048140e+05	
5	-2.50000e-01	2.265408e+05	
6	-3.00000e-01	2.533656e+05	
7	-3.50000e-01	2.872949e+05	
8	-4.00000e-01	3.315190e+05	
9	-4.50000e-01	3.913920e+05	
10	-5.00000e-01	4.764970e+05	
11	-5.50000e-01	6.053017e+05	
12	-6.00000e-01	8.162459e+05	
13	-6.50000e-01	1.194194e+06	
14	-7.00000e-01	1.925376e+06	
15	-7.50000e-01	3.366098e+06	
16	-8.00000e-01	6.012799e+06	
17	-8.50000e-01	1.025932e+07	
18	-9.00000e-01	1.611827e+07	
19	-9.50000e-01	2.320784e+07	
20	-1.00000e+00	3.098328e+07	
21	-1.05000e+00	3.896711e+07	
22	-1.10000e+00	4.684396e+07	
23	-1.15000e+00	5.444918e+07	
24	-1.20000e+00	6.172057e+07	
25	-1.25000e+00	6.865349e+07	
26	-1.30000e+00	7.527078e+07	
27	-1.35000e+00	8.160551e+07	
28	-1.40000e+00	8.769217e+07	
29	-1.45000e+00	9.356276e+07	
30	-1.50000e+00	9.924536e+07	
31	-1.55000e+00	1.047639e+08	
32	-1.60000e+00	1.101385e+08	
33	-1.65000e+00	1.153860e+08	
34	-1.70000e+00	1.205203e+08	
35	-1.75000e+00	1.255530e+08	
36	-1.80000e+00	1.304941e+08	
37	-1.85000e+00	1.353515e+08	
38	-1.90000e+00	1.401323e+08	
39	-1.95000e+00	1.448423e+08	
40	-2.00000e+00	1.494865e+08	
41	-2.05000e+00	1.540692e+08	
42	-2.10000e+00	1.585940e+08	
43	-2.15000e+00	1.630642e+08	
44	-2.20000e+00	1.674824e+08	
45	-2.25000e+00	1.718509e+08	
46	-2.30000e+00	1.761716e+08	
47	-2.35000e+00	1.804459e+08	
48	-2.40000e+00	1.846745e+08	
49	-2.45000e+00	1.888577e+08	
50	-2.50000e+00	1.929947e+08	
51	-2.55000e+00	1.970837e+08	
52	-2.60000e+00	2.011214e+08	
53	-2.65000e+00	2.051027e+08	
54	-2.70000e+00	2.090202e+08	

Index   v-sweep         rds             
--------------------------------------------------------------------------------
55	-2.75000e+00	2.128634e+08	
56	-2.80000e+00	2.166185e+08	
57	-2.85000e+00	2.202674e+08	
58	-2.90000e+00	2.237868e+08	
59	-2.95000e+00	2.271481e+08	
60	-3.00000e+00	2.303159e+08	
61	-3.05000e+00	2.332481e+08	
62	-3.10000e+00	2.358950e+08	
63	-3.15000e+00	2.381998e+08	
64	-3.20000e+00	2.400987e+08	
65	-3.25000e+00	2.415216e+08	
66	-3.30000e+00	2.423943e+08	
Reset re-loads circuit ***************************

Circuit: ***************************

Doing analysis at TEMP = 25.000000 and TNOM = 25.000000


No. of Data Rows : 67
                          ***************************
                          DC transfer characteristic  Mon Jan  9 13:57:30  2023
--------------------------------------------------------------------------------
Index   v-sweep         rds             
--------------------------------------------------------------------------------
0	0.000000e+00	1.044943e+05	
1	-5.00000e-02	1.095578e+05	
2	-1.00000e-01	1.151316e+05	
3	-1.50000e-01	1.212968e+05	
4	-2.00000e-01	1.281528e+05	
5	-2.50000e-01	1.358222e+05	
6	-3.00000e-01	1.444586e+05	
7	-3.50000e-01	1.542567e+05	
8	-4.00000e-01	1.654668e+05	
9	-4.50000e-01	1.784165e+05	
10	-5.00000e-01	1.935422e+05	
11	-5.50000e-01	2.114378e+05	
12	-6.00000e-01	2.329321e+05	
13	-6.50000e-01	2.592139e+05	
14	-7.00000e-01	2.920455e+05	
15	-7.50000e-01	3.341387e+05	
16	-8.00000e-01	3.898492e+05	
17	-8.50000e-01	4.665148e+05	
18	-9.00000e-01	5.771316e+05	
19	-9.50000e-01	7.457747e+05	
20	-1.00000e+00	1.018116e+06	
21	-1.05000e+00	1.478554e+06	
22	-1.10000e+00	2.266080e+06	
23	-1.15000e+00	3.559966e+06	
24	-1.20000e+00	5.507973e+06	
25	-1.25000e+00	8.135577e+06	
26	-1.30000e+00	1.132263e+07	
27	-1.35000e+00	1.486664e+07	
28	-1.40000e+00	1.856774e+07	
29	-1.45000e+00	2.227780e+07	
30	-1.50000e+00	2.590822e+07	
31	-1.55000e+00	2.941669e+07	
32	-1.60000e+00	3.279017e+07	
33	-1.65000e+00	3.603156e+07	
34	-1.70000e+00	3.915117e+07	
35	-1.75000e+00	4.216190e+07	
36	-1.80000e+00	4.507674e+07	
37	-1.85000e+00	4.790765e+07	
38	-1.90000e+00	5.066516e+07	
39	-1.95000e+00	5.335830e+07	
40	-2.00000e+00	5.599473e+07	
41	-2.05000e+00	5.858090e+07	
42	-2.10000e+00	6.112223e+07	
43	-2.15000e+00	6.362328e+07	
44	-2.20000e+00	6.608789e+07	
45	-2.25000e+00	6.851929e+07	
46	-2.30000e+00	7.092025e+07	
47	-2.35000e+00	7.329310e+07	
48	-2.40000e+00	7.563985e+07	
49	-2.45000e+00	7.796221e+07	
50	-2.50000e+00	8.026165e+07	
51	-2.55000e+00	8.253943e+07	
52	-2.60000e+00	8.479659e+07	
53	-2.65000e+00	8.703398e+07	
54	-2.70000e+00	8.925221e+07	

Index   v-sweep         rds             
--------------------------------------------------------------------------------
55	-2.75000e+00	9.145165e+07	
56	-2.80000e+00	9.363233e+07	
57	-2.85000e+00	9.579386e+07	
58	-2.90000e+00	9.793530e+07	
59	-2.95000e+00	1.000550e+08	
60	-3.00000e+00	1.021504e+08	
61	-3.05000e+00	1.042178e+08	
62	-3.10000e+00	1.062518e+08	
63	-3.15000e+00	1.082456e+08	
64	-3.20000e+00	1.101898e+08	
65	-3.25000e+00	1.120726e+08	
66	-3.30000e+00	1.138791e+08	
Reset re-loads circuit ***************************

Circuit: ***************************

Doing analysis at TEMP = 25.000000 and TNOM = 25.000000


No. of Data Rows : 67
                          ***************************
                          DC transfer characteristic  Mon Jan  9 13:57:30  2023
--------------------------------------------------------------------------------
Index   v-sweep         rds             
--------------------------------------------------------------------------------
0	0.000000e+00	8.311021e+04	
1	-5.00000e-02	8.604653e+04	
2	-1.00000e-01	8.919515e+04	
3	-1.50000e-01	9.257995e+04	
4	-2.00000e-01	9.622852e+04	
5	-2.50000e-01	1.001729e+05	
6	-3.00000e-01	1.044506e+05	
7	-3.50000e-01	1.091056e+05	
8	-4.00000e-01	1.141901e+05	
9	-4.50000e-01	1.197664e+05	
10	-5.00000e-01	1.259093e+05	
11	-5.50000e-01	1.327094e+05	
12	-6.00000e-01	1.402782e+05	
13	-6.50000e-01	1.487530e+05	
14	-7.00000e-01	1.583065e+05	
15	-7.50000e-01	1.691574e+05	
16	-8.00000e-01	1.815874e+05	
17	-8.50000e-01	1.959653e+05	
18	-9.00000e-01	2.127827e+05	
19	-9.50000e-01	2.327087e+05	
20	-1.00000e+00	2.566753e+05	
21	-1.05000e+00	2.860154e+05	
22	-1.10000e+00	3.226930e+05	
23	-1.15000e+00	3.696972e+05	
24	-1.20000e+00	4.317412e+05	
25	-1.25000e+00	5.165225e+05	
26	-1.30000e+00	6.370052e+05	
27	-1.35000e+00	8.153800e+05	
28	-1.40000e+00	1.089073e+06	
29	-1.45000e+00	1.516934e+06	
30	-1.50000e+00	2.178156e+06	
31	-1.55000e+00	3.152768e+06	
32	-1.60000e+00	4.484862e+06	
33	-1.65000e+00	6.154376e+06	
34	-1.70000e+00	8.083210e+06	
35	-1.75000e+00	1.016895e+07	
36	-1.80000e+00	1.231857e+07	
37	-1.85000e+00	1.446509e+07	
38	-1.90000e+00	1.656855e+07	
39	-1.95000e+00	1.860960e+07	
40	-2.00000e+00	2.058213e+07	
41	-2.05000e+00	2.248739e+07	
42	-2.10000e+00	2.433022e+07	
43	-2.15000e+00	2.611685e+07	
44	-2.20000e+00	2.785363e+07	
45	-2.25000e+00	2.954654e+07	
46	-2.30000e+00	3.120089e+07	
47	-2.35000e+00	3.282130e+07	
48	-2.40000e+00	3.441174e+07	
49	-2.45000e+00	3.597558e+07	
50	-2.50000e+00	3.751568e+07	
51	-2.55000e+00	3.903445e+07	
52	-2.60000e+00	4.053394e+07	
53	-2.65000e+00	4.201589e+07	
54	-2.70000e+00	4.348178e+07	

Index   v-sweep         rds             
--------------------------------------------------------------------------------
55	-2.75000e+00	4.493289e+07	
56	-2.80000e+00	4.637028e+07	
57	-2.85000e+00	4.779490e+07	
58	-2.90000e+00	4.920753e+07	
59	-2.95000e+00	5.060885e+07	
60	-3.00000e+00	5.199941e+07	
61	-3.05000e+00	5.337963e+07	
62	-3.10000e+00	5.474982e+07	
63	-3.15000e+00	5.611007e+07	
64	-3.20000e+00	5.746029e+07	
65	-3.25000e+00	5.880009e+07	
66	-3.30000e+00	6.012872e+07	
Reset re-loads circuit ***************************

Circuit: ***************************

Doing analysis at TEMP = 25.000000 and TNOM = 25.000000


No. of Data Rows : 67
                          ***************************
                          DC transfer characteristic  Mon Jan  9 13:57:30  2023
--------------------------------------------------------------------------------
Index   v-sweep         rds             
--------------------------------------------------------------------------------
0	0.000000e+00	7.057989e+04	
1	-5.00000e-02	7.251849e+04	
2	-1.00000e-01	7.456490e+04	
3	-1.50000e-01	7.672837e+04	
4	-2.00000e-01	7.901924e+04	
5	-2.50000e-01	8.144910e+04	
6	-3.00000e-01	8.403098e+04	
7	-3.50000e-01	8.677960e+04	
8	-4.00000e-01	8.971166e+04	
9	-4.50000e-01	9.284612e+04	
10	-5.00000e-01	9.620468e+04	
11	-5.50000e-01	9.981224e+04	
12	-6.00000e-01	1.036975e+05	
13	-6.50000e-01	1.078939e+05	
14	-7.00000e-01	1.124401e+05	
15	-7.50000e-01	1.173818e+05	
16	-8.00000e-01	1.227729e+05	
17	-8.50000e-01	1.286773e+05	
18	-9.00000e-01	1.351720e+05	
19	-9.50000e-01	1.423497e+05	
20	-1.00000e+00	1.503238e+05	
21	-1.05000e+00	1.592338e+05	
22	-1.10000e+00	1.692539e+05	
23	-1.15000e+00	1.806037e+05	
24	-1.20000e+00	1.935641e+05	
25	-1.25000e+00	2.084998e+05	
26	-1.30000e+00	2.258927e+05	
27	-1.35000e+00	2.463907e+05	
28	-1.40000e+00	2.708841e+05	
29	-1.45000e+00	3.006235e+05	
30	-1.50000e+00	3.374111e+05	
31	-1.55000e+00	3.839124e+05	
32	-1.60000e+00	4.441776e+05	
33	-1.65000e+00	5.245142e+05	
34	-1.70000e+00	6.349182e+05	
35	-1.75000e+00	7.912651e+05	
36	-1.80000e+00	1.018105e+06	
37	-1.85000e+00	1.350693e+06	
38	-1.90000e+00	1.832748e+06	
39	-1.95000e+00	2.505856e+06	
40	-2.00000e+00	3.392047e+06	
41	-2.05000e+00	4.480520e+06	
42	-2.10000e+00	5.729673e+06	
43	-2.15000e+00	7.082795e+06	
44	-2.20000e+00	8.485579e+06	
45	-2.25000e+00	9.896410e+06	
46	-2.30000e+00	1.128852e+07	
47	-2.35000e+00	1.264743e+07	
48	-2.40000e+00	1.396719e+07	
49	-2.45000e+00	1.524697e+07	
50	-2.50000e+00	1.648867e+07	
51	-2.55000e+00	1.769549e+07	
52	-2.60000e+00	1.887100e+07	
53	-2.65000e+00	2.001871e+07	
54	-2.70000e+00	2.114185e+07	

Index   v-sweep         rds             
--------------------------------------------------------------------------------
55	-2.75000e+00	2.224331e+07	
56	-2.80000e+00	2.332559e+07	
57	-2.85000e+00	2.439083e+07	
58	-2.90000e+00	2.544088e+07	
59	-2.95000e+00	2.647732e+07	
60	-3.00000e+00	2.750148e+07	
61	-3.05000e+00	2.851450e+07	
62	-3.10000e+00	2.951736e+07	
63	-3.15000e+00	3.051090e+07	
64	-3.20000e+00	3.149584e+07	
65	-3.25000e+00	3.247279e+07	
66	-3.30000e+00	3.344228e+07	
Reset re-loads circuit ***************************

Circuit: ***************************

Note: No ".plot", ".print", or ".fourier" lines; no simulations run
