
Note: Compatibility modes selected: hs

Warning: m=xx on .subckt line will override multiplier m hierarchy!


Circuit: ***************************

Doing analysis at TEMP = -40.000000 and TNOM = -40.000000


No. of Data Rows : 67
                          ***************************
                          DC transfer characteristic  Mon Jan  9 13:57:30  2023
--------------------------------------------------------------------------------
Index   v-sweep         rds             
--------------------------------------------------------------------------------
0	0.000000e+00	2.403815e+05	
1	-5.00000e-02	2.095805e+06	
2	-1.00000e-01	1.481633e+07	
3	-1.50000e-01	3.325055e+07	
4	-2.00000e-01	4.627121e+07	
5	-2.50000e-01	5.474114e+07	
6	-3.00000e-01	6.079792e+07	
7	-3.50000e-01	6.553712e+07	
8	-4.00000e-01	6.947237e+07	
9	-4.50000e-01	7.286191e+07	
10	-5.00000e-01	7.584875e+07	
11	-5.50000e-01	7.851992e+07	
12	-6.00000e-01	8.093287e+07	
13	-6.50000e-01	8.312819e+07	
14	-7.00000e-01	8.513615e+07	
15	-7.50000e-01	8.698030e+07	
16	-8.00000e-01	8.867957e+07	
17	-8.50000e-01	9.024956e+07	
18	-9.00000e-01	9.170337e+07	
19	-9.50000e-01	9.305217e+07	
20	-1.00000e+00	9.430563e+07	
21	-1.05000e+00	9.547215e+07	
22	-1.10000e+00	9.655913e+07	
23	-1.15000e+00	9.757312e+07	
24	-1.20000e+00	9.851993e+07	
25	-1.25000e+00	9.940475e+07	
26	-1.30000e+00	1.002323e+08	
27	-1.35000e+00	1.010067e+08	
28	-1.40000e+00	1.017318e+08	
29	-1.45000e+00	1.024111e+08	
30	-1.50000e+00	1.030476e+08	
31	-1.55000e+00	1.036442e+08	
32	-1.60000e+00	1.042035e+08	
33	-1.65000e+00	1.047278e+08	
34	-1.70000e+00	1.052192e+08	
35	-1.75000e+00	1.056795e+08	
36	-1.80000e+00	1.061103e+08	
37	-1.85000e+00	1.065130e+08	
38	-1.90000e+00	1.068888e+08	
39	-1.95000e+00	1.072383e+08	
40	-2.00000e+00	1.075622e+08	
41	-2.05000e+00	1.078604e+08	
42	-2.10000e+00	1.081329e+08	
43	-2.15000e+00	1.083788e+08	
44	-2.20000e+00	1.085969e+08	
45	-2.25000e+00	1.087856e+08	
46	-2.30000e+00	1.089424e+08	
47	-2.35000e+00	1.090646e+08	
48	-2.40000e+00	1.091484e+08	
49	-2.45000e+00	1.091896e+08	
50	-2.50000e+00	1.091833e+08	
51	-2.55000e+00	1.091237e+08	
52	-2.60000e+00	1.090045e+08	
53	-2.65000e+00	1.088187e+08	
54	-2.70000e+00	1.085589e+08	

Index   v-sweep         rds             
--------------------------------------------------------------------------------
55	-2.75000e+00	1.082169e+08	
56	-2.80000e+00	1.077845e+08	
57	-2.85000e+00	1.072531e+08	
58	-2.90000e+00	1.066143e+08	
59	-2.95000e+00	1.058597e+08	
60	-3.00000e+00	1.049817e+08	
61	-3.05000e+00	1.039732e+08	
62	-3.10000e+00	1.028282e+08	
63	-3.15000e+00	1.015420e+08	
64	-3.20000e+00	1.001117e+08	
65	-3.25000e+00	9.853575e+07	
66	-3.30000e+00	9.681504e+07	
Reset re-loads circuit ***************************

Circuit: ***************************

Doing analysis at TEMP = -40.000000 and TNOM = -40.000000


No. of Data Rows : 67
                          ***************************
                          DC transfer characteristic  Mon Jan  9 13:57:30  2023
--------------------------------------------------------------------------------
Index   v-sweep         rds             
--------------------------------------------------------------------------------
0	0.000000e+00	4.563789e+03	
1	-5.00000e-02	5.280721e+03	
2	-1.00000e-01	6.245680e+03	
3	-1.50000e-01	7.611049e+03	
4	-2.00000e-01	9.678595e+03	
5	-2.50000e-01	1.311497e+04	
6	-3.00000e-01	1.955633e+04	
7	-3.50000e-01	3.301114e+04	
8	-4.00000e-01	6.002318e+04	
9	-4.50000e-01	1.008559e+05	
10	-5.00000e-01	1.446971e+05	
11	-5.50000e-01	1.838671e+05	
12	-6.00000e-01	2.177425e+05	
13	-6.50000e-01	2.477901e+05	
14	-7.00000e-01	2.752883e+05	
15	-7.50000e-01	3.010518e+05	
16	-8.00000e-01	3.255705e+05	
17	-8.50000e-01	3.491413e+05	
18	-9.00000e-01	3.719501e+05	
19	-9.50000e-01	3.941179e+05	
20	-1.00000e+00	4.157267e+05	
21	-1.05000e+00	4.368344e+05	
22	-1.10000e+00	4.574835e+05	
23	-1.15000e+00	4.777063e+05	
24	-1.20000e+00	4.975282e+05	
25	-1.25000e+00	5.169701e+05	
26	-1.30000e+00	5.360490e+05	
27	-1.35000e+00	5.547798e+05	
28	-1.40000e+00	5.731753e+05	
29	-1.45000e+00	5.912471e+05	
30	-1.50000e+00	6.090055e+05	
31	-1.55000e+00	6.264600e+05	
32	-1.60000e+00	6.436192e+05	
33	-1.65000e+00	6.604914e+05	
34	-1.70000e+00	6.770840e+05	
35	-1.75000e+00	6.934044e+05	
36	-1.80000e+00	7.094591e+05	
37	-1.85000e+00	7.252542e+05	
38	-1.90000e+00	7.407956e+05	
39	-1.95000e+00	7.560879e+05	
40	-2.00000e+00	7.711353e+05	
41	-2.05000e+00	7.859403e+05	
42	-2.10000e+00	8.005039e+05	
43	-2.15000e+00	8.148246e+05	
44	-2.20000e+00	8.288976e+05	
45	-2.25000e+00	8.427142e+05	
46	-2.30000e+00	8.562598e+05	
47	-2.35000e+00	8.695132e+05	
48	-2.40000e+00	8.824445e+05	
49	-2.45000e+00	8.950133e+05	
50	-2.50000e+00	9.071666e+05	
51	-2.55000e+00	9.188370e+05	
52	-2.60000e+00	9.299401e+05	
53	-2.65000e+00	9.403727e+05	
54	-2.70000e+00	9.500110e+05	

Index   v-sweep         rds             
--------------------------------------------------------------------------------
55	-2.75000e+00	9.587096e+05	
56	-2.80000e+00	9.663004e+05	
57	-2.85000e+00	9.725938e+05	
58	-2.90000e+00	9.773802e+05	
59	-2.95000e+00	9.804337e+05	
60	-3.00000e+00	9.815173e+05	
61	-3.05000e+00	9.803911e+05	
62	-3.10000e+00	9.768214e+05	
63	-3.15000e+00	9.705925e+05	
64	-3.20000e+00	9.615194e+05	
65	-3.25000e+00	9.494615e+05	
66	-3.30000e+00	9.343355e+05	
Reset re-loads circuit ***************************

Circuit: ***************************

Doing analysis at TEMP = -40.000000 and TNOM = -40.000000


No. of Data Rows : 67
                          ***************************
                          DC transfer characteristic  Mon Jan  9 13:57:30  2023
--------------------------------------------------------------------------------
Index   v-sweep         rds             
--------------------------------------------------------------------------------
0	0.000000e+00	2.349275e+03	
1	-5.00000e-02	2.523741e+03	
2	-1.00000e-01	2.723293e+03	
3	-1.50000e-01	2.953738e+03	
4	-2.00000e-01	3.222812e+03	
5	-2.50000e-01	3.541051e+03	
6	-3.00000e-01	3.923161e+03	
7	-3.50000e-01	4.390264e+03	
8	-4.00000e-01	4.973714e+03	
9	-4.50000e-01	5.721847e+03	
10	-5.00000e-01	6.712360e+03	
11	-5.50000e-01	8.075615e+03	
12	-6.00000e-01	1.003775e+04	
13	-6.50000e-01	1.298890e+04	
14	-7.00000e-01	1.752647e+04	
15	-7.50000e-01	2.423776e+04	
16	-8.00000e-01	3.301574e+04	
17	-8.50000e-01	4.278269e+04	
18	-9.00000e-01	5.242114e+04	
19	-9.50000e-01	6.146958e+04	
20	-1.00000e+00	6.992376e+04	
21	-1.05000e+00	7.791144e+04	
22	-1.10000e+00	8.555495e+04	
23	-1.15000e+00	9.294331e+04	
24	-1.20000e+00	1.001365e+05	
25	-1.25000e+00	1.071744e+05	
26	-1.30000e+00	1.140837e+05	
27	-1.35000e+00	1.208828e+05	
28	-1.40000e+00	1.275843e+05	
29	-1.45000e+00	1.341977e+05	
30	-1.50000e+00	1.407296e+05	
31	-1.55000e+00	1.471852e+05	
32	-1.60000e+00	1.535685e+05	
33	-1.65000e+00	1.598829e+05	
34	-1.70000e+00	1.661308e+05	
35	-1.75000e+00	1.723144e+05	
36	-1.80000e+00	1.784356e+05	
37	-1.85000e+00	1.844960e+05	
38	-1.90000e+00	1.904971e+05	
39	-1.95000e+00	1.964401e+05	
40	-2.00000e+00	2.023260e+05	
41	-2.05000e+00	2.081561e+05	
42	-2.10000e+00	2.139313e+05	
43	-2.15000e+00	2.196523e+05	
44	-2.20000e+00	2.253201e+05	
45	-2.25000e+00	2.309351e+05	
46	-2.30000e+00	2.364980e+05	
47	-2.35000e+00	2.420089e+05	
48	-2.40000e+00	2.474676e+05	
49	-2.45000e+00	2.528735e+05	
50	-2.50000e+00	2.582249e+05	
51	-2.55000e+00	2.635193e+05	
52	-2.60000e+00	2.687527e+05	
53	-2.65000e+00	2.739189e+05	
54	-2.70000e+00	2.790096e+05	

Index   v-sweep         rds             
--------------------------------------------------------------------------------
55	-2.75000e+00	2.840127e+05	
56	-2.80000e+00	2.889126e+05	
57	-2.85000e+00	2.936885e+05	
58	-2.90000e+00	2.983140e+05	
59	-2.95000e+00	3.027557e+05	
60	-3.00000e+00	3.069726e+05	
61	-3.05000e+00	3.109150e+05	
62	-3.10000e+00	3.145241e+05	
63	-3.15000e+00	3.177315e+05	
64	-3.20000e+00	3.204592e+05	
65	-3.25000e+00	3.226208e+05	
66	-3.30000e+00	3.241224e+05	
Reset re-loads circuit ***************************

Circuit: ***************************

Doing analysis at TEMP = -40.000000 and TNOM = -40.000000


No. of Data Rows : 67
                          ***************************
                          DC transfer characteristic  Mon Jan  9 13:57:30  2023
--------------------------------------------------------------------------------
Index   v-sweep         rds             
--------------------------------------------------------------------------------
0	0.000000e+00	1.695996e+03	
1	-5.00000e-02	1.780051e+03	
2	-1.00000e-01	1.871712e+03	
3	-1.50000e-01	1.972057e+03	
4	-2.00000e-01	2.082377e+03	
5	-2.50000e-01	2.204232e+03	
6	-3.00000e-01	2.339524e+03	
7	-3.50000e-01	2.490597e+03	
8	-4.00000e-01	2.660367e+03	
9	-4.50000e-01	2.852517e+03	
10	-5.00000e-01	3.071754e+03	
11	-5.50000e-01	3.324189e+03	
12	-6.00000e-01	3.617897e+03	
13	-6.50000e-01	3.963746e+03	
14	-7.00000e-01	4.376676e+03	
15	-7.50000e-01	4.877691e+03	
16	-8.00000e-01	5.497013e+03	
17	-8.50000e-01	6.279086e+03	
18	-9.00000e-01	7.290180e+03	
19	-9.50000e-01	8.628459e+03	
20	-1.00000e+00	1.043126e+04	
21	-1.05000e+00	1.285949e+04	
22	-1.10000e+00	1.602236e+04	
23	-1.15000e+00	1.985350e+04	
24	-1.20000e+00	2.408737e+04	
25	-1.25000e+00	2.842357e+04	
26	-1.30000e+00	3.268115e+04	
27	-1.35000e+00	3.680245e+04	
28	-1.40000e+00	4.079181e+04	
29	-1.45000e+00	4.467149e+04	
30	-1.50000e+00	4.846370e+04	
31	-1.55000e+00	5.218596e+04	
32	-1.60000e+00	5.585103e+04	
33	-1.65000e+00	5.946801e+04	
34	-1.70000e+00	6.304341e+04	
35	-1.75000e+00	6.658186e+04	
36	-1.80000e+00	7.008679e+04	
37	-1.85000e+00	7.356072e+04	
38	-1.90000e+00	7.700557e+04	
39	-1.95000e+00	8.042284e+04	
40	-2.00000e+00	8.381369e+04	
41	-2.05000e+00	8.717907e+04	
42	-2.10000e+00	9.051975e+04	
43	-2.15000e+00	9.383639e+04	
44	-2.20000e+00	9.712953e+04	
45	-2.25000e+00	1.003997e+05	
46	-2.30000e+00	1.036472e+05	
47	-2.35000e+00	1.068725e+05	
48	-2.40000e+00	1.100760e+05	
49	-2.45000e+00	1.132578e+05	
50	-2.50000e+00	1.164183e+05	
51	-2.55000e+00	1.195578e+05	
52	-2.60000e+00	1.226763e+05	
53	-2.65000e+00	1.257739e+05	
54	-2.70000e+00	1.288506e+05	

Index   v-sweep         rds             
--------------------------------------------------------------------------------
55	-2.75000e+00	1.319061e+05	
56	-2.80000e+00	1.349399e+05	
57	-2.85000e+00	1.379510e+05	
58	-2.90000e+00	1.409378e+05	
59	-2.95000e+00	1.438980e+05	
60	-3.00000e+00	1.468281e+05	
61	-3.05000e+00	1.497230e+05	
62	-3.10000e+00	1.525762e+05	
63	-3.15000e+00	1.553784e+05	
64	-3.20000e+00	1.581178e+05	
65	-3.25000e+00	1.607791e+05	
66	-3.30000e+00	1.633429e+05	
Reset re-loads circuit ***************************

Circuit: ***************************

Doing analysis at TEMP = -40.000000 and TNOM = -40.000000


No. of Data Rows : 67
                          ***************************
                          DC transfer characteristic  Mon Jan  9 13:57:30  2023
--------------------------------------------------------------------------------
Index   v-sweep         rds             
--------------------------------------------------------------------------------
0	0.000000e+00	1.390143e+03	
1	-5.00000e-02	1.442226e+03	
2	-1.00000e-01	1.497738e+03	
3	-1.50000e-01	1.557025e+03	
4	-2.00000e-01	1.620485e+03	
5	-2.50000e-01	1.688574e+03	
6	-3.00000e-01	1.761816e+03	
7	-3.50000e-01	1.840814e+03	
8	-4.00000e-01	1.926275e+03	
9	-4.50000e-01	2.019021e+03	
10	-5.00000e-01	2.120022e+03	
11	-5.50000e-01	2.230427e+03	
12	-6.00000e-01	2.351609e+03	
13	-6.50000e-01	2.485217e+03	
14	-7.00000e-01	2.633257e+03	
15	-7.50000e-01	2.798186e+03	
16	-8.00000e-01	2.983046e+03	
17	-8.50000e-01	3.191647e+03	
18	-9.00000e-01	3.428823e+03	
19	-9.50000e-01	3.700782e+03	
20	-1.00000e+00	4.015616e+03	
21	-1.05000e+00	4.384026e+03	
22	-1.10000e+00	4.820374e+03	
23	-1.15000e+00	5.344175e+03	
24	-1.20000e+00	5.982145e+03	
25	-1.25000e+00	6.770683e+03	
26	-1.30000e+00	7.757874e+03	
27	-1.35000e+00	9.001994e+03	
28	-1.40000e+00	1.056009e+04	
29	-1.45000e+00	1.246060e+04	
30	-1.50000e+00	1.467094e+04	
31	-1.55000e+00	1.709605e+04	
32	-1.60000e+00	1.962299e+04	
33	-1.65000e+00	2.216839e+04	
34	-1.70000e+00	2.469016e+04	
35	-1.75000e+00	2.717451e+04	
36	-1.80000e+00	2.962095e+04	
37	-1.85000e+00	3.203346e+04	
38	-1.90000e+00	3.441670e+04	
39	-1.95000e+00	3.677472e+04	
40	-2.00000e+00	3.911074e+04	
41	-2.05000e+00	4.142720e+04	
42	-2.10000e+00	4.372593e+04	
43	-2.15000e+00	4.600833e+04	
44	-2.20000e+00	4.827546e+04	
45	-2.25000e+00	5.052813e+04	
46	-2.30000e+00	5.276697e+04	
47	-2.35000e+00	5.499250e+04	
48	-2.40000e+00	5.720513e+04	
49	-2.45000e+00	5.940518e+04	
50	-2.50000e+00	6.159295e+04	
51	-2.55000e+00	6.376867e+04	
52	-2.60000e+00	6.593254e+04	
53	-2.65000e+00	6.808475e+04	
54	-2.70000e+00	7.022546e+04	

Index   v-sweep         rds             
--------------------------------------------------------------------------------
55	-2.75000e+00	7.235480e+04	
56	-2.80000e+00	7.447291e+04	
57	-2.85000e+00	7.657989e+04	
58	-2.90000e+00	7.867581e+04	
59	-2.95000e+00	8.076074e+04	
60	-3.00000e+00	8.283466e+04	
61	-3.05000e+00	8.489747e+04	
62	-3.10000e+00	8.694897e+04	
63	-3.15000e+00	8.898873e+04	
64	-3.20000e+00	9.101605e+04	
65	-3.25000e+00	9.302984e+04	
66	-3.30000e+00	9.502845e+04	
Reset re-loads circuit ***************************

Circuit: ***************************

Doing analysis at TEMP = -40.000000 and TNOM = -40.000000


No. of Data Rows : 67
                          ***************************
                          DC transfer characteristic  Mon Jan  9 13:57:30  2023
--------------------------------------------------------------------------------
Index   v-sweep         rds             
--------------------------------------------------------------------------------
0	0.000000e+00	1.216834e+03	
1	-5.00000e-02	1.253569e+03	
2	-1.00000e-01	1.292196e+03	
3	-1.50000e-01	1.332866e+03	
4	-2.00000e-01	1.375743e+03	
5	-2.50000e-01	1.421012e+03	
6	-3.00000e-01	1.468877e+03	
7	-3.50000e-01	1.519567e+03	
8	-4.00000e-01	1.573340e+03	
9	-4.50000e-01	1.630483e+03	
10	-5.00000e-01	1.691324e+03	
11	-5.50000e-01	1.756232e+03	
12	-6.00000e-01	1.825626e+03	
13	-6.50000e-01	1.899987e+03	
14	-7.00000e-01	1.979867e+03	
15	-7.50000e-01	2.065900e+03	
16	-8.00000e-01	2.158824e+03	
17	-8.50000e-01	2.259496e+03	
18	-9.00000e-01	2.368925e+03	
19	-9.50000e-01	2.488299e+03	
20	-1.00000e+00	2.619030e+03	
21	-1.05000e+00	2.762810e+03	
22	-1.10000e+00	2.921678e+03	
23	-1.15000e+00	3.098118e+03	
24	-1.20000e+00	3.295183e+03	
25	-1.25000e+00	3.516654e+03	
26	-1.30000e+00	3.767276e+03	
27	-1.35000e+00	4.053049e+03	
28	-1.40000e+00	4.381649e+03	
29	-1.45000e+00	4.762974e+03	
30	-1.50000e+00	5.209851e+03	
31	-1.55000e+00	5.738873e+03	
32	-1.60000e+00	6.371157e+03	
33	-1.65000e+00	7.132438e+03	
34	-1.70000e+00	8.051130e+03	
35	-1.75000e+00	9.152298e+03	
36	-1.80000e+00	1.044664e+04	
37	-1.85000e+00	1.191930e+04	
38	-1.90000e+00	1.352940e+04	
39	-1.95000e+00	1.522488e+04	
40	-2.00000e+00	1.696098e+04	
41	-2.05000e+00	1.870866e+04	
42	-2.10000e+00	2.045280e+04	
43	-2.15000e+00	2.218703e+04	
44	-2.20000e+00	2.390935e+04	
45	-2.25000e+00	2.561966e+04	
46	-2.30000e+00	2.731854e+04	
47	-2.35000e+00	2.900674e+04	
48	-2.40000e+00	3.068495e+04	
49	-2.45000e+00	3.235379e+04	
50	-2.50000e+00	3.401372e+04	
51	-2.55000e+00	3.566515e+04	
52	-2.60000e+00	3.730840e+04	
53	-2.65000e+00	3.894371e+04	
54	-2.70000e+00	4.057130e+04	

Index   v-sweep         rds             
--------------------------------------------------------------------------------
55	-2.75000e+00	4.219133e+04	
56	-2.80000e+00	4.380396e+04	
57	-2.85000e+00	4.540931e+04	
58	-2.90000e+00	4.700747e+04	
59	-2.95000e+00	4.859854e+04	
60	-3.00000e+00	5.018261e+04	
61	-3.05000e+00	5.175974e+04	
62	-3.10000e+00	5.332999e+04	
63	-3.15000e+00	5.489344e+04	
64	-3.20000e+00	5.645011e+04	
65	-3.25000e+00	5.800004e+04	
66	-3.30000e+00	5.954324e+04	
Reset re-loads circuit ***************************

Circuit: ***************************

Note: No ".plot", ".print", or ".fourier" lines; no simulations run
