
Note: Compatibility modes selected: hs

Warning: m=xx on .subckt line will override multiplier m hierarchy!


Circuit: ***************************

Doing analysis at TEMP = 25.000000 and TNOM = 25.000000


No. of Data Rows : 67
                          ***************************
                          DC transfer characteristic  Mon Jan  9 13:57:30  2023
--------------------------------------------------------------------------------
Index   v-sweep         rds             
--------------------------------------------------------------------------------
0	0.000000e+00	1.193246e+05	
1	-5.00000e-02	3.724703e+05	
2	-1.00000e-01	2.491680e+06	
3	-1.50000e-01	1.076906e+07	
4	-2.00000e-01	2.388393e+07	
5	-2.50000e-01	3.646551e+07	
6	-3.00000e-01	4.657381e+07	
7	-3.50000e-01	5.457741e+07	
8	-4.00000e-01	6.115242e+07	
9	-4.50000e-01	6.678376e+07	
10	-5.00000e-01	7.177118e+07	
11	-5.50000e-01	7.629694e+07	
12	-6.00000e-01	8.047448e+07	
13	-6.50000e-01	8.437709e+07	
14	-7.00000e-01	8.805404e+07	
15	-7.50000e-01	9.153987e+07	
16	-8.00000e-01	9.485970e+07	
17	-8.50000e-01	9.803247e+07	
18	-9.00000e-01	1.010730e+08	
19	-9.50000e-01	1.039930e+08	
20	-1.00000e+00	1.068023e+08	
21	-1.05000e+00	1.095091e+08	
22	-1.10000e+00	1.121203e+08	
23	-1.15000e+00	1.146421e+08	
24	-1.20000e+00	1.170798e+08	
25	-1.25000e+00	1.194381e+08	
26	-1.30000e+00	1.217215e+08	
27	-1.35000e+00	1.239338e+08	
28	-1.40000e+00	1.260785e+08	
29	-1.45000e+00	1.281590e+08	
30	-1.50000e+00	1.301782e+08	
31	-1.55000e+00	1.321388e+08	
32	-1.60000e+00	1.340435e+08	
33	-1.65000e+00	1.358945e+08	
34	-1.70000e+00	1.376938e+08	
35	-1.75000e+00	1.394433e+08	
36	-1.80000e+00	1.411444e+08	
37	-1.85000e+00	1.427983e+08	
38	-1.90000e+00	1.444055e+08	
39	-1.95000e+00	1.459662e+08	
40	-2.00000e+00	1.474800e+08	
41	-2.05000e+00	1.489454e+08	
42	-2.10000e+00	1.503603e+08	
43	-2.15000e+00	1.517212e+08	
44	-2.20000e+00	1.530237e+08	
45	-2.25000e+00	1.542615e+08	
46	-2.30000e+00	1.554270e+08	
47	-2.35000e+00	1.565107e+08	
48	-2.40000e+00	1.575010e+08	
49	-2.45000e+00	1.583844e+08	
50	-2.50000e+00	1.591452e+08	
51	-2.55000e+00	1.597656e+08	
52	-2.60000e+00	1.602259e+08	
53	-2.65000e+00	1.605044e+08	
54	-2.70000e+00	1.605780e+08	

Index   v-sweep         rds             
--------------------------------------------------------------------------------
55	-2.75000e+00	1.604227e+08	
56	-2.80000e+00	1.600140e+08	
57	-2.85000e+00	1.593279e+08	
58	-2.90000e+00	1.583417e+08	
59	-2.95000e+00	1.570351e+08	
60	-3.00000e+00	1.553910e+08	
61	-3.05000e+00	1.533970e+08	
62	-3.10000e+00	1.510462e+08	
63	-3.15000e+00	1.483378e+08	
64	-3.20000e+00	1.452781e+08	
65	-3.25000e+00	1.418807e+08	
66	-3.30000e+00	1.381662e+08	
Reset re-loads circuit ***************************

Circuit: ***************************

Doing analysis at TEMP = 25.000000 and TNOM = 25.000000


No. of Data Rows : 67
                          ***************************
                          DC transfer characteristic  Mon Jan  9 13:57:30  2023
--------------------------------------------------------------------------------
Index   v-sweep         rds             
--------------------------------------------------------------------------------
0	0.000000e+00	1.046837e+04	
1	-5.00000e-02	1.195903e+04	
2	-1.00000e-01	1.392860e+04	
3	-1.50000e-01	1.664759e+04	
4	-2.00000e-01	2.062876e+04	
5	-2.50000e-01	2.695018e+04	
6	-3.00000e-01	3.817268e+04	
7	-3.50000e-01	6.106863e+04	
8	-4.00000e-01	1.130999e+05	
9	-4.50000e-01	2.245251e+05	
10	-5.00000e-01	4.071564e+05	
11	-5.50000e-01	6.258438e+05	
12	-6.00000e-01	8.383745e+05	
13	-6.50000e-01	1.028139e+06	
14	-7.00000e-01	1.195752e+06	
15	-7.50000e-01	1.346409e+06	
16	-8.00000e-01	1.484917e+06	
17	-8.50000e-01	1.614765e+06	
18	-9.00000e-01	1.738321e+06	
19	-9.50000e-01	1.857166e+06	
20	-1.00000e+00	1.972367e+06	
21	-1.05000e+00	2.084659e+06	
22	-1.10000e+00	2.194554e+06	
23	-1.15000e+00	2.302418e+06	
24	-1.20000e+00	2.408522e+06	
25	-1.25000e+00	2.513063e+06	
26	-1.30000e+00	2.616196e+06	
27	-1.35000e+00	2.718037e+06	
28	-1.40000e+00	2.818679e+06	
29	-1.45000e+00	2.918198e+06	
30	-1.50000e+00	3.016653e+06	
31	-1.55000e+00	3.114095e+06	
32	-1.60000e+00	3.210567e+06	
33	-1.65000e+00	3.306104e+06	
34	-1.70000e+00	3.400737e+06	
35	-1.75000e+00	3.494492e+06	
36	-1.80000e+00	3.587394e+06	
37	-1.85000e+00	3.679462e+06	
38	-1.90000e+00	3.770713e+06	
39	-1.95000e+00	3.861160e+06	
40	-2.00000e+00	3.950810e+06	
41	-2.05000e+00	4.039666e+06	
42	-2.10000e+00	4.127719e+06	
43	-2.15000e+00	4.214951e+06	
44	-2.20000e+00	4.301325e+06	
45	-2.25000e+00	4.386782e+06	
46	-2.30000e+00	4.471233e+06	
47	-2.35000e+00	4.554550e+06	
48	-2.40000e+00	4.636555e+06	
49	-2.45000e+00	4.717011e+06	
50	-2.50000e+00	4.795603e+06	
51	-2.55000e+00	4.871929e+06	
52	-2.60000e+00	4.945482e+06	
53	-2.65000e+00	5.015634e+06	
54	-2.70000e+00	5.081624e+06	

Index   v-sweep         rds             
--------------------------------------------------------------------------------
55	-2.75000e+00	5.142548e+06	
56	-2.80000e+00	5.197349e+06	
57	-2.85000e+00	5.244820e+06	
58	-2.90000e+00	5.283612e+06	
59	-2.95000e+00	5.312254e+06	
60	-3.00000e+00	5.329188e+06	
61	-3.05000e+00	5.332820e+06	
62	-3.10000e+00	5.321585e+06	
63	-3.15000e+00	5.294029e+06	
64	-3.20000e+00	5.248898e+06	
65	-3.25000e+00	5.185237e+06	
66	-3.30000e+00	5.102481e+06	
Reset re-loads circuit ***************************

Circuit: ***************************

Doing analysis at TEMP = 25.000000 and TNOM = 25.000000


No. of Data Rows : 67
                          ***************************
                          DC transfer characteristic  Mon Jan  9 13:57:30  2023
--------------------------------------------------------------------------------
Index   v-sweep         rds             
--------------------------------------------------------------------------------
0	0.000000e+00	5.647094e+03	
1	-5.00000e-02	6.042524e+03	
2	-1.00000e-01	6.494912e+03	
3	-1.50000e-01	7.017483e+03	
4	-2.00000e-01	7.627876e+03	
5	-2.50000e-01	8.350143e+03	
6	-3.00000e-01	9.217913e+03	
7	-3.50000e-01	1.027961e+04	
8	-4.00000e-01	1.160738e+04	
9	-4.50000e-01	1.331316e+04	
10	-5.00000e-01	1.557889e+04	
11	-5.50000e-01	1.871649e+04	
12	-6.00000e-01	2.329187e+04	
13	-6.50000e-01	3.038277e+04	
14	-7.00000e-01	4.206100e+04	
15	-7.50000e-01	6.192788e+04	
16	-8.00000e-01	9.434828e+04	
17	-8.50000e-01	1.405403e+05	
18	-9.00000e-01	1.954598e+05	
19	-9.50000e-01	2.517100e+05	
20	-1.00000e+00	3.047964e+05	
21	-1.05000e+00	3.535832e+05	
22	-1.10000e+00	3.985386e+05	
23	-1.15000e+00	4.405059e+05	
24	-1.20000e+00	4.802418e+05	
25	-1.25000e+00	5.183198e+05	
26	-1.30000e+00	5.551509e+05	
27	-1.35000e+00	5.910245e+05	
28	-1.40000e+00	6.261450e+05	
29	-1.45000e+00	6.606584e+05	
30	-1.50000e+00	6.946698e+05	
31	-1.55000e+00	7.282568e+05	
32	-1.60000e+00	7.614771e+05	
33	-1.65000e+00	7.943743e+05	
34	-1.70000e+00	8.269819e+05	
35	-1.75000e+00	8.593262e+05	
36	-1.80000e+00	8.914278e+05	
37	-1.85000e+00	9.233033e+05	
38	-1.90000e+00	9.549661e+05	
39	-1.95000e+00	9.864272e+05	
40	-2.00000e+00	1.017696e+06	
41	-2.05000e+00	1.048779e+06	
42	-2.10000e+00	1.079684e+06	
43	-2.15000e+00	1.110416e+06	
44	-2.20000e+00	1.140979e+06	
45	-2.25000e+00	1.171377e+06	
46	-2.30000e+00	1.201612e+06	
47	-2.35000e+00	1.231685e+06	
48	-2.40000e+00	1.261595e+06	
49	-2.45000e+00	1.291339e+06	
50	-2.50000e+00	1.320909e+06	
51	-2.55000e+00	1.350293e+06	
52	-2.60000e+00	1.379471e+06	
53	-2.65000e+00	1.408414e+06	
54	-2.70000e+00	1.437080e+06	

Index   v-sweep         rds             
--------------------------------------------------------------------------------
55	-2.75000e+00	1.465410e+06	
56	-2.80000e+00	1.493327e+06	
57	-2.85000e+00	1.520726e+06	
58	-2.90000e+00	1.547472e+06	
59	-2.95000e+00	1.573395e+06	
60	-3.00000e+00	1.598280e+06	
61	-3.05000e+00	1.621869e+06	
62	-3.10000e+00	1.643846e+06	
63	-3.15000e+00	1.663845e+06	
64	-3.20000e+00	1.681441e+06	
65	-3.25000e+00	1.696155e+06	
66	-3.30000e+00	1.707463e+06	
Reset re-loads circuit ***************************

Circuit: ***************************

Doing analysis at TEMP = 25.000000 and TNOM = 25.000000


No. of Data Rows : 67
                          ***************************
                          DC transfer characteristic  Mon Jan  9 13:57:30  2023
--------------------------------------------------------------------------------
Index   v-sweep         rds             
--------------------------------------------------------------------------------
0	0.000000e+00	4.060148e+03	
1	-5.00000e-02	4.247793e+03	
2	-1.00000e-01	4.452582e+03	
3	-1.50000e-01	4.676974e+03	
4	-2.00000e-01	4.923919e+03	
5	-2.50000e-01	5.196993e+03	
6	-3.00000e-01	5.500563e+03	
7	-3.50000e-01	5.840029e+03	
8	-4.00000e-01	6.222135e+03	
9	-4.50000e-01	6.655423e+03	
10	-5.00000e-01	7.150861e+03	
11	-5.50000e-01	7.722768e+03	
12	-6.00000e-01	8.390173e+03	
13	-6.50000e-01	9.178893e+03	
14	-7.00000e-01	1.012478e+04	
15	-7.50000e-01	1.127891e+04	
16	-8.00000e-01	1.271626e+04	
17	-8.50000e-01	1.455042e+04	
18	-9.00000e-01	1.695924e+04	
19	-9.50000e-01	2.022973e+04	
20	-1.00000e+00	2.483290e+04	
21	-1.05000e+00	3.152782e+04	
22	-1.10000e+00	4.142343e+04	
23	-1.15000e+00	5.574594e+04	
24	-1.20000e+00	7.502585e+04	
25	-1.25000e+00	9.823811e+04	
26	-1.30000e+00	1.232021e+05	
27	-1.35000e+00	1.479667e+05	
28	-1.40000e+00	1.715500e+05	
29	-1.45000e+00	1.937466e+05	
30	-1.50000e+00	2.147075e+05	
31	-1.55000e+00	2.346745e+05	
32	-1.60000e+00	2.538723e+05	
33	-1.65000e+00	2.724794e+05	
34	-1.70000e+00	2.906298e+05	
35	-1.75000e+00	3.084219e+05	
36	-1.80000e+00	3.259276e+05	
37	-1.85000e+00	3.431997e+05	
38	-1.90000e+00	3.602775e+05	
39	-1.95000e+00	3.771903e+05	
40	-2.00000e+00	3.939604e+05	
41	-2.05000e+00	4.106049e+05	
42	-2.10000e+00	4.271371e+05	
43	-2.15000e+00	4.435676e+05	
44	-2.20000e+00	4.599046e+05	
45	-2.25000e+00	4.761548e+05	
46	-2.30000e+00	4.923238e+05	
47	-2.35000e+00	5.084159e+05	
48	-2.40000e+00	5.244348e+05	
49	-2.45000e+00	5.403838e+05	
50	-2.50000e+00	5.562652e+05	
51	-2.55000e+00	5.720812e+05	
52	-2.60000e+00	5.878335e+05	
53	-2.65000e+00	6.035232e+05	
54	-2.70000e+00	6.191508e+05	

Index   v-sweep         rds             
--------------------------------------------------------------------------------
55	-2.75000e+00	6.347162e+05	
56	-2.80000e+00	6.502178e+05	
57	-2.85000e+00	6.656528e+05	
58	-2.90000e+00	6.810156e+05	
59	-2.95000e+00	6.962978e+05	
60	-3.00000e+00	7.114865e+05	
61	-3.05000e+00	7.265628e+05	
62	-3.10000e+00	7.415004e+05	
63	-3.15000e+00	7.562631e+05	
64	-3.20000e+00	7.708026e+05	
65	-3.25000e+00	7.850554e+05	
66	-3.30000e+00	7.989403e+05	
Reset re-loads circuit ***************************

Circuit: ***************************

Doing analysis at TEMP = 25.000000 and TNOM = 25.000000


No. of Data Rows : 67
                          ***************************
                          DC transfer characteristic  Mon Jan  9 13:57:30  2023
--------------------------------------------------------------------------------
Index   v-sweep         rds             
--------------------------------------------------------------------------------
0	0.000000e+00	3.282670e+03	
1	-5.00000e-02	3.395305e+03	
2	-1.00000e-01	3.515384e+03	
3	-1.50000e-01	3.643669e+03	
4	-2.00000e-01	3.781030e+03	
5	-2.50000e-01	3.928465e+03	
6	-3.00000e-01	4.087123e+03	
7	-3.50000e-01	4.258334e+03	
8	-4.00000e-01	4.443646e+03	
9	-4.50000e-01	4.644874e+03	
10	-5.00000e-01	4.864156e+03	
11	-5.50000e-01	5.104031e+03	
12	-6.00000e-01	5.367535e+03	
13	-6.50000e-01	5.658331e+03	
14	-7.00000e-01	5.980874e+03	
15	-7.50000e-01	6.340641e+03	
16	-8.00000e-01	6.744436e+03	
17	-8.50000e-01	7.200815e+03	
18	-9.00000e-01	7.720676e+03	
19	-9.50000e-01	8.318108e+03	
20	-1.00000e+00	9.011621e+03	
21	-1.05000e+00	9.825966e+03	
22	-1.10000e+00	1.079489e+04	
23	-1.15000e+00	1.196539e+04	
24	-1.20000e+00	1.340431e+04	
25	-1.25000e+00	1.520880e+04	
26	-1.30000e+00	1.752237e+04	
27	-1.35000e+00	2.055834e+04	
28	-1.40000e+00	2.462783e+04	
29	-1.45000e+00	3.015398e+04	
30	-1.50000e+00	3.761877e+04	
31	-1.55000e+00	4.736687e+04	
32	-1.60000e+00	5.930368e+04	
33	-1.65000e+00	7.277960e+04	
34	-1.70000e+00	8.688824e+04	
35	-1.75000e+00	1.008997e+05	
36	-1.80000e+00	1.144372e+05	
37	-1.85000e+00	1.274008e+05	
38	-1.90000e+00	1.398305e+05	
39	-1.95000e+00	1.518128e+05	
40	-2.00000e+00	1.634363e+05	
41	-2.05000e+00	1.747761e+05	
42	-2.10000e+00	1.858916e+05	
43	-2.15000e+00	1.968279e+05	
44	-2.20000e+00	2.076191e+05	
45	-2.25000e+00	2.182909e+05	
46	-2.30000e+00	2.288629e+05	
47	-2.35000e+00	2.393498e+05	
48	-2.40000e+00	2.497631e+05	
49	-2.45000e+00	2.601115e+05	
50	-2.50000e+00	2.704022e+05	
51	-2.55000e+00	2.806406e+05	
52	-2.60000e+00	2.908312e+05	
53	-2.65000e+00	3.009775e+05	
54	-2.70000e+00	3.110823e+05	

Index   v-sweep         rds             
--------------------------------------------------------------------------------
55	-2.75000e+00	3.211482e+05	
56	-2.80000e+00	3.311771e+05	
57	-2.85000e+00	3.411706e+05	
58	-2.90000e+00	3.511302e+05	
59	-2.95000e+00	3.610568e+05	
60	-3.00000e+00	3.709513e+05	
61	-3.05000e+00	3.808143e+05	
62	-3.10000e+00	3.906458e+05	
63	-3.15000e+00	4.004455e+05	
64	-3.20000e+00	4.102121e+05	
65	-3.25000e+00	4.199432e+05	
66	-3.30000e+00	4.296351e+05	
Reset re-loads circuit ***************************

Circuit: ***************************

Doing analysis at TEMP = 25.000000 and TNOM = 25.000000


No. of Data Rows : 67
                          ***************************
                          DC transfer characteristic  Mon Jan  9 13:57:30  2023
--------------------------------------------------------------------------------
Index   v-sweep         rds             
--------------------------------------------------------------------------------
0	0.000000e+00	2.828308e+03	
1	-5.00000e-02	2.905056e+03	
2	-1.00000e-01	2.985736e+03	
3	-1.50000e-01	3.070658e+03	
4	-2.00000e-01	3.160165e+03	
5	-2.50000e-01	3.254639e+03	
6	-3.00000e-01	3.354504e+03	
7	-3.50000e-01	3.460234e+03	
8	-4.00000e-01	3.572361e+03	
9	-4.50000e-01	3.691484e+03	
10	-5.00000e-01	3.818277e+03	
11	-5.50000e-01	3.953504e+03	
12	-6.00000e-01	4.098036e+03	
13	-6.50000e-01	4.252864e+03	
14	-7.00000e-01	4.419129e+03	
15	-7.50000e-01	4.598143e+03	
16	-8.00000e-01	4.791429e+03	
17	-8.50000e-01	5.000760e+03	
18	-9.00000e-01	5.228215e+03	
19	-9.50000e-01	5.476248e+03	
20	-1.00000e+00	5.747774e+03	
21	-1.05000e+00	6.046281e+03	
22	-1.10000e+00	6.375983e+03	
23	-1.15000e+00	6.742008e+03	
24	-1.20000e+00	7.150663e+03	
25	-1.25000e+00	7.609785e+03	
26	-1.30000e+00	8.129227e+03	
27	-1.35000e+00	8.721526e+03	
28	-1.40000e+00	9.402860e+03	
29	-1.45000e+00	1.019440e+04	
30	-1.50000e+00	1.112427e+04	
31	-1.55000e+00	1.223042e+04	
32	-1.60000e+00	1.356479e+04	
33	-1.65000e+00	1.519923e+04	
34	-1.70000e+00	1.723362e+04	
35	-1.75000e+00	1.980524e+04	
36	-1.80000e+00	2.309566e+04	
37	-1.85000e+00	2.732345e+04	
38	-1.90000e+00	3.270166e+04	
39	-1.95000e+00	3.934442e+04	
40	-2.00000e+00	4.715795e+04	
41	-2.05000e+00	5.581855e+04	
42	-2.10000e+00	6.489486e+04	
43	-2.15000e+00	7.401800e+04	
44	-2.20000e+00	8.296714e+04	
45	-2.25000e+00	9.165484e+04	
46	-2.30000e+00	1.000743e+05	
47	-2.35000e+00	1.082545e+05	
48	-2.40000e+00	1.162341e+05	
49	-2.45000e+00	1.240500e+05	
50	-2.50000e+00	1.317336e+05	
51	-2.55000e+00	1.393098e+05	
52	-2.60000e+00	1.467980e+05	
53	-2.65000e+00	1.542135e+05	
54	-2.70000e+00	1.615677e+05	

Index   v-sweep         rds             
--------------------------------------------------------------------------------
55	-2.75000e+00	1.688698e+05	
56	-2.80000e+00	1.761268e+05	
57	-2.85000e+00	1.833441e+05	
58	-2.90000e+00	1.905262e+05	
59	-2.95000e+00	1.976764e+05	
60	-3.00000e+00	2.047977e+05	
61	-3.05000e+00	2.118923e+05	
62	-3.10000e+00	2.189620e+05	
63	-3.15000e+00	2.260083e+05	
64	-3.20000e+00	2.330325e+05	
65	-3.25000e+00	2.400357e+05	
66	-3.30000e+00	2.470186e+05	
Reset re-loads circuit ***************************

Circuit: ***************************

Note: No ".plot", ".print", or ".fourier" lines; no simulations run
