
Note: Compatibility modes selected: hs

Warning: m=xx on .subckt line will override multiplier m hierarchy!


Circuit: ***************************

Doing analysis at TEMP = 125.000000 and TNOM = 125.000000


No. of Data Rows : 67
                          ***************************
                          DC transfer characteristic  Mon Jan  9 13:57:32  2023
--------------------------------------------------------------------------------
Index   v-sweep         rds             
--------------------------------------------------------------------------------
0	0.000000e+00	1.416940e+06	
1	-5.00000e-02	2.274719e+06	
2	-1.00000e-01	4.994234e+06	
3	-1.50000e-01	1.807631e+07	
4	-2.00000e-01	7.308762e+07	
5	-2.50000e-01	2.154823e+08	
6	-3.00000e-01	4.645530e+08	
7	-3.50000e-01	7.982021e+08	
8	-4.00000e-01	1.172165e+09	
9	-4.50000e-01	1.546602e+09	
10	-5.00000e-01	1.897915e+09	
11	-5.50000e-01	2.216945e+09	
12	-6.00000e-01	2.503064e+09	
13	-6.50000e-01	2.759419e+09	
14	-7.00000e-01	2.990256e+09	
15	-7.50000e-01	3.199703e+09	
16	-8.00000e-01	3.391339e+09	
17	-8.50000e-01	3.568106e+09	
18	-9.00000e-01	3.732378e+09	
19	-9.50000e-01	3.886046e+09	
20	-1.00000e+00	4.030620e+09	
21	-1.05000e+00	4.167313e+09	
22	-1.10000e+00	4.297102e+09	
23	-1.15000e+00	4.420783e+09	
24	-1.20000e+00	4.539010e+09	
25	-1.25000e+00	4.652328e+09	
26	-1.30000e+00	4.761191e+09	
27	-1.35000e+00	4.865984e+09	
28	-1.40000e+00	4.967036e+09	
29	-1.45000e+00	5.064631e+09	
30	-1.50000e+00	5.159014e+09	
31	-1.55000e+00	5.250400e+09	
32	-1.60000e+00	5.338977e+09	
33	-1.65000e+00	5.424912e+09	
34	-1.70000e+00	5.508350e+09	
35	-1.75000e+00	5.589418e+09	
36	-1.80000e+00	5.668224e+09	
37	-1.85000e+00	5.744858e+09	
38	-1.90000e+00	5.819387e+09	
39	-1.95000e+00	5.891857e+09	
40	-2.00000e+00	5.962285e+09	
41	-2.05000e+00	6.030657e+09	
42	-2.10000e+00	6.096921e+09	
43	-2.15000e+00	6.160978e+09	
44	-2.20000e+00	6.222679e+09	
45	-2.25000e+00	6.281812e+09	
46	-2.30000e+00	6.338096e+09	
47	-2.35000e+00	6.391173e+09	
48	-2.40000e+00	6.440595e+09	
49	-2.45000e+00	6.485823e+09	
50	-2.50000e+00	6.526217e+09	
51	-2.55000e+00	6.561037e+09	
52	-2.60000e+00	6.589438e+09	
53	-2.65000e+00	6.610485e+09	
54	-2.70000e+00	6.623154e+09	

Index   v-sweep         rds             
--------------------------------------------------------------------------------
55	-2.75000e+00	6.626359e+09	
56	-2.80000e+00	6.618968e+09	
57	-2.85000e+00	6.599847e+09	
58	-2.90000e+00	6.567891e+09	
59	-2.95000e+00	6.522076e+09	
60	-3.00000e+00	6.461511e+09	
61	-3.05000e+00	6.385491e+09	
62	-3.10000e+00	6.293548e+09	
63	-3.15000e+00	6.185501e+09	
64	-3.20000e+00	6.061490e+09	
65	-3.25000e+00	5.921998e+09	
66	-3.30000e+00	5.767860e+09	
Reset re-loads circuit ***************************

Circuit: ***************************

Doing analysis at TEMP = 125.000000 and TNOM = 125.000000


No. of Data Rows : 67
                          ***************************
                          DC transfer characteristic  Mon Jan  9 13:57:32  2023
--------------------------------------------------------------------------------
Index   v-sweep         rds             
--------------------------------------------------------------------------------
0	0.000000e+00	3.227047e+05	
1	-5.00000e-02	3.625019e+05	
2	-1.00000e-01	4.133985e+05	
3	-1.50000e-01	4.807307e+05	
4	-2.00000e-01	5.738168e+05	
5	-2.50000e-01	7.103199e+05	
6	-3.00000e-01	9.273356e+05	
7	-3.50000e-01	1.312805e+06	
8	-4.00000e-01	2.100821e+06	
9	-4.50000e-01	3.935429e+06	
10	-5.00000e-01	8.312645e+06	
11	-5.50000e-01	1.753064e+07	
12	-6.00000e-01	3.342606e+07	
13	-6.50000e-01	5.600682e+07	
14	-7.00000e-01	8.346593e+07	
15	-7.50000e-01	1.133165e+08	
16	-8.00000e-01	1.434602e+08	
17	-8.50000e-01	1.725902e+08	
18	-9.00000e-01	2.000981e+08	
19	-9.50000e-01	2.258251e+08	
20	-1.00000e+00	2.498474e+08	
21	-1.05000e+00	2.723390e+08	
22	-1.10000e+00	2.934986e+08	
23	-1.15000e+00	3.135149e+08	
24	-1.20000e+00	3.325541e+08	
25	-1.25000e+00	3.507568e+08	
26	-1.30000e+00	3.682395e+08	
27	-1.35000e+00	3.850982e+08	
28	-1.40000e+00	4.014115e+08	
29	-1.45000e+00	4.172439e+08	
30	-1.50000e+00	4.326487e+08	
31	-1.55000e+00	4.476698e+08	
32	-1.60000e+00	4.623439e+08	
33	-1.65000e+00	4.767017e+08	
34	-1.70000e+00	4.907689e+08	
35	-1.75000e+00	5.045676e+08	
36	-1.80000e+00	5.181164e+08	
37	-1.85000e+00	5.314315e+08	
38	-1.90000e+00	5.445266e+08	
39	-1.95000e+00	5.574135e+08	
40	-2.00000e+00	5.701024e+08	
41	-2.05000e+00	5.826014e+08	
42	-2.10000e+00	5.949171e+08	
43	-2.15000e+00	6.070539e+08	
44	-2.20000e+00	6.190137e+08	
45	-2.25000e+00	6.307957e+08	
46	-2.30000e+00	6.423950e+08	
47	-2.35000e+00	6.538024e+08	
48	-2.40000e+00	6.650025e+08	
49	-2.45000e+00	6.759727e+08	
50	-2.50000e+00	6.866814e+08	
51	-2.55000e+00	6.970866e+08	
52	-2.60000e+00	7.071331e+08	
53	-2.65000e+00	7.167514e+08	
54	-2.70000e+00	7.258552e+08	

Index   v-sweep         rds             
--------------------------------------------------------------------------------
55	-2.75000e+00	7.343399e+08	
56	-2.80000e+00	7.420812e+08	
57	-2.85000e+00	7.489342e+08	
58	-2.90000e+00	7.547340e+08	
59	-2.95000e+00	7.592968e+08	
60	-3.00000e+00	7.624232e+08	
61	-3.05000e+00	7.639032e+08	
62	-3.10000e+00	7.635228e+08	
63	-3.15000e+00	7.610733e+08	
64	-3.20000e+00	7.563621e+08	
65	-3.25000e+00	7.492252e+08	
66	-3.30000e+00	7.395395e+08	
Reset re-loads circuit ***************************

Circuit: ***************************

Doing analysis at TEMP = 125.000000 and TNOM = 125.000000


No. of Data Rows : 67
                          ***************************
                          DC transfer characteristic  Mon Jan  9 13:57:32  2023
--------------------------------------------------------------------------------
Index   v-sweep         rds             
--------------------------------------------------------------------------------
0	0.000000e+00	1.868128e+05	
1	-5.00000e-02	1.991579e+05	
2	-1.00000e-01	2.132375e+05	
3	-1.50000e-01	2.294435e+05	
4	-2.00000e-01	2.482957e+05	
5	-2.50000e-01	2.704966e+05	
6	-3.00000e-01	2.970200e+05	
7	-3.50000e-01	3.292533e+05	
8	-4.00000e-01	3.692393e+05	
9	-4.50000e-01	4.201043e+05	
10	-5.00000e-01	4.868567e+05	
11	-5.50000e-01	5.779668e+05	
12	-6.00000e-01	7.086869e+05	
13	-6.50000e-01	9.084455e+05	
14	-7.00000e-01	1.237876e+06	
15	-7.50000e-01	1.826636e+06	
16	-8.00000e-01	2.941838e+06	
17	-8.50000e-01	5.050004e+06	
18	-9.00000e-01	8.738467e+06	
19	-9.50000e-01	1.442204e+07	
20	-1.00000e+00	2.205903e+07	
21	-1.05000e+00	3.115995e+07	
22	-1.10000e+00	4.104948e+07	
23	-1.15000e+00	5.113067e+07	
24	-1.20000e+00	6.100348e+07	
25	-1.25000e+00	7.045810e+07	
26	-1.30000e+00	7.941836e+07	
27	-1.35000e+00	8.788504e+07	
28	-1.40000e+00	9.589604e+07	
29	-1.45000e+00	1.035028e+08	
30	-1.50000e+00	1.107581e+08	
31	-1.55000e+00	1.177106e+08	
32	-1.60000e+00	1.244027e+08	
33	-1.65000e+00	1.308702e+08	
34	-1.70000e+00	1.371435e+08	
35	-1.75000e+00	1.432473e+08	
36	-1.80000e+00	1.492026e+08	
37	-1.85000e+00	1.550263e+08	
38	-1.90000e+00	1.607328e+08	
39	-1.95000e+00	1.663340e+08	
40	-2.00000e+00	1.718399e+08	
41	-2.05000e+00	1.772589e+08	
42	-2.10000e+00	1.825980e+08	
43	-2.15000e+00	1.878633e+08	
44	-2.20000e+00	1.930601e+08	
45	-2.25000e+00	1.981925e+08	
46	-2.30000e+00	2.032644e+08	
47	-2.35000e+00	2.082789e+08	
48	-2.40000e+00	2.132383e+08	
49	-2.45000e+00	2.181446e+08	
50	-2.50000e+00	2.229987e+08	
51	-2.55000e+00	2.278007e+08	
52	-2.60000e+00	2.325495e+08	
53	-2.65000e+00	2.372424e+08	
54	-2.70000e+00	2.418750e+08	

Index   v-sweep         rds             
--------------------------------------------------------------------------------
55	-2.75000e+00	2.464400e+08	
56	-2.80000e+00	2.509275e+08	
57	-2.85000e+00	2.553235e+08	
58	-2.90000e+00	2.596095e+08	
59	-2.95000e+00	2.637614e+08	
60	-3.00000e+00	2.677488e+08	
61	-3.05000e+00	2.715340e+08	
62	-3.10000e+00	2.750714e+08	
63	-3.15000e+00	2.783065e+08	
64	-3.20000e+00	2.811759e+08	
65	-3.25000e+00	2.836074e+08	
66	-3.30000e+00	2.855210e+08	
Reset re-loads circuit ***************************

Circuit: ***************************

Doing analysis at TEMP = 125.000000 and TNOM = 125.000000


No. of Data Rows : 67
                          ***************************
                          DC transfer characteristic  Mon Jan  9 13:57:32  2023
--------------------------------------------------------------------------------
Index   v-sweep         rds             
--------------------------------------------------------------------------------
0	0.000000e+00	1.350195e+05	
1	-5.00000e-02	1.410100e+05	
2	-1.00000e-01	1.475520e+05	
3	-1.50000e-01	1.547250e+05	
4	-2.00000e-01	1.626249e+05	
5	-2.50000e-01	1.713680e+05	
6	-3.00000e-01	1.810967e+05	
7	-3.50000e-01	1.919871e+05	
8	-4.00000e-01	2.042599e+05	
9	-4.50000e-01	2.181954e+05	
10	-5.00000e-01	2.341543e+05	
11	-5.50000e-01	2.526096e+05	
12	-6.00000e-01	2.741920e+05	
13	-6.50000e-01	2.997619e+05	
14	-7.00000e-01	3.305215e+05	
15	-7.50000e-01	3.681985e+05	
16	-8.00000e-01	4.153576e+05	
17	-8.50000e-01	4.759486e+05	
18	-9.00000e-01	5.563137e+05	
19	-9.50000e-01	6.671107e+05	
20	-1.00000e+00	8.270968e+05	
21	-1.05000e+00	1.070589e+06	
22	-1.10000e+00	1.461332e+06	
23	-1.15000e+00	2.113626e+06	
24	-1.20000e+00	3.209336e+06	
25	-1.25000e+00	4.976560e+06	
26	-1.30000e+00	7.601941e+06	
27	-1.35000e+00	1.112116e+07	
28	-1.40000e+00	1.538430e+07	
29	-1.45000e+00	2.012583e+07	
30	-1.50000e+00	2.507184e+07	
31	-1.55000e+00	3.001129e+07	
32	-1.60000e+00	3.481423e+07	
33	-1.65000e+00	3.941781e+07	
34	-1.70000e+00	4.380342e+07	
35	-1.75000e+00	4.797729e+07	
36	-1.80000e+00	5.195734e+07	
37	-1.85000e+00	5.576550e+07	
38	-1.90000e+00	5.942372e+07	
39	-1.95000e+00	6.295212e+07	
40	-2.00000e+00	6.636830e+07	
41	-2.05000e+00	6.968735e+07	
42	-2.10000e+00	7.292194e+07	
43	-2.15000e+00	7.608272e+07	
44	-2.20000e+00	7.917858e+07	
45	-2.25000e+00	8.221694e+07	
46	-2.30000e+00	8.520402e+07	
47	-2.35000e+00	8.814503e+07	
48	-2.40000e+00	9.104436e+07	
49	-2.45000e+00	9.390574e+07	
50	-2.50000e+00	9.673232e+07	
51	-2.55000e+00	9.952678e+07	
52	-2.60000e+00	1.022914e+08	
53	-2.65000e+00	1.050281e+08	
54	-2.70000e+00	1.077386e+08	

Index   v-sweep         rds             
--------------------------------------------------------------------------------
55	-2.75000e+00	1.104240e+08	
56	-2.80000e+00	1.130854e+08	
57	-2.85000e+00	1.157233e+08	
58	-2.90000e+00	1.183379e+08	
59	-2.95000e+00	1.209287e+08	
60	-3.00000e+00	1.234943e+08	
61	-3.05000e+00	1.260327e+08	
62	-3.10000e+00	1.285404e+08	
63	-3.15000e+00	1.310123e+08	
64	-3.20000e+00	1.334415e+08	
65	-3.25000e+00	1.358185e+08	
66	-3.30000e+00	1.381311e+08	
Reset re-loads circuit ***************************

Circuit: ***************************

Doing analysis at TEMP = 125.000000 and TNOM = 125.000000


No. of Data Rows : 67
                          ***************************
                          DC transfer characteristic  Mon Jan  9 13:57:32  2023
--------------------------------------------------------------------------------
Index   v-sweep         rds             
--------------------------------------------------------------------------------
0	0.000000e+00	1.077533e+05	
1	-5.00000e-02	1.113026e+05	
2	-1.00000e-01	1.150910e+05	
3	-1.50000e-01	1.191436e+05	
4	-2.00000e-01	1.234890e+05	
5	-2.50000e-01	1.281601e+05	
6	-3.00000e-01	1.331949e+05	
7	-3.50000e-01	1.386375e+05	
8	-4.00000e-01	1.445396e+05	
9	-4.50000e-01	1.509619e+05	
10	-5.00000e-01	1.579761e+05	
11	-5.50000e-01	1.656679e+05	
12	-6.00000e-01	1.741404e+05	
13	-6.50000e-01	1.835182e+05	
14	-7.00000e-01	1.939545e+05	
15	-7.50000e-01	2.056382e+05	
16	-8.00000e-01	2.188064e+05	
17	-8.50000e-01	2.337594e+05	
18	-9.00000e-01	2.508838e+05	
19	-9.50000e-01	2.706849e+05	
20	-1.00000e+00	2.938358e+05	
21	-1.05000e+00	3.212509e+05	
22	-1.10000e+00	3.542015e+05	
23	-1.15000e+00	3.945013e+05	
24	-1.20000e+00	4.448129e+05	
25	-1.25000e+00	5.091708e+05	
26	-1.30000e+00	5.938964e+05	
27	-1.35000e+00	7.092319e+05	
28	-1.40000e+00	8.722512e+05	
29	-1.45000e+00	1.111836e+06	
30	-1.50000e+00	1.476151e+06	
31	-1.55000e+00	2.040508e+06	
32	-1.60000e+00	2.907201e+06	
33	-1.65000e+00	4.183911e+06	
34	-1.70000e+00	5.939040e+06	
35	-1.75000e+00	8.160812e+06	
36	-1.80000e+00	1.075483e+07	
37	-1.85000e+00	1.358192e+07	
38	-1.90000e+00	1.650560e+07	
39	-1.95000e+00	1.942166e+07	
40	-2.00000e+00	2.226507e+07	
41	-2.05000e+00	2.500329e+07	
42	-2.10000e+00	2.762576e+07	
43	-2.15000e+00	3.013472e+07	
44	-2.20000e+00	3.253873e+07	
45	-2.25000e+00	3.484884e+07	
46	-2.30000e+00	3.707640e+07	
47	-2.35000e+00	3.923202e+07	
48	-2.40000e+00	4.132515e+07	
49	-2.45000e+00	4.336397e+07	
50	-2.50000e+00	4.535546e+07	
51	-2.55000e+00	4.730553e+07	
52	-2.60000e+00	4.921914e+07	
53	-2.65000e+00	5.110048e+07	
54	-2.70000e+00	5.295306e+07	

Index   v-sweep         rds             
--------------------------------------------------------------------------------
55	-2.75000e+00	5.477985e+07	
56	-2.80000e+00	5.658336e+07	
57	-2.85000e+00	5.836574e+07	
58	-2.90000e+00	6.012878e+07	
59	-2.95000e+00	6.187404e+07	
60	-3.00000e+00	6.360282e+07	
61	-3.05000e+00	6.531624e+07	
62	-3.10000e+00	6.701521e+07	
63	-3.15000e+00	6.870045e+07	
64	-3.20000e+00	7.037247e+07	
65	-3.25000e+00	7.203154e+07	
66	-3.30000e+00	7.367762e+07	
Reset re-loads circuit ***************************

Circuit: ***************************

Doing analysis at TEMP = 125.000000 and TNOM = 125.000000


No. of Data Rows : 67
                          ***************************
                          DC transfer characteristic  Mon Jan  9 13:57:32  2023
--------------------------------------------------------------------------------
Index   v-sweep         rds             
--------------------------------------------------------------------------------
0	0.000000e+00	9.093944e+04	
1	-5.00000e-02	9.329334e+04	
2	-1.00000e-01	9.577071e+04	
3	-1.50000e-01	9.838154e+04	
4	-2.00000e-01	1.011369e+05	
5	-2.50000e-01	1.040491e+05	
6	-3.00000e-01	1.071320e+05	
7	-3.50000e-01	1.104010e+05	
8	-4.00000e-01	1.138734e+05	
9	-4.50000e-01	1.175689e+05	
10	-5.00000e-01	1.215097e+05	
11	-5.50000e-01	1.257209e+05	
12	-6.00000e-01	1.302314e+05	
13	-6.50000e-01	1.350743e+05	
14	-7.00000e-01	1.402876e+05	
15	-7.50000e-01	1.459155e+05	
16	-8.00000e-01	1.520093e+05	
17	-8.50000e-01	1.586294e+05	
18	-9.00000e-01	1.658469e+05	
19	-9.50000e-01	1.737462e+05	
20	-1.00000e+00	1.824285e+05	
21	-1.05000e+00	1.920158e+05	
22	-1.10000e+00	2.026567e+05	
23	-1.15000e+00	2.145341e+05	
24	-1.20000e+00	2.278756e+05	
25	-1.25000e+00	2.429672e+05	
26	-1.30000e+00	2.601741e+05	
27	-1.35000e+00	2.799689e+05	
28	-1.40000e+00	3.029731e+05	
29	-1.45000e+00	3.300194e+05	
30	-1.50000e+00	3.622458e+05	
31	-1.55000e+00	4.012418e+05	
32	-1.60000e+00	4.492822e+05	
33	-1.65000e+00	5.097055e+05	
34	-1.70000e+00	5.875399e+05	
35	-1.75000e+00	6.905438e+05	
36	-1.80000e+00	8.309064e+05	
37	-1.85000e+00	1.027874e+06	
38	-1.90000e+00	1.311253e+06	
39	-1.95000e+00	1.724532e+06	
40	-2.00000e+00	2.323936e+06	
41	-2.05000e+00	3.168033e+06	
42	-2.10000e+00	4.296856e+06	
43	-2.15000e+00	5.710723e+06	
44	-2.20000e+00	7.364726e+06	
45	-2.25000e+00	9.183884e+06	
46	-2.30000e+00	1.108760e+07	
47	-2.35000e+00	1.300864e+07	
48	-2.40000e+00	1.490083e+07	
49	-2.45000e+00	1.673777e+07	
50	-2.50000e+00	1.850786e+07	
51	-2.55000e+00	2.020894e+07	
52	-2.60000e+00	2.184414e+07	
53	-2.65000e+00	2.341911e+07	
54	-2.70000e+00	2.494032e+07	

Index   v-sweep         rds             
--------------------------------------------------------------------------------
55	-2.75000e+00	2.641420e+07	
56	-2.80000e+00	2.784668e+07	
57	-2.85000e+00	2.924304e+07	
58	-2.90000e+00	3.060784e+07	
59	-2.95000e+00	3.194500e+07	
60	-3.00000e+00	3.325786e+07	
61	-3.05000e+00	3.454924e+07	
62	-3.10000e+00	3.582153e+07	
63	-3.15000e+00	3.707676e+07	
64	-3.20000e+00	3.831666e+07	
65	-3.25000e+00	3.954268e+07	
66	-3.30000e+00	4.075607e+07	
Reset re-loads circuit ***************************

Circuit: ***************************

Note: No ".plot", ".print", or ".fourier" lines; no simulations run
