
Note: Compatibility modes selected: hs

Warning: m=xx on .subckt line will override multiplier m hierarchy!


Circuit: ***************************

Doing analysis at TEMP = -40.000000 and TNOM = -40.000000


No. of Data Rows : 67
                          ***************************
                          DC transfer characteristic  Mon Jan  9 13:57:31  2023
--------------------------------------------------------------------------------
Index   v-sweep         rds             
--------------------------------------------------------------------------------
0	0.000000e+00	2.405561e+07	
1	-5.00000e-02	2.336988e+08	
2	-1.00000e-01	2.192218e+09	
3	-1.50000e-01	8.185675e+09	
4	-2.00000e-01	1.819567e+10	
5	-2.50000e-01	3.006734e+10	
6	-3.00000e-01	4.166344e+10	
7	-3.50000e-01	5.193229e+10	
8	-4.00000e-01	6.066741e+10	
9	-4.50000e-01	6.803056e+10	
10	-5.00000e-01	7.427294e+10	
11	-5.50000e-01	7.962753e+10	
12	-6.00000e-01	8.428194e+10	
13	-6.50000e-01	8.837986e+10	
14	-7.00000e-01	9.202966e+10	
15	-7.50000e-01	9.531323e+10	
16	-8.00000e-01	9.829296e+10	
17	-8.50000e-01	1.010170e+11	
18	-9.00000e-01	1.035232e+11	
19	-9.50000e-01	1.058414e+11	
20	-1.00000e+00	1.079957e+11	
21	-1.05000e+00	1.100060e+11	
22	-1.10000e+00	1.118885e+11	
23	-1.15000e+00	1.136568e+11	
24	-1.20000e+00	1.153225e+11	
25	-1.25000e+00	1.168955e+11	
26	-1.30000e+00	1.183841e+11	
27	-1.35000e+00	1.197957e+11	
28	-1.40000e+00	1.211368e+11	
29	-1.45000e+00	1.224130e+11	
30	-1.50000e+00	1.236293e+11	
31	-1.55000e+00	1.247900e+11	
32	-1.60000e+00	1.258992e+11	
33	-1.65000e+00	1.269603e+11	
34	-1.70000e+00	1.279764e+11	
35	-1.75000e+00	1.289502e+11	
36	-1.80000e+00	1.298841e+11	
37	-1.85000e+00	1.307799e+11	
38	-1.90000e+00	1.316394e+11	
39	-1.95000e+00	1.324636e+11	
40	-2.00000e+00	1.332534e+11	
41	-2.05000e+00	1.340090e+11	
42	-2.10000e+00	1.347301e+11	
43	-2.15000e+00	1.354160e+11	
44	-2.20000e+00	1.360650e+11	
45	-2.25000e+00	1.366752e+11	
46	-2.30000e+00	1.372434e+11	
47	-2.35000e+00	1.377660e+11	
48	-2.40000e+00	1.382383e+11	
49	-2.45000e+00	1.386547e+11	
50	-2.50000e+00	1.390089e+11	
51	-2.55000e+00	1.392934e+11	
52	-2.60000e+00	1.394999e+11	
53	-2.65000e+00	1.396194e+11	
54	-2.70000e+00	1.396418e+11	

Index   v-sweep         rds             
--------------------------------------------------------------------------------
55	-2.75000e+00	1.395565e+11	
56	-2.80000e+00	1.393525e+11	
57	-2.85000e+00	1.390184e+11	
58	-2.90000e+00	1.385428e+11	
59	-2.95000e+00	1.379144e+11	
60	-3.00000e+00	1.371226e+11	
61	-3.05000e+00	1.361575e+11	
62	-3.10000e+00	1.350106e+11	
63	-3.15000e+00	1.336749e+11	
64	-3.20000e+00	1.321454e+11	
65	-3.25000e+00	1.304192e+11	
66	-3.30000e+00	1.284961e+11	
Reset re-loads circuit ***************************

Circuit: ***************************

Doing analysis at TEMP = -40.000000 and TNOM = -40.000000


No. of Data Rows : 67
                          ***************************
                          DC transfer characteristic  Mon Jan  9 13:57:31  2023
--------------------------------------------------------------------------------
Index   v-sweep         rds             
--------------------------------------------------------------------------------
0	0.000000e+00	9.015226e+05	
1	-5.00000e-02	1.063906e+06	
2	-1.00000e-01	1.296426e+06	
3	-1.50000e-01	1.655230e+06	
4	-2.00000e-01	2.272002e+06	
5	-2.50000e-01	3.511146e+06	
6	-3.00000e-01	6.538847e+06	
7	-3.50000e-01	1.494841e+07	
8	-4.00000e-01	3.625142e+07	
9	-4.50000e-01	7.807526e+07	
10	-5.00000e-01	1.414068e+08	
11	-5.50000e-01	2.201351e+08	
12	-6.00000e-01	3.060458e+08	
13	-6.50000e-01	3.928203e+08	
14	-7.00000e-01	4.769408e+08	
15	-7.50000e-01	5.569705e+08	
16	-8.00000e-01	6.326338e+08	
17	-8.50000e-01	7.041856e+08	
18	-9.00000e-01	7.720672e+08	
19	-9.50000e-01	8.367457e+08	
20	-1.00000e+00	8.986481e+08	
21	-1.05000e+00	9.581415e+08	
22	-1.10000e+00	1.015532e+09	
23	-1.15000e+00	1.071074e+09	
24	-1.20000e+00	1.124974e+09	
25	-1.25000e+00	1.177403e+09	
26	-1.30000e+00	1.228504e+09	
27	-1.35000e+00	1.278392e+09	
28	-1.40000e+00	1.327168e+09	
29	-1.45000e+00	1.374914e+09	
30	-1.50000e+00	1.421700e+09	
31	-1.55000e+00	1.467588e+09	
32	-1.60000e+00	1.512631e+09	
33	-1.65000e+00	1.556872e+09	
34	-1.70000e+00	1.600354e+09	
35	-1.75000e+00	1.643111e+09	
36	-1.80000e+00	1.685174e+09	
37	-1.85000e+00	1.726569e+09	
38	-1.90000e+00	1.767322e+09	
39	-1.95000e+00	1.807450e+09	
40	-2.00000e+00	1.846970e+09	
41	-2.05000e+00	1.885890e+09	
42	-2.10000e+00	1.924214e+09	
43	-2.15000e+00	1.961937e+09	
44	-2.20000e+00	1.999043e+09	
45	-2.25000e+00	2.035503e+09	
46	-2.30000e+00	2.071270e+09	
47	-2.35000e+00	2.106279e+09	
48	-2.40000e+00	2.140438e+09	
49	-2.45000e+00	2.173625e+09	
50	-2.50000e+00	2.205682e+09	
51	-2.55000e+00	2.236411e+09	
52	-2.60000e+00	2.265569e+09	
53	-2.65000e+00	2.292862e+09	
54	-2.70000e+00	2.317940e+09	

Index   v-sweep         rds             
--------------------------------------------------------------------------------
55	-2.75000e+00	2.340401e+09	
56	-2.80000e+00	2.359785e+09	
57	-2.85000e+00	2.375581e+09	
58	-2.90000e+00	2.387235e+09	
59	-2.95000e+00	2.394161e+09	
60	-3.00000e+00	2.395758e+09	
61	-3.05000e+00	2.391434e+09	
62	-3.10000e+00	2.380634e+09	
63	-3.15000e+00	2.362868e+09	
64	-3.20000e+00	2.337749e+09	
65	-3.25000e+00	2.305021e+09	
66	-3.30000e+00	2.264590e+09	
Reset re-loads circuit ***************************

Circuit: ***************************

Doing analysis at TEMP = -40.000000 and TNOM = -40.000000


No. of Data Rows : 67
                          ***************************
                          DC transfer characteristic  Mon Jan  9 13:57:31  2023
--------------------------------------------------------------------------------
Index   v-sweep         rds             
--------------------------------------------------------------------------------
0	0.000000e+00	4.455954e+05	
1	-5.00000e-02	4.818772e+05	
2	-1.00000e-01	5.245206e+05	
3	-1.50000e-01	5.753523e+05	
4	-2.00000e-01	6.369670e+05	
5	-2.50000e-01	7.131729e+05	
6	-3.00000e-01	8.097808e+05	
7	-3.50000e-01	9.360806e+05	
8	-4.00000e-01	1.107782e+06	
9	-4.50000e-01	1.353297e+06	
10	-5.00000e-01	1.728182e+06	
11	-5.50000e-01	2.350342e+06	
12	-6.00000e-01	3.486063e+06	
13	-6.50000e-01	5.729423e+06	
14	-7.00000e-01	1.020388e+07	
15	-7.50000e-01	1.836206e+07	
16	-8.00000e-01	3.110273e+07	
17	-8.50000e-01	4.805161e+07	
18	-9.00000e-01	6.785989e+07	
19	-9.50000e-01	8.902689e+07	
20	-1.00000e+00	1.104339e+08	
21	-1.05000e+00	1.314367e+08	
22	-1.10000e+00	1.517444e+08	
23	-1.15000e+00	1.712748e+08	
24	-1.20000e+00	1.900492e+08	
25	-1.25000e+00	2.081326e+08	
26	-1.30000e+00	2.256023e+08	
27	-1.35000e+00	2.425333e+08	
28	-1.40000e+00	2.589928e+08	
29	-1.45000e+00	2.750386e+08	
30	-1.50000e+00	2.907195e+08	
31	-1.55000e+00	3.060762e+08	
32	-1.60000e+00	3.211427e+08	
33	-1.65000e+00	3.359474e+08	
34	-1.70000e+00	3.505138e+08	
35	-1.75000e+00	3.648620e+08	
36	-1.80000e+00	3.790086e+08	
37	-1.85000e+00	3.929679e+08	
38	-1.90000e+00	4.067521e+08	
39	-1.95000e+00	4.203717e+08	
40	-2.00000e+00	4.338355e+08	
41	-2.05000e+00	4.471515e+08	
42	-2.10000e+00	4.603264e+08	
43	-2.15000e+00	4.733659e+08	
44	-2.20000e+00	4.862750e+08	
45	-2.25000e+00	4.990575e+08	
46	-2.30000e+00	5.117164e+08	
47	-2.35000e+00	5.242532e+08	
48	-2.40000e+00	5.366677e+08	
49	-2.45000e+00	5.489576e+08	
50	-2.50000e+00	5.611179e+08	
51	-2.55000e+00	5.731396e+08	
52	-2.60000e+00	5.850092e+08	
53	-2.65000e+00	5.967071e+08	
54	-2.70000e+00	6.082062e+08	

Index   v-sweep         rds             
--------------------------------------------------------------------------------
55	-2.75000e+00	6.194701e+08	
56	-2.80000e+00	6.304513e+08	
57	-2.85000e+00	6.410894e+08	
58	-2.90000e+00	6.513088e+08	
59	-2.95000e+00	6.610171e+08	
60	-3.00000e+00	6.701030e+08	
61	-3.05000e+00	6.784357e+08	
62	-3.10000e+00	6.858640e+08	
63	-3.15000e+00	6.922172e+08	
64	-3.20000e+00	6.973070e+08	
65	-3.25000e+00	7.009313e+08	
66	-3.30000e+00	7.028796e+08	
Reset re-loads circuit ***************************

Circuit: ***************************

Doing analysis at TEMP = -40.000000 and TNOM = -40.000000


No. of Data Rows : 67
                          ***************************
                          DC transfer characteristic  Mon Jan  9 13:57:31  2023
--------------------------------------------------------------------------------
Index   v-sweep         rds             
--------------------------------------------------------------------------------
0	0.000000e+00	3.029779e+05	
1	-5.00000e-02	3.186486e+05	
2	-1.00000e-01	3.360052e+05	
3	-1.50000e-01	3.553347e+05	
4	-2.00000e-01	3.769933e+05	
5	-2.50000e-01	4.014279e+05	
6	-3.00000e-01	4.292074e+05	
7	-3.50000e-01	4.610665e+05	
8	-4.00000e-01	4.979708e+05	
9	-4.50000e-01	5.412145e+05	
10	-5.00000e-01	5.925705e+05	
11	-5.50000e-01	6.545311e+05	
12	-6.00000e-01	7.307049e+05	
13	-6.50000e-01	8.264978e+05	
14	-7.00000e-01	9.503363e+05	
15	-7.50000e-01	1.115962e+06	
16	-8.00000e-01	1.346936e+06	
17	-8.50000e-01	1.685788e+06	
18	-9.00000e-01	2.212651e+06	
19	-9.50000e-01	3.080498e+06	
20	-1.00000e+00	4.566079e+06	
21	-1.05000e+00	7.092491e+06	
22	-1.10000e+00	1.112035e+07	
23	-1.15000e+00	1.689198e+07	
24	-1.20000e+00	2.425293e+07	
25	-1.25000e+00	3.274400e+07	
26	-1.30000e+00	4.184180e+07	
27	-1.35000e+00	5.113172e+07	
28	-1.40000e+00	6.035337e+07	
29	-1.45000e+00	6.937251e+07	
30	-1.50000e+00	7.813617e+07	
31	-1.55000e+00	8.663640e+07	
32	-1.60000e+00	9.488707e+07	
33	-1.65000e+00	1.029108e+08	
34	-1.70000e+00	1.107321e+08	
35	-1.75000e+00	1.183743e+08	
36	-1.80000e+00	1.258584e+08	
37	-1.85000e+00	1.332025e+08	
38	-1.90000e+00	1.404221e+08	
39	-1.95000e+00	1.475302e+08	
40	-2.00000e+00	1.545380e+08	
41	-2.05000e+00	1.614546e+08	
42	-2.10000e+00	1.682879e+08	
43	-2.15000e+00	1.750448e+08	
44	-2.20000e+00	1.817307e+08	
45	-2.25000e+00	1.883505e+08	
46	-2.30000e+00	1.949085e+08	
47	-2.35000e+00	2.014082e+08	
48	-2.40000e+00	2.078527e+08	
49	-2.45000e+00	2.142446e+08	
50	-2.50000e+00	2.205862e+08	
51	-2.55000e+00	2.268794e+08	
52	-2.60000e+00	2.331257e+08	
53	-2.65000e+00	2.393259e+08	
54	-2.70000e+00	2.454805e+08	

Index   v-sweep         rds             
--------------------------------------------------------------------------------
55	-2.75000e+00	2.515890e+08	
56	-2.80000e+00	2.576500e+08	
57	-2.85000e+00	2.636606e+08	
58	-2.90000e+00	2.696162e+08	
59	-2.95000e+00	2.755098e+08	
60	-3.00000e+00	2.813314e+08	
61	-3.05000e+00	2.870673e+08	
62	-3.10000e+00	2.926990e+08	
63	-3.15000e+00	2.982026e+08	
64	-3.20000e+00	3.035475e+08	
65	-3.25000e+00	3.086952e+08	
66	-3.30000e+00	3.135988e+08	
Reset re-loads circuit ***************************

Circuit: ***************************

Doing analysis at TEMP = -40.000000 and TNOM = -40.000000


No. of Data Rows : 67
                          ***************************
                          DC transfer characteristic  Mon Jan  9 13:57:31  2023
--------------------------------------------------------------------------------
Index   v-sweep         rds             
--------------------------------------------------------------------------------
0	0.000000e+00	2.345240e+05	
1	-5.00000e-02	2.432973e+05	
2	-1.00000e-01	2.527406e+05	
3	-1.50000e-01	2.629336e+05	
4	-2.00000e-01	2.739693e+05	
5	-2.50000e-01	2.859564e+05	
6	-3.00000e-01	2.990236e+05	
7	-3.50000e-01	3.133233e+05	
8	-4.00000e-01	3.290384e+05	
9	-4.50000e-01	3.463896e+05	
10	-5.00000e-01	3.656458e+05	
11	-5.50000e-01	3.871381e+05	
12	-6.00000e-01	4.112787e+05	
13	-6.50000e-01	4.385869e+05	
14	-7.00000e-01	4.697268e+05	
15	-7.50000e-01	5.055600e+05	
16	-8.00000e-01	5.472241e+05	
17	-8.50000e-01	5.962513e+05	
18	-9.00000e-01	6.547508e+05	
19	-9.50000e-01	7.256998e+05	
20	-1.00000e+00	8.134210e+05	
21	-1.05000e+00	9.243916e+05	
22	-1.10000e+00	1.068659e+06	
23	-1.15000e+00	1.262381e+06	
24	-1.20000e+00	1.532444e+06	
25	-1.25000e+00	1.924689e+06	
26	-1.30000e+00	2.517267e+06	
27	-1.35000e+00	3.437135e+06	
28	-1.40000e+00	4.865509e+06	
29	-1.45000e+00	7.002643e+06	
30	-1.50000e+00	9.980495e+06	
31	-1.55000e+00	1.378026e+07	
32	-1.60000e+00	1.823449e+07	
33	-1.65000e+00	2.310858e+07	
34	-1.70000e+00	2.818638e+07	
35	-1.75000e+00	3.331174e+07	
36	-1.80000e+00	3.839029e+07	
37	-1.85000e+00	4.337399e+07	
38	-1.90000e+00	4.824403e+07	
39	-1.95000e+00	5.299797e+07	
40	-2.00000e+00	5.764156e+07	
41	-2.05000e+00	6.218398e+07	
42	-2.10000e+00	6.663530e+07	
43	-2.15000e+00	7.100527e+07	
44	-2.20000e+00	7.530275e+07	
45	-2.25000e+00	7.953554e+07	
46	-2.30000e+00	8.371040e+07	
47	-2.35000e+00	8.783310e+07	
48	-2.40000e+00	9.190860e+07	
49	-2.45000e+00	9.594109e+07	
50	-2.50000e+00	9.993417e+07	
51	-2.55000e+00	1.038909e+08	
52	-2.60000e+00	1.078139e+08	
53	-2.65000e+00	1.117055e+08	
54	-2.70000e+00	1.155676e+08	

Index   v-sweep         rds             
--------------------------------------------------------------------------------
55	-2.75000e+00	1.194019e+08	
56	-2.80000e+00	1.232097e+08	
57	-2.85000e+00	1.269925e+08	
58	-2.90000e+00	1.307511e+08	
59	-2.95000e+00	1.344865e+08	
60	-3.00000e+00	1.381990e+08	
61	-3.05000e+00	1.418891e+08	
62	-3.10000e+00	1.455565e+08	
63	-3.15000e+00	1.492005e+08	
64	-3.20000e+00	1.528196e+08	
65	-3.25000e+00	1.564115e+08	
66	-3.30000e+00	1.599725e+08	
Reset re-loads circuit ***************************

Circuit: ***************************

Doing analysis at TEMP = -40.000000 and TNOM = -40.000000


No. of Data Rows : 67
                          ***************************
                          DC transfer characteristic  Mon Jan  9 13:57:32  2023
--------------------------------------------------------------------------------
Index   v-sweep         rds             
--------------------------------------------------------------------------------
0	0.000000e+00	1.950194e+05	
1	-5.00000e-02	2.006710e+05	
2	-1.00000e-01	2.066526e+05	
3	-1.50000e-01	2.129942e+05	
4	-2.00000e-01	2.197292e+05	
5	-2.50000e-01	2.268953e+05	
6	-3.00000e-01	2.345353e+05	
7	-3.50000e-01	2.426978e+05	
8	-4.00000e-01	2.514382e+05	
9	-4.50000e-01	2.608201e+05	
10	-5.00000e-01	2.709168e+05	
11	-5.50000e-01	2.818131e+05	
12	-6.00000e-01	2.936077e+05	
13	-6.50000e-01	3.064164e+05	
14	-7.00000e-01	3.203757e+05	
15	-7.50000e-01	3.356474e+05	
16	-8.00000e-01	3.524253e+05	
17	-8.50000e-01	3.709433e+05	
18	-9.00000e-01	3.914857e+05	
19	-9.50000e-01	4.144024e+05	
20	-1.00000e+00	4.401280e+05	
21	-1.05000e+00	4.692091e+05	
22	-1.10000e+00	5.023425e+05	
23	-1.15000e+00	5.404295e+05	
24	-1.20000e+00	5.846552e+05	
25	-1.25000e+00	6.366065e+05	
26	-1.30000e+00	6.984522e+05	
27	-1.35000e+00	7.732232e+05	
28	-1.40000e+00	8.652610e+05	
29	-1.45000e+00	9.809490e+05	
30	-1.50000e+00	1.129928e+06	
31	-1.55000e+00	1.327128e+06	
32	-1.60000e+00	1.596094e+06	
33	-1.65000e+00	1.974076e+06	
34	-1.70000e+00	2.518487e+06	
35	-1.75000e+00	3.311328e+06	
36	-1.80000e+00	4.452873e+06	
37	-1.85000e+00	6.034878e+06	
38	-1.90000e+00	8.099212e+06	
39	-1.95000e+00	1.061127e+07	
40	-2.00000e+00	1.347240e+07	
41	-2.05000e+00	1.655971e+07	
42	-2.10000e+00	1.976274e+07	
43	-2.15000e+00	2.300062e+07	
44	-2.20000e+00	2.622255e+07	
45	-2.25000e+00	2.940090e+07	
46	-2.30000e+00	3.252325e+07	
47	-2.35000e+00	3.558622e+07	
48	-2.40000e+00	3.859129e+07	
49	-2.45000e+00	4.154222e+07	
50	-2.50000e+00	4.444368e+07	
51	-2.55000e+00	4.730042e+07	
52	-2.60000e+00	5.011694e+07	
53	-2.65000e+00	5.289729e+07	
54	-2.70000e+00	5.564505e+07	

Index   v-sweep         rds             
--------------------------------------------------------------------------------
55	-2.75000e+00	5.836335e+07	
56	-2.80000e+00	6.105489e+07	
57	-2.85000e+00	6.372199e+07	
58	-2.90000e+00	6.636666e+07	
59	-2.95000e+00	6.899062e+07	
60	-3.00000e+00	7.159535e+07	
61	-3.05000e+00	7.418215e+07	
62	-3.10000e+00	7.675213e+07	
63	-3.15000e+00	7.930624e+07	
64	-3.20000e+00	8.184532e+07	
65	-3.25000e+00	8.437007e+07	
66	-3.30000e+00	8.688106e+07	
Reset re-loads circuit ***************************

Circuit: ***************************

Note: No ".plot", ".print", or ".fourier" lines; no simulations run
