
Note: Compatibility modes selected: hs

Warning: m=xx on .subckt line will override multiplier m hierarchy!


Circuit: ***************************

Doing analysis at TEMP = 125.000000 and TNOM = 125.000000


No. of Data Rows : 67
                          ***************************
                          DC transfer characteristic  Mon Jan  9 13:57:32  2023
--------------------------------------------------------------------------------
Index   v-sweep         rds             
--------------------------------------------------------------------------------
0	0.000000e+00	9.201740e+04	
1	-5.00000e-02	1.154123e+05	
2	-1.00000e-01	1.535092e+05	
3	-1.50000e-01	2.245301e+05	
4	-2.00000e-01	3.828453e+05	
5	-2.50000e-01	7.688791e+05	
6	-3.00000e-01	1.445119e+06	
7	-3.50000e-01	2.063403e+06	
8	-4.00000e-01	2.434450e+06	
9	-4.50000e-01	2.645489e+06	
10	-5.00000e-01	2.779241e+06	
11	-5.50000e-01	2.875094e+06	
12	-6.00000e-01	2.950417e+06	
13	-6.50000e-01	3.013270e+06	
14	-7.00000e-01	3.067712e+06	
15	-7.50000e-01	3.115967e+06	
16	-8.00000e-01	3.159361e+06	
17	-8.50000e-01	3.198746e+06	
18	-9.00000e-01	3.234706e+06	
19	-9.50000e-01	3.267671e+06	
20	-1.00000e+00	3.297969e+06	
21	-1.05000e+00	3.325864e+06	
22	-1.10000e+00	3.351573e+06	
23	-1.15000e+00	3.375280e+06	
24	-1.20000e+00	3.397145e+06	
25	-1.25000e+00	3.417308e+06	
26	-1.30000e+00	3.435893e+06	
27	-1.35000e+00	3.453012e+06	
28	-1.40000e+00	3.468764e+06	
29	-1.45000e+00	3.483241e+06	
30	-1.50000e+00	3.496527e+06	
31	-1.55000e+00	3.508697e+06	
32	-1.60000e+00	3.519822e+06	
33	-1.65000e+00	3.529966e+06	
34	-1.70000e+00	3.539188e+06	
35	-1.75000e+00	3.547543e+06	
36	-1.80000e+00	3.555082e+06	
37	-1.85000e+00	3.561849e+06	
38	-1.90000e+00	3.567887e+06	
39	-1.95000e+00	3.573233e+06	
40	-2.00000e+00	3.577919e+06	
41	-2.05000e+00	3.581971e+06	
42	-2.10000e+00	3.585412e+06	
43	-2.15000e+00	3.588255e+06	
44	-2.20000e+00	3.590507e+06	
45	-2.25000e+00	3.592166e+06	
46	-2.30000e+00	3.593220e+06	
47	-2.35000e+00	3.593645e+06	
48	-2.40000e+00	3.593404e+06	
49	-2.45000e+00	3.592447e+06	
50	-2.50000e+00	3.590707e+06	
51	-2.55000e+00	3.588098e+06	
52	-2.60000e+00	3.584519e+06	
53	-2.65000e+00	3.579847e+06	
54	-2.70000e+00	3.573939e+06	

Index   v-sweep         rds             
--------------------------------------------------------------------------------
55	-2.75000e+00	3.566633e+06	
56	-2.80000e+00	3.557743e+06	
57	-2.85000e+00	3.547066e+06	
58	-2.90000e+00	3.534381e+06	
59	-2.95000e+00	3.519447e+06	
60	-3.00000e+00	3.502015e+06	
61	-3.05000e+00	3.481823e+06	
62	-3.10000e+00	3.458606e+06	
63	-3.15000e+00	3.432103e+06	
64	-3.20000e+00	3.402059e+06	
65	-3.25000e+00	3.368237e+06	
66	-3.30000e+00	3.330424e+06	
Reset re-loads circuit ***************************

Circuit: ***************************

Doing analysis at TEMP = 125.000000 and TNOM = 125.000000


No. of Data Rows : 67
                          ***************************
                          DC transfer characteristic  Mon Jan  9 13:57:32  2023
--------------------------------------------------------------------------------
Index   v-sweep         rds             
--------------------------------------------------------------------------------
0	0.000000e+00	2.997856e+04	
1	-5.00000e-02	3.249714e+04	
2	-1.00000e-01	3.542985e+04	
3	-1.50000e-01	3.888738e+04	
4	-2.00000e-01	4.302329e+04	
5	-2.50000e-01	4.805670e+04	
6	-3.00000e-01	5.431042e+04	
7	-3.50000e-01	6.227791e+04	
8	-4.00000e-01	7.274526e+04	
9	-4.50000e-01	8.701992e+04	
10	-5.00000e-01	1.073542e+05	
11	-5.50000e-01	1.376169e+05	
12	-6.00000e-01	1.836402e+05	
13	-6.50000e-01	2.501665e+05	
14	-7.00000e-01	3.311705e+05	
15	-7.50000e-01	4.081424e+05	
16	-8.00000e-01	4.685347e+05	
17	-8.50000e-01	5.130955e+05	
18	-9.00000e-01	5.470720e+05	
19	-9.50000e-01	5.746614e+05	
20	-1.00000e+00	5.983694e+05	
21	-1.05000e+00	6.195898e+05	
22	-1.10000e+00	6.391010e+05	
23	-1.15000e+00	6.573524e+05	
24	-1.20000e+00	6.746158e+05	
25	-1.25000e+00	6.910632e+05	
26	-1.30000e+00	7.068095e+05	
27	-1.35000e+00	7.219350e+05	
28	-1.40000e+00	7.364984e+05	
29	-1.45000e+00	7.505450e+05	
30	-1.50000e+00	7.641106e+05	
31	-1.55000e+00	7.772246e+05	
32	-1.60000e+00	7.899123e+05	
33	-1.65000e+00	8.021952e+05	
34	-1.70000e+00	8.140927e+05	
35	-1.75000e+00	8.256220e+05	
36	-1.80000e+00	8.367989e+05	
37	-1.85000e+00	8.476379e+05	
38	-1.90000e+00	8.581525e+05	
39	-1.95000e+00	8.683551e+05	
40	-2.00000e+00	8.782575e+05	
41	-2.05000e+00	8.878706e+05	
42	-2.10000e+00	8.972049e+05	
43	-2.15000e+00	9.062699e+05	
44	-2.20000e+00	9.150747e+05	
45	-2.25000e+00	9.236273e+05	
46	-2.30000e+00	9.319352e+05	
47	-2.35000e+00	9.400045e+05	
48	-2.40000e+00	9.478401e+05	
49	-2.45000e+00	9.554451e+05	
50	-2.50000e+00	9.628205e+05	
51	-2.55000e+00	9.699648e+05	
52	-2.60000e+00	9.768729e+05	
53	-2.65000e+00	9.835359e+05	
54	-2.70000e+00	9.899397e+05	

Index   v-sweep         rds             
--------------------------------------------------------------------------------
55	-2.75000e+00	9.960646e+05	
56	-2.80000e+00	1.001884e+06	
57	-2.85000e+00	1.007364e+06	
58	-2.90000e+00	1.012461e+06	
59	-2.95000e+00	1.017122e+06	
60	-3.00000e+00	1.021284e+06	
61	-3.05000e+00	1.024872e+06	
62	-3.10000e+00	1.027799e+06	
63	-3.15000e+00	1.029967e+06	
64	-3.20000e+00	1.031265e+06	
65	-3.25000e+00	1.031573e+06	
66	-3.30000e+00	1.030759e+06	
Reset re-loads circuit ***************************

Circuit: ***************************

Doing analysis at TEMP = 125.000000 and TNOM = 125.000000


No. of Data Rows : 67
                          ***************************
                          DC transfer characteristic  Mon Jan  9 13:57:32  2023
--------------------------------------------------------------------------------
Index   v-sweep         rds             
--------------------------------------------------------------------------------
0	0.000000e+00	1.930914e+04	
1	-5.00000e-02	2.031850e+04	
2	-1.00000e-01	2.142365e+04	
3	-1.50000e-01	2.263888e+04	
4	-2.00000e-01	2.398142e+04	
5	-2.50000e-01	2.547228e+04	
6	-3.00000e-01	2.713735e+04	
7	-3.50000e-01	2.900890e+04	
8	-4.00000e-01	3.112762e+04	
9	-4.50000e-01	3.354550e+04	
10	-5.00000e-01	3.633007e+04	
11	-5.50000e-01	3.957042e+04	
12	-6.00000e-01	4.338626e+04	
13	-6.50000e-01	4.794166e+04	
14	-7.00000e-01	5.346599e+04	
15	-7.50000e-01	6.028608e+04	
16	-8.00000e-01	6.887349e+04	
17	-8.50000e-01	7.990599e+04	
18	-9.00000e-01	9.431244e+04	
19	-9.50000e-01	1.131734e+05	
20	-1.00000e+00	1.371639e+05	
21	-1.05000e+00	1.653457e+05	
22	-1.10000e+00	1.944882e+05	
23	-1.15000e+00	2.208790e+05	
24	-1.20000e+00	2.428540e+05	
25	-1.25000e+00	2.608229e+05	
26	-1.30000e+00	2.758896e+05	
27	-1.35000e+00	2.890188e+05	
28	-1.40000e+00	3.008634e+05	
29	-1.45000e+00	3.118291e+05	
30	-1.50000e+00	3.221633e+05	
31	-1.55000e+00	3.320184e+05	
32	-1.60000e+00	3.414911e+05	
33	-1.65000e+00	3.506444e+05	
34	-1.70000e+00	3.595210e+05	
35	-1.75000e+00	3.681509e+05	
36	-1.80000e+00	3.765559e+05	
37	-1.85000e+00	3.847527e+05	
38	-1.90000e+00	3.927540e+05	
39	-1.95000e+00	4.005705e+05	
40	-2.00000e+00	4.082109e+05	
41	-2.05000e+00	4.156825e+05	
42	-2.10000e+00	4.229919e+05	
43	-2.15000e+00	4.301448e+05	
44	-2.20000e+00	4.371466e+05	
45	-2.25000e+00	4.440020e+05	
46	-2.30000e+00	4.507155e+05	
47	-2.35000e+00	4.572911e+05	
48	-2.40000e+00	4.637329e+05	
49	-2.45000e+00	4.700444e+05	
50	-2.50000e+00	4.762290e+05	
51	-2.55000e+00	4.822899e+05	
52	-2.60000e+00	4.882300e+05	
53	-2.65000e+00	4.940517e+05	
54	-2.70000e+00	4.997569e+05	

Index   v-sweep         rds             
--------------------------------------------------------------------------------
55	-2.75000e+00	5.053472e+05	
56	-2.80000e+00	5.108228e+05	
57	-2.85000e+00	5.161833e+05	
58	-2.90000e+00	5.214263e+05	
59	-2.95000e+00	5.265479e+05	
60	-3.00000e+00	5.315416e+05	
61	-3.05000e+00	5.363977e+05	
62	-3.10000e+00	5.411033e+05	
63	-3.15000e+00	5.456406e+05	
64	-3.20000e+00	5.499870e+05	
65	-3.25000e+00	5.541138e+05	
66	-3.30000e+00	5.579858e+05	
Reset re-loads circuit ***************************

Circuit: ***************************

Doing analysis at TEMP = 125.000000 and TNOM = 125.000000


No. of Data Rows : 67
                          ***************************
                          DC transfer characteristic  Mon Jan  9 13:57:32  2023
--------------------------------------------------------------------------------
Index   v-sweep         rds             
--------------------------------------------------------------------------------
0	0.000000e+00	1.487950e+04	
1	-5.00000e-02	1.545562e+04	
2	-1.00000e-01	1.607037e+04	
3	-1.50000e-01	1.672774e+04	
4	-2.00000e-01	1.743232e+04	
5	-2.50000e-01	1.818934e+04	
6	-3.00000e-01	1.900486e+04	
7	-3.50000e-01	1.988591e+04	
8	-4.00000e-01	2.084068e+04	
9	-4.50000e-01	2.187877e+04	
10	-5.00000e-01	2.301154e+04	
11	-5.50000e-01	2.425249e+04	
12	-6.00000e-01	2.561778e+04	
13	-6.50000e-01	2.712697e+04	
14	-7.00000e-01	2.880387e+04	
15	-7.50000e-01	3.067780e+04	
16	-8.00000e-01	3.278521e+04	
17	-8.50000e-01	3.517192e+04	
18	-9.00000e-01	3.789618e+04	
19	-9.50000e-01	4.103293e+04	
20	-1.00000e+00	4.467966e+04	
21	-1.05000e+00	4.896434e+04	
22	-1.10000e+00	5.405558e+04	
23	-1.15000e+00	6.017401e+04	
24	-1.20000e+00	6.759919e+04	
25	-1.25000e+00	7.665520e+04	
26	-1.30000e+00	8.763553e+04	
27	-1.35000e+00	1.006102e+05	
28	-1.40000e+00	1.151338e+05	
29	-1.45000e+00	1.301308e+05	
30	-1.50000e+00	1.443237e+05	
31	-1.55000e+00	1.569190e+05	
32	-1.60000e+00	1.678179e+05	
33	-1.65000e+00	1.773207e+05	
34	-1.70000e+00	1.858014e+05	
35	-1.75000e+00	1.935635e+05	
36	-1.80000e+00	2.008182e+05	
37	-1.85000e+00	2.077042e+05	
38	-1.90000e+00	2.143110e+05	
39	-1.95000e+00	2.206969e+05	
40	-2.00000e+00	2.269005e+05	
41	-2.05000e+00	2.329480e+05	
42	-2.10000e+00	2.388576e+05	
43	-2.15000e+00	2.446424e+05	
44	-2.20000e+00	2.503122e+05	
45	-2.25000e+00	2.558744e+05	
46	-2.30000e+00	2.613348e+05	
47	-2.35000e+00	2.666983e+05	
48	-2.40000e+00	2.719686e+05	
49	-2.45000e+00	2.771492e+05	
50	-2.50000e+00	2.822431e+05	
51	-2.55000e+00	2.872527e+05	
52	-2.60000e+00	2.921804e+05	
53	-2.65000e+00	2.970284e+05	
54	-2.70000e+00	3.017987e+05	

Index   v-sweep         rds             
--------------------------------------------------------------------------------
55	-2.75000e+00	3.064931e+05	
56	-2.80000e+00	3.111132e+05	
57	-2.85000e+00	3.156608e+05	
58	-2.90000e+00	3.201372e+05	
59	-2.95000e+00	3.245437e+05	
60	-3.00000e+00	3.288814e+05	
61	-3.05000e+00	3.331510e+05	
62	-3.10000e+00	3.373529e+05	
63	-3.15000e+00	3.414869e+05	
64	-3.20000e+00	3.455518e+05	
65	-3.25000e+00	3.495457e+05	
66	-3.30000e+00	3.534651e+05	
Reset re-loads circuit ***************************

Circuit: ***************************

Doing analysis at TEMP = 125.000000 and TNOM = 125.000000


No. of Data Rows : 67
                          ***************************
                          DC transfer characteristic  Mon Jan  9 13:57:32  2023
--------------------------------------------------------------------------------
Index   v-sweep         rds             
--------------------------------------------------------------------------------
0	0.000000e+00	1.242559e+04	
1	-5.00000e-02	1.281216e+04	
2	-1.00000e-01	1.321882e+04	
3	-1.50000e-01	1.364717e+04	
4	-2.00000e-01	1.409899e+04	
5	-2.50000e-01	1.457624e+04	
6	-3.00000e-01	1.508113e+04	
7	-3.50000e-01	1.561612e+04	
8	-4.00000e-01	1.618396e+04	
9	-4.50000e-01	1.678776e+04	
10	-5.00000e-01	1.743102e+04	
11	-5.50000e-01	1.811774e+04	
12	-6.00000e-01	1.885244e+04	
13	-6.50000e-01	1.964032e+04	
14	-7.00000e-01	2.048732e+04	
15	-7.50000e-01	2.140032e+04	
16	-8.00000e-01	2.238731e+04	
17	-8.50000e-01	2.345761e+04	
18	-9.00000e-01	2.462213e+04	
19	-9.50000e-01	2.589380e+04	
20	-1.00000e+00	2.728796e+04	
21	-1.05000e+00	2.882299e+04	
22	-1.10000e+00	3.052106e+04	
23	-1.15000e+00	3.240910e+04	
24	-1.20000e+00	3.452011e+04	
25	-1.25000e+00	3.689477e+04	
26	-1.30000e+00	3.958358e+04	
27	-1.35000e+00	4.264946e+04	
28	-1.40000e+00	4.617075e+04	
29	-1.45000e+00	5.024408e+04	
30	-1.50000e+00	5.498537e+04	
31	-1.55000e+00	6.052485e+04	
32	-1.60000e+00	6.698763e+04	
33	-1.65000e+00	7.444617e+04	
34	-1.70000e+00	8.283711e+04	
35	-1.75000e+00	9.187406e+04	
36	-1.80000e+00	1.010550e+05	
37	-1.85000e+00	1.098397e+05	
38	-1.90000e+00	1.178811e+05	
39	-1.95000e+00	1.251036e+05	
40	-2.00000e+00	1.316109e+05	
41	-2.05000e+00	1.375627e+05	
42	-2.10000e+00	1.431041e+05	
43	-2.15000e+00	1.483446e+05	
44	-2.20000e+00	1.533610e+05	
45	-2.25000e+00	1.582049e+05	
46	-2.30000e+00	1.629112e+05	
47	-2.35000e+00	1.675036e+05	
48	-2.40000e+00	1.719983e+05	
49	-2.45000e+00	1.764069e+05	
50	-2.50000e+00	1.807375e+05	
51	-2.55000e+00	1.849964e+05	
52	-2.60000e+00	1.891880e+05	
53	-2.65000e+00	1.933161e+05	
54	-2.70000e+00	1.973835e+05	

Index   v-sweep         rds             
--------------------------------------------------------------------------------
55	-2.75000e+00	2.013926e+05	
56	-2.80000e+00	2.053453e+05	
57	-2.85000e+00	2.092434e+05	
58	-2.90000e+00	2.130884e+05	
59	-2.95000e+00	2.168815e+05	
60	-3.00000e+00	2.206241e+05	
61	-3.05000e+00	2.243173e+05	
62	-3.10000e+00	2.279619e+05	
63	-3.15000e+00	2.315591e+05	
64	-3.20000e+00	2.351095e+05	
65	-3.25000e+00	2.386141e+05	
66	-3.30000e+00	2.420735e+05	
Reset re-loads circuit ***************************

Circuit: ***************************

Doing analysis at TEMP = 125.000000 and TNOM = 125.000000


No. of Data Rows : 67
                          ***************************
                          DC transfer characteristic  Mon Jan  9 13:57:32  2023
--------------------------------------------------------------------------------
Index   v-sweep         rds             
--------------------------------------------------------------------------------
0	0.000000e+00	1.084713e+04	
1	-5.00000e-02	1.113136e+04	
2	-1.00000e-01	1.142767e+04	
3	-1.50000e-01	1.173686e+04	
4	-2.00000e-01	1.205976e+04	
5	-2.50000e-01	1.239731e+04	
6	-3.00000e-01	1.275052e+04	
7	-3.50000e-01	1.312050e+04	
8	-4.00000e-01	1.350846e+04	
9	-4.50000e-01	1.391574e+04	
10	-5.00000e-01	1.434380e+04	
11	-5.50000e-01	1.479429e+04	
12	-6.00000e-01	1.526898e+04	
13	-6.50000e-01	1.576987e+04	
14	-7.00000e-01	1.629920e+04	
15	-7.50000e-01	1.685942e+04	
16	-8.00000e-01	1.745332e+04	
17	-8.50000e-01	1.808401e+04	
18	-9.00000e-01	1.875499e+04	
19	-9.50000e-01	1.947024e+04	
20	-1.00000e+00	2.023426e+04	
21	-1.05000e+00	2.105217e+04	
22	-1.10000e+00	2.192986e+04	
23	-1.15000e+00	2.287406e+04	
24	-1.20000e+00	2.389258e+04	
25	-1.25000e+00	2.499446e+04	
26	-1.30000e+00	2.619024e+04	
27	-1.35000e+00	2.749230e+04	
28	-1.40000e+00	2.891521e+04	
29	-1.45000e+00	3.047625e+04	
30	-1.50000e+00	3.219599e+04	
31	-1.55000e+00	3.409906e+04	
32	-1.60000e+00	3.621499e+04	
33	-1.65000e+00	3.857928e+04	
34	-1.70000e+00	4.123437e+04	
35	-1.75000e+00	4.423048e+04	
36	-1.80000e+00	4.762543e+04	
37	-1.85000e+00	5.148216e+04	
38	-1.90000e+00	5.586122e+04	
39	-1.95000e+00	6.080409e+04	
40	-2.00000e+00	6.630410e+04	
41	-2.05000e+00	7.226934e+04	
42	-2.10000e+00	7.850188e+04	
43	-2.15000e+00	8.473023e+04	
44	-2.20000e+00	9.070001e+04	
45	-2.25000e+00	9.626066e+04	
46	-2.30000e+00	1.013832e+05	
47	-2.35000e+00	1.061178e+05	
48	-2.40000e+00	1.105414e+05	
49	-2.45000e+00	1.147271e+05	
50	-2.50000e+00	1.187325e+05	
51	-2.55000e+00	1.225996e+05	
52	-2.60000e+00	1.263579e+05	
53	-2.65000e+00	1.300278e+05	
54	-2.70000e+00	1.336235e+05	

Index   v-sweep         rds             
--------------------------------------------------------------------------------
55	-2.75000e+00	1.371549e+05	
56	-2.80000e+00	1.406293e+05	
57	-2.85000e+00	1.440517e+05	
58	-2.90000e+00	1.474260e+05	
59	-2.95000e+00	1.507553e+05	
60	-3.00000e+00	1.540417e+05	
61	-3.05000e+00	1.572871e+05	
62	-3.10000e+00	1.604930e+05	
63	-3.15000e+00	1.636606e+05	
64	-3.20000e+00	1.667910e+05	
65	-3.25000e+00	1.698852e+05	
66	-3.30000e+00	1.729440e+05	
Reset re-loads circuit ***************************

Circuit: ***************************

Note: No ".plot", ".print", or ".fourier" lines; no simulations run
