
Note: Compatibility modes selected: hs

Warning: m=xx on .subckt line will override multiplier m hierarchy!


Circuit: ***************************

Doing analysis at TEMP = 25.000000 and TNOM = 25.000000


No. of Data Rows : 67
                          ***************************
                          DC transfer characteristic  Mon Jan  9 13:57:30  2023
--------------------------------------------------------------------------------
Index   v-sweep         rds             
--------------------------------------------------------------------------------
0	0.000000e+00	1.882994e+07	
1	-5.00000e-02	5.616440e+07	
2	-1.00000e-01	3.749571e+08	
3	-1.50000e-01	1.960123e+09	
4	-2.00000e-01	6.003614e+09	
5	-2.50000e-01	1.295485e+10	
6	-3.00000e-01	2.228956e+10	
7	-3.50000e-01	3.291347e+10	
8	-4.00000e-01	4.374520e+10	
9	-4.50000e-01	5.404656e+10	
10	-5.00000e-01	6.345160e+10	
11	-5.50000e-01	7.185637e+10	
12	-6.00000e-01	7.930002e+10	
13	-6.50000e-01	8.588293e+10	
14	-7.00000e-01	9.172139e+10	
15	-7.50000e-01	9.692628e+10	
16	-8.00000e-01	1.015951e+11	
17	-8.50000e-01	1.058100e+11	
18	-9.00000e-01	1.096394e+11	
19	-9.50000e-01	1.131391e+11	
20	-1.00000e+00	1.163553e+11	
21	-1.05000e+00	1.193258e+11	
22	-1.10000e+00	1.220817e+11	
23	-1.15000e+00	1.246492e+11	
24	-1.20000e+00	1.270499e+11	
25	-1.25000e+00	1.293021e+11	
26	-1.30000e+00	1.314213e+11	
27	-1.35000e+00	1.334209e+11	
28	-1.40000e+00	1.353121e+11	
29	-1.45000e+00	1.371049e+11	
30	-1.50000e+00	1.388077e+11	
31	-1.55000e+00	1.404282e+11	
32	-1.60000e+00	1.419728e+11	
33	-1.65000e+00	1.434473e+11	
34	-1.70000e+00	1.448567e+11	
35	-1.75000e+00	1.462055e+11	
36	-1.80000e+00	1.474975e+11	
37	-1.85000e+00	1.487360e+11	
38	-1.90000e+00	1.499236e+11	
39	-1.95000e+00	1.510625e+11	
40	-2.00000e+00	1.521541e+11	
41	-2.05000e+00	1.531993e+11	
42	-2.10000e+00	1.541981e+11	
43	-2.15000e+00	1.551499e+11	
44	-2.20000e+00	1.560532e+11	
45	-2.25000e+00	1.569053e+11	
46	-2.30000e+00	1.577027e+11	
47	-2.35000e+00	1.584408e+11	
48	-2.40000e+00	1.591136e+11	
49	-2.45000e+00	1.597139e+11	
50	-2.50000e+00	1.602333e+11	
51	-2.55000e+00	1.606620e+11	
52	-2.60000e+00	1.609890e+11	
53	-2.65000e+00	1.612019e+11	
54	-2.70000e+00	1.612872e+11	

Index   v-sweep         rds             
--------------------------------------------------------------------------------
55	-2.75000e+00	1.612308e+11	
56	-2.80000e+00	1.610174e+11	
57	-2.85000e+00	1.606316e+11	
58	-2.90000e+00	1.600579e+11	
59	-2.95000e+00	1.592812e+11	
60	-3.00000e+00	1.582871e+11	
61	-3.05000e+00	1.570627e+11	
62	-3.10000e+00	1.555971e+11	
63	-3.15000e+00	1.538818e+11	
64	-3.20000e+00	1.519111e+11	
65	-3.25000e+00	1.496828e+11	
66	-3.30000e+00	1.471985e+11	
Reset re-loads circuit ***************************

Circuit: ***************************

Doing analysis at TEMP = 25.000000 and TNOM = 25.000000


No. of Data Rows : 67
                          ***************************
                          DC transfer characteristic  Mon Jan  9 13:57:30  2023
--------------------------------------------------------------------------------
Index   v-sweep         rds             
--------------------------------------------------------------------------------
0	0.000000e+00	2.105591e+06	
1	-5.00000e-02	2.430886e+06	
2	-1.00000e-01	2.873811e+06	
3	-1.50000e-01	3.510682e+06	
4	-2.00000e-01	4.498214e+06	
5	-2.50000e-01	6.203043e+06	
6	-3.00000e-01	9.623110e+06	
7	-3.50000e-01	1.781182e+07	
8	-4.00000e-01	3.959316e+07	
9	-4.50000e-01	9.325991e+07	
10	-5.00000e-01	2.014882e+08	
11	-5.50000e-01	3.790656e+08	
12	-6.00000e-01	6.256192e+08	
13	-6.50000e-01	9.275736e+08	
14	-7.00000e-01	1.265326e+09	
15	-7.50000e-01	1.620036e+09	
16	-8.00000e-01	1.977227e+09	
17	-8.50000e-01	2.327444e+09	
18	-9.00000e-01	2.665389e+09	
19	-9.50000e-01	2.988661e+09	
20	-1.00000e+00	3.296656e+09	
21	-1.05000e+00	3.589779e+09	
22	-1.10000e+00	3.868941e+09	
23	-1.15000e+00	4.135250e+09	
24	-1.20000e+00	4.389851e+09	
25	-1.25000e+00	4.633832e+09	
26	-1.30000e+00	4.868193e+09	
27	-1.35000e+00	5.093825e+09	
28	-1.40000e+00	5.311516e+09	
29	-1.45000e+00	5.521958e+09	
30	-1.50000e+00	5.725755e+09	
31	-1.55000e+00	5.923436e+09	
32	-1.60000e+00	6.115463e+09	
33	-1.65000e+00	6.302242e+09	
34	-1.70000e+00	6.484130e+09	
35	-1.75000e+00	6.661440e+09	
36	-1.80000e+00	6.834453e+09	
37	-1.85000e+00	7.003414e+09	
38	-1.90000e+00	7.168541e+09	
39	-1.95000e+00	7.330024e+09	
40	-2.00000e+00	7.488028e+09	
41	-2.05000e+00	7.642690e+09	
42	-2.10000e+00	7.794117e+09	
43	-2.15000e+00	7.942385e+09	
44	-2.20000e+00	8.087527e+09	
45	-2.25000e+00	8.229529e+09	
46	-2.30000e+00	8.368319e+09	
47	-2.35000e+00	8.503752e+09	
48	-2.40000e+00	8.635599e+09	
49	-2.45000e+00	8.763527e+09	
50	-2.50000e+00	8.887082e+09	
51	-2.55000e+00	9.005669e+09	
52	-2.60000e+00	9.118536e+09	
53	-2.65000e+00	9.224749e+09	
54	-2.70000e+00	9.323183e+09	

Index   v-sweep         rds             
--------------------------------------------------------------------------------
55	-2.75000e+00	9.412507e+09	
56	-2.80000e+00	9.491180e+09	
57	-2.85000e+00	9.557457e+09	
58	-2.90000e+00	9.609402e+09	
59	-2.95000e+00	9.644924e+09	
60	-3.00000e+00	9.661822e+09	
61	-3.05000e+00	9.657852e+09	
62	-3.10000e+00	9.630817e+09	
63	-3.15000e+00	9.578664e+09	
64	-3.20000e+00	9.499605e+09	
65	-3.25000e+00	9.392237e+09	
66	-3.30000e+00	9.255660e+09	
Reset re-loads circuit ***************************

Circuit: ***************************

Doing analysis at TEMP = 25.000000 and TNOM = 25.000000


No. of Data Rows : 67
                          ***************************
                          DC transfer characteristic  Mon Jan  9 13:57:30  2023
--------------------------------------------------------------------------------
Index   v-sweep         rds             
--------------------------------------------------------------------------------
0	0.000000e+00	1.110184e+06	
1	-5.00000e-02	1.194163e+06	
2	-1.00000e-01	1.291813e+06	
3	-1.50000e-01	1.406755e+06	
4	-2.00000e-01	1.544006e+06	
5	-2.50000e-01	1.710716e+06	
6	-3.00000e-01	1.917411e+06	
7	-3.50000e-01	2.180221e+06	
8	-4.00000e-01	2.525047e+06	
9	-4.50000e-01	2.995897e+06	
10	-5.00000e-01	3.672752e+06	
11	-5.50000e-01	4.712613e+06	
12	-6.00000e-01	6.449236e+06	
13	-6.50000e-01	9.635307e+06	
14	-7.00000e-01	1.595222e+07	
15	-7.50000e-01	2.867965e+07	
16	-8.00000e-01	5.265018e+07	
17	-8.50000e-01	9.260566e+07	
18	-9.00000e-01	1.509351e+08	
19	-9.50000e-01	2.266665e+08	
20	-1.00000e+00	3.161981e+08	
21	-1.05000e+00	4.148631e+08	
22	-1.10000e+00	5.182807e+08	
23	-1.15000e+00	6.230460e+08	
24	-1.20000e+00	7.268534e+08	
25	-1.25000e+00	8.283230e+08	
26	-1.30000e+00	9.267437e+08	
27	-1.35000e+00	1.021841e+09	
28	-1.40000e+00	1.113601e+09	
29	-1.45000e+00	1.202158e+09	
30	-1.50000e+00	1.287712e+09	
31	-1.55000e+00	1.370493e+09	
32	-1.60000e+00	1.450730e+09	
33	-1.65000e+00	1.528641e+09	
34	-1.70000e+00	1.604427e+09	
35	-1.75000e+00	1.678266e+09	
36	-1.80000e+00	1.750320e+09	
37	-1.85000e+00	1.820730e+09	
38	-1.90000e+00	1.889620e+09	
39	-1.95000e+00	1.957102e+09	
40	-2.00000e+00	2.023271e+09	
41	-2.05000e+00	2.088213e+09	
42	-2.10000e+00	2.152004e+09	
43	-2.15000e+00	2.214709e+09	
44	-2.20000e+00	2.276386e+09	
45	-2.25000e+00	2.337088e+09	
46	-2.30000e+00	2.396856e+09	
47	-2.35000e+00	2.455726e+09	
48	-2.40000e+00	2.513727e+09	
49	-2.45000e+00	2.570873e+09	
50	-2.50000e+00	2.627171e+09	
51	-2.55000e+00	2.682610e+09	
52	-2.60000e+00	2.737159e+09	
53	-2.65000e+00	2.790766e+09	
54	-2.70000e+00	2.843345e+09	

Index   v-sweep         rds             
--------------------------------------------------------------------------------
55	-2.75000e+00	2.894778e+09	
56	-2.80000e+00	2.944900e+09	
57	-2.85000e+00	2.993492e+09	
58	-2.90000e+00	3.040277e+09	
59	-2.95000e+00	3.084906e+09	
60	-3.00000e+00	3.126951e+09	
61	-3.05000e+00	3.165900e+09	
62	-3.10000e+00	3.201153e+09	
63	-3.15000e+00	3.232018e+09	
64	-3.20000e+00	3.257718e+09	
65	-3.25000e+00	3.277401e+09	
66	-3.30000e+00	3.290160e+09	
Reset re-loads circuit ***************************

Circuit: ***************************

Doing analysis at TEMP = 25.000000 and TNOM = 25.000000


No. of Data Rows : 67
                          ***************************
                          DC transfer characteristic  Mon Jan  9 13:57:30  2023
--------------------------------------------------------------------------------
Index   v-sweep         rds             
--------------------------------------------------------------------------------
0	0.000000e+00	7.676376e+05	
1	-5.00000e-02	8.053806e+05	
2	-1.00000e-01	8.470035e+05	
3	-1.50000e-01	8.931363e+05	
4	-2.00000e-01	9.445526e+05	
5	-2.50000e-01	1.002214e+06	
6	-3.00000e-01	1.067328e+06	
7	-3.50000e-01	1.141436e+06	
8	-4.00000e-01	1.226531e+06	
9	-4.50000e-01	1.325241e+06	
10	-5.00000e-01	1.441094e+06	
11	-5.50000e-01	1.578940e+06	
12	-6.00000e-01	1.745618e+06	
13	-6.50000e-01	1.951067e+06	
14	-7.00000e-01	2.210242e+06	
15	-7.50000e-01	2.546568e+06	
16	-8.00000e-01	2.998463e+06	
17	-8.50000e-01	3.632231e+06	
18	-9.00000e-01	4.568512e+06	
19	-9.50000e-01	6.037085e+06	
20	-1.00000e+00	8.484582e+06	
21	-1.05000e+00	1.274974e+07	
22	-1.10000e+00	2.022877e+07	
23	-1.15000e+00	3.278079e+07	
24	-1.20000e+00	5.217244e+07	
25	-1.25000e+00	7.932816e+07	
26	-1.30000e+00	1.139432e+08	
27	-1.35000e+00	1.546838e+08	
28	-1.40000e+00	1.997278e+08	
29	-1.45000e+00	2.472824e+08	
30	-1.50000e+00	2.958844e+08	
31	-1.55000e+00	3.444877e+08	
32	-1.60000e+00	3.924227e+08	
33	-1.65000e+00	4.393076e+08	
34	-1.70000e+00	4.849587e+08	
35	-1.75000e+00	5.293188e+08	
36	-1.80000e+00	5.724057e+08	
37	-1.85000e+00	6.142781e+08	
38	-1.90000e+00	6.550141e+08	
39	-1.95000e+00	6.946986e+08	
40	-2.00000e+00	7.334155e+08	
41	-2.05000e+00	7.712444e+08	
42	-2.10000e+00	8.082582e+08	
43	-2.15000e+00	8.445231e+08	
44	-2.20000e+00	8.800978e+08	
45	-2.25000e+00	9.150350e+08	
46	-2.30000e+00	9.493810e+08	
47	-2.35000e+00	9.831768e+08	
48	-2.40000e+00	1.016459e+09	
49	-2.45000e+00	1.049259e+09	
50	-2.50000e+00	1.081606e+09	
51	-2.55000e+00	1.113523e+09	
52	-2.60000e+00	1.145034e+09	
53	-2.65000e+00	1.176154e+09	
54	-2.70000e+00	1.206900e+09	

Index   v-sweep         rds             
--------------------------------------------------------------------------------
55	-2.75000e+00	1.237282e+09	
56	-2.80000e+00	1.267304e+09	
57	-2.85000e+00	1.296967e+09	
58	-2.90000e+00	1.326262e+09	
59	-2.95000e+00	1.355170e+09	
60	-3.00000e+00	1.383662e+09	
61	-3.05000e+00	1.411691e+09	
62	-3.10000e+00	1.439190e+09	
63	-3.15000e+00	1.466070e+09	
64	-3.20000e+00	1.492214e+09	
65	-3.25000e+00	1.517468e+09	
66	-3.30000e+00	1.541644e+09	
Reset re-loads circuit ***************************

Circuit: ***************************

Doing analysis at TEMP = 25.000000 and TNOM = 25.000000


No. of Data Rows : 67
                          ***************************
                          DC transfer characteristic  Mon Jan  9 13:57:30  2023
--------------------------------------------------------------------------------
Index   v-sweep         rds             
--------------------------------------------------------------------------------
0	0.000000e+00	5.957718e+05	
1	-5.00000e-02	6.171591e+05	
2	-1.00000e-01	6.401274e+05	
3	-1.50000e-01	6.648586e+05	
4	-2.00000e-01	6.915637e+05	
5	-2.50000e-01	7.204885e+05	
6	-3.00000e-01	7.519215e+05	
7	-3.50000e-01	7.862035e+05	
8	-4.00000e-01	8.237395e+05	
9	-4.50000e-01	8.650152e+05	
10	-5.00000e-01	9.106176e+05	
11	-5.50000e-01	9.612631e+05	
12	-6.00000e-01	1.017835e+06	
13	-6.50000e-01	1.081433e+06	
14	-7.00000e-01	1.153449e+06	
15	-7.50000e-01	1.235661e+06	
16	-8.00000e-01	1.330385e+06	
17	-8.50000e-01	1.440683e+06	
18	-9.00000e-01	1.570693e+06	
19	-9.50000e-01	1.726126e+06	
20	-1.00000e+00	1.915074e+06	
21	-1.05000e+00	2.149333e+06	
22	-1.10000e+00	2.446672e+06	
23	-1.15000e+00	2.834824e+06	
24	-1.20000e+00	3.358761e+06	
25	-1.25000e+00	4.094201e+06	
26	-1.30000e+00	5.172588e+06	
27	-1.35000e+00	6.824923e+06	
28	-1.40000e+00	9.447534e+06	
29	-1.45000e+00	1.366718e+07	
30	-1.50000e+00	2.033098e+07	
31	-1.55000e+00	3.033202e+07	
32	-1.60000e+00	4.429869e+07	
33	-1.65000e+00	6.233767e+07	
34	-1.70000e+00	8.400331e+07	
35	-1.75000e+00	1.084822e+08	
36	-1.80000e+00	1.348491e+08	
37	-1.85000e+00	1.622643e+08	
38	-1.90000e+00	1.900703e+08	
39	-1.95000e+00	2.178064e+08	
40	-2.00000e+00	2.451796e+08	
41	-2.05000e+00	2.720232e+08	
42	-2.10000e+00	2.982570e+08	
43	-2.15000e+00	3.238561e+08	
44	-2.20000e+00	3.488295e+08	
45	-2.25000e+00	3.732046e+08	
46	-2.30000e+00	3.970179e+08	
47	-2.35000e+00	4.203094e+08	
48	-2.40000e+00	4.431190e+08	
49	-2.45000e+00	4.654847e+08	
50	-2.50000e+00	4.874418e+08	
51	-2.55000e+00	5.090224e+08	
52	-2.60000e+00	5.302552e+08	
53	-2.65000e+00	5.511661e+08	
54	-2.70000e+00	5.717780e+08	

Index   v-sweep         rds             
--------------------------------------------------------------------------------
55	-2.75000e+00	5.921113e+08	
56	-2.80000e+00	6.121841e+08	
57	-2.85000e+00	6.320123e+08	
58	-2.90000e+00	6.516099e+08	
59	-2.95000e+00	6.709892e+08	
60	-3.00000e+00	6.901606e+08	
61	-3.05000e+00	7.091324e+08	
62	-3.10000e+00	7.279111e+08	
63	-3.15000e+00	7.465003e+08	
64	-3.20000e+00	7.649003e+08	
65	-3.25000e+00	7.831075e+08	
66	-3.30000e+00	8.011127e+08	
Reset re-loads circuit ***************************

Circuit: ***************************

Doing analysis at TEMP = 25.000000 and TNOM = 25.000000


No. of Data Rows : 67
                          ***************************
                          DC transfer characteristic  Mon Jan  9 13:57:30  2023
--------------------------------------------------------------------------------
Index   v-sweep         rds             
--------------------------------------------------------------------------------
0	0.000000e+00	4.932577e+05	
1	-5.00000e-02	5.070323e+05	
2	-1.00000e-01	5.215913e+05	
3	-1.50000e-01	5.370036e+05	
4	-2.00000e-01	5.533465e+05	
5	-2.50000e-01	5.707068e+05	
6	-3.00000e-01	5.891825e+05	
7	-3.50000e-01	6.088847e+05	
8	-4.00000e-01	6.299395e+05	
9	-4.50000e-01	6.524912e+05	
10	-5.00000e-01	6.767050e+05	
11	-5.50000e-01	7.027716e+05	
12	-6.00000e-01	7.309120e+05	
13	-6.50000e-01	7.613833e+05	
14	-7.00000e-01	7.944875e+05	
15	-7.50000e-01	8.305803e+05	
16	-8.00000e-01	8.700850e+05	
17	-8.50000e-01	9.135079e+05	
18	-9.00000e-01	9.614606e+05	
19	-9.50000e-01	1.014688e+06	
20	-1.00000e+00	1.074108e+06	
21	-1.05000e+00	1.140862e+06	
22	-1.10000e+00	1.216386e+06	
23	-1.15000e+00	1.302516e+06	
24	-1.20000e+00	1.401630e+06	
25	-1.25000e+00	1.516862e+06	
26	-1.30000e+00	1.652419e+06	
27	-1.35000e+00	1.814066e+06	
28	-1.40000e+00	2.009891e+06	
29	-1.45000e+00	2.251531e+06	
30	-1.50000e+00	2.556201e+06	
31	-1.55000e+00	2.950123e+06	
32	-1.60000e+00	3.474411e+06	
33	-1.65000e+00	4.195169e+06	
34	-1.70000e+00	5.220324e+06	
35	-1.75000e+00	6.725226e+06	
36	-1.80000e+00	8.984003e+06	
37	-1.85000e+00	1.238913e+07	
38	-1.90000e+00	1.742315e+07	
39	-1.95000e+00	2.455343e+07	
40	-2.00000e+00	3.407796e+07	
41	-2.05000e+00	4.601072e+07	
42	-2.10000e+00	6.007812e+07	
43	-2.15000e+00	7.581668e+07	
44	-2.20000e+00	9.270391e+07	
45	-2.25000e+00	1.102613e+08	
46	-2.30000e+00	1.281069e+08	
47	-2.35000e+00	1.459661e+08	
48	-2.40000e+00	1.636580e+08	
49	-2.45000e+00	1.810747e+08	
50	-2.50000e+00	1.981594e+08	
51	-2.55000e+00	2.148896e+08	
52	-2.60000e+00	2.312640e+08	
53	-2.65000e+00	2.472938e+08	
54	-2.70000e+00	2.629970e+08	

Index   v-sweep         rds             
--------------------------------------------------------------------------------
55	-2.75000e+00	2.783947e+08	
56	-2.80000e+00	2.935085e+08	
57	-2.85000e+00	3.083599e+08	
58	-2.90000e+00	3.229689e+08	
59	-2.95000e+00	3.373540e+08	
60	-3.00000e+00	3.515320e+08	
61	-3.05000e+00	3.655180e+08	
62	-3.10000e+00	3.793257e+08	
63	-3.15000e+00	3.929671e+08	
64	-3.20000e+00	4.064532e+08	
65	-3.25000e+00	4.197934e+08	
66	-3.30000e+00	4.329961e+08	
Reset re-loads circuit ***************************

Circuit: ***************************

Note: No ".plot", ".print", or ".fourier" lines; no simulations run
