
Note: Compatibility modes selected: hs

Warning: m=xx on .subckt line will override multiplier m hierarchy!


Circuit: ***************************

Doing analysis at TEMP = 125.000000 and TNOM = 125.000000


No. of Data Rows : 67
                          ***************************
                          DC transfer characteristic  Mon Jan  9 13:57:32  2023
--------------------------------------------------------------------------------
Index   v-sweep         rds             
--------------------------------------------------------------------------------
0	0.000000e+00	2.819512e+06	
1	-5.00000e-02	4.561541e+06	
2	-1.00000e-01	1.019604e+07	
3	-1.50000e-01	3.775283e+07	
4	-2.00000e-01	1.527516e+08	
5	-2.50000e-01	4.465759e+08	
6	-3.00000e-01	9.555787e+08	
7	-3.50000e-01	1.632962e+09	
8	-4.00000e-01	2.388964e+09	
9	-4.50000e-01	3.143982e+09	
10	-5.00000e-01	3.851360e+09	
11	-5.50000e-01	4.493275e+09	
12	-6.00000e-01	5.068788e+09	
13	-6.50000e-01	5.584379e+09	
14	-7.00000e-01	6.048644e+09	
15	-7.50000e-01	6.469902e+09	
16	-8.00000e-01	6.855349e+09	
17	-8.50000e-01	7.210902e+09	
18	-9.00000e-01	7.541324e+09	
19	-9.50000e-01	7.850418e+09	
20	-1.00000e+00	8.141219e+09	
21	-1.05000e+00	8.416161e+09	
22	-1.10000e+00	8.677210e+09	
23	-1.15000e+00	8.925966e+09	
24	-1.20000e+00	9.163746e+09	
25	-1.25000e+00	9.391642e+09	
26	-1.30000e+00	9.610570e+09	
27	-1.35000e+00	9.821304e+09	
28	-1.40000e+00	1.002451e+10	
29	-1.45000e+00	1.022075e+10	
30	-1.50000e+00	1.041053e+10	
31	-1.55000e+00	1.059427e+10	
32	-1.60000e+00	1.077236e+10	
33	-1.65000e+00	1.094513e+10	
34	-1.70000e+00	1.111287e+10	
35	-1.75000e+00	1.127584e+10	
36	-1.80000e+00	1.143426e+10	
37	-1.85000e+00	1.158830e+10	
38	-1.90000e+00	1.173810e+10	
39	-1.95000e+00	1.188375e+10	
40	-2.00000e+00	1.202529e+10	
41	-2.05000e+00	1.216268e+10	
42	-2.10000e+00	1.229581e+10	
43	-2.15000e+00	1.242449e+10	
44	-2.20000e+00	1.254840e+10	
45	-2.25000e+00	1.266712e+10	
46	-2.30000e+00	1.278007e+10	
47	-2.35000e+00	1.288653e+10	
48	-2.40000e+00	1.298559e+10	
49	-2.45000e+00	1.307614e+10	
50	-2.50000e+00	1.315690e+10	
51	-2.55000e+00	1.322637e+10	
52	-2.60000e+00	1.328283e+10	
53	-2.65000e+00	1.332439e+10	
54	-2.70000e+00	1.334899e+10	

Index   v-sweep         rds             
--------------------------------------------------------------------------------
55	-2.75000e+00	1.335443e+10	
56	-2.80000e+00	1.333843e+10	
57	-2.85000e+00	1.329871e+10	
58	-2.90000e+00	1.323303e+10	
59	-2.95000e+00	1.313936e+10	
60	-3.00000e+00	1.301590e+10	
61	-3.05000e+00	1.286125e+10	
62	-3.10000e+00	1.267450e+10	
63	-3.15000e+00	1.245530e+10	
64	-3.20000e+00	1.220396e+10	
65	-3.25000e+00	1.192148e+10	
66	-3.30000e+00	1.160959e+10	
Reset re-loads circuit ***************************

Circuit: ***************************

Doing analysis at TEMP = 125.000000 and TNOM = 125.000000


No. of Data Rows : 67
                          ***************************
                          DC transfer characteristic  Mon Jan  9 13:57:32  2023
--------------------------------------------------------------------------------
Index   v-sweep         rds             
--------------------------------------------------------------------------------
0	0.000000e+00	6.366055e+05	
1	-5.00000e-02	7.161907e+05	
2	-1.00000e-01	8.183186e+05	
3	-1.50000e-01	9.540200e+05	
4	-2.00000e-01	1.142723e+06	
5	-2.50000e-01	1.421664e+06	
6	-3.00000e-01	1.870155e+06	
7	-3.50000e-01	2.679354e+06	
8	-4.00000e-01	4.365550e+06	
9	-4.50000e-01	8.349041e+06	
10	-5.00000e-01	1.783914e+07	
11	-5.50000e-01	3.750458e+07	
12	-6.00000e-01	7.073505e+07	
13	-6.50000e-01	1.170998e+08	
14	-7.00000e-01	1.727105e+08	
15	-7.50000e-01	2.325949e+08	
16	-8.00000e-01	2.927131e+08	
17	-8.50000e-01	3.506231e+08	
18	-9.00000e-01	4.052294e+08	
19	-9.50000e-01	4.562823e+08	
20	-1.00000e+00	5.039644e+08	
21	-1.05000e+00	5.486328e+08	
22	-1.10000e+00	5.906835e+08	
23	-1.15000e+00	6.304891e+08	
24	-1.20000e+00	6.683753e+08	
25	-1.25000e+00	7.046171e+08	
26	-1.30000e+00	7.394425e+08	
27	-1.35000e+00	7.730387e+08	
28	-1.40000e+00	8.055595e+08	
29	-1.45000e+00	8.371310e+08	
30	-1.50000e+00	8.678572e+08	
31	-1.55000e+00	8.978243e+08	
32	-1.60000e+00	9.271039e+08	
33	-1.65000e+00	9.557564e+08	
34	-1.70000e+00	9.838323e+08	
35	-1.75000e+00	1.011375e+09	
36	-1.80000e+00	1.038421e+09	
37	-1.85000e+00	1.065002e+09	
38	-1.90000e+00	1.091145e+09	
39	-1.95000e+00	1.116874e+09	
40	-2.00000e+00	1.142207e+09	
41	-2.05000e+00	1.167162e+09	
42	-2.10000e+00	1.191751e+09	
43	-2.15000e+00	1.215982e+09	
44	-2.20000e+00	1.239859e+09	
45	-2.25000e+00	1.263379e+09	
46	-2.30000e+00	1.286531e+09	
47	-2.35000e+00	1.309296e+09	
48	-2.40000e+00	1.331641e+09	
49	-2.45000e+00	1.353520e+09	
50	-2.50000e+00	1.374867e+09	
51	-2.55000e+00	1.395596e+09	
52	-2.60000e+00	1.415592e+09	
53	-2.65000e+00	1.434714e+09	
54	-2.70000e+00	1.452784e+09	

Index   v-sweep         rds             
--------------------------------------------------------------------------------
55	-2.75000e+00	1.469590e+09	
56	-2.80000e+00	1.484877e+09	
57	-2.85000e+00	1.498351e+09	
58	-2.90000e+00	1.509679e+09	
59	-2.95000e+00	1.518488e+09	
60	-3.00000e+00	1.524376e+09	
61	-3.05000e+00	1.526922e+09	
62	-3.10000e+00	1.525698e+09	
63	-3.15000e+00	1.520290e+09	
64	-3.20000e+00	1.510316e+09	
65	-3.25000e+00	1.495459e+09	
66	-3.30000e+00	1.475481e+09	
Reset re-loads circuit ***************************

Circuit: ***************************

Doing analysis at TEMP = 125.000000 and TNOM = 125.000000


No. of Data Rows : 67
                          ***************************
                          DC transfer characteristic  Mon Jan  9 13:57:32  2023
--------------------------------------------------------------------------------
Index   v-sweep         rds             
--------------------------------------------------------------------------------
0	0.000000e+00	3.653956e+05	
1	-5.00000e-02	3.898438e+05	
2	-1.00000e-01	4.177730e+05	
3	-1.50000e-01	4.499817e+05	
4	-2.00000e-01	4.875318e+05	
5	-2.50000e-01	5.318656e+05	
6	-3.00000e-01	5.849921e+05	
7	-3.50000e-01	6.497909e+05	
8	-4.00000e-01	7.305318e+05	
9	-4.50000e-01	8.338043e+05	
10	-5.00000e-01	9.702726e+05	
11	-5.50000e-01	1.158190e+06	
12	-6.00000e-01	1.430888e+06	
13	-6.50000e-01	1.853671e+06	
14	-7.00000e-01	2.562921e+06	
15	-7.50000e-01	3.851741e+06	
16	-8.00000e-01	6.315263e+06	
17	-8.50000e-01	1.094859e+07	
18	-9.00000e-01	1.890823e+07	
19	-9.50000e-01	3.087949e+07	
20	-1.00000e+00	4.659104e+07	
21	-1.05000e+00	6.495704e+07	
22	-1.10000e+00	8.463811e+07	
23	-1.15000e+00	1.045203e+08	
24	-1.20000e+00	1.238916e+08	
25	-1.25000e+00	1.423979e+08	
26	-1.30000e+00	1.599251e+08	
27	-1.35000e+00	1.764935e+08	
28	-1.40000e+00	1.921847e+08	
29	-1.45000e+00	2.071016e+08	
30	-1.50000e+00	2.213466e+08	
31	-1.55000e+00	2.350128e+08	
32	-1.60000e+00	2.481809e+08	
33	-1.65000e+00	2.609193e+08	
34	-1.70000e+00	2.732850e+08	
35	-1.75000e+00	2.853253e+08	
36	-1.80000e+00	2.970794e+08	
37	-1.85000e+00	3.085799e+08	
38	-1.90000e+00	3.198538e+08	
39	-1.95000e+00	3.309237e+08	
40	-2.00000e+00	3.418086e+08	
41	-2.05000e+00	3.525246e+08	
42	-2.10000e+00	3.630851e+08	
43	-2.15000e+00	3.735016e+08	
44	-2.20000e+00	3.837841e+08	
45	-2.25000e+00	3.939408e+08	
46	-2.30000e+00	4.039788e+08	
47	-2.35000e+00	4.139039e+08	
48	-2.40000e+00	4.237209e+08	
49	-2.45000e+00	4.334329e+08	
50	-2.50000e+00	4.430416e+08	
51	-2.55000e+00	4.525468e+08	
52	-2.60000e+00	4.619457e+08	
53	-2.65000e+00	4.712325e+08	
54	-2.70000e+00	4.803972e+08	

Index   v-sweep         rds             
--------------------------------------------------------------------------------
55	-2.75000e+00	4.894249e+08	
56	-2.80000e+00	4.982942e+08	
57	-2.85000e+00	5.069759e+08	
58	-2.90000e+00	5.154313e+08	
59	-2.95000e+00	5.236106e+08	
60	-3.00000e+00	5.314510e+08	
61	-3.05000e+00	5.388749e+08	
62	-3.10000e+00	5.457884e+08	
63	-3.15000e+00	5.520805e+08	
64	-3.20000e+00	5.576222e+08	
65	-3.25000e+00	5.622674e+08	
66	-3.30000e+00	5.658541e+08	
Reset re-loads circuit ***************************

Circuit: ***************************

Doing analysis at TEMP = 125.000000 and TNOM = 125.000000


No. of Data Rows : 67
                          ***************************
                          DC transfer characteristic  Mon Jan  9 13:57:32  2023
--------------------------------------------------------------------------------
Index   v-sweep         rds             
--------------------------------------------------------------------------------
0	0.000000e+00	2.616754e+05	
1	-5.00000e-02	2.734238e+05	
2	-1.00000e-01	2.862670e+05	
3	-1.50000e-01	3.003656e+05	
4	-2.00000e-01	3.159126e+05	
5	-2.50000e-01	3.331431e+05	
6	-3.00000e-01	3.523458e+05	
7	-3.50000e-01	3.738788e+05	
8	-4.00000e-01	3.981927e+05	
9	-4.50000e-01	4.258613e+05	
10	-5.00000e-01	4.576272e+05	
11	-5.50000e-01	4.944677e+05	
12	-6.00000e-01	5.376946e+05	
13	-6.50000e-01	5.891082e+05	
14	-7.00000e-01	6.512427e+05	
15	-7.50000e-01	7.277717e+05	
16	-8.00000e-01	8.242023e+05	
17	-8.50000e-01	9.491130e+05	
18	-9.00000e-01	1.116457e+06	
19	-9.50000e-01	1.350014e+06	
20	-1.00000e+00	1.692208e+06	
21	-1.05000e+00	2.221457e+06	
22	-1.10000e+00	3.083514e+06	
23	-1.15000e+00	4.535034e+06	
24	-1.20000e+00	6.965676e+06	
25	-1.25000e+00	1.082303e+07	
26	-1.30000e+00	1.641187e+07	
27	-1.35000e+00	2.370083e+07	
28	-1.40000e+00	3.231507e+07	
29	-1.45000e+00	4.171205e+07	
30	-1.50000e+00	5.138261e+07	
31	-1.55000e+00	6.095983e+07	
32	-1.60000e+00	7.023126e+07	
33	-1.65000e+00	7.910277e+07	
34	-1.70000e+00	8.755453e+07	
35	-1.75000e+00	9.560645e+07	
36	-1.80000e+00	1.032961e+08	
37	-1.85000e+00	1.106662e+08	
38	-1.90000e+00	1.177580e+08	
39	-1.95000e+00	1.246090e+08	
40	-2.00000e+00	1.312517e+08	
41	-2.05000e+00	1.377137e+08	
42	-2.10000e+00	1.440183e+08	
43	-2.15000e+00	1.501850e+08	
44	-2.20000e+00	1.562300e+08	
45	-2.25000e+00	1.621669e+08	
46	-2.30000e+00	1.680072e+08	
47	-2.35000e+00	1.737605e+08	
48	-2.40000e+00	1.794347e+08	
49	-2.45000e+00	1.850369e+08	
50	-2.50000e+00	1.905727e+08	
51	-2.55000e+00	1.960472e+08	
52	-2.60000e+00	2.014645e+08	
53	-2.65000e+00	2.068283e+08	
54	-2.70000e+00	2.121414e+08	

Index   v-sweep         rds             
--------------------------------------------------------------------------------
55	-2.75000e+00	2.174062e+08	
56	-2.80000e+00	2.226244e+08	
57	-2.85000e+00	2.277968e+08	
58	-2.90000e+00	2.329233e+08	
59	-2.95000e+00	2.380026e+08	
60	-3.00000e+00	2.430319e+08	
61	-3.05000e+00	2.480062e+08	
62	-3.10000e+00	2.529180e+08	
63	-3.15000e+00	2.577564e+08	
64	-3.20000e+00	2.625067e+08	
65	-3.25000e+00	2.671489e+08	
66	-3.30000e+00	2.716573e+08	
Reset re-loads circuit ***************************

Circuit: ***************************

Doing analysis at TEMP = 125.000000 and TNOM = 125.000000


No. of Data Rows : 67
                          ***************************
                          DC transfer characteristic  Mon Jan  9 13:57:32  2023
--------------------------------------------------------------------------------
Index   v-sweep         rds             
--------------------------------------------------------------------------------
0	0.000000e+00	2.067865e+05	
1	-5.00000e-02	2.136765e+05	
2	-1.00000e-01	2.210363e+05	
3	-1.50000e-01	2.289157e+05	
4	-2.00000e-01	2.373717e+05	
5	-2.50000e-01	2.464699e+05	
6	-3.00000e-01	2.562863e+05	
7	-3.50000e-01	2.669093e+05	
8	-4.00000e-01	2.784426e+05	
9	-4.50000e-01	2.910081e+05	
10	-5.00000e-01	3.047509e+05	
11	-5.50000e-01	3.198440e+05	
12	-6.00000e-01	3.364965e+05	
13	-6.50000e-01	3.549625e+05	
14	-7.00000e-01	3.755542e+05	
15	-7.50000e-01	3.986598e+05	
16	-8.00000e-01	4.247672e+05	
17	-8.50000e-01	4.544983e+05	
18	-9.00000e-01	4.886578e+05	
19	-9.50000e-01	5.283046e+05	
20	-1.00000e+00	5.748581e+05	
21	-1.05000e+00	6.302630e+05	
22	-1.10000e+00	6.972469e+05	
23	-1.15000e+00	7.797410e+05	
24	-1.20000e+00	8.835822e+05	
25	-1.25000e+00	1.017725e+06	
26	-1.30000e+00	1.196387e+06	
27	-1.35000e+00	1.442891e+06	
28	-1.40000e+00	1.796487e+06	
29	-1.45000e+00	2.323706e+06	
30	-1.50000e+00	3.134118e+06	
31	-1.55000e+00	4.392946e+06	
32	-1.60000e+00	6.309055e+06	
33	-1.65000e+00	9.074856e+06	
34	-1.70000e+00	1.277351e+07	
35	-1.75000e+00	1.732080e+07	
36	-1.80000e+00	2.249311e+07	
37	-1.85000e+00	2.801577e+07	
38	-1.90000e+00	3.364583e+07	
39	-1.95000e+00	3.921165e+07	
40	-2.00000e+00	4.461381e+07	
41	-2.05000e+00	4.980765e+07	
42	-2.10000e+00	5.478336e+07	
43	-2.15000e+00	5.955035e+07	
44	-2.20000e+00	6.412689e+07	
45	-2.25000e+00	6.853419e+07	
46	-2.30000e+00	7.279315e+07	
47	-2.35000e+00	7.692292e+07	
48	-2.40000e+00	8.094039e+07	
49	-2.45000e+00	8.486006e+07	
50	-2.50000e+00	8.869427e+07	
51	-2.55000e+00	9.245345e+07	
52	-2.60000e+00	9.614637e+07	
53	-2.65000e+00	9.978042e+07	
54	-2.70000e+00	1.033618e+08	

Index   v-sweep         rds             
--------------------------------------------------------------------------------
55	-2.75000e+00	1.068959e+08	
56	-2.80000e+00	1.103870e+08	
57	-2.85000e+00	1.138390e+08	
58	-2.90000e+00	1.172551e+08	
59	-2.95000e+00	1.206380e+08	
60	-3.00000e+00	1.239901e+08	
61	-3.05000e+00	1.273134e+08	
62	-3.10000e+00	1.306094e+08	
63	-3.15000e+00	1.338794e+08	
64	-3.20000e+00	1.371241e+08	
65	-3.25000e+00	1.403440e+08	
66	-3.30000e+00	1.435385e+08	
Reset re-loads circuit ***************************

Circuit: ***************************

Doing analysis at TEMP = 125.000000 and TNOM = 125.000000


No. of Data Rows : 67
                          ***************************
                          DC transfer characteristic  Mon Jan  9 13:57:32  2023
--------------------------------------------------------------------------------
Index   v-sweep         rds             
--------------------------------------------------------------------------------
0	0.000000e+00	1.727058e+05	
1	-5.00000e-02	1.772268e+05	
2	-1.00000e-01	1.819877e+05	
3	-1.50000e-01	1.870081e+05	
4	-2.00000e-01	1.923098e+05	
5	-2.50000e-01	1.979171e+05	
6	-3.00000e-01	2.038572e+05	
7	-3.50000e-01	2.101606e+05	
8	-4.00000e-01	2.168617e+05	
9	-4.50000e-01	2.239993e+05	
10	-5.00000e-01	2.316175e+05	
11	-5.50000e-01	2.397665e+05	
12	-6.00000e-01	2.485036e+05	
13	-6.50000e-01	2.578949e+05	
14	-7.00000e-01	2.680166e+05	
15	-7.50000e-01	2.789573e+05	
16	-8.00000e-01	2.908204e+05	
17	-8.50000e-01	3.037274e+05	
18	-9.00000e-01	3.178221e+05	
19	-9.50000e-01	3.332761e+05	
20	-1.00000e+00	3.502951e+05	
21	-1.05000e+00	3.691288e+05	
22	-1.10000e+00	3.900824e+05	
23	-1.15000e+00	4.135331e+05	
24	-1.20000e+00	4.399524e+05	
25	-1.25000e+00	4.699372e+05	
26	-1.30000e+00	5.042534e+05	
27	-1.35000e+00	5.438995e+05	
28	-1.40000e+00	5.901992e+05	
29	-1.45000e+00	6.449412e+05	
30	-1.50000e+00	7.105934e+05	
31	-1.55000e+00	7.906403e+05	
32	-1.60000e+00	8.901255e+05	
33	-1.65000e+00	1.016541e+06	
34	-1.70000e+00	1.181308e+06	
35	-1.75000e+00	1.402228e+06	
36	-1.80000e+00	1.707443e+06	
37	-1.85000e+00	2.141270e+06	
38	-1.90000e+00	2.771123e+06	
39	-1.95000e+00	3.691297e+06	
40	-2.00000e+00	5.014385e+06	
41	-2.05000e+00	6.841627e+06	
42	-2.10000e+00	9.219052e+06	
43	-2.15000e+00	1.210744e+07	
44	-2.20000e+00	1.539088e+07	
45	-2.25000e+00	1.891769e+07	
46	-2.30000e+00	2.254472e+07	
47	-2.35000e+00	2.616332e+07	
48	-2.40000e+00	2.970479e+07	
49	-2.45000e+00	3.313351e+07	
50	-2.50000e+00	3.643673e+07	
51	-2.55000e+00	3.961536e+07	
52	-2.60000e+00	4.267753e+07	
53	-2.65000e+00	4.563439e+07	
54	-2.70000e+00	4.849781e+07	

Index   v-sweep         rds             
--------------------------------------------------------------------------------
55	-2.75000e+00	5.127916e+07	
56	-2.80000e+00	5.398872e+07	
57	-2.85000e+00	5.663552e+07	
58	-2.90000e+00	5.922735e+07	
59	-2.95000e+00	6.177088e+07	
60	-3.00000e+00	6.427177e+07	
61	-3.05000e+00	6.673481e+07	
62	-3.10000e+00	6.916408e+07	
63	-3.15000e+00	7.156302e+07	
64	-3.20000e+00	7.393458e+07	
65	-3.25000e+00	7.628125e+07	
66	-3.30000e+00	7.860517e+07	
Reset re-loads circuit ***************************

Circuit: ***************************

Note: No ".plot", ".print", or ".fourier" lines; no simulations run
