
Note: Compatibility modes selected: hs

Warning: m=xx on .subckt line will override multiplier m hierarchy!


Circuit: ***************************

Doing analysis at TEMP = 25.000000 and TNOM = 25.000000


No. of Data Rows : 67
                          ***************************
                          DC transfer characteristic  Mon Jan  9 13:57:30  2023
--------------------------------------------------------------------------------
Index   v-sweep         rds             
--------------------------------------------------------------------------------
0	0.000000e+00	4.669661e+05	
1	-5.00000e-02	1.052027e+06	
2	-1.00000e-01	4.579971e+06	
3	-1.50000e-01	1.939942e+07	
4	-2.00000e-01	4.141697e+07	
5	-2.50000e-01	5.842676e+07	
6	-3.00000e-01	6.967371e+07	
7	-3.50000e-01	7.759979e+07	
8	-4.00000e-01	8.375263e+07	
9	-4.50000e-01	8.889861e+07	
10	-5.00000e-01	9.341767e+07	
11	-5.50000e-01	9.750911e+07	
12	-6.00000e-01	1.012849e+08	
13	-6.50000e-01	1.048123e+08	
14	-7.00000e-01	1.081345e+08	
15	-7.50000e-01	1.112809e+08	
16	-8.00000e-01	1.142725e+08	
17	-8.50000e-01	1.171251e+08	
18	-9.00000e-01	1.198513e+08	
19	-9.50000e-01	1.224611e+08	
20	-1.00000e+00	1.249629e+08	
21	-1.05000e+00	1.273639e+08	
22	-1.10000e+00	1.296705e+08	
23	-1.15000e+00	1.318882e+08	
24	-1.20000e+00	1.340220e+08	
25	-1.25000e+00	1.360765e+08	
26	-1.30000e+00	1.380557e+08	
27	-1.35000e+00	1.399635e+08	
28	-1.40000e+00	1.418033e+08	
29	-1.45000e+00	1.435784e+08	
30	-1.50000e+00	1.452918e+08	
31	-1.55000e+00	1.469462e+08	
32	-1.60000e+00	1.485442e+08	
33	-1.65000e+00	1.500883e+08	
34	-1.70000e+00	1.515805e+08	
35	-1.75000e+00	1.530229e+08	
36	-1.80000e+00	1.544170e+08	
37	-1.85000e+00	1.557645e+08	
38	-1.90000e+00	1.570661e+08	
39	-1.95000e+00	1.583228e+08	
40	-2.00000e+00	1.595345e+08	
41	-2.05000e+00	1.607008e+08	
42	-2.10000e+00	1.618207e+08	
43	-2.15000e+00	1.628922e+08	
44	-2.20000e+00	1.639124e+08	
45	-2.25000e+00	1.648773e+08	
46	-2.30000e+00	1.657817e+08	
47	-2.35000e+00	1.666192e+08	
48	-2.40000e+00	1.673817e+08	
49	-2.45000e+00	1.680596e+08	
50	-2.50000e+00	1.686416e+08	
51	-2.55000e+00	1.691150e+08	
52	-2.60000e+00	1.694650e+08	
53	-2.65000e+00	1.696754e+08	
54	-2.70000e+00	1.697287e+08	

Index   v-sweep         rds             
--------------------------------------------------------------------------------
55	-2.75000e+00	1.696060e+08	
56	-2.80000e+00	1.692876e+08	
57	-2.85000e+00	1.687533e+08	
58	-2.90000e+00	1.679831e+08	
59	-2.95000e+00	1.669578e+08	
60	-3.00000e+00	1.656595e+08	
61	-3.05000e+00	1.640725e+08	
62	-3.10000e+00	1.621844e+08	
63	-3.15000e+00	1.599864e+08	
64	-3.20000e+00	1.574742e+08	
65	-3.25000e+00	1.546485e+08	
66	-3.30000e+00	1.515156e+08	
Reset re-loads circuit ***************************

Circuit: ***************************

Doing analysis at TEMP = 25.000000 and TNOM = 25.000000


No. of Data Rows : 67
                          ***************************
                          DC transfer characteristic  Mon Jan  9 13:57:30  2023
--------------------------------------------------------------------------------
Index   v-sweep         rds             
--------------------------------------------------------------------------------
0	0.000000e+00	5.277762e+04	
1	-5.00000e-02	5.932368e+04	
2	-1.00000e-01	6.761629e+04	
3	-1.50000e-01	7.845296e+04	
4	-2.00000e-01	9.319045e+04	
5	-2.50000e-01	1.143110e+05	
6	-3.00000e-01	1.467671e+05	
7	-3.50000e-01	2.013954e+05	
8	-4.00000e-01	3.032452e+05	
9	-4.50000e-01	5.036426e+05	
10	-5.00000e-01	8.556677e+05	
11	-5.50000e-01	1.313742e+06	
12	-6.00000e-01	1.753564e+06	
13	-6.50000e-01	2.116130e+06	
14	-7.00000e-01	2.410235e+06	
15	-7.50000e-01	2.658664e+06	
16	-8.00000e-01	2.878487e+06	
17	-8.50000e-01	3.080129e+06	
18	-9.00000e-01	3.269703e+06	
19	-9.50000e-01	3.450825e+06	
20	-1.00000e+00	3.625698e+06	
21	-1.05000e+00	3.795708e+06	
22	-1.10000e+00	3.961760e+06	
23	-1.15000e+00	4.124461e+06	
24	-1.20000e+00	4.284235e+06	
25	-1.25000e+00	4.441386e+06	
26	-1.30000e+00	4.596137e+06	
27	-1.35000e+00	4.748658e+06	
28	-1.40000e+00	4.899082e+06	
29	-1.45000e+00	5.047513e+06	
30	-1.50000e+00	5.194038e+06	
31	-1.55000e+00	5.338728e+06	
32	-1.60000e+00	5.481645e+06	
33	-1.65000e+00	5.622841e+06	
34	-1.70000e+00	5.762363e+06	
35	-1.75000e+00	5.900253e+06	
36	-1.80000e+00	6.036548e+06	
37	-1.85000e+00	6.171282e+06	
38	-1.90000e+00	6.304485e+06	
39	-1.95000e+00	6.436185e+06	
40	-2.00000e+00	6.566403e+06	
41	-2.05000e+00	6.695156e+06	
42	-2.10000e+00	6.822453e+06	
43	-2.15000e+00	6.948292e+06	
44	-2.20000e+00	7.072657e+06	
45	-2.25000e+00	7.195509e+06	
46	-2.30000e+00	7.316785e+06	
47	-2.35000e+00	7.436381e+06	
48	-2.40000e+00	7.554151e+06	
49	-2.45000e+00	7.669885e+06	
50	-2.50000e+00	7.783302e+06	
51	-2.55000e+00	7.894030e+06	
52	-2.60000e+00	8.001590e+06	
53	-2.65000e+00	8.105376e+06	
54	-2.70000e+00	8.204640e+06	

Index   v-sweep         rds             
--------------------------------------------------------------------------------
55	-2.75000e+00	8.298470e+06	
56	-2.80000e+00	8.385780e+06	
57	-2.85000e+00	8.465294e+06	
58	-2.90000e+00	8.535546e+06	
59	-2.95000e+00	8.594878e+06	
60	-3.00000e+00	8.641461e+06	
61	-3.05000e+00	8.673320e+06	
62	-3.10000e+00	8.688379e+06	
63	-3.15000e+00	8.684528e+06	
64	-3.20000e+00	8.659697e+06	
65	-3.25000e+00	8.611958e+06	
66	-3.30000e+00	8.539633e+06	
Reset re-loads circuit ***************************

Circuit: ***************************

Doing analysis at TEMP = 25.000000 and TNOM = 25.000000


No. of Data Rows : 67
                          ***************************
                          DC transfer characteristic  Mon Jan  9 13:57:30  2023
--------------------------------------------------------------------------------
Index   v-sweep         rds             
--------------------------------------------------------------------------------
0	0.000000e+00	2.934944e+04	
1	-5.00000e-02	3.125900e+04	
2	-1.00000e-01	3.341212e+04	
3	-1.50000e-01	3.585842e+04	
4	-2.00000e-01	3.866194e+04	
5	-2.50000e-01	4.190669e+04	
6	-3.00000e-01	4.570509e+04	
7	-3.50000e-01	5.021089e+04	
8	-4.00000e-01	5.563970e+04	
9	-4.50000e-01	6.230273e+04	
10	-5.00000e-01	7.066423e+04	
11	-5.50000e-01	8.144283e+04	
12	-6.00000e-01	9.579604e+04	
13	-6.50000e-01	1.156598e+05	
14	-7.00000e-01	1.443442e+05	
15	-7.50000e-01	1.873445e+05	
16	-8.00000e-01	2.523515e+05	
17	-8.50000e-01	3.450880e+05	
18	-9.00000e-01	4.600330e+05	
19	-9.50000e-01	5.797391e+05	
20	-1.00000e+00	6.894439e+05	
21	-1.05000e+00	7.851308e+05	
22	-1.10000e+00	8.690555e+05	
23	-1.15000e+00	9.446254e+05	
24	-1.20000e+00	1.014541e+06	
25	-1.25000e+00	1.080619e+06	
26	-1.30000e+00	1.144021e+06	
27	-1.35000e+00	1.205488e+06	
28	-1.40000e+00	1.265498e+06	
29	-1.45000e+00	1.324365e+06	
30	-1.50000e+00	1.382302e+06	
31	-1.55000e+00	1.439456e+06	
32	-1.60000e+00	1.495930e+06	
33	-1.65000e+00	1.551801e+06	
34	-1.70000e+00	1.607123e+06	
35	-1.75000e+00	1.661938e+06	
36	-1.80000e+00	1.716278e+06	
37	-1.85000e+00	1.770169e+06	
38	-1.90000e+00	1.823631e+06	
39	-1.95000e+00	1.876681e+06	
40	-2.00000e+00	1.929332e+06	
41	-2.05000e+00	1.981595e+06	
42	-2.10000e+00	2.033479e+06	
43	-2.15000e+00	2.084995e+06	
44	-2.20000e+00	2.136148e+06	
45	-2.25000e+00	2.186945e+06	
46	-2.30000e+00	2.237390e+06	
47	-2.35000e+00	2.287488e+06	
48	-2.40000e+00	2.337240e+06	
49	-2.45000e+00	2.386647e+06	
50	-2.50000e+00	2.435704e+06	
51	-2.55000e+00	2.484402e+06	
52	-2.60000e+00	2.532726e+06	
53	-2.65000e+00	2.580651e+06	
54	-2.70000e+00	2.628139e+06	

Index   v-sweep         rds             
--------------------------------------------------------------------------------
55	-2.75000e+00	2.675134e+06	
56	-2.80000e+00	2.721560e+06	
57	-2.85000e+00	2.767313e+06	
58	-2.90000e+00	2.812254e+06	
59	-2.95000e+00	2.856201e+06	
60	-3.00000e+00	2.898926e+06	
61	-3.05000e+00	2.940139e+06	
62	-3.10000e+00	2.979488e+06	
63	-3.15000e+00	3.016543e+06	
64	-3.20000e+00	3.050799e+06	
65	-3.25000e+00	3.081664e+06	
66	-3.30000e+00	3.108465e+06	
Reset re-loads circuit ***************************

Circuit: ***************************

Doing analysis at TEMP = 25.000000 and TNOM = 25.000000


No. of Data Rows : 67
                          ***************************
                          DC transfer characteristic  Mon Jan  9 13:57:30  2023
--------------------------------------------------------------------------------
Index   v-sweep         rds             
--------------------------------------------------------------------------------
0	0.000000e+00	2.133075e+04	
1	-5.00000e-02	2.228360e+04	
2	-1.00000e-01	2.331601e+04	
3	-1.50000e-01	2.443834e+04	
4	-2.00000e-01	2.566285e+04	
5	-2.50000e-01	2.700411e+04	
6	-3.00000e-01	2.847962e+04	
7	-3.50000e-01	3.011054e+04	
8	-4.00000e-01	3.192267e+04	
9	-4.50000e-01	3.394790e+04	
10	-5.00000e-01	3.622595e+04	
11	-5.50000e-01	3.880704e+04	
12	-6.00000e-01	4.175548e+04	
13	-6.50000e-01	4.515493e+04	
14	-7.00000e-01	4.911606e+04	
15	-7.50000e-01	5.378810e+04	
16	-8.00000e-01	5.937641e+04	
17	-8.50000e-01	6.616988e+04	
18	-9.00000e-01	7.458400e+04	
19	-9.50000e-01	8.522822e+04	
20	-1.00000e+00	9.900600e+04	
21	-1.05000e+00	1.172405e+05	
22	-1.10000e+00	1.417435e+05	
23	-1.15000e+00	1.745408e+05	
24	-1.20000e+00	2.167454e+05	
25	-1.25000e+00	2.667528e+05	
26	-1.30000e+00	3.199685e+05	
27	-1.35000e+00	3.715438e+05	
28	-1.40000e+00	4.190012e+05	
29	-1.45000e+00	4.621569e+05	
30	-1.50000e+00	5.018228e+05	
31	-1.55000e+00	5.389247e+05	
32	-1.60000e+00	5.742010e+05	
33	-1.65000e+00	6.081737e+05	
34	-1.70000e+00	6.411967e+05	
35	-1.75000e+00	6.735077e+05	
36	-1.80000e+00	7.052674e+05	
37	-1.85000e+00	7.365859e+05	
38	-1.90000e+00	7.675402e+05	
39	-1.95000e+00	7.981846e+05	
40	-2.00000e+00	8.285585e+05	
41	-2.05000e+00	8.586912e+05	
42	-2.10000e+00	8.886042e+05	
43	-2.15000e+00	9.183141e+05	
44	-2.20000e+00	9.478338e+05	
45	-2.25000e+00	9.771734e+05	
46	-2.30000e+00	1.006341e+06	
47	-2.35000e+00	1.035343e+06	
48	-2.40000e+00	1.064185e+06	
49	-2.45000e+00	1.092871e+06	
50	-2.50000e+00	1.121405e+06	
51	-2.55000e+00	1.149791e+06	
52	-2.60000e+00	1.178030e+06	
53	-2.65000e+00	1.206125e+06	
54	-2.70000e+00	1.234077e+06	

Index   v-sweep         rds             
--------------------------------------------------------------------------------
55	-2.75000e+00	1.261887e+06	
56	-2.80000e+00	1.289555e+06	
57	-2.85000e+00	1.317078e+06	
58	-2.90000e+00	1.344451e+06	
59	-2.95000e+00	1.371667e+06	
60	-3.00000e+00	1.398712e+06	
61	-3.05000e+00	1.425566e+06	
62	-3.10000e+00	1.452202e+06	
63	-3.15000e+00	1.478579e+06	
64	-3.20000e+00	1.504643e+06	
65	-3.25000e+00	1.530319e+06	
66	-3.30000e+00	1.555511e+06	
Reset re-loads circuit ***************************

Circuit: ***************************

Doing analysis at TEMP = 25.000000 and TNOM = 25.000000


No. of Data Rows : 67
                          ***************************
                          DC transfer characteristic  Mon Jan  9 13:57:30  2023
--------------------------------------------------------------------------------
Index   v-sweep         rds             
--------------------------------------------------------------------------------
0	0.000000e+00	1.730873e+04	
1	-5.00000e-02	1.790110e+04	
2	-1.00000e-01	1.853012e+04	
3	-1.50000e-01	1.919926e+04	
4	-2.00000e-01	1.991250e+04	
5	-2.50000e-01	2.067431e+04	
6	-3.00000e-01	2.148984e+04	
7	-3.50000e-01	2.236495e+04	
8	-4.00000e-01	2.330639e+04	
9	-4.50000e-01	2.432200e+04	
10	-5.00000e-01	2.542086e+04	
11	-5.50000e-01	2.661363e+04	
12	-6.00000e-01	2.791282e+04	
13	-6.50000e-01	2.933331e+04	
14	-7.00000e-01	3.089284e+04	
15	-7.50000e-01	3.261276e+04	
16	-8.00000e-01	3.451904e+04	
17	-8.50000e-01	3.664348e+04	
18	-9.00000e-01	3.902548e+04	
19	-9.50000e-01	4.171440e+04	
20	-1.00000e+00	4.477282e+04	
21	-1.05000e+00	4.828110e+04	
22	-1.10000e+00	5.234393e+04	
23	-1.15000e+00	5.709957e+04	
24	-1.20000e+00	6.273319e+04	
25	-1.25000e+00	6.949568e+04	
26	-1.30000e+00	7.772908e+04	
27	-1.35000e+00	8.789688e+04	
28	-1.40000e+00	1.006072e+05	
29	-1.45000e+00	1.165901e+05	
30	-1.50000e+00	1.365438e+05	
31	-1.55000e+00	1.607514e+05	
32	-1.60000e+00	1.885754e+05	
33	-1.65000e+00	2.183587e+05	
34	-1.70000e+00	2.481424e+05	
35	-1.75000e+00	2.765895e+05	
36	-1.80000e+00	3.032508e+05	
37	-1.85000e+00	3.282510e+05	
38	-1.90000e+00	3.519177e+05	
39	-1.95000e+00	3.745782e+05	
40	-2.00000e+00	3.964941e+05	
41	-2.05000e+00	4.178564e+05	
42	-2.10000e+00	4.388000e+05	
43	-2.15000e+00	4.594192e+05	
44	-2.20000e+00	4.797799e+05	
45	-2.25000e+00	4.999292e+05	
46	-2.30000e+00	5.199003e+05	
47	-2.35000e+00	5.397179e+05	
48	-2.40000e+00	5.593998e+05	
49	-2.45000e+00	5.789597e+05	
50	-2.50000e+00	5.984076e+05	
51	-2.55000e+00	6.177516e+05	
52	-2.60000e+00	6.369979e+05	
53	-2.65000e+00	6.561513e+05	
54	-2.70000e+00	6.752157e+05	

Index   v-sweep         rds             
--------------------------------------------------------------------------------
55	-2.75000e+00	6.941945e+05	
56	-2.80000e+00	7.130902e+05	
57	-2.85000e+00	7.319050e+05	
58	-2.90000e+00	7.506407e+05	
59	-2.95000e+00	7.692988e+05	
60	-3.00000e+00	7.878804e+05	
61	-3.05000e+00	8.063863e+05	
62	-3.10000e+00	8.248169e+05	
63	-3.15000e+00	8.431717e+05	
64	-3.20000e+00	8.614493e+05	
65	-3.25000e+00	8.796470e+05	
66	-3.30000e+00	8.977598e+05	
Reset re-loads circuit ***************************

Circuit: ***************************

Doing analysis at TEMP = 25.000000 and TNOM = 25.000000


No. of Data Rows : 67
                          ***************************
                          DC transfer characteristic  Mon Jan  9 13:57:30  2023
--------------------------------------------------------------------------------
Index   v-sweep         rds             
--------------------------------------------------------------------------------
0	0.000000e+00	1.490608e+04	
1	-5.00000e-02	1.532079e+04	
2	-1.00000e-01	1.575581e+04	
3	-1.50000e-01	1.621265e+04	
4	-2.00000e-01	1.669299e+04	
5	-2.50000e-01	1.719869e+04	
6	-3.00000e-01	1.773181e+04	
7	-3.50000e-01	1.829463e+04	
8	-4.00000e-01	1.888969e+04	
9	-4.50000e-01	1.951984e+04	
10	-5.00000e-01	2.018828e+04	
11	-5.50000e-01	2.089858e+04	
12	-6.00000e-01	2.165480e+04	
13	-6.50000e-01	2.246152e+04	
14	-7.00000e-01	2.332398e+04	
15	-7.50000e-01	2.424812e+04	
16	-8.00000e-01	2.524079e+04	
17	-8.50000e-01	2.630989e+04	
18	-9.00000e-01	2.746456e+04	
19	-9.50000e-01	2.871545e+04	
20	-1.00000e+00	3.007507e+04	
21	-1.05000e+00	3.155816e+04	
22	-1.10000e+00	3.318223e+04	
23	-1.15000e+00	3.496824e+04	
24	-1.20000e+00	3.694147e+04	
25	-1.25000e+00	3.913264e+04	
26	-1.30000e+00	4.157948e+04	
27	-1.35000e+00	4.432869e+04	
28	-1.40000e+00	4.743871e+04	
29	-1.45000e+00	5.098331e+04	
30	-1.50000e+00	5.505656e+04	
31	-1.55000e+00	5.977930e+04	
32	-1.60000e+00	6.530741e+04	
33	-1.65000e+00	7.184143e+04	
34	-1.70000e+00	7.963510e+04	
35	-1.75000e+00	8.899568e+04	
36	-1.80000e+00	1.002599e+05	
37	-1.85000e+00	1.137173e+05	
38	-1.90000e+00	1.294607e+05	
39	-1.95000e+00	1.472058e+05	
40	-2.00000e+00	1.662432e+05	
41	-2.05000e+00	1.856615e+05	
42	-2.10000e+00	2.047112e+05	
43	-2.15000e+00	2.230047e+05	
44	-2.20000e+00	2.404688e+05	
45	-2.25000e+00	2.571966e+05	
46	-2.30000e+00	2.733307e+05	
47	-2.35000e+00	2.890055e+05	
48	-2.40000e+00	3.043291e+05	
49	-2.45000e+00	3.193825e+05	
50	-2.50000e+00	3.342249e+05	
51	-2.55000e+00	3.488989e+05	
52	-2.60000e+00	3.634351e+05	
53	-2.65000e+00	3.778560e+05	
54	-2.70000e+00	3.921779e+05	

Index   v-sweep         rds             
--------------------------------------------------------------------------------
55	-2.75000e+00	4.064131e+05	
56	-2.80000e+00	4.205706e+05	
57	-2.85000e+00	4.346576e+05	
58	-2.90000e+00	4.486792e+05	
59	-2.95000e+00	4.626399e+05	
60	-3.00000e+00	4.765427e+05	
61	-3.05000e+00	4.903905e+05	
62	-3.10000e+00	5.041853e+05	
63	-3.15000e+00	5.179289e+05	
64	-3.20000e+00	5.316228e+05	
65	-3.25000e+00	5.452680e+05	
66	-3.30000e+00	5.588656e+05	
Reset re-loads circuit ***************************

Circuit: ***************************

Note: No ".plot", ".print", or ".fourier" lines; no simulations run
