
Note: Compatibility modes selected: hs

Warning: m=xx on .subckt line will override multiplier m hierarchy!


Circuit: ***************************

Doing analysis at TEMP = -40.000000 and TNOM = -40.000000


No. of Data Rows : 67
                          ***************************
                          DC transfer characteristic  Mon Jan  9 13:57:31  2023
--------------------------------------------------------------------------------
Index   v-sweep         rds             
--------------------------------------------------------------------------------
0	0.000000e+00	1.777505e+07	
1	-5.00000e-02	2.166951e+08	
2	-1.00000e-01	2.028704e+09	
3	-1.50000e-01	7.623798e+09	
4	-2.00000e-01	1.769864e+10	
5	-2.50000e-01	3.097371e+10	
6	-3.00000e-01	4.528350e+10	
7	-3.50000e-01	5.887926e+10	
8	-4.00000e-01	7.088463e+10	
9	-4.50000e-01	8.109552e+10	
10	-5.00000e-01	8.964975e+10	
11	-5.50000e-01	9.680144e+10	
12	-6.00000e-01	1.028110e+11	
13	-6.50000e-01	1.079046e+11	
14	-7.00000e-01	1.122654e+11	
15	-7.50000e-01	1.160375e+11	
16	-8.00000e-01	1.193329e+11	
17	-8.50000e-01	1.222386e+11	
18	-9.00000e-01	1.248226e+11	
19	-9.50000e-01	1.271381e+11	
20	-1.00000e+00	1.292275e+11	
21	-1.05000e+00	1.311246e+11	
22	-1.10000e+00	1.328566e+11	
23	-1.15000e+00	1.344459e+11	
24	-1.20000e+00	1.359107e+11	
25	-1.25000e+00	1.372663e+11	
26	-1.30000e+00	1.385254e+11	
27	-1.35000e+00	1.396988e+11	
28	-1.40000e+00	1.407956e+11	
29	-1.45000e+00	1.418237e+11	
30	-1.50000e+00	1.427897e+11	
31	-1.55000e+00	1.436994e+11	
32	-1.60000e+00	1.445580e+11	
33	-1.65000e+00	1.453698e+11	
34	-1.70000e+00	1.461387e+11	
35	-1.75000e+00	1.468679e+11	
36	-1.80000e+00	1.475603e+11	
37	-1.85000e+00	1.482183e+11	
38	-1.90000e+00	1.488439e+11	
39	-1.95000e+00	1.494387e+11	
40	-2.00000e+00	1.500037e+11	
41	-2.05000e+00	1.505398e+11	
42	-2.10000e+00	1.510472e+11	
43	-2.15000e+00	1.515256e+11	
44	-2.20000e+00	1.519742e+11	
45	-2.25000e+00	1.523918e+11	
46	-2.30000e+00	1.527764e+11	
47	-2.35000e+00	1.531255e+11	
48	-2.40000e+00	1.534358e+11	
49	-2.45000e+00	1.537034e+11	
50	-2.50000e+00	1.539239e+11	
51	-2.55000e+00	1.540918e+11	
52	-2.60000e+00	1.542013e+11	
53	-2.65000e+00	1.542456e+11	
54	-2.70000e+00	1.542175e+11	

Index   v-sweep         rds             
--------------------------------------------------------------------------------
55	-2.75000e+00	1.541092e+11	
56	-2.80000e+00	1.539123e+11	
57	-2.85000e+00	1.536181e+11	
58	-2.90000e+00	1.532178e+11	
59	-2.95000e+00	1.527022e+11	
60	-3.00000e+00	1.520625e+11	
61	-3.05000e+00	1.512900e+11	
62	-3.10000e+00	1.503766e+11	
63	-3.15000e+00	1.493149e+11	
64	-3.20000e+00	1.480986e+11	
65	-3.25000e+00	1.467222e+11	
66	-3.30000e+00	1.451821e+11	
Reset re-loads circuit ***************************

Circuit: ***************************

Doing analysis at TEMP = -40.000000 and TNOM = -40.000000


No. of Data Rows : 67
                          ***************************
                          DC transfer characteristic  Mon Jan  9 13:57:31  2023
--------------------------------------------------------------------------------
Index   v-sweep         rds             
--------------------------------------------------------------------------------
0	0.000000e+00	4.853308e+05	
1	-5.00000e-02	5.764214e+05	
2	-1.00000e-01	7.089536e+05	
3	-1.50000e-01	9.182495e+05	
4	-2.00000e-01	1.290795e+06	
5	-2.50000e-01	2.079205e+06	
6	-3.00000e-01	4.130365e+06	
7	-3.50000e-01	1.005875e+07	
8	-4.00000e-01	2.524018e+07	
9	-4.50000e-01	5.586029e+07	
10	-5.00000e-01	1.053826e+08	
11	-5.50000e-01	1.730285e+08	
12	-6.00000e-01	2.547540e+08	
13	-6.50000e-01	3.452869e+08	
14	-7.00000e-01	4.397959e+08	
15	-7.50000e-01	5.346647e+08	
16	-8.00000e-01	6.275627e+08	
17	-8.50000e-01	7.171866e+08	
18	-9.00000e-01	8.029394e+08	
19	-9.50000e-01	8.846620e+08	
20	-1.00000e+00	9.624432e+08	
21	-1.05000e+00	1.036498e+09	
22	-1.10000e+00	1.107096e+09	
23	-1.15000e+00	1.174517e+09	
24	-1.20000e+00	1.239032e+09	
25	-1.25000e+00	1.300894e+09	
26	-1.30000e+00	1.360330e+09	
27	-1.35000e+00	1.417543e+09	
28	-1.40000e+00	1.472713e+09	
29	-1.45000e+00	1.526000e+09	
30	-1.50000e+00	1.577546e+09	
31	-1.55000e+00	1.627475e+09	
32	-1.60000e+00	1.675897e+09	
33	-1.65000e+00	1.722910e+09	
34	-1.70000e+00	1.768604e+09	
35	-1.75000e+00	1.813054e+09	
36	-1.80000e+00	1.856332e+09	
37	-1.85000e+00	1.898499e+09	
38	-1.90000e+00	1.939611e+09	
39	-1.95000e+00	1.979715e+09	
40	-2.00000e+00	2.018853e+09	
41	-2.05000e+00	2.057056e+09	
42	-2.10000e+00	2.094349e+09	
43	-2.15000e+00	2.130744e+09	
44	-2.20000e+00	2.166242e+09	
45	-2.25000e+00	2.200827e+09	
46	-2.30000e+00	2.234465e+09	
47	-2.35000e+00	2.267101e+09	
48	-2.40000e+00	2.298651e+09	
49	-2.45000e+00	2.329002e+09	
50	-2.50000e+00	2.358004e+09	
51	-2.55000e+00	2.385468e+09	
52	-2.60000e+00	2.411160e+09	
53	-2.65000e+00	2.434797e+09	
54	-2.70000e+00	2.456047e+09	

Index   v-sweep         rds             
--------------------------------------------------------------------------------
55	-2.75000e+00	2.474526e+09	
56	-2.80000e+00	2.489798e+09	
57	-2.85000e+00	2.501386e+09	
58	-2.90000e+00	2.508773e+09	
59	-2.95000e+00	2.511417e+09	
60	-3.00000e+00	2.508770e+09	
61	-3.05000e+00	2.500295e+09	
62	-3.10000e+00	2.485494e+09	
63	-3.15000e+00	2.463936e+09	
64	-3.20000e+00	2.435286e+09	
65	-3.25000e+00	2.399330e+09	
66	-3.30000e+00	2.356006e+09	
Reset re-loads circuit ***************************

Circuit: ***************************

Doing analysis at TEMP = -40.000000 and TNOM = -40.000000


No. of Data Rows : 67
                          ***************************
                          DC transfer characteristic  Mon Jan  9 13:57:31  2023
--------------------------------------------------------------------------------
Index   v-sweep         rds             
--------------------------------------------------------------------------------
0	0.000000e+00	2.413122e+05	
1	-5.00000e-02	2.612656e+05	
2	-1.00000e-01	2.847945e+05	
3	-1.50000e-01	3.129501e+05	
4	-2.00000e-01	3.472374e+05	
5	-2.50000e-01	3.898856e+05	
6	-3.00000e-01	4.443345e+05	
7	-3.50000e-01	5.161594e+05	
8	-4.00000e-01	6.149504e+05	
9	-4.50000e-01	7.584242e+05	
10	-5.00000e-01	9.821402e+05	
11	-5.50000e-01	1.363921e+06	
12	-6.00000e-01	2.085303e+06	
13	-6.50000e-01	3.563617e+06	
14	-7.00000e-01	6.619076e+06	
15	-7.50000e-01	1.243283e+07	
16	-8.00000e-01	2.210333e+07	
17	-8.50000e-01	3.611777e+07	
18	-9.00000e-01	5.417787e+07	
19	-9.50000e-01	7.541802e+07	
20	-1.00000e+00	9.877029e+07	
21	-1.05000e+00	1.232523e+08	
22	-1.10000e+00	1.481039e+08	
23	-1.15000e+00	1.728054e+08	
24	-1.20000e+00	1.970378e+08	
25	-1.25000e+00	2.206279e+08	
26	-1.30000e+00	2.434989e+08	
27	-1.35000e+00	2.656334e+08	
28	-1.40000e+00	2.870483e+08	
29	-1.45000e+00	3.077787e+08	
30	-1.50000e+00	3.278676e+08	
31	-1.55000e+00	3.473604e+08	
32	-1.60000e+00	3.663012e+08	
33	-1.65000e+00	3.847318e+08	
34	-1.70000e+00	4.026902e+08	
35	-1.75000e+00	4.202111e+08	
36	-1.80000e+00	4.373253e+08	
37	-1.85000e+00	4.540607e+08	
38	-1.90000e+00	4.704419e+08	
39	-1.95000e+00	4.864909e+08	
40	-2.00000e+00	5.022274e+08	
41	-2.05000e+00	5.176688e+08	
42	-2.10000e+00	5.328307e+08	
43	-2.15000e+00	5.477270e+08	
44	-2.20000e+00	5.623697e+08	
45	-2.25000e+00	5.767692e+08	
46	-2.30000e+00	5.909342e+08	
47	-2.35000e+00	6.048712e+08	
48	-2.40000e+00	6.185842e+08	
49	-2.45000e+00	6.320744e+08	
50	-2.50000e+00	6.453389e+08	
51	-2.55000e+00	6.583701e+08	
52	-2.60000e+00	6.711545e+08	
53	-2.65000e+00	6.836712e+08	
54	-2.70000e+00	6.958898e+08	

Index   v-sweep         rds             
--------------------------------------------------------------------------------
55	-2.75000e+00	7.077692e+08	
56	-2.80000e+00	7.192554e+08	
57	-2.85000e+00	7.302788e+08	
58	-2.90000e+00	7.407530e+08	
59	-2.95000e+00	7.505722e+08	
60	-3.00000e+00	7.596104e+08	
61	-3.05000e+00	7.677197e+08	
62	-3.10000e+00	7.747312e+08	
63	-3.15000e+00	7.804556e+08	
64	-3.20000e+00	7.846867e+08	
65	-3.25000e+00	7.872061e+08	
66	-3.30000e+00	7.877900e+08	
Reset re-loads circuit ***************************

Circuit: ***************************

Doing analysis at TEMP = -40.000000 and TNOM = -40.000000


No. of Data Rows : 67
                          ***************************
                          DC transfer characteristic  Mon Jan  9 13:57:31  2023
--------------------------------------------------------------------------------
Index   v-sweep         rds             
--------------------------------------------------------------------------------
0	0.000000e+00	1.674227e+05	
1	-5.00000e-02	1.761275e+05	
2	-1.00000e-01	1.857810e+05	
3	-1.50000e-01	1.965469e+05	
4	-2.00000e-01	2.086288e+05	
5	-2.50000e-01	2.222833e+05	
6	-3.00000e-01	2.378379e+05	
7	-3.50000e-01	2.557173e+05	
8	-4.00000e-01	2.764825e+05	
9	-4.50000e-01	3.008888e+05	
10	-5.00000e-01	3.299775e+05	
11	-5.50000e-01	3.652228e+05	
12	-6.00000e-01	4.087768e+05	
13	-6.50000e-01	4.638962e+05	
14	-7.00000e-01	5.357185e+05	
15	-7.50000e-01	6.327461e+05	
16	-8.00000e-01	7.698234e+05	
17	-8.50000e-01	9.743518e+05	
18	-9.00000e-01	1.299421e+06	
19	-9.50000e-01	1.850058e+06	
20	-1.00000e+00	2.826136e+06	
21	-1.05000e+00	4.561142e+06	
22	-1.10000e+00	7.493417e+06	
23	-1.15000e+00	1.202748e+07	
24	-1.20000e+00	1.836225e+07	
25	-1.25000e+00	2.641556e+07	
26	-1.30000e+00	3.588092e+07	
27	-1.35000e+00	4.635094e+07	
28	-1.40000e+00	5.742816e+07	
29	-1.45000e+00	6.878728e+07	
30	-1.50000e+00	8.019251e+07	
31	-1.55000e+00	9.148884e+07	
32	-1.60000e+00	1.025836e+08	
33	-1.65000e+00	1.134278e+08	
34	-1.70000e+00	1.240012e+08	
35	-1.75000e+00	1.343012e+08	
36	-1.80000e+00	1.443352e+08	
37	-1.85000e+00	1.541162e+08	
38	-1.90000e+00	1.636597e+08	
39	-1.95000e+00	1.729817e+08	
40	-2.00000e+00	1.820978e+08	
41	-2.05000e+00	1.910228e+08	
42	-2.10000e+00	1.997704e+08	
43	-2.15000e+00	2.083528e+08	
44	-2.20000e+00	2.167813e+08	
45	-2.25000e+00	2.250659e+08	
46	-2.30000e+00	2.332154e+08	
47	-2.35000e+00	2.412380e+08	
48	-2.40000e+00	2.491408e+08	
49	-2.45000e+00	2.569300e+08	
50	-2.50000e+00	2.646114e+08	
51	-2.55000e+00	2.721897e+08	
52	-2.60000e+00	2.796691e+08	
53	-2.65000e+00	2.870529e+08	
54	-2.70000e+00	2.943435e+08	

Index   v-sweep         rds             
--------------------------------------------------------------------------------
55	-2.75000e+00	3.015419e+08	
56	-2.80000e+00	3.086477e+08	
57	-2.85000e+00	3.156588e+08	
58	-2.90000e+00	3.225703e+08	
59	-2.95000e+00	3.293743e+08	
60	-3.00000e+00	3.360590e+08	
61	-3.05000e+00	3.426077e+08	
62	-3.10000e+00	3.489977e+08	
63	-3.15000e+00	3.551993e+08	
64	-3.20000e+00	3.611744e+08	
65	-3.25000e+00	3.668754e+08	
66	-3.30000e+00	3.722441e+08	
Reset re-loads circuit ***************************

Circuit: ***************************

Doing analysis at TEMP = -40.000000 and TNOM = -40.000000


No. of Data Rows : 67
                          ***************************
                          DC transfer characteristic  Mon Jan  9 13:57:31  2023
--------------------------------------------------------------------------------
Index   v-sweep         rds             
--------------------------------------------------------------------------------
0	0.000000e+00	1.326657e+05	
1	-5.00000e-02	1.376206e+05	
2	-1.00000e-01	1.429570e+05	
3	-1.50000e-01	1.487208e+05	
4	-2.00000e-01	1.549652e+05	
5	-2.50000e-01	1.617530e+05	
6	-3.00000e-01	1.691583e+05	
7	-3.50000e-01	1.772693e+05	
8	-4.00000e-01	1.861917e+05	
9	-4.50000e-01	1.960534e+05	
10	-5.00000e-01	2.070108e+05	
11	-5.50000e-01	2.192564e+05	
12	-6.00000e-01	2.330312e+05	
13	-6.50000e-01	2.486391e+05	
14	-7.00000e-01	2.664702e+05	
15	-7.50000e-01	2.870327e+05	
16	-8.00000e-01	3.110003e+05	
17	-8.50000e-01	3.392848e+05	
18	-9.00000e-01	3.731488e+05	
19	-9.50000e-01	4.143864e+05	
20	-1.00000e+00	4.656241e+05	
21	-1.05000e+00	5.308366e+05	
22	-1.10000e+00	6.162658e+05	
23	-1.15000e+00	7.321097e+05	
24	-1.20000e+00	8.956943e+05	
25	-1.25000e+00	1.137419e+06	
26	-1.30000e+00	1.511315e+06	
27	-1.35000e+00	2.111022e+06	
28	-1.40000e+00	3.085509e+06	
29	-1.45000e+00	4.636024e+06	
30	-1.50000e+00	6.973226e+06	
31	-1.55000e+00	1.024372e+07	
32	-1.60000e+00	1.447232e+07	
33	-1.65000e+00	1.955785e+07	
34	-1.70000e+00	2.531645e+07	
35	-1.75000e+00	3.153878e+07	
36	-1.80000e+00	3.803363e+07	
37	-1.85000e+00	4.464918e+07	
38	-1.90000e+00	5.127665e+07	
39	-1.95000e+00	5.784453e+07	
40	-2.00000e+00	6.430981e+07	
41	-2.05000e+00	7.064945e+07	
42	-2.10000e+00	7.685370e+07	
43	-2.15000e+00	8.292106e+07	
44	-2.20000e+00	8.885496e+07	
45	-2.25000e+00	9.466150e+07	
46	-2.30000e+00	1.003480e+08	
47	-2.35000e+00	1.059223e+08	
48	-2.40000e+00	1.113921e+08	
49	-2.45000e+00	1.167646e+08	
50	-2.50000e+00	1.220465e+08	
51	-2.55000e+00	1.272442e+08	
52	-2.60000e+00	1.323631e+08	
53	-2.65000e+00	1.374084e+08	
54	-2.70000e+00	1.423845e+08	

Index   v-sweep         rds             
--------------------------------------------------------------------------------
55	-2.75000e+00	1.472956e+08	
56	-2.80000e+00	1.521452e+08	
57	-2.85000e+00	1.569365e+08	
58	-2.90000e+00	1.616724e+08	
59	-2.95000e+00	1.663553e+08	
60	-3.00000e+00	1.709871e+08	
61	-3.05000e+00	1.755691e+08	
62	-3.10000e+00	1.801022e+08	
63	-3.15000e+00	1.845864e+08	
64	-3.20000e+00	1.890205e+08	
65	-3.25000e+00	1.934020e+08	
66	-3.30000e+00	1.977268e+08	
Reset re-loads circuit ***************************

Circuit: ***************************

Doing analysis at TEMP = -40.000000 and TNOM = -40.000000


No. of Data Rows : 67
                          ***************************
                          DC transfer characteristic  Mon Jan  9 13:57:31  2023
--------------------------------------------------------------------------------
Index   v-sweep         rds             
--------------------------------------------------------------------------------
0	0.000000e+00	1.130150e+05	
1	-5.00000e-02	1.162666e+05	
2	-1.00000e-01	1.197090e+05	
3	-1.50000e-01	1.233597e+05	
4	-2.00000e-01	1.272379e+05	
5	-2.50000e-01	1.313659e+05	
6	-3.00000e-01	1.357683e+05	
7	-3.50000e-01	1.404736e+05	
8	-4.00000e-01	1.455140e+05	
9	-4.50000e-01	1.509267e+05	
10	-5.00000e-01	1.567545e+05	
11	-5.50000e-01	1.630469e+05	
12	-6.00000e-01	1.698617e+05	
13	-6.50000e-01	1.772668e+05	
14	-7.00000e-01	1.853422e+05	
15	-7.50000e-01	1.941829e+05	
16	-8.00000e-01	2.039030e+05	
17	-8.50000e-01	2.146401e+05	
18	-9.00000e-01	2.265621e+05	
19	-9.50000e-01	2.398758e+05	
20	-1.00000e+00	2.548385e+05	
21	-1.05000e+00	2.717749e+05	
22	-1.10000e+00	2.910997e+05	
23	-1.15000e+00	3.133512e+05	
24	-1.20000e+00	3.392396e+05	
25	-1.25000e+00	3.697198e+05	
26	-1.30000e+00	4.061035e+05	
27	-1.35000e+00	4.502348e+05	
28	-1.40000e+00	5.047754e+05	
29	-1.45000e+00	5.736771e+05	
30	-1.50000e+00	6.629872e+05	
31	-1.55000e+00	7.822405e+05	
32	-1.60000e+00	9.468735e+05	
33	-1.65000e+00	1.182291e+06	
34	-1.70000e+00	1.530135e+06	
35	-1.75000e+00	2.056087e+06	
36	-1.80000e+00	2.854933e+06	
37	-1.85000e+00	4.044016e+06	
38	-1.90000e+00	5.737930e+06	
39	-1.95000e+00	8.011476e+06	
40	-2.00000e+00	1.087219e+07	
41	-2.05000e+00	1.425918e+07	
42	-2.10000e+00	1.806557e+07	
43	-2.15000e+00	2.216885e+07	
44	-2.20000e+00	2.645497e+07	
45	-2.25000e+00	3.083117e+07	
46	-2.30000e+00	3.522906e+07	
47	-2.35000e+00	3.960223e+07	
48	-2.40000e+00	4.392154e+07	
49	-2.45000e+00	4.817041e+07	
50	-2.50000e+00	5.234083e+07	
51	-2.55000e+00	5.643032e+07	
52	-2.60000e+00	6.043986e+07	
53	-2.65000e+00	6.437238e+07	
54	-2.70000e+00	6.823184e+07	

Index   v-sweep         rds             
--------------------------------------------------------------------------------
55	-2.75000e+00	7.202267e+07	
56	-2.80000e+00	7.574934e+07	
57	-2.85000e+00	7.941621e+07	
58	-2.90000e+00	8.302737e+07	
59	-2.95000e+00	8.658659e+07	
60	-3.00000e+00	9.009735e+07	
61	-3.05000e+00	9.356277e+07	
62	-3.10000e+00	9.698569e+07	
63	-3.15000e+00	1.003686e+08	
64	-3.20000e+00	1.037139e+08	
65	-3.25000e+00	1.070234e+08	
66	-3.30000e+00	1.102990e+08	
Reset re-loads circuit ***************************

Circuit: ***************************

Note: No ".plot", ".print", or ".fourier" lines; no simulations run
