
Note: Compatibility modes selected: hs

Warning: m=xx on .subckt line will override multiplier m hierarchy!


Circuit: ***************************

Doing analysis at TEMP = 125.000000 and TNOM = 125.000000


No. of Data Rows : 67
                          ***************************
                          DC transfer characteristic  Mon Jan  9 13:57:32  2023
--------------------------------------------------------------------------------
Index   v-sweep         rds             
--------------------------------------------------------------------------------
0	0.000000e+00	1.763078e+05	
1	-5.00000e-02	2.157139e+05	
2	-1.00000e-01	2.761302e+05	
3	-1.50000e-01	3.789602e+05	
4	-2.00000e-01	5.813350e+05	
5	-2.50000e-01	1.040799e+06	
6	-3.00000e-01	1.999197e+06	
7	-3.50000e-01	3.208791e+06	
8	-4.00000e-01	4.080866e+06	
9	-4.50000e-01	4.580146e+06	
10	-5.00000e-01	4.877216e+06	
11	-5.50000e-01	5.076877e+06	
12	-6.00000e-01	5.226990e+06	
13	-6.50000e-01	5.349204e+06	
14	-7.00000e-01	5.453930e+06	
15	-7.50000e-01	5.546575e+06	
16	-8.00000e-01	5.630173e+06	
17	-8.50000e-01	5.706560e+06	
18	-9.00000e-01	5.776928e+06	
19	-9.50000e-01	5.842101e+06	
20	-1.00000e+00	5.902684e+06	
21	-1.05000e+00	5.959140e+06	
22	-1.10000e+00	6.011840e+06	
23	-1.15000e+00	6.061095e+06	
24	-1.20000e+00	6.107164e+06	
25	-1.25000e+00	6.150276e+06	
26	-1.30000e+00	6.190632e+06	
27	-1.35000e+00	6.228409e+06	
28	-1.40000e+00	6.263770e+06	
29	-1.45000e+00	6.296863e+06	
30	-1.50000e+00	6.327820e+06	
31	-1.55000e+00	6.356766e+06	
32	-1.60000e+00	6.383816e+06	
33	-1.65000e+00	6.409073e+06	
34	-1.70000e+00	6.432636e+06	
35	-1.75000e+00	6.454596e+06	
36	-1.80000e+00	6.475036e+06	
37	-1.85000e+00	6.494033e+06	
38	-1.90000e+00	6.511657e+06	
39	-1.95000e+00	6.527973e+06	
40	-2.00000e+00	6.543035e+06	
41	-2.05000e+00	6.556892e+06	
42	-2.10000e+00	6.569581e+06	
43	-2.15000e+00	6.581128e+06	
44	-2.20000e+00	6.591548e+06	
45	-2.25000e+00	6.600839e+06	
46	-2.30000e+00	6.608981e+06	
47	-2.35000e+00	6.615936e+06	
48	-2.40000e+00	6.621640e+06	
49	-2.45000e+00	6.626005e+06	
50	-2.50000e+00	6.628912e+06	
51	-2.55000e+00	6.630212e+06	
52	-2.60000e+00	6.629718e+06	
53	-2.65000e+00	6.627208e+06	
54	-2.70000e+00	6.622420e+06	

Index   v-sweep         rds             
--------------------------------------------------------------------------------
55	-2.75000e+00	6.615050e+06	
56	-2.80000e+00	6.604755e+06	
57	-2.85000e+00	6.591150e+06	
58	-2.90000e+00	6.573811e+06	
59	-2.95000e+00	6.552282e+06	
60	-3.00000e+00	6.526075e+06	
61	-3.05000e+00	6.494681e+06	
62	-3.10000e+00	6.457576e+06	
63	-3.15000e+00	6.414236e+06	
64	-3.20000e+00	6.364147e+06	
65	-3.25000e+00	6.306821e+06	
66	-3.30000e+00	6.241812e+06	
Reset re-loads circuit ***************************

Circuit: ***************************

Doing analysis at TEMP = 125.000000 and TNOM = 125.000000


No. of Data Rows : 67
                          ***************************
                          DC transfer characteristic  Mon Jan  9 13:57:32  2023
--------------------------------------------------------------------------------
Index   v-sweep         rds             
--------------------------------------------------------------------------------
0	0.000000e+00	6.009325e+04	
1	-5.00000e-02	6.496148e+04	
2	-1.00000e-01	7.059365e+04	
3	-1.50000e-01	7.718381e+04	
4	-2.00000e-01	8.499727e+04	
5	-2.50000e-01	9.440598e+04	
6	-3.00000e-01	1.059468e+05	
7	-3.50000e-01	1.204210e+05	
8	-4.00000e-01	1.390696e+05	
9	-4.50000e-01	1.638940e+05	
10	-5.00000e-01	1.982400e+05	
11	-5.50000e-01	2.477768e+05	
12	-6.00000e-01	3.214944e+05	
13	-6.50000e-01	4.296140e+05	
14	-7.00000e-01	5.710912e+05	
15	-7.50000e-01	7.196482e+05	
16	-8.00000e-01	8.441217e+05	
17	-8.50000e-01	9.367884e+05	
18	-9.00000e-01	1.005727e+06	
19	-9.50000e-01	1.060028e+06	
20	-1.00000e+00	1.105615e+06	
21	-1.05000e+00	1.145834e+06	
22	-1.10000e+00	1.182538e+06	
23	-1.15000e+00	1.216769e+06	
24	-1.20000e+00	1.249141e+06	
25	-1.25000e+00	1.280028e+06	
26	-1.30000e+00	1.309671e+06	
27	-1.35000e+00	1.338234e+06	
28	-1.40000e+00	1.365829e+06	
29	-1.45000e+00	1.392542e+06	
30	-1.50000e+00	1.418438e+06	
31	-1.55000e+00	1.443567e+06	
32	-1.60000e+00	1.467973e+06	
33	-1.65000e+00	1.491691e+06	
34	-1.70000e+00	1.514753e+06	
35	-1.75000e+00	1.537186e+06	
36	-1.80000e+00	1.559016e+06	
37	-1.85000e+00	1.580265e+06	
38	-1.90000e+00	1.600955e+06	
39	-1.95000e+00	1.621105e+06	
40	-2.00000e+00	1.640734e+06	
41	-2.05000e+00	1.659858e+06	
42	-2.10000e+00	1.678494e+06	
43	-2.15000e+00	1.696658e+06	
44	-2.20000e+00	1.714362e+06	
45	-2.25000e+00	1.731621e+06	
46	-2.30000e+00	1.748447e+06	
47	-2.35000e+00	1.764848e+06	
48	-2.40000e+00	1.780833e+06	
49	-2.45000e+00	1.796408e+06	
50	-2.50000e+00	1.811573e+06	
51	-2.55000e+00	1.826328e+06	
52	-2.60000e+00	1.840663e+06	
53	-2.65000e+00	1.854563e+06	
54	-2.70000e+00	1.868006e+06	

Index   v-sweep         rds             
--------------------------------------------------------------------------------
55	-2.75000e+00	1.880958e+06	
56	-2.80000e+00	1.893374e+06	
57	-2.85000e+00	1.905195e+06	
58	-2.90000e+00	1.916346e+06	
59	-2.95000e+00	1.926735e+06	
60	-3.00000e+00	1.936249e+06	
61	-3.05000e+00	1.944754e+06	
62	-3.10000e+00	1.952095e+06	
63	-3.15000e+00	1.958094e+06	
64	-3.20000e+00	1.962546e+06	
65	-3.25000e+00	1.965230e+06	
66	-3.30000e+00	1.965900e+06	
Reset re-loads circuit ***************************

Circuit: ***************************

Doing analysis at TEMP = 125.000000 and TNOM = 125.000000


No. of Data Rows : 67
                          ***************************
                          DC transfer characteristic  Mon Jan  9 13:57:32  2023
--------------------------------------------------------------------------------
Index   v-sweep         rds             
--------------------------------------------------------------------------------
0	0.000000e+00	3.790758e+04	
1	-5.00000e-02	3.987432e+04	
2	-1.00000e-01	4.202391e+04	
3	-1.50000e-01	4.438297e+04	
4	-2.00000e-01	4.698356e+04	
5	-2.50000e-01	4.986457e+04	
6	-3.00000e-01	5.307370e+04	
7	-3.50000e-01	5.667006e+04	
8	-4.00000e-01	6.072776e+04	
9	-4.50000e-01	6.534090e+04	
10	-5.00000e-01	7.063070e+04	
11	-5.50000e-01	7.675579e+04	
12	-6.00000e-01	8.392728e+04	
13	-6.50000e-01	9.243131e+04	
14	-7.00000e-01	1.026631e+05	
15	-7.50000e-01	1.151779e+05	
16	-8.00000e-01	1.307658e+05	
17	-8.50000e-01	1.505467e+05	
18	-9.00000e-01	1.760444e+05	
19	-9.50000e-01	2.090553e+05	
20	-1.00000e+00	2.508455e+05	
21	-1.05000e+00	3.002554e+05	
22	-1.10000e+00	3.521965e+05	
23	-1.15000e+00	4.000362e+05	
24	-1.20000e+00	4.402125e+05	
25	-1.25000e+00	4.730611e+05	
26	-1.30000e+00	5.005038e+05	
27	-1.35000e+00	5.243429e+05	
28	-1.40000e+00	5.458236e+05	
29	-1.45000e+00	5.657210e+05	
30	-1.50000e+00	5.845046e+05	
31	-1.55000e+00	6.024608e+05	
32	-1.60000e+00	6.197683e+05	
33	-1.65000e+00	6.365421e+05	
34	-1.70000e+00	6.528587e+05	
35	-1.75000e+00	6.687706e+05	
36	-1.80000e+00	6.843157e+05	
37	-1.85000e+00	6.995216e+05	
38	-1.90000e+00	7.144098e+05	
39	-1.95000e+00	7.289971e+05	
40	-2.00000e+00	7.432975e+05	
41	-2.05000e+00	7.573224e+05	
42	-2.10000e+00	7.710819e+05	
43	-2.15000e+00	7.845849e+05	
44	-2.20000e+00	7.978391e+05	
45	-2.25000e+00	8.108518e+05	
46	-2.30000e+00	8.236295e+05	
47	-2.35000e+00	8.361785e+05	
48	-2.40000e+00	8.485044e+05	
49	-2.45000e+00	8.606127e+05	
50	-2.50000e+00	8.725084e+05	
51	-2.55000e+00	8.841962e+05	
52	-2.60000e+00	8.956801e+05	
53	-2.65000e+00	9.069640e+05	
54	-2.70000e+00	9.180506e+05	

Index   v-sweep         rds             
--------------------------------------------------------------------------------
55	-2.75000e+00	9.289418e+05	
56	-2.80000e+00	9.396380e+05	
57	-2.85000e+00	9.501378e+05	
58	-2.90000e+00	9.604373e+05	
59	-2.95000e+00	9.705294e+05	
60	-3.00000e+00	9.804026e+05	
61	-3.05000e+00	9.900408e+05	
62	-3.10000e+00	9.994210e+05	
63	-3.15000e+00	1.008513e+06	
64	-3.20000e+00	1.017277e+06	
65	-3.25000e+00	1.025664e+06	
66	-3.30000e+00	1.033611e+06	
Reset re-loads circuit ***************************

Circuit: ***************************

Doing analysis at TEMP = 125.000000 and TNOM = 125.000000


No. of Data Rows : 67
                          ***************************
                          DC transfer characteristic  Mon Jan  9 13:57:32  2023
--------------------------------------------------------------------------------
Index   v-sweep         rds             
--------------------------------------------------------------------------------
0	0.000000e+00	2.846828e+04	
1	-5.00000e-02	2.958418e+04	
2	-1.00000e-01	3.077441e+04	
3	-1.50000e-01	3.204663e+04	
4	-2.00000e-01	3.340956e+04	
5	-2.50000e-01	3.487319e+04	
6	-3.00000e-01	3.644906e+04	
7	-3.50000e-01	3.815053e+04	
8	-4.00000e-01	3.999315e+04	
9	-4.50000e-01	4.199514e+04	
10	-5.00000e-01	4.417800e+04	
11	-5.50000e-01	4.656723e+04	
12	-6.00000e-01	4.919337e+04	
13	-6.50000e-01	5.209319e+04	
14	-7.00000e-01	5.531145e+04	
15	-7.50000e-01	5.890306e+04	
16	-8.00000e-01	6.293609e+04	
17	-8.50000e-01	6.749579e+04	
18	-9.00000e-01	7.269010e+04	
19	-9.50000e-01	7.865715e+04	
20	-1.00000e+00	8.557543e+04	
21	-1.05000e+00	9.367714e+04	
22	-1.10000e+00	1.032645e+05	
23	-1.15000e+00	1.147256e+05	
24	-1.20000e+00	1.285367e+05	
25	-1.25000e+00	1.452170e+05	
26	-1.30000e+00	1.651625e+05	
27	-1.35000e+00	1.882814e+05	
28	-1.40000e+00	2.135413e+05	
29	-1.45000e+00	2.389792e+05	
30	-1.50000e+00	2.626079e+05	
31	-1.55000e+00	2.834374e+05	
32	-1.60000e+00	3.015531e+05	
33	-1.65000e+00	3.175383e+05	
34	-1.70000e+00	3.320020e+05	
35	-1.75000e+00	3.454083e+05	
36	-1.80000e+00	3.580705e+05	
37	-1.85000e+00	3.701911e+05	
38	-1.90000e+00	3.818997e+05	
39	-1.95000e+00	3.932803e+05	
40	-2.00000e+00	4.043883e+05	
41	-2.05000e+00	4.152611e+05	
42	-2.10000e+00	4.259249e+05	
43	-2.15000e+00	4.363982e+05	
44	-2.20000e+00	4.466950e+05	
45	-2.25000e+00	4.568257e+05	
46	-2.30000e+00	4.667985e+05	
47	-2.35000e+00	4.766200e+05	
48	-2.40000e+00	4.862959e+05	
49	-2.45000e+00	4.958306e+05	
50	-2.50000e+00	5.052283e+05	
51	-2.55000e+00	5.144926e+05	
52	-2.60000e+00	5.236267e+05	
53	-2.65000e+00	5.326336e+05	
54	-2.70000e+00	5.415161e+05	

Index   v-sweep         rds             
--------------------------------------------------------------------------------
55	-2.75000e+00	5.502766e+05	
56	-2.80000e+00	5.589175e+05	
57	-2.85000e+00	5.674411e+05	
58	-2.90000e+00	5.758492e+05	
59	-2.95000e+00	5.841436e+05	
60	-3.00000e+00	5.923255e+05	
61	-3.05000e+00	6.003957e+05	
62	-3.10000e+00	6.083543e+05	
63	-3.15000e+00	6.162003e+05	
64	-3.20000e+00	6.239312e+05	
65	-3.25000e+00	6.315428e+05	
66	-3.30000e+00	6.390282e+05	
Reset re-loads circuit ***************************

Circuit: ***************************

Doing analysis at TEMP = 125.000000 and TNOM = 125.000000


No. of Data Rows : 67
                          ***************************
                          DC transfer characteristic  Mon Jan  9 13:57:32  2023
--------------------------------------------------------------------------------
Index   v-sweep         rds             
--------------------------------------------------------------------------------
0	0.000000e+00	2.318854e+04	
1	-5.00000e-02	2.393128e+04	
2	-1.00000e-01	2.471280e+04	
3	-1.50000e-01	2.553619e+04	
4	-2.00000e-01	2.640488e+04	
5	-2.50000e-01	2.732270e+04	
6	-3.00000e-01	2.829391e+04	
7	-3.50000e-01	2.932325e+04	
8	-4.00000e-01	3.041610e+04	
9	-4.50000e-01	3.157847e+04	
10	-5.00000e-01	3.281717e+04	
11	-5.50000e-01	3.413992e+04	
12	-6.00000e-01	3.555554e+04	
13	-6.50000e-01	3.707409e+04	
14	-7.00000e-01	3.870716e+04	
15	-7.50000e-01	4.046812e+04	
16	-8.00000e-01	4.237249e+04	
17	-8.50000e-01	4.443840e+04	
18	-9.00000e-01	4.668713e+04	
19	-9.50000e-01	4.914383e+04	
20	-1.00000e+00	5.183839e+04	
21	-1.05000e+00	5.480662e+04	
22	-1.10000e+00	5.809168e+04	
23	-1.15000e+00	6.174597e+04	
24	-1.20000e+00	6.583355e+04	
25	-1.25000e+00	7.043317e+04	
26	-1.30000e+00	7.564198e+04	
27	-1.35000e+00	8.157982e+04	
28	-1.40000e+00	8.839323e+04	
29	-1.45000e+00	9.625712e+04	
30	-1.50000e+00	1.053686e+05	
31	-1.55000e+00	1.159215e+05	
32	-1.60000e+00	1.280431e+05	
33	-1.65000e+00	1.416765e+05	
34	-1.70000e+00	1.564412e+05	
35	-1.75000e+00	1.716038e+05	
36	-1.80000e+00	1.863056e+05	
37	-1.85000e+00	1.999339e+05	
38	-1.90000e+00	2.123028e+05	
39	-1.95000e+00	2.235424e+05	
40	-2.00000e+00	2.338975e+05	
41	-2.05000e+00	2.436004e+05	
42	-2.10000e+00	2.528289e+05	
43	-2.15000e+00	2.617067e+05	
44	-2.20000e+00	2.703172e+05	
45	-2.25000e+00	2.787158e+05	
46	-2.30000e+00	2.869397e+05	
47	-2.35000e+00	2.950142e+05	
48	-2.40000e+00	3.029570e+05	
49	-2.45000e+00	3.107806e+05	
50	-2.50000e+00	3.184940e+05	
51	-2.55000e+00	3.261042e+05	
52	-2.60000e+00	3.336163e+05	
53	-2.65000e+00	3.410345e+05	
54	-2.70000e+00	3.483622e+05	

Index   v-sweep         rds             
--------------------------------------------------------------------------------
55	-2.75000e+00	3.556022e+05	
56	-2.80000e+00	3.627568e+05	
57	-2.85000e+00	3.698282e+05	
58	-2.90000e+00	3.768182e+05	
59	-2.95000e+00	3.837284e+05	
60	-3.00000e+00	3.905604e+05	
61	-3.05000e+00	3.973155e+05	
62	-3.10000e+00	4.039951e+05	
63	-3.15000e+00	4.106002e+05	
64	-3.20000e+00	4.171321e+05	
65	-3.25000e+00	4.235914e+05	
66	-3.30000e+00	4.299789e+05	
Reset re-loads circuit ***************************

Circuit: ***************************

Doing analysis at TEMP = 125.000000 and TNOM = 125.000000


No. of Data Rows : 67
                          ***************************
                          DC transfer characteristic  Mon Jan  9 13:57:32  2023
--------------------------------------------------------------------------------
Index   v-sweep         rds             
--------------------------------------------------------------------------------
0	0.000000e+00	1.977831e+04	
1	-5.00000e-02	2.032018e+04	
2	-1.00000e-01	2.088540e+04	
3	-1.50000e-01	2.147551e+04	
4	-2.00000e-01	2.209218e+04	
5	-2.50000e-01	2.273721e+04	
6	-3.00000e-01	2.341261e+04	
7	-3.50000e-01	2.412053e+04	
8	-4.00000e-01	2.486338e+04	
9	-4.50000e-01	2.564378e+04	
10	-5.00000e-01	2.646462e+04	
11	-5.50000e-01	2.732912e+04	
12	-6.00000e-01	2.824083e+04	
13	-6.50000e-01	2.920369e+04	
14	-7.00000e-01	3.022210e+04	
15	-7.50000e-01	3.130098e+04	
16	-8.00000e-01	3.244584e+04	
17	-8.50000e-01	3.366289e+04	
18	-9.00000e-01	3.495913e+04	
19	-9.50000e-01	3.634248e+04	
20	-1.00000e+00	3.782198e+04	
21	-1.05000e+00	3.940791e+04	
22	-1.10000e+00	4.111210e+04	
23	-1.15000e+00	4.294815e+04	
24	-1.20000e+00	4.493181e+04	
25	-1.25000e+00	4.708139e+04	
26	-1.30000e+00	4.941828e+04	
27	-1.35000e+00	5.196761e+04	
28	-1.40000e+00	5.475903e+04	
29	-1.45000e+00	5.782766e+04	
30	-1.50000e+00	6.121528e+04	
31	-1.55000e+00	6.497162e+04	
32	-1.60000e+00	6.915584e+04	
33	-1.65000e+00	7.383772e+04	
34	-1.70000e+00	7.909815e+04	
35	-1.75000e+00	8.502726e+04	
36	-1.80000e+00	9.171755e+04	
37	-1.85000e+00	9.924707e+04	
38	-1.90000e+00	1.076465e+05	
39	-1.95000e+00	1.168493e+05	
40	-2.00000e+00	1.266428e+05	
41	-2.05000e+00	1.366710e+05	
42	-2.10000e+00	1.465288e+05	
43	-2.15000e+00	1.559090e+05	
44	-2.20000e+00	1.646843e+05	
45	-2.25000e+00	1.728796e+05	
46	-2.30000e+00	1.805929e+05	
47	-2.35000e+00	1.879325e+05	
48	-2.40000e+00	1.949893e+05	
49	-2.45000e+00	2.018309e+05	
50	-2.50000e+00	2.085048e+05	
51	-2.55000e+00	2.150436e+05	
52	-2.60000e+00	2.214697e+05	
53	-2.65000e+00	2.277988e+05	
54	-2.70000e+00	2.340416e+05	

Index   v-sweep         rds             
--------------------------------------------------------------------------------
55	-2.75000e+00	2.402061e+05	
56	-2.80000e+00	2.462978e+05	
57	-2.85000e+00	2.523211e+05	
58	-2.90000e+00	2.582793e+05	
59	-2.95000e+00	2.641749e+05	
60	-3.00000e+00	2.700100e+05	
61	-3.05000e+00	2.757863e+05	
62	-3.10000e+00	2.815052e+05	
63	-3.15000e+00	2.871681e+05	
64	-3.20000e+00	2.927759e+05	
65	-3.25000e+00	2.983298e+05	
66	-3.30000e+00	3.038305e+05	
Reset re-loads circuit ***************************

Circuit: ***************************

Note: No ".plot", ".print", or ".fourier" lines; no simulations run
