
Note: Compatibility modes selected: hs

Warning: m=xx on .subckt line will override multiplier m hierarchy!


Circuit: ***************************

Doing analysis at TEMP = -40.000000 and TNOM = -40.000000


No. of Data Rows : 67
                          ***************************
                          DC transfer characteristic  Mon Jan  9 13:57:31  2023
--------------------------------------------------------------------------------
Index   v-sweep         rds             
--------------------------------------------------------------------------------
0	0.000000e+00	2.879413e+06	
1	-5.00000e-02	2.506388e+07	
2	-1.00000e-01	2.107564e+08	
3	-1.50000e-01	6.161223e+08	
4	-2.00000e-01	1.028291e+09	
5	-2.50000e-01	1.345383e+09	
6	-3.00000e-01	1.582417e+09	
7	-3.50000e-01	1.768381e+09	
8	-4.00000e-01	1.922432e+09	
9	-4.50000e-01	2.055567e+09	
10	-5.00000e-01	2.174099e+09	
11	-5.50000e-01	2.281803e+09	
12	-6.00000e-01	2.381050e+09	
13	-6.50000e-01	2.473408e+09	
14	-7.00000e-01	2.559968e+09	
15	-7.50000e-01	2.641522e+09	
16	-8.00000e-01	2.718670e+09	
17	-8.50000e-01	2.791882e+09	
18	-9.00000e-01	2.861536e+09	
19	-9.50000e-01	2.927945e+09	
20	-1.00000e+00	2.991374e+09	
21	-1.05000e+00	3.052049e+09	
22	-1.10000e+00	3.110170e+09	
23	-1.15000e+00	3.165909e+09	
24	-1.20000e+00	3.219424e+09	
25	-1.25000e+00	3.270853e+09	
26	-1.30000e+00	3.320322e+09	
27	-1.35000e+00	3.367946e+09	
28	-1.40000e+00	3.413829e+09	
29	-1.45000e+00	3.458068e+09	
30	-1.50000e+00	3.500750e+09	
31	-1.55000e+00	3.541955e+09	
32	-1.60000e+00	3.581757e+09	
33	-1.65000e+00	3.620224e+09	
34	-1.70000e+00	3.657414e+09	
35	-1.75000e+00	3.693381e+09	
36	-1.80000e+00	3.728170e+09	
37	-1.85000e+00	3.761817e+09	
38	-1.90000e+00	3.794347e+09	
39	-1.95000e+00	3.825775e+09	
40	-2.00000e+00	3.856100e+09	
41	-2.05000e+00	3.885306e+09	
42	-2.10000e+00	3.913358e+09	
43	-2.15000e+00	3.940199e+09	
44	-2.20000e+00	3.965749e+09	
45	-2.25000e+00	3.989898e+09	
46	-2.30000e+00	4.012508e+09	
47	-2.35000e+00	4.033406e+09	
48	-2.40000e+00	4.052385e+09	
49	-2.45000e+00	4.069200e+09	
50	-2.50000e+00	4.083569e+09	
51	-2.55000e+00	4.095170e+09	
52	-2.60000e+00	4.103646e+09	
53	-2.65000e+00	4.108605e+09	
54	-2.70000e+00	4.109627e+09	

Index   v-sweep         rds             
--------------------------------------------------------------------------------
55	-2.75000e+00	4.106268e+09	
56	-2.80000e+00	4.098072e+09	
57	-2.85000e+00	4.084579e+09	
58	-2.90000e+00	4.065339e+09	
59	-2.95000e+00	4.039930e+09	
60	-3.00000e+00	4.007969e+09	
61	-3.05000e+00	3.969133e+09	
62	-3.10000e+00	3.923173e+09	
63	-3.15000e+00	3.869935e+09	
64	-3.20000e+00	3.809368e+09	
65	-3.25000e+00	3.741538e+09	
66	-3.30000e+00	3.666634e+09	
Reset re-loads circuit ***************************

Circuit: ***************************

Doing analysis at TEMP = -40.000000 and TNOM = -40.000000


No. of Data Rows : 67
                          ***************************
                          DC transfer characteristic  Mon Jan  9 13:57:32  2023
--------------------------------------------------------------------------------
Index   v-sweep         rds             
--------------------------------------------------------------------------------
0	0.000000e+00	9.250250e+04	
1	-5.00000e-02	1.078635e+05	
2	-1.00000e-01	1.291190e+05	
3	-1.50000e-01	1.603644e+05	
4	-2.00000e-01	2.103448e+05	
5	-2.50000e-01	3.004370e+05	
6	-3.00000e-01	4.901372e+05	
7	-3.50000e-01	9.441039e+05	
8	-4.00000e-01	1.960022e+06	
9	-4.50000e-01	3.625936e+06	
10	-5.00000e-01	5.555642e+06	
11	-5.50000e-01	7.367058e+06	
12	-6.00000e-01	8.952400e+06	
13	-6.50000e-01	1.034368e+07	
14	-7.00000e-01	1.159557e+07	
15	-7.50000e-01	1.275122e+07	
16	-8.00000e-01	1.383971e+07	
17	-8.50000e-01	1.487994e+07	
18	-9.00000e-01	1.588421e+07	
19	-9.50000e-01	1.686068e+07	
20	-1.00000e+00	1.781486e+07	
21	-1.05000e+00	1.875058e+07	
22	-1.10000e+00	1.967056e+07	
23	-1.15000e+00	2.057679e+07	
24	-1.20000e+00	2.147074e+07	
25	-1.25000e+00	2.235352e+07	
26	-1.30000e+00	2.322600e+07	
27	-1.35000e+00	2.408887e+07	
28	-1.40000e+00	2.494267e+07	
29	-1.45000e+00	2.578785e+07	
30	-1.50000e+00	2.662478e+07	
31	-1.55000e+00	2.745377e+07	
32	-1.60000e+00	2.827510e+07	
33	-1.65000e+00	2.908899e+07	
34	-1.70000e+00	2.989564e+07	
35	-1.75000e+00	3.069524e+07	
36	-1.80000e+00	3.148792e+07	
37	-1.85000e+00	3.227382e+07	
38	-1.90000e+00	3.305305e+07	
39	-1.95000e+00	3.382565e+07	
40	-2.00000e+00	3.459165e+07	
41	-2.05000e+00	3.535101e+07	
42	-2.10000e+00	3.610357e+07	
43	-2.15000e+00	3.684908e+07	
44	-2.20000e+00	3.758710e+07	
45	-2.25000e+00	3.831697e+07	
46	-2.30000e+00	3.903776e+07	
47	-2.35000e+00	3.974815e+07	
48	-2.40000e+00	4.044637e+07	
49	-2.45000e+00	4.113009e+07	
50	-2.50000e+00	4.179633e+07	
51	-2.55000e+00	4.244129e+07	
52	-2.60000e+00	4.306030e+07	
53	-2.65000e+00	4.364767e+07	
54	-2.70000e+00	4.419658e+07	

Index   v-sweep         rds             
--------------------------------------------------------------------------------
55	-2.75000e+00	4.469907e+07	
56	-2.80000e+00	4.514596e+07	
57	-2.85000e+00	4.552692e+07	
58	-2.90000e+00	4.583057e+07	
59	-2.95000e+00	4.604471e+07	
60	-3.00000e+00	4.615661e+07	
61	-3.05000e+00	4.615347e+07	
62	-3.10000e+00	4.602299e+07	
63	-3.15000e+00	4.575399e+07	
64	-3.20000e+00	4.533715e+07	
65	-3.25000e+00	4.476573e+07	
66	-3.30000e+00	4.403629e+07	
Reset re-loads circuit ***************************

Circuit: ***************************

Doing analysis at TEMP = -40.000000 and TNOM = -40.000000


No. of Data Rows : 67
                          ***************************
                          DC transfer characteristic  Mon Jan  9 13:57:32  2023
--------------------------------------------------------------------------------
Index   v-sweep         rds             
--------------------------------------------------------------------------------
0	0.000000e+00	4.676685e+04	
1	-5.00000e-02	5.032780e+04	
2	-1.00000e-01	5.444795e+04	
3	-1.50000e-01	5.926976e+04	
4	-2.00000e-01	6.498824e+04	
5	-2.50000e-01	7.187740e+04	
6	-3.00000e-01	8.033410e+04	
7	-3.50000e-01	9.095398e+04	
8	-4.00000e-01	1.046693e+05	
9	-4.50000e-01	1.230127e+05	
10	-5.00000e-01	1.486496e+05	
11	-5.50000e-01	1.865006e+05	
12	-6.00000e-01	2.461124e+05	
13	-6.50000e-01	3.460419e+05	
14	-7.00000e-01	5.178085e+05	
15	-7.50000e-01	7.946662e+05	
16	-8.00000e-01	1.173507e+06	
17	-8.50000e-01	1.601315e+06	
18	-9.00000e-01	2.022273e+06	
19	-9.50000e-01	2.411625e+06	
20	-1.00000e+00	2.767832e+06	
21	-1.05000e+00	3.097301e+06	
22	-1.10000e+00	3.406949e+06	
23	-1.15000e+00	3.702195e+06	
24	-1.20000e+00	3.986892e+06	
25	-1.25000e+00	4.263702e+06	
26	-1.30000e+00	4.534459e+06	
27	-1.35000e+00	4.800444e+06	
28	-1.40000e+00	5.062558e+06	
29	-1.45000e+00	5.321452e+06	
30	-1.50000e+00	5.577600e+06	
31	-1.55000e+00	5.831356e+06	
32	-1.60000e+00	6.082988e+06	
33	-1.65000e+00	6.332700e+06	
34	-1.70000e+00	6.580652e+06	
35	-1.75000e+00	6.826972e+06	
36	-1.80000e+00	7.071759e+06	
37	-1.85000e+00	7.315098e+06	
38	-1.90000e+00	7.557054e+06	
39	-1.95000e+00	7.797684e+06	
40	-2.00000e+00	8.037035e+06	
41	-2.05000e+00	8.275147e+06	
42	-2.10000e+00	8.512051e+06	
43	-2.15000e+00	8.747777e+06	
44	-2.20000e+00	8.982343e+06	
45	-2.25000e+00	9.215764e+06	
46	-2.30000e+00	9.448043e+06	
47	-2.35000e+00	9.679172e+06	
48	-2.40000e+00	9.909123e+06	
49	-2.45000e+00	1.013784e+07	
50	-2.50000e+00	1.036524e+07	
51	-2.55000e+00	1.059117e+07	
52	-2.60000e+00	1.081544e+07	
53	-2.65000e+00	1.103774e+07	
54	-2.70000e+00	1.125767e+07	

Index   v-sweep         rds             
--------------------------------------------------------------------------------
55	-2.75000e+00	1.147468e+07	
56	-2.80000e+00	1.168804e+07	
57	-2.85000e+00	1.189682e+07	
58	-2.90000e+00	1.209982e+07	
59	-2.95000e+00	1.229557e+07	
60	-3.00000e+00	1.248226e+07	
61	-3.05000e+00	1.265771e+07	
62	-3.10000e+00	1.281935e+07	
63	-3.15000e+00	1.296422e+07	
64	-3.20000e+00	1.308897e+07	
65	-3.25000e+00	1.318988e+07	
66	-3.30000e+00	1.326297e+07	
Reset re-loads circuit ***************************

Circuit: ***************************

Doing analysis at TEMP = -40.000000 and TNOM = -40.000000


No. of Data Rows : 67
                          ***************************
                          DC transfer characteristic  Mon Jan  9 13:57:32  2023
--------------------------------------------------------------------------------
Index   v-sweep         rds             
--------------------------------------------------------------------------------
0	0.000000e+00	3.283335e+04	
1	-5.00000e-02	3.445163e+04	
2	-1.00000e-01	3.622707e+04	
3	-1.50000e-01	3.818369e+04	
4	-2.00000e-01	4.035068e+04	
5	-2.50000e-01	4.276381e+04	
6	-3.00000e-01	4.546741e+04	
7	-3.50000e-01	4.851715e+04	
8	-4.00000e-01	5.198377e+04	
9	-4.50000e-01	5.595858e+04	
10	-5.00000e-01	6.056143e+04	
11	-5.50000e-01	6.595262e+04	
12	-6.00000e-01	7.235122e+04	
13	-6.50000e-01	8.006394e+04	
14	-7.00000e-01	8.953213e+04	
15	-7.50000e-01	1.014106e+05	
16	-8.00000e-01	1.167035e+05	
17	-8.50000e-01	1.370028e+05	
18	-9.00000e-01	1.649041e+05	
19	-9.50000e-01	2.046726e+05	
20	-1.00000e+00	2.630280e+05	
21	-1.05000e+00	3.490017e+05	
22	-1.10000e+00	4.702891e+05	
23	-1.15000e+00	6.256075e+05	
24	-1.20000e+00	8.017049e+05	
25	-1.25000e+00	9.819282e+05	
26	-1.30000e+00	1.155714e+06	
27	-1.35000e+00	1.319687e+06	
28	-1.40000e+00	1.474379e+06	
29	-1.45000e+00	1.621533e+06	
30	-1.50000e+00	1.762898e+06	
31	-1.55000e+00	1.899885e+06	
32	-1.60000e+00	2.033541e+06	
33	-1.65000e+00	2.164626e+06	
34	-1.70000e+00	2.293685e+06	
35	-1.75000e+00	2.421115e+06	
36	-1.80000e+00	2.547202e+06	
37	-1.85000e+00	2.672160e+06	
38	-1.90000e+00	2.796149e+06	
39	-1.95000e+00	2.919290e+06	
40	-2.00000e+00	3.041676e+06	
41	-2.05000e+00	3.163379e+06	
42	-2.10000e+00	3.284457e+06	
43	-2.15000e+00	3.404955e+06	
44	-2.20000e+00	3.524911e+06	
45	-2.25000e+00	3.644353e+06	
46	-2.30000e+00	3.763307e+06	
47	-2.35000e+00	3.881793e+06	
48	-2.40000e+00	3.999828e+06	
49	-2.45000e+00	4.117427e+06	
50	-2.50000e+00	4.234599e+06	
51	-2.55000e+00	4.351356e+06	
52	-2.60000e+00	4.467700e+06	
53	-2.65000e+00	4.583635e+06	
54	-2.70000e+00	4.699154e+06	

Index   v-sweep         rds             
--------------------------------------------------------------------------------
55	-2.75000e+00	4.814247e+06	
56	-2.80000e+00	4.928887e+06	
57	-2.85000e+00	5.043034e+06	
58	-2.90000e+00	5.156624e+06	
59	-2.95000e+00	5.269562e+06	
60	-3.00000e+00	5.381711e+06	
61	-3.05000e+00	5.492882e+06	
62	-3.10000e+00	5.602817e+06	
63	-3.15000e+00	5.711172e+06	
64	-3.20000e+00	5.817502e+06	
65	-3.25000e+00	5.921236e+06	
66	-3.30000e+00	6.021658e+06	
Reset re-loads circuit ***************************

Circuit: ***************************

Doing analysis at TEMP = -40.000000 and TNOM = -40.000000


No. of Data Rows : 67
                          ***************************
                          DC transfer characteristic  Mon Jan  9 13:57:32  2023
--------------------------------------------------------------------------------
Index   v-sweep         rds             
--------------------------------------------------------------------------------
0	0.000000e+00	2.621869e+04	
1	-5.00000e-02	2.717053e+04	
2	-1.00000e-01	2.818846e+04	
3	-1.50000e-01	2.927962e+04	
4	-2.00000e-01	3.045220e+04	
5	-2.50000e-01	3.171564e+04	
6	-3.00000e-01	3.308092e+04	
7	-3.50000e-01	3.456084e+04	
8	-4.00000e-01	3.617045e+04	
9	-4.50000e-01	3.792756e+04	
10	-5.00000e-01	3.985335e+04	
11	-5.50000e-01	4.197327e+04	
12	-6.00000e-01	4.431816e+04	
13	-6.50000e-01	4.692569e+04	
14	-7.00000e-01	4.984240e+04	
15	-7.50000e-01	5.312643e+04	
16	-8.00000e-01	5.685136e+04	
17	-8.50000e-01	6.111153e+04	
18	-9.00000e-01	6.602987e+04	
19	-9.50000e-01	7.176921e+04	
20	-1.00000e+00	7.854937e+04	
21	-1.05000e+00	8.667311e+04	
22	-1.10000e+00	9.656645e+04	
23	-1.15000e+00	1.088419e+05	
24	-1.20000e+00	1.243968e+05	
25	-1.25000e+00	1.445606e+05	
26	-1.30000e+00	1.712873e+05	
27	-1.35000e+00	2.073123e+05	
28	-1.40000e+00	2.559801e+05	
29	-1.45000e+00	3.201831e+05	
30	-1.50000e+00	4.002614e+05	
31	-1.55000e+00	4.925192e+05	
32	-1.60000e+00	5.906782e+05	
33	-1.65000e+00	6.891539e+05	
34	-1.70000e+00	7.848535e+05	
35	-1.75000e+00	8.768363e+05	
36	-1.80000e+00	9.652907e+05	
37	-1.85000e+00	1.050790e+06	
38	-1.90000e+00	1.133936e+06	
39	-1.95000e+00	1.215239e+06	
40	-2.00000e+00	1.295098e+06	
41	-2.05000e+00	1.373812e+06	
42	-2.10000e+00	1.451607e+06	
43	-2.15000e+00	1.528648e+06	
44	-2.20000e+00	1.605061e+06	
45	-2.25000e+00	1.680941e+06	
46	-2.30000e+00	1.756358e+06	
47	-2.35000e+00	1.831370e+06	
48	-2.40000e+00	1.906019e+06	
49	-2.45000e+00	1.980339e+06	
50	-2.50000e+00	2.054359e+06	
51	-2.55000e+00	2.128098e+06	
52	-2.60000e+00	2.201576e+06	
53	-2.65000e+00	2.274806e+06	
54	-2.70000e+00	2.347802e+06	

Index   v-sweep         rds             
--------------------------------------------------------------------------------
55	-2.75000e+00	2.420571e+06	
56	-2.80000e+00	2.493124e+06	
57	-2.85000e+00	2.565466e+06	
58	-2.90000e+00	2.637603e+06	
59	-2.95000e+00	2.709538e+06	
60	-3.00000e+00	2.781272e+06	
61	-3.05000e+00	2.852804e+06	
62	-3.10000e+00	2.924129e+06	
63	-3.15000e+00	2.995233e+06	
64	-3.20000e+00	3.066098e+06	
65	-3.25000e+00	3.136690e+06	
66	-3.30000e+00	3.206959e+06	
Reset re-loads circuit ***************************

Circuit: ***************************

Doing analysis at TEMP = -40.000000 and TNOM = -40.000000


No. of Data Rows : 67
                          ***************************
                          DC transfer characteristic  Mon Jan  9 13:57:32  2023
--------------------------------------------------------------------------------
Index   v-sweep         rds             
--------------------------------------------------------------------------------
0	0.000000e+00	2.243089e+04	
1	-5.00000e-02	2.307254e+04	
2	-1.00000e-01	2.374850e+04	
3	-1.50000e-01	2.446162e+04	
4	-2.00000e-01	2.521504e+04	
5	-2.50000e-01	2.601226e+04	
6	-3.00000e-01	2.685722e+04	
7	-3.50000e-01	2.775433e+04	
8	-4.00000e-01	2.870857e+04	
9	-4.50000e-01	2.972556e+04	
10	-5.00000e-01	3.081170e+04	
11	-5.50000e-01	3.197427e+04	
12	-6.00000e-01	3.322162e+04	
13	-6.50000e-01	3.456337e+04	
14	-7.00000e-01	3.601062e+04	
15	-7.50000e-01	3.757630e+04	
16	-8.00000e-01	3.927553e+04	
17	-8.50000e-01	4.112612e+04	
18	-9.00000e-01	4.314916e+04	
19	-9.50000e-01	4.536984e+04	
20	-1.00000e+00	4.781848e+04	
21	-1.05000e+00	5.053189e+04	
22	-1.10000e+00	5.355515e+04	
23	-1.15000e+00	5.694413e+04	
24	-1.20000e+00	6.076872e+04	
25	-1.25000e+00	6.511753e+04	
26	-1.30000e+00	7.010431e+04	
27	-1.35000e+00	7.587718e+04	
28	-1.40000e+00	8.263191e+04	
29	-1.45000e+00	9.063107e+04	
30	-1.50000e+00	1.002319e+05	
31	-1.55000e+00	1.119261e+05	
32	-1.60000e+00	1.263933e+05	
33	-1.65000e+00	1.445640e+05	
34	-1.70000e+00	1.676659e+05	
35	-1.75000e+00	1.971766e+05	
36	-1.80000e+00	2.345365e+05	
37	-1.85000e+00	2.805109e+05	
38	-1.90000e+00	3.344387e+05	
39	-1.95000e+00	3.940940e+05	
40	-2.00000e+00	4.565607e+05	
41	-2.05000e+00	5.194061e+05	
42	-2.10000e+00	5.812212e+05	
43	-2.15000e+00	6.414756e+05	
44	-2.20000e+00	7.001444e+05	
45	-2.25000e+00	7.574140e+05	
46	-2.30000e+00	8.135217e+05	
47	-2.35000e+00	8.686880e+05	
48	-2.40000e+00	9.230958e+05	
49	-2.45000e+00	9.768895e+05	
50	-2.50000e+00	1.030181e+06	
51	-2.55000e+00	1.083055e+06	
52	-2.60000e+00	1.135578e+06	
53	-2.65000e+00	1.187800e+06	
54	-2.70000e+00	1.239761e+06	

Index   v-sweep         rds             
--------------------------------------------------------------------------------
55	-2.75000e+00	1.291490e+06	
56	-2.80000e+00	1.343013e+06	
57	-2.85000e+00	1.394348e+06	
58	-2.90000e+00	1.445510e+06	
59	-2.95000e+00	1.496512e+06	
60	-3.00000e+00	1.547364e+06	
61	-3.05000e+00	1.598075e+06	
62	-3.10000e+00	1.648651e+06	
63	-3.15000e+00	1.699098e+06	
64	-3.20000e+00	1.749420e+06	
65	-3.25000e+00	1.799623e+06	
66	-3.30000e+00	1.849707e+06	
Reset re-loads circuit ***************************

Circuit: ***************************

Note: No ".plot", ".print", or ".fourier" lines; no simulations run
