
Note: Compatibility modes selected: hs

Warning: m=xx on .subckt line will override multiplier m hierarchy!


Circuit: ***************************

Doing analysis at TEMP = -40.000000 and TNOM = -40.000000


No. of Data Rows : 67
                          ***************************
                          DC transfer characteristic  Mon Jan  9 13:57:30  2023
--------------------------------------------------------------------------------
Index   v-sweep         rds             
--------------------------------------------------------------------------------
0	0.000000e+00	1.629344e+06	
1	-5.00000e-02	1.941027e+07	
2	-1.00000e-01	1.820425e+08	
3	-1.50000e-01	6.858767e+08	
4	-2.00000e-01	1.594003e+09	
5	-2.50000e-01	2.791416e+09	
6	-3.00000e-01	4.083872e+09	
7	-3.50000e-01	5.314448e+09	
8	-4.00000e-01	6.404013e+09	
9	-4.50000e-01	7.333466e+09	
10	-5.00000e-01	8.114433e+09	
11	-5.50000e-01	8.769185e+09	
12	-6.00000e-01	9.320780e+09	
13	-6.50000e-01	9.789351e+09	
14	-7.00000e-01	1.019129e+10	
15	-7.50000e-01	1.053955e+10	
16	-8.00000e-01	1.084423e+10	
17	-8.50000e-01	1.111319e+10	
18	-9.00000e-01	1.135261e+10	
19	-9.50000e-01	1.156733e+10	
20	-1.00000e+00	1.176120e+10	
21	-1.05000e+00	1.193732e+10	
22	-1.10000e+00	1.209818e+10	
23	-1.15000e+00	1.224584e+10	
24	-1.20000e+00	1.238197e+10	
25	-1.25000e+00	1.250797e+10	
26	-1.30000e+00	1.262502e+10	
27	-1.35000e+00	1.273411e+10	
28	-1.40000e+00	1.283609e+10	
29	-1.45000e+00	1.293168e+10	
30	-1.50000e+00	1.302150e+10	
31	-1.55000e+00	1.310609e+10	
32	-1.60000e+00	1.318592e+10	
33	-1.65000e+00	1.326140e+10	
34	-1.70000e+00	1.333287e+10	
35	-1.75000e+00	1.340066e+10	
36	-1.80000e+00	1.346503e+10	
37	-1.85000e+00	1.352619e+10	
38	-1.90000e+00	1.358434e+10	
39	-1.95000e+00	1.363962e+10	
40	-2.00000e+00	1.369215e+10	
41	-2.05000e+00	1.374198e+10	
42	-2.10000e+00	1.378914e+10	
43	-2.15000e+00	1.383362e+10	
44	-2.20000e+00	1.387534e+10	
45	-2.25000e+00	1.391419e+10	
46	-2.30000e+00	1.394998e+10	
47	-2.35000e+00	1.398249e+10	
48	-2.40000e+00	1.401143e+10	
49	-2.45000e+00	1.403644e+10	
50	-2.50000e+00	1.405710e+10	
51	-2.55000e+00	1.407292e+10	
52	-2.60000e+00	1.408335e+10	
53	-2.65000e+00	1.408780e+10	
54	-2.70000e+00	1.408558e+10	

Index   v-sweep         rds             
--------------------------------------------------------------------------------
55	-2.75000e+00	1.407599e+10	
56	-2.80000e+00	1.405825e+10	
57	-2.85000e+00	1.403157e+10	
58	-2.90000e+00	1.399513e+10	
59	-2.95000e+00	1.394810e+10	
60	-3.00000e+00	1.388967e+10	
61	-3.05000e+00	1.381903e+10	
62	-3.10000e+00	1.373546e+10	
63	-3.15000e+00	1.363826e+10	
64	-3.20000e+00	1.352686e+10	
65	-3.25000e+00	1.340077e+10	
66	-3.30000e+00	1.325964e+10	
Reset re-loads circuit ***************************

Circuit: ***************************

Doing analysis at TEMP = -40.000000 and TNOM = -40.000000


No. of Data Rows : 67
                          ***************************
                          DC transfer characteristic  Mon Jan  9 13:57:30  2023
--------------------------------------------------------------------------------
Index   v-sweep         rds             
--------------------------------------------------------------------------------
0	0.000000e+00	4.620508e+04	
1	-5.00000e-02	5.480107e+04	
2	-1.00000e-01	6.726598e+04	
3	-1.50000e-01	8.685499e+04	
4	-2.00000e-01	1.214675e+05	
5	-2.50000e-01	1.939286e+05	
6	-3.00000e-01	3.801817e+05	
7	-3.50000e-01	9.160360e+05	
8	-4.00000e-01	2.295659e+06	
9	-4.50000e-01	5.100062e+06	
10	-5.00000e-01	9.663387e+06	
11	-5.50000e-01	1.592321e+07	
12	-6.00000e-01	2.350920e+07	
13	-6.50000e-01	3.193342e+07	
14	-7.00000e-01	4.074668e+07	
15	-7.50000e-01	4.961134e+07	
16	-8.00000e-01	5.830838e+07	
17	-8.50000e-01	6.671396e+07	
18	-9.00000e-01	7.476993e+07	
19	-9.50000e-01	8.245907e+07	
20	-1.00000e+00	8.978753e+07	
21	-1.05000e+00	9.677362e+07	
22	-1.10000e+00	1.034409e+08	
23	-1.15000e+00	1.098144e+08	
24	-1.20000e+00	1.159186e+08	
25	-1.25000e+00	1.217760e+08	
26	-1.30000e+00	1.274074e+08	
27	-1.35000e+00	1.328314e+08	
28	-1.40000e+00	1.380643e+08	
29	-1.45000e+00	1.431208e+08	
30	-1.50000e+00	1.480140e+08	
31	-1.55000e+00	1.527552e+08	
32	-1.60000e+00	1.573547e+08	
33	-1.65000e+00	1.618216e+08	
34	-1.70000e+00	1.661639e+08	
35	-1.75000e+00	1.703891e+08	
36	-1.80000e+00	1.745034e+08	
37	-1.85000e+00	1.785128e+08	
38	-1.90000e+00	1.824224e+08	
39	-1.95000e+00	1.862367e+08	
40	-2.00000e+00	1.899594e+08	
41	-2.05000e+00	1.935938e+08	
42	-2.10000e+00	1.971419e+08	
43	-2.15000e+00	2.006051e+08	
44	-2.20000e+00	2.039834e+08	
45	-2.25000e+00	2.072754e+08	
46	-2.30000e+00	2.104781e+08	
47	-2.35000e+00	2.135863e+08	
48	-2.40000e+00	2.165922e+08	
49	-2.45000e+00	2.194853e+08	
50	-2.50000e+00	2.222516e+08	
51	-2.55000e+00	2.248736e+08	
52	-2.60000e+00	2.273293e+08	
53	-2.65000e+00	2.295923e+08	
54	-2.70000e+00	2.316315e+08	

Index   v-sweep         rds             
--------------------------------------------------------------------------------
55	-2.75000e+00	2.334107e+08	
56	-2.80000e+00	2.348892e+08	
57	-2.85000e+00	2.360220e+08	
58	-2.90000e+00	2.367604e+08	
59	-2.95000e+00	2.370532e+08	
60	-3.00000e+00	2.368487e+08	
61	-3.05000e+00	2.360958e+08	
62	-3.10000e+00	2.347474e+08	
63	-3.15000e+00	2.327620e+08	
64	-3.20000e+00	2.301073e+08	
65	-3.25000e+00	2.267625e+08	
66	-3.30000e+00	2.227208e+08	
Reset re-loads circuit ***************************

Circuit: ***************************

Doing analysis at TEMP = -40.000000 and TNOM = -40.000000


No. of Data Rows : 67
                          ***************************
                          DC transfer characteristic  Mon Jan  9 13:57:30  2023
--------------------------------------------------------------------------------
Index   v-sweep         rds             
--------------------------------------------------------------------------------
0	0.000000e+00	2.329545e+04	
1	-5.00000e-02	2.520806e+04	
2	-1.00000e-01	2.746067e+04	
3	-1.50000e-01	3.015237e+04	
4	-2.00000e-01	3.342464e+04	
5	-2.50000e-01	3.748629e+04	
6	-3.00000e-01	4.265826e+04	
7	-3.50000e-01	4.945810e+04	
8	-4.00000e-01	5.877060e+04	
9	-4.50000e-01	7.221816e+04	
10	-5.00000e-01	9.302855e+04	
11	-5.50000e-01	1.282014e+05	
12	-6.00000e-01	1.939592e+05	
13	-6.50000e-01	3.276697e+05	
14	-7.00000e-01	6.038914e+05	
15	-7.50000e-01	1.132880e+06	
16	-8.00000e-01	2.020885e+06	
17	-8.50000e-01	3.318939e+06	
18	-9.00000e-01	5.003582e+06	
19	-9.50000e-01	6.995849e+06	
20	-1.00000e+00	9.195673e+06	
21	-1.05000e+00	1.150976e+07	
22	-1.10000e+00	1.386517e+07	
23	-1.15000e+00	1.621160e+07	
24	-1.20000e+00	1.851776e+07	
25	-1.25000e+00	2.076632e+07	
26	-1.30000e+00	2.294925e+07	
27	-1.35000e+00	2.506431e+07	
28	-1.40000e+00	2.711263e+07	
29	-1.45000e+00	2.909716e+07	
30	-1.50000e+00	3.102170e+07	
31	-1.55000e+00	3.289030e+07	
32	-1.60000e+00	3.470701e+07	
33	-1.65000e+00	3.647561e+07	
34	-1.70000e+00	3.819963e+07	
35	-1.75000e+00	3.988225e+07	
36	-1.80000e+00	4.152634e+07	
37	-1.85000e+00	4.313448e+07	
38	-1.90000e+00	4.470897e+07	
39	-1.95000e+00	4.625186e+07	
40	-2.00000e+00	4.776498e+07	
41	-2.05000e+00	4.924998e+07	
42	-2.10000e+00	5.070832e+07	
43	-2.15000e+00	5.214129e+07	
44	-2.20000e+00	5.355004e+07	
45	-2.25000e+00	5.493556e+07	
46	-2.30000e+00	5.629865e+07	
47	-2.35000e+00	5.763994e+07	
48	-2.40000e+00	5.895984e+07	
49	-2.45000e+00	6.025846e+07	
50	-2.50000e+00	6.153556e+07	
51	-2.55000e+00	6.279046e+07	
52	-2.60000e+00	6.402191e+07	
53	-2.65000e+00	6.522796e+07	
54	-2.70000e+00	6.640583e+07	

Index   v-sweep         rds             
--------------------------------------------------------------------------------
55	-2.75000e+00	6.755167e+07	
56	-2.80000e+00	6.866043e+07	
57	-2.85000e+00	6.972562e+07	
58	-2.90000e+00	7.073912e+07	
59	-2.95000e+00	7.169101e+07	
60	-3.00000e+00	7.256939e+07	
61	-3.05000e+00	7.336033e+07	
62	-3.10000e+00	7.404785e+07	
63	-3.15000e+00	7.461400e+07	
64	-3.20000e+00	7.503919e+07	
65	-3.25000e+00	7.530257e+07	
66	-3.30000e+00	7.538274e+07	
Reset re-loads circuit ***************************

Circuit: ***************************

Doing analysis at TEMP = -40.000000 and TNOM = -40.000000


No. of Data Rows : 67
                          ***************************
                          DC transfer characteristic  Mon Jan  9 13:57:30  2023
--------------------------------------------------------------------------------
Index   v-sweep         rds             
--------------------------------------------------------------------------------
0	0.000000e+00	1.634233e+04	
1	-5.00000e-02	1.718614e+04	
2	-1.00000e-01	1.812121e+04	
3	-1.50000e-01	1.916315e+04	
4	-2.00000e-01	2.033138e+04	
5	-2.50000e-01	2.165028e+04	
6	-3.00000e-01	2.315094e+04	
7	-3.50000e-01	2.487356e+04	
8	-4.00000e-01	2.687110e+04	
9	-4.50000e-01	2.921465e+04	
10	-5.00000e-01	3.200190e+04	
11	-5.50000e-01	3.537054e+04	
12	-6.00000e-01	3.952065e+04	
13	-6.50000e-01	4.475328e+04	
14	-7.00000e-01	5.154026e+04	
15	-7.50000e-01	6.065647e+04	
16	-8.00000e-01	7.344318e+04	
17	-8.50000e-01	9.235400e+04	
18	-9.00000e-01	1.221058e+05	
19	-9.50000e-01	1.719998e+05	
20	-1.00000e+00	2.598467e+05	
21	-1.05000e+00	4.159489e+05	
22	-1.10000e+00	6.814958e+05	
23	-1.15000e+00	1.096446e+06	
24	-1.20000e+00	1.682788e+06	
25	-1.25000e+00	2.435828e+06	
26	-1.30000e+00	3.328372e+06	
27	-1.35000e+00	4.322203e+06	
28	-1.40000e+00	5.379036e+06	
29	-1.45000e+00	6.466976e+06	
30	-1.50000e+00	7.562569e+06	
31	-1.55000e+00	8.650165e+06	
32	-1.60000e+00	9.720234e+06	
33	-1.65000e+00	1.076759e+07	
34	-1.70000e+00	1.178991e+07	
35	-1.75000e+00	1.278668e+07	
36	-1.80000e+00	1.375841e+07	
37	-1.85000e+00	1.470621e+07	
38	-1.90000e+00	1.563145e+07	
39	-1.95000e+00	1.653559e+07	
40	-2.00000e+00	1.742008e+07	
41	-2.05000e+00	1.828628e+07	
42	-2.10000e+00	1.913548e+07	
43	-2.15000e+00	1.996884e+07	
44	-2.20000e+00	2.078741e+07	
45	-2.25000e+00	2.159213e+07	
46	-2.30000e+00	2.238385e+07	
47	-2.35000e+00	2.316334e+07	
48	-2.40000e+00	2.393127e+07	
49	-2.45000e+00	2.468825e+07	
50	-2.50000e+00	2.543481e+07	
51	-2.55000e+00	2.617142e+07	
52	-2.60000e+00	2.689848e+07	
53	-2.65000e+00	2.761630e+07	
54	-2.70000e+00	2.832513e+07	

Index   v-sweep         rds             
--------------------------------------------------------------------------------
55	-2.75000e+00	2.902507e+07	
56	-2.80000e+00	2.971611e+07	
57	-2.85000e+00	3.039805e+07	
58	-2.90000e+00	3.107047e+07	
59	-2.95000e+00	3.173265e+07	
60	-3.00000e+00	3.238349e+07	
61	-3.05000e+00	3.302146e+07	
62	-3.10000e+00	3.364445e+07	
63	-3.15000e+00	3.424969e+07	
64	-3.20000e+00	3.483362e+07	
65	-3.25000e+00	3.539178e+07	
66	-3.30000e+00	3.591869e+07	
Reset re-loads circuit ***************************

Circuit: ***************************

Doing analysis at TEMP = -40.000000 and TNOM = -40.000000


No. of Data Rows : 67
                          ***************************
                          DC transfer characteristic  Mon Jan  9 13:57:30  2023
--------------------------------------------------------------------------------
Index   v-sweep         rds             
--------------------------------------------------------------------------------
0	0.000000e+00	1.306794e+04	
1	-5.00000e-02	1.355251e+04	
2	-1.00000e-01	1.407411e+04	
3	-1.50000e-01	1.463713e+04	
4	-2.00000e-01	1.524671e+04	
5	-2.50000e-01	1.590887e+04	
6	-3.00000e-01	1.663071e+04	
7	-3.50000e-01	1.742067e+04	
8	-4.00000e-01	1.828887e+04	
9	-4.50000e-01	1.924749e+04	
10	-5.00000e-01	2.031142e+04	
11	-5.50000e-01	2.149897e+04	
12	-6.00000e-01	2.283294e+04	
13	-6.50000e-01	2.434208e+04	
14	-7.00000e-01	2.606313e+04	
15	-7.50000e-01	2.804378e+04	
16	-8.00000e-01	3.034704e+04	
17	-8.50000e-01	3.305782e+04	
18	-9.00000e-01	3.629305e+04	
19	-9.50000e-01	4.021797e+04	
20	-1.00000e+00	4.507287e+04	
21	-1.05000e+00	5.121865e+04	
22	-1.10000e+00	5.921737e+04	
23	-1.15000e+00	6.997896e+04	
24	-1.20000e+00	8.503556e+04	
25	-1.25000e+00	1.070554e+05	
26	-1.30000e+00	1.407669e+05	
27	-1.35000e+00	1.944101e+05	
28	-1.40000e+00	2.813393e+05	
29	-1.45000e+00	4.202274e+05	
30	-1.50000e+00	6.316969e+05	
31	-1.55000e+00	9.315248e+05	
32	-1.60000e+00	1.324449e+06	
33	-1.65000e+00	1.802752e+06	
34	-1.70000e+00	2.349813e+06	
35	-1.75000e+00	2.945612e+06	
36	-1.80000e+00	3.571255e+06	
37	-1.85000e+00	4.211388e+06	
38	-1.90000e+00	4.854797e+06	
39	-1.95000e+00	5.493971e+06	
40	-2.00000e+00	6.124279e+06	
41	-2.05000e+00	6.743151e+06	
42	-2.10000e+00	7.349395e+06	
43	-2.15000e+00	7.942696e+06	
44	-2.20000e+00	8.523268e+06	
45	-2.25000e+00	9.091620e+06	
46	-2.30000e+00	9.648410e+06	
47	-2.35000e+00	1.019435e+07	
48	-2.40000e+00	1.073017e+07	
49	-2.45000e+00	1.125654e+07	
50	-2.50000e+00	1.177412e+07	
51	-2.55000e+00	1.228349e+07	
52	-2.60000e+00	1.278520e+07	
53	-2.65000e+00	1.327972e+07	
54	-2.70000e+00	1.376750e+07	

Index   v-sweep         rds             
--------------------------------------------------------------------------------
55	-2.75000e+00	1.424893e+07	
56	-2.80000e+00	1.472436e+07	
57	-2.85000e+00	1.519411e+07	
58	-2.90000e+00	1.565844e+07	
59	-2.95000e+00	1.611759e+07	
60	-3.00000e+00	1.657175e+07	
61	-3.05000e+00	1.702107e+07	
62	-3.10000e+00	1.746563e+07	
63	-3.15000e+00	1.790545e+07	
64	-3.20000e+00	1.834043e+07	
65	-3.25000e+00	1.877036e+07	
66	-3.30000e+00	1.919487e+07	
Reset re-loads circuit ***************************

Circuit: ***************************

Doing analysis at TEMP = -40.000000 and TNOM = -40.000000


No. of Data Rows : 67
                          ***************************
                          DC transfer characteristic  Mon Jan  9 13:57:30  2023
--------------------------------------------------------------------------------
Index   v-sweep         rds             
--------------------------------------------------------------------------------
0	0.000000e+00	1.121502e+04	
1	-5.00000e-02	1.153523e+04	
2	-1.00000e-01	1.187409e+04	
3	-1.50000e-01	1.223327e+04	
4	-2.00000e-01	1.261465e+04	
5	-2.50000e-01	1.302037e+04	
6	-3.00000e-01	1.345281e+04	
7	-3.50000e-01	1.391471e+04	
8	-4.00000e-01	1.440919e+04	
9	-4.50000e-01	1.493982e+04	
10	-5.00000e-01	1.551070e+04	
11	-5.50000e-01	1.612659e+04	
12	-6.00000e-01	1.679303e+04	
13	-6.50000e-01	1.751650e+04	
14	-7.00000e-01	1.830463e+04	
15	-7.50000e-01	1.916648e+04	
16	-8.00000e-01	2.011287e+04	
17	-8.50000e-01	2.115685e+04	
18	-9.00000e-01	2.231429e+04	
19	-9.50000e-01	2.360467e+04	
20	-1.00000e+00	2.505217e+04	
21	-1.05000e+00	2.668715e+04	
22	-1.10000e+00	2.854829e+04	
23	-1.15000e+00	3.068551e+04	
24	-1.20000e+00	3.316438e+04	
25	-1.25000e+00	3.607257e+04	
26	-1.30000e+00	3.952969e+04	
27	-1.35000e+00	4.370275e+04	
28	-1.40000e+00	4.883086e+04	
29	-1.45000e+00	5.526597e+04	
30	-1.50000e+00	6.354159e+04	
31	-1.55000e+00	7.449109e+04	
32	-1.60000e+00	8.945252e+04	
33	-1.65000e+00	1.106163e+05	
34	-1.70000e+00	1.415765e+05	
35	-1.75000e+00	1.880664e+05	
36	-1.80000e+00	2.585788e+05	
37	-1.85000e+00	3.641082e+05	
38	-1.90000e+00	5.161745e+05	
39	-1.95000e+00	7.233677e+05	
40	-2.00000e+00	9.882404e+05	
41	-2.05000e+00	1.306483e+06	
42	-2.10000e+00	1.668629e+06	
43	-2.15000e+00	2.062948e+06	
44	-2.20000e+00	2.478014e+06	
45	-2.25000e+00	2.904235e+06	
46	-2.30000e+00	3.334358e+06	
47	-2.35000e+00	3.763339e+06	
48	-2.40000e+00	4.187932e+06	
49	-2.45000e+00	4.606217e+06	
50	-2.50000e+00	5.017200e+06	
51	-2.55000e+00	5.420494e+06	
52	-2.60000e+00	5.816095e+06	
53	-2.65000e+00	6.204224e+06	
54	-2.70000e+00	6.585227e+06	

Index   v-sweep         rds             
--------------------------------------------------------------------------------
55	-2.75000e+00	6.959510e+06	
56	-2.80000e+00	7.327492e+06	
57	-2.85000e+00	7.689591e+06	
58	-2.90000e+00	8.046201e+06	
59	-2.95000e+00	8.397688e+06	
60	-3.00000e+00	8.744392e+06	
61	-3.05000e+00	9.086618e+06	
62	-3.10000e+00	9.424646e+06	
63	-3.15000e+00	9.758724e+06	
64	-3.20000e+00	1.008908e+07	
65	-3.25000e+00	1.041590e+07	
66	-3.30000e+00	1.073938e+07	
Reset re-loads circuit ***************************

Circuit: ***************************

Note: No ".plot", ".print", or ".fourier" lines; no simulations run
