
Note: Compatibility modes selected: hs

Warning: m=xx on .subckt line will override multiplier m hierarchy!


Circuit: ***************************

Doing analysis at TEMP = 125.000000 and TNOM = 125.000000


No. of Data Rows : 67
                          ***************************
                          DC transfer characteristic  Mon Jan  9 13:57:32  2023
--------------------------------------------------------------------------------
Index   v-sweep         rds             
--------------------------------------------------------------------------------
0	0.000000e+00	2.558775e+04	
1	-5.00000e-02	3.756014e+04	
2	-1.00000e-01	6.704388e+04	
3	-1.50000e-01	1.708151e+05	
4	-2.00000e-01	5.466299e+05	
5	-2.50000e-01	1.287683e+06	
6	-3.00000e-01	2.050733e+06	
7	-3.50000e-01	2.631529e+06	
8	-4.00000e-01	3.059131e+06	
9	-4.50000e-01	3.393424e+06	
10	-5.00000e-01	3.672535e+06	
11	-5.50000e-01	3.917267e+06	
12	-6.00000e-01	4.138958e+06	
13	-6.50000e-01	4.344049e+06	
14	-7.00000e-01	4.536392e+06	
15	-7.50000e-01	4.718421e+06	
16	-8.00000e-01	4.891758e+06	
17	-8.50000e-01	5.057533e+06	
18	-9.00000e-01	5.216578e+06	
19	-9.50000e-01	5.369524e+06	
20	-1.00000e+00	5.516872e+06	
21	-1.05000e+00	5.659028e+06	
22	-1.10000e+00	5.796336e+06	
23	-1.15000e+00	5.929088e+06	
24	-1.20000e+00	6.057541e+06	
25	-1.25000e+00	6.181922e+06	
26	-1.30000e+00	6.302436e+06	
27	-1.35000e+00	6.419268e+06	
28	-1.40000e+00	6.532587e+06	
29	-1.45000e+00	6.642550e+06	
30	-1.50000e+00	6.749301e+06	
31	-1.55000e+00	6.852975e+06	
32	-1.60000e+00	6.953696e+06	
33	-1.65000e+00	7.051579e+06	
34	-1.70000e+00	7.146731e+06	
35	-1.75000e+00	7.239248e+06	
36	-1.80000e+00	7.329216e+06	
37	-1.85000e+00	7.416705e+06	
38	-1.90000e+00	7.501773e+06	
39	-1.95000e+00	7.584455e+06	
40	-2.00000e+00	7.664764e+06	
41	-2.05000e+00	7.742680e+06	
42	-2.10000e+00	7.818148e+06	
43	-2.15000e+00	7.891067e+06	
44	-2.20000e+00	7.961280e+06	
45	-2.25000e+00	8.028568e+06	
46	-2.30000e+00	8.092636e+06	
47	-2.35000e+00	8.153104e+06	
48	-2.40000e+00	8.209498e+06	
49	-2.45000e+00	8.261237e+06	
50	-2.50000e+00	8.307630e+06	
51	-2.55000e+00	8.347865e+06	
52	-2.60000e+00	8.381012e+06	
53	-2.65000e+00	8.406022e+06	
54	-2.70000e+00	8.421740e+06	

Index   v-sweep         rds             
--------------------------------------------------------------------------------
55	-2.75000e+00	8.426914e+06	
56	-2.80000e+00	8.420223e+06	
57	-2.85000e+00	8.400309e+06	
58	-2.90000e+00	8.365816e+06	
59	-2.95000e+00	8.315440e+06	
60	-3.00000e+00	8.247987e+06	
61	-3.05000e+00	8.162434e+06	
62	-3.10000e+00	8.057993e+06	
63	-3.15000e+00	7.934170e+06	
64	-3.20000e+00	7.790821e+06	
65	-3.25000e+00	7.628189e+06	
66	-3.30000e+00	7.446930e+06	
Reset re-loads circuit ***************************

Circuit: ***************************

Doing analysis at TEMP = 125.000000 and TNOM = 125.000000


No. of Data Rows : 67
                          ***************************
                          DC transfer characteristic  Mon Jan  9 13:57:32  2023
--------------------------------------------------------------------------------
Index   v-sweep         rds             
--------------------------------------------------------------------------------
0	0.000000e+00	5.713328e+03	
1	-5.00000e-02	6.303897e+03	
2	-1.00000e-01	7.022777e+03	
3	-1.50000e-01	7.916548e+03	
4	-2.00000e-01	9.057086e+03	
5	-2.50000e-01	1.056092e+04	
6	-3.00000e-01	1.262858e+04	
7	-3.50000e-01	1.563035e+04	
8	-4.00000e-01	2.030526e+04	
9	-4.50000e-01	2.822768e+04	
10	-5.00000e-01	4.270759e+04	
11	-5.50000e-01	6.908478e+04	
12	-6.00000e-01	1.099842e+05	
13	-6.50000e-01	1.582737e+05	
14	-7.00000e-01	2.036649e+05	
15	-7.50000e-01	2.422332e+05	
16	-8.00000e-01	2.748086e+05	
17	-8.50000e-01	3.031897e+05	
18	-9.00000e-01	3.287892e+05	
19	-9.50000e-01	3.525230e+05	
20	-1.00000e+00	3.749582e+05	
21	-1.05000e+00	3.964465e+05	
22	-1.10000e+00	4.172110e+05	
23	-1.15000e+00	4.373971e+05	
24	-1.20000e+00	4.571022e+05	
25	-1.25000e+00	4.763941e+05	
26	-1.30000e+00	4.953208e+05	
27	-1.35000e+00	5.139175e+05	
28	-1.40000e+00	5.322110e+05	
29	-1.45000e+00	5.502216e+05	
30	-1.50000e+00	5.679656e+05	
31	-1.55000e+00	5.854563e+05	
32	-1.60000e+00	6.027046e+05	
33	-1.65000e+00	6.197196e+05	
34	-1.70000e+00	6.365093e+05	
35	-1.75000e+00	6.530808e+05	
36	-1.80000e+00	6.694401e+05	
37	-1.85000e+00	6.855929e+05	
38	-1.90000e+00	7.015441e+05	
39	-1.95000e+00	7.172982e+05	
40	-2.00000e+00	7.328593e+05	
41	-2.05000e+00	7.482309e+05	
42	-2.10000e+00	7.634158e+05	
43	-2.15000e+00	7.784160e+05	
44	-2.20000e+00	7.932321e+05	
45	-2.25000e+00	8.078632e+05	
46	-2.30000e+00	8.223059e+05	
47	-2.35000e+00	8.365534e+05	
48	-2.40000e+00	8.505949e+05	
49	-2.45000e+00	8.644137e+05	
50	-2.50000e+00	8.779860e+05	
51	-2.55000e+00	8.912788e+05	
52	-2.60000e+00	9.042480e+05	
53	-2.65000e+00	9.168359e+05	
54	-2.70000e+00	9.289689e+05	

Index   v-sweep         rds             
--------------------------------------------------------------------------------
55	-2.75000e+00	9.405549e+05	
56	-2.80000e+00	9.514811e+05	
57	-2.85000e+00	9.616116e+05	
58	-2.90000e+00	9.707861e+05	
59	-2.95000e+00	9.788189e+05	
60	-3.00000e+00	9.854995e+05	
61	-3.05000e+00	9.905947e+05	
62	-3.10000e+00	9.938524e+05	
63	-3.15000e+00	9.950080e+05	
64	-3.20000e+00	9.937930e+05	
65	-3.25000e+00	9.899468e+05	
66	-3.30000e+00	9.832296e+05	
Reset re-loads circuit ***************************

Circuit: ***************************

Doing analysis at TEMP = 125.000000 and TNOM = 125.000000


No. of Data Rows : 67
                          ***************************
                          DC transfer characteristic  Mon Jan  9 13:57:32  2023
--------------------------------------------------------------------------------
Index   v-sweep         rds             
--------------------------------------------------------------------------------
0	0.000000e+00	3.425362e+03	
1	-5.00000e-02	3.625394e+03	
2	-1.00000e-01	3.848226e+03	
3	-1.50000e-01	4.097983e+03	
4	-2.00000e-01	4.379843e+03	
5	-2.50000e-01	4.700399e+03	
6	-3.00000e-01	5.068171e+03	
7	-3.50000e-01	5.494362e+03	
8	-4.00000e-01	5.993986e+03	
9	-4.50000e-01	6.587620e+03	
10	-5.00000e-01	7.304173e+03	
11	-5.50000e-01	8.185441e+03	
12	-6.00000e-01	9.293827e+03	
13	-6.50000e-01	1.072586e+04	
14	-7.00000e-01	1.263641e+04	
15	-7.50000e-01	1.528183e+04	
16	-8.00000e-01	1.909071e+04	
17	-8.50000e-01	2.474397e+04	
18	-9.00000e-01	3.312022e+04	
19	-9.50000e-01	4.475823e+04	
20	-1.00000e+00	5.893041e+04	
21	-1.05000e+00	7.375074e+04	
22	-1.10000e+00	8.763586e+04	
23	-1.15000e+00	1.000655e+05	
24	-1.20000e+00	1.111903e+05	
25	-1.25000e+00	1.213339e+05	
26	-1.30000e+00	1.307804e+05	
27	-1.35000e+00	1.397333e+05	
28	-1.40000e+00	1.483300e+05	
29	-1.45000e+00	1.566609e+05	
30	-1.50000e+00	1.647867e+05	
31	-1.55000e+00	1.727481e+05	
32	-1.60000e+00	1.805735e+05	
33	-1.65000e+00	1.882826e+05	
34	-1.70000e+00	1.958898e+05	
35	-1.75000e+00	2.034057e+05	
36	-1.80000e+00	2.108381e+05	
37	-1.85000e+00	2.181930e+05	
38	-1.90000e+00	2.254753e+05	
39	-1.95000e+00	2.326887e+05	
40	-2.00000e+00	2.398362e+05	
41	-2.05000e+00	2.469204e+05	
42	-2.10000e+00	2.539432e+05	
43	-2.15000e+00	2.609067e+05	
44	-2.20000e+00	2.678122e+05	
45	-2.25000e+00	2.746611e+05	
46	-2.30000e+00	2.814546e+05	
47	-2.35000e+00	2.881936e+05	
48	-2.40000e+00	2.948791e+05	
49	-2.45000e+00	3.015115e+05	
50	-2.50000e+00	3.080913e+05	
51	-2.55000e+00	3.146183e+05	
52	-2.60000e+00	3.210919e+05	
53	-2.65000e+00	3.275104e+05	
54	-2.70000e+00	3.338713e+05	

Index   v-sweep         rds             
--------------------------------------------------------------------------------
55	-2.75000e+00	3.401702e+05	
56	-2.80000e+00	3.464007e+05	
57	-2.85000e+00	3.525534e+05	
58	-2.90000e+00	3.586154e+05	
59	-2.95000e+00	3.645692e+05	
60	-3.00000e+00	3.703916e+05	
61	-3.05000e+00	3.760526e+05	
62	-3.10000e+00	3.815142e+05	
63	-3.15000e+00	3.867288e+05	
64	-3.20000e+00	3.916387e+05	
65	-3.25000e+00	3.961746e+05	
66	-3.30000e+00	4.002549e+05	
Reset re-loads circuit ***************************

Circuit: ***************************

Doing analysis at TEMP = 125.000000 and TNOM = 125.000000


No. of Data Rows : 67
                          ***************************
                          DC transfer characteristic  Mon Jan  9 13:57:32  2023
--------------------------------------------------------------------------------
Index   v-sweep         rds             
--------------------------------------------------------------------------------
0	0.000000e+00	2.564416e+03	
1	-5.00000e-02	2.669697e+03	
2	-1.00000e-01	2.783075e+03	
3	-1.50000e-01	2.905520e+03	
4	-2.00000e-01	3.038162e+03	
5	-2.50000e-01	3.182327e+03	
6	-3.00000e-01	3.339583e+03	
7	-3.50000e-01	3.511792e+03	
8	-4.00000e-01	3.701186e+03	
9	-4.50000e-01	3.910467e+03	
10	-5.00000e-01	4.142927e+03	
11	-5.50000e-01	4.402627e+03	
12	-6.00000e-01	4.694627e+03	
13	-6.50000e-01	5.025313e+03	
14	-7.00000e-01	5.402856e+03	
15	-7.50000e-01	5.837866e+03	
16	-8.00000e-01	6.344356e+03	
17	-8.50000e-01	6.941174e+03	
18	-9.00000e-01	7.654189e+03	
19	-9.50000e-01	8.519657e+03	
20	-1.00000e+00	9.589488e+03	
21	-1.05000e+00	1.093940e+04	
22	-1.10000e+00	1.268094e+04	
23	-1.15000e+00	1.497661e+04	
24	-1.20000e+00	1.804934e+04	
25	-1.25000e+00	2.215601e+04	
26	-1.30000e+00	2.747004e+04	
27	-1.35000e+00	3.387644e+04	
28	-1.40000e+00	4.089075e+04	
29	-1.45000e+00	4.790919e+04	
30	-1.50000e+00	5.453957e+04	
31	-1.55000e+00	6.067103e+04	
32	-1.60000e+00	6.635387e+04	
33	-1.65000e+00	7.168460e+04	
34	-1.70000e+00	7.675263e+04	
35	-1.75000e+00	8.162651e+04	
36	-1.80000e+00	8.635515e+04	
37	-1.85000e+00	9.097261e+04	
38	-1.90000e+00	9.550255e+04	
39	-1.95000e+00	9.996154e+04	
40	-2.00000e+00	1.043613e+05	
41	-2.05000e+00	1.087103e+05	
42	-2.10000e+00	1.130148e+05	
43	-2.15000e+00	1.172793e+05	
44	-2.20000e+00	1.215073e+05	
45	-2.25000e+00	1.257016e+05	
46	-2.30000e+00	1.298642e+05	
47	-2.35000e+00	1.339967e+05	
48	-2.40000e+00	1.381006e+05	
49	-2.45000e+00	1.421770e+05	
50	-2.50000e+00	1.462267e+05	
51	-2.55000e+00	1.502505e+05	
52	-2.60000e+00	1.542491e+05	
53	-2.65000e+00	1.582230e+05	
54	-2.70000e+00	1.621727e+05	

Index   v-sweep         rds             
--------------------------------------------------------------------------------
55	-2.75000e+00	1.660985e+05	
56	-2.80000e+00	1.700008e+05	
57	-2.85000e+00	1.738797e+05	
58	-2.90000e+00	1.777351e+05	
59	-2.95000e+00	1.815667e+05	
60	-3.00000e+00	1.853737e+05	
61	-3.05000e+00	1.891549e+05	
62	-3.10000e+00	1.929082e+05	
63	-3.15000e+00	1.966304e+05	
64	-3.20000e+00	2.003167e+05	
65	-3.25000e+00	2.039607e+05	
66	-3.30000e+00	2.075533e+05	
Reset re-loads circuit ***************************

Circuit: ***************************

Doing analysis at TEMP = 125.000000 and TNOM = 125.000000


No. of Data Rows : 67
                          ***************************
                          DC transfer characteristic  Mon Jan  9 13:57:32  2023
--------------------------------------------------------------------------------
Index   v-sweep         rds             
--------------------------------------------------------------------------------
0	0.000000e+00	2.113321e+03	
1	-5.00000e-02	2.180490e+03	
2	-1.00000e-01	2.251541e+03	
3	-1.50000e-01	2.326822e+03	
4	-2.00000e-01	2.406719e+03	
5	-2.50000e-01	2.491670e+03	
6	-3.00000e-01	2.582170e+03	
7	-3.50000e-01	2.678778e+03	
8	-4.00000e-01	2.782134e+03	
9	-4.50000e-01	2.892968e+03	
10	-5.00000e-01	3.012121e+03	
11	-5.50000e-01	3.140562e+03	
12	-6.00000e-01	3.279421e+03	
13	-6.50000e-01	3.430013e+03	
14	-7.00000e-01	3.593887e+03	
15	-7.50000e-01	3.772875e+03	
16	-8.00000e-01	3.969160e+03	
17	-8.50000e-01	4.185364e+03	
18	-9.00000e-01	4.424666e+03	
19	-9.50000e-01	4.690950e+03	
20	-1.00000e+00	4.989012e+03	
21	-1.05000e+00	5.324843e+03	
22	-1.10000e+00	5.706007e+03	
23	-1.15000e+00	6.142183e+03	
24	-1.20000e+00	6.645922e+03	
25	-1.25000e+00	7.233727e+03	
26	-1.30000e+00	7.927604e+03	
27	-1.35000e+00	8.757262e+03	
28	-1.40000e+00	9.763152e+03	
29	-1.45000e+00	1.100032e+04	
30	-1.50000e+00	1.254225e+04	
31	-1.55000e+00	1.448141e+04	
32	-1.60000e+00	1.691862e+04	
33	-1.65000e+00	1.992833e+04	
34	-1.70000e+00	2.349794e+04	
35	-1.75000e+00	2.748190e+04	
36	-1.80000e+00	3.163916e+04	
37	-1.85000e+00	3.574483e+04	
38	-1.90000e+00	3.967119e+04	
39	-1.95000e+00	4.338558e+04	
40	-2.00000e+00	4.690776e+04	
41	-2.05000e+00	5.027401e+04	
42	-2.10000e+00	5.351942e+04	
43	-2.15000e+00	5.667226e+04	
44	-2.20000e+00	5.975367e+04	
45	-2.25000e+00	6.277900e+04	
46	-2.30000e+00	6.575929e+04	
47	-2.35000e+00	6.870250e+04	
48	-2.40000e+00	7.161439e+04	
49	-2.45000e+00	7.449924e+04	
50	-2.50000e+00	7.736019e+04	
51	-2.55000e+00	8.019963e+04	
52	-2.60000e+00	8.301940e+04	
53	-2.65000e+00	8.582090e+04	
54	-2.70000e+00	8.860525e+04	

Index   v-sweep         rds             
--------------------------------------------------------------------------------
55	-2.75000e+00	9.137335e+04	
56	-2.80000e+00	9.412590e+04	
57	-2.85000e+00	9.686350e+04	
58	-2.90000e+00	9.958662e+04	
59	-2.95000e+00	1.022957e+05	
60	-3.00000e+00	1.049910e+05	
61	-3.05000e+00	1.076729e+05	
62	-3.10000e+00	1.103416e+05	
63	-3.15000e+00	1.129972e+05	
64	-3.20000e+00	1.156399e+05	
65	-3.25000e+00	1.182697e+05	
66	-3.30000e+00	1.208863e+05	
Reset re-loads circuit ***************************

Circuit: ***************************

Doing analysis at TEMP = 125.000000 and TNOM = 125.000000


No. of Data Rows : 67
                          ***************************
                          DC transfer characteristic  Mon Jan  9 13:57:32  2023
--------------------------------------------------------------------------------
Index   v-sweep         rds             
--------------------------------------------------------------------------------
0	0.000000e+00	1.835759e+03	
1	-5.00000e-02	1.883445e+03	
2	-1.00000e-01	1.933332e+03	
3	-1.50000e-01	1.985573e+03	
4	-2.00000e-01	2.040341e+03	
5	-2.50000e-01	2.097822e+03	
6	-3.00000e-01	2.158222e+03	
7	-3.50000e-01	2.221769e+03	
8	-4.00000e-01	2.288715e+03	
9	-4.50000e-01	2.359339e+03	
10	-5.00000e-01	2.433953e+03	
11	-5.50000e-01	2.512903e+03	
12	-6.00000e-01	2.596578e+03	
13	-6.50000e-01	2.685414e+03	
14	-7.00000e-01	2.779902e+03	
15	-7.50000e-01	2.880599e+03	
16	-8.00000e-01	2.988135e+03	
17	-8.50000e-01	3.103230e+03	
18	-9.00000e-01	3.226708e+03	
19	-9.50000e-01	3.359516e+03	
20	-1.00000e+00	3.502750e+03	
21	-1.05000e+00	3.657683e+03	
22	-1.10000e+00	3.825802e+03	
23	-1.15000e+00	4.008859e+03	
24	-1.20000e+00	4.208925e+03	
25	-1.25000e+00	4.428470e+03	
26	-1.30000e+00	4.670461e+03	
27	-1.35000e+00	4.938490e+03	
28	-1.40000e+00	5.236945e+03	
29	-1.45000e+00	5.571236e+03	
30	-1.50000e+00	5.948097e+03	
31	-1.55000e+00	6.375990e+03	
32	-1.60000e+00	6.865658e+03	
33	-1.65000e+00	7.430865e+03	
34	-1.70000e+00	8.089365e+03	
35	-1.75000e+00	8.864127e+03	
36	-1.80000e+00	9.784714e+03	
37	-1.85000e+00	1.088837e+04	
38	-1.90000e+00	1.221968e+04	
39	-1.95000e+00	1.382621e+04	
40	-2.00000e+00	1.574657e+04	
41	-2.05000e+00	1.798903e+04	
42	-2.10000e+00	2.050956e+04	
43	-2.15000e+00	2.321043e+04	
44	-2.20000e+00	2.597243e+04	
45	-2.25000e+00	2.869895e+04	
46	-2.30000e+00	3.133797e+04	
47	-2.35000e+00	3.387584e+04	
48	-2.40000e+00	3.632023e+04	
49	-2.45000e+00	3.868639e+04	
50	-2.50000e+00	4.098987e+04	
51	-2.55000e+00	4.324379e+04	
52	-2.60000e+00	4.545840e+04	
53	-2.65000e+00	4.764140e+04	
54	-2.70000e+00	4.979852e+04	

Index   v-sweep         rds             
--------------------------------------------------------------------------------
55	-2.75000e+00	5.193398e+04	
56	-2.80000e+00	5.405092e+04	
57	-2.85000e+00	5.615170e+04	
58	-2.90000e+00	5.823809e+04	
59	-2.95000e+00	6.031145e+04	
60	-3.00000e+00	6.237284e+04	
61	-3.05000e+00	6.442306e+04	
62	-3.10000e+00	6.646279e+04	
63	-3.15000e+00	6.849253e+04	
64	-3.20000e+00	7.051271e+04	
65	-3.25000e+00	7.252367e+04	
66	-3.30000e+00	7.452571e+04	
Reset re-loads circuit ***************************

Circuit: ***************************

Note: No ".plot", ".print", or ".fourier" lines; no simulations run
