
Note: Compatibility modes selected: hs

Warning: m=xx on .subckt line will override multiplier m hierarchy!


Circuit: ***************************

Doing analysis at TEMP = 25.000000 and TNOM = 25.000000


No. of Data Rows : 67
                          ***************************
                          DC transfer characteristic  Mon Jan  9 13:57:30  2023
--------------------------------------------------------------------------------
Index   v-sweep         rds             
--------------------------------------------------------------------------------
0	0.000000e+00	2.561686e+05	
1	-5.00000e-02	3.761066e+05	
2	-1.00000e-01	6.653509e+05	
3	-1.50000e-01	1.584620e+06	
4	-2.00000e-01	3.868983e+06	
5	-2.50000e-01	6.170162e+06	
6	-3.00000e-01	7.405035e+06	
7	-3.50000e-01	8.025018e+06	
8	-4.00000e-01	8.386342e+06	
9	-4.50000e-01	8.631251e+06	
10	-5.00000e-01	8.815594e+06	
11	-5.50000e-01	8.963558e+06	
12	-6.00000e-01	9.086895e+06	
13	-6.50000e-01	9.191978e+06	
14	-7.00000e-01	9.282632e+06	
15	-7.50000e-01	9.361360e+06	
16	-8.00000e-01	9.429931e+06	
17	-8.50000e-01	9.489669e+06	
18	-9.00000e-01	9.541615e+06	
19	-9.50000e-01	9.586616e+06	
20	-1.00000e+00	9.625379e+06	
21	-1.05000e+00	9.658510e+06	
22	-1.10000e+00	9.686532e+06	
23	-1.15000e+00	9.709904e+06	
24	-1.20000e+00	9.729034e+06	
25	-1.25000e+00	9.744283e+06	
26	-1.30000e+00	9.755977e+06	
27	-1.35000e+00	9.764406e+06	
28	-1.40000e+00	9.769836e+06	
29	-1.45000e+00	9.772506e+06	
30	-1.50000e+00	9.772633e+06	
31	-1.55000e+00	9.770417e+06	
32	-1.60000e+00	9.766037e+06	
33	-1.65000e+00	9.759659e+06	
34	-1.70000e+00	9.751434e+06	
35	-1.75000e+00	9.741497e+06	
36	-1.80000e+00	9.729974e+06	
37	-1.85000e+00	9.716975e+06	
38	-1.90000e+00	9.702598e+06	
39	-1.95000e+00	9.686927e+06	
40	-2.00000e+00	9.670034e+06	
41	-2.05000e+00	9.651974e+06	
42	-2.10000e+00	9.632785e+06	
43	-2.15000e+00	9.612488e+06	
44	-2.20000e+00	9.591082e+06	
45	-2.25000e+00	9.568543e+06	
46	-2.30000e+00	9.544823e+06	
47	-2.35000e+00	9.519844e+06	
48	-2.40000e+00	9.493499e+06	
49	-2.45000e+00	9.465647e+06	
50	-2.50000e+00	9.436114e+06	
51	-2.55000e+00	9.404685e+06	
52	-2.60000e+00	9.371110e+06	
53	-2.65000e+00	9.335096e+06	
54	-2.70000e+00	9.296312e+06	

Index   v-sweep         rds             
--------------------------------------------------------------------------------
55	-2.75000e+00	9.254387e+06	
56	-2.80000e+00	9.208913e+06	
57	-2.85000e+00	9.159445e+06	
58	-2.90000e+00	9.105510e+06	
59	-2.95000e+00	9.046608e+06	
60	-3.00000e+00	8.982223e+06	
61	-3.05000e+00	8.911828e+06	
62	-3.10000e+00	8.834898e+06	
63	-3.15000e+00	8.750921e+06	
64	-3.20000e+00	8.659411e+06	
65	-3.25000e+00	8.559923e+06	
66	-3.30000e+00	8.452067e+06	
Reset re-loads circuit ***************************

Circuit: ***************************

Doing analysis at TEMP = 25.000000 and TNOM = 25.000000


No. of Data Rows : 67
                          ***************************
                          DC transfer characteristic  Mon Jan  9 13:57:30  2023
--------------------------------------------------------------------------------
Index   v-sweep         rds             
--------------------------------------------------------------------------------
0	0.000000e+00	5.320577e+04	
1	-5.00000e-02	5.854498e+04	
2	-1.00000e-01	6.493358e+04	
3	-1.50000e-01	7.271179e+04	
4	-2.00000e-01	8.238229e+04	
5	-2.50000e-01	9.471720e+04	
6	-3.00000e-01	1.109566e+05	
7	-3.50000e-01	1.331921e+05	
8	-4.00000e-01	1.651191e+05	
9	-4.50000e-01	2.133770e+05	
10	-5.00000e-01	2.887912e+05	
11	-5.50000e-01	4.016706e+05	
12	-6.00000e-01	5.419722e+05	
13	-6.50000e-01	6.740959e+05	
14	-7.00000e-01	7.760066e+05	
15	-7.50000e-01	8.513620e+05	
16	-8.00000e-01	9.100817e+05	
17	-8.50000e-01	9.591122e+05	
18	-9.00000e-01	1.002295e+06	
19	-9.50000e-01	1.041672e+06	
20	-1.00000e+00	1.078352e+06	
21	-1.05000e+00	1.112971e+06	
22	-1.10000e+00	1.145912e+06	
23	-1.15000e+00	1.177422e+06	
24	-1.20000e+00	1.207669e+06	
25	-1.25000e+00	1.236772e+06	
26	-1.30000e+00	1.264823e+06	
27	-1.35000e+00	1.291894e+06	
28	-1.40000e+00	1.318044e+06	
29	-1.45000e+00	1.343323e+06	
30	-1.50000e+00	1.367777e+06	
31	-1.55000e+00	1.391443e+06	
32	-1.60000e+00	1.414357e+06	
33	-1.65000e+00	1.436551e+06	
34	-1.70000e+00	1.458055e+06	
35	-1.75000e+00	1.478898e+06	
36	-1.80000e+00	1.499104e+06	
37	-1.85000e+00	1.518698e+06	
38	-1.90000e+00	1.537703e+06	
39	-1.95000e+00	1.556141e+06	
40	-2.00000e+00	1.574033e+06	
41	-2.05000e+00	1.591397e+06	
42	-2.10000e+00	1.608251e+06	
43	-2.15000e+00	1.624612e+06	
44	-2.20000e+00	1.640496e+06	
45	-2.25000e+00	1.655915e+06	
46	-2.30000e+00	1.670881e+06	
47	-2.35000e+00	1.685401e+06	
48	-2.40000e+00	1.699480e+06	
49	-2.45000e+00	1.713119e+06	
50	-2.50000e+00	1.726312e+06	
51	-2.55000e+00	1.739048e+06	
52	-2.60000e+00	1.751308e+06	
53	-2.65000e+00	1.763061e+06	
54	-2.70000e+00	1.774270e+06	

Index   v-sweep         rds             
--------------------------------------------------------------------------------
55	-2.75000e+00	1.784880e+06	
56	-2.80000e+00	1.794825e+06	
57	-2.85000e+00	1.804023e+06	
58	-2.90000e+00	1.812372e+06	
59	-2.95000e+00	1.819755e+06	
60	-3.00000e+00	1.826031e+06	
61	-3.05000e+00	1.831043e+06	
62	-3.10000e+00	1.834611e+06	
63	-3.15000e+00	1.836539e+06	
64	-3.20000e+00	1.836612e+06	
65	-3.25000e+00	1.834603e+06	
66	-3.30000e+00	1.830275e+06	
Reset re-loads circuit ***************************

Circuit: ***************************

Doing analysis at TEMP = 25.000000 and TNOM = 25.000000


No. of Data Rows : 67
                          ***************************
                          DC transfer characteristic  Mon Jan  9 13:57:30  2023
--------------------------------------------------------------------------------
Index   v-sweep         rds             
--------------------------------------------------------------------------------
0	0.000000e+00	3.150247e+04	
1	-5.00000e-02	3.338908e+04	
2	-1.00000e-01	3.547590e+04	
3	-1.50000e-01	3.779639e+04	
4	-2.00000e-01	4.039190e+04	
5	-2.50000e-01	4.331406e+04	
6	-3.00000e-01	4.662821e+04	
7	-3.50000e-01	5.041821e+04	
8	-4.00000e-01	5.479336e+04	
9	-4.50000e-01	5.989860e+04	
10	-5.00000e-01	6.592982e+04	
11	-5.50000e-01	7.315717e+04	
12	-6.00000e-01	8.196101e+04	
13	-6.50000e-01	9.288693e+04	
14	-7.00000e-01	1.067258e+05	
15	-7.50000e-01	1.246089e+05	
16	-8.00000e-01	1.480368e+05	
17	-8.50000e-01	1.785364e+05	
18	-9.00000e-01	2.163651e+05	
19	-9.50000e-01	2.585680e+05	
20	-1.00000e+00	2.995352e+05	
21	-1.05000e+00	3.351827e+05	
22	-1.10000e+00	3.650241e+05	
23	-1.15000e+00	3.904341e+05	
24	-1.20000e+00	4.128741e+05	
25	-1.25000e+00	4.333629e+05	
26	-1.30000e+00	4.525255e+05	
27	-1.35000e+00	4.707330e+05	
28	-1.40000e+00	4.882087e+05	
29	-1.45000e+00	5.050907e+05	
30	-1.50000e+00	5.214676e+05	
31	-1.55000e+00	5.373991e+05	
32	-1.60000e+00	5.529267e+05	
33	-1.65000e+00	5.680808e+05	
34	-1.70000e+00	5.828849e+05	
35	-1.75000e+00	5.973573e+05	
36	-1.80000e+00	6.115131e+05	
37	-1.85000e+00	6.253653e+05	
38	-1.90000e+00	6.389251e+05	
39	-1.95000e+00	6.522025e+05	
40	-2.00000e+00	6.652064e+05	
41	-2.05000e+00	6.779453e+05	
42	-2.10000e+00	6.904268e+05	
43	-2.15000e+00	7.026581e+05	
44	-2.20000e+00	7.146460e+05	
45	-2.25000e+00	7.263972e+05	
46	-2.30000e+00	7.379175e+05	
47	-2.35000e+00	7.492130e+05	
48	-2.40000e+00	7.602891e+05	
49	-2.45000e+00	7.711508e+05	
50	-2.50000e+00	7.818027e+05	
51	-2.55000e+00	7.922490e+05	
52	-2.60000e+00	8.024928e+05	
53	-2.65000e+00	8.125362e+05	
54	-2.70000e+00	8.223799e+05	

Index   v-sweep         rds             
--------------------------------------------------------------------------------
55	-2.75000e+00	8.320226e+05	
56	-2.80000e+00	8.414606e+05	
57	-2.85000e+00	8.506869e+05	
58	-2.90000e+00	8.596905e+05	
59	-2.95000e+00	8.684555e+05	
60	-3.00000e+00	8.769597e+05	
61	-3.05000e+00	8.851740e+05	
62	-3.10000e+00	8.930606e+05	
63	-3.15000e+00	9.005722e+05	
64	-3.20000e+00	9.076505e+05	
65	-3.25000e+00	9.142249e+05	
66	-3.30000e+00	9.202119e+05	
Reset re-loads circuit ***************************

Circuit: ***************************

Doing analysis at TEMP = 25.000000 and TNOM = 25.000000


No. of Data Rows : 67
                          ***************************
                          DC transfer characteristic  Mon Jan  9 13:57:30  2023
--------------------------------------------------------------------------------
Index   v-sweep         rds             
--------------------------------------------------------------------------------
0	0.000000e+00	2.333695e+04	
1	-5.00000e-02	2.436598e+04	
2	-1.00000e-01	2.547061e+04	
3	-1.50000e-01	2.665941e+04	
4	-2.00000e-01	2.794232e+04	
5	-2.50000e-01	2.933090e+04	
6	-3.00000e-01	3.083866e+04	
7	-3.50000e-01	3.248153e+04	
8	-4.00000e-01	3.427840e+04	
9	-4.50000e-01	3.625182e+04	
10	-5.00000e-01	3.842894e+04	
11	-5.50000e-01	4.084275e+04	
12	-6.00000e-01	4.353366e+04	
13	-6.50000e-01	4.655171e+04	
14	-7.00000e-01	4.995952e+04	
15	-7.50000e-01	5.383629e+04	
16	-8.00000e-01	5.828341e+04	
17	-8.50000e-01	6.343208e+04	
18	-9.00000e-01	6.945355e+04	
19	-9.50000e-01	7.657239e+04	
20	-1.00000e+00	8.508084e+04	
21	-1.05000e+00	9.534712e+04	
22	-1.10000e+00	1.077940e+05	
23	-1.15000e+00	1.227930e+05	
24	-1.20000e+00	1.403964e+05	
25	-1.25000e+00	1.599529e+05	
26	-1.30000e+00	1.800285e+05	
27	-1.35000e+00	1.990803e+05	
28	-1.40000e+00	2.163012e+05	
29	-1.45000e+00	2.317069e+05	
30	-1.50000e+00	2.456842e+05	
31	-1.55000e+00	2.586355e+05	
32	-1.60000e+00	2.708612e+05	
33	-1.65000e+00	2.825599e+05	
34	-1.70000e+00	2.938585e+05	
35	-1.75000e+00	3.048373e+05	
36	-1.80000e+00	3.155486e+05	
37	-1.85000e+00	3.260270e+05	
38	-1.90000e+00	3.362963e+05	
39	-1.95000e+00	3.463733e+05	
40	-2.00000e+00	3.562707e+05	
41	-2.05000e+00	3.659978e+05	
42	-2.10000e+00	3.755623e+05	
43	-2.15000e+00	3.849705e+05	
44	-2.20000e+00	3.942274e+05	
45	-2.25000e+00	4.033377e+05	
46	-2.30000e+00	4.123054e+05	
47	-2.35000e+00	4.211341e+05	
48	-2.40000e+00	4.298272e+05	
49	-2.45000e+00	4.383877e+05	
50	-2.50000e+00	4.468186e+05	
51	-2.55000e+00	4.551227e+05	
52	-2.60000e+00	4.633025e+05	
53	-2.65000e+00	4.713605e+05	
54	-2.70000e+00	4.792991e+05	

Index   v-sweep         rds             
--------------------------------------------------------------------------------
55	-2.75000e+00	4.871203e+05	
56	-2.80000e+00	4.948261e+05	
57	-2.85000e+00	5.024182e+05	
58	-2.90000e+00	5.098977e+05	
59	-2.95000e+00	5.172652e+05	
60	-3.00000e+00	5.245204e+05	
61	-3.05000e+00	5.316619e+05	
62	-3.10000e+00	5.386867e+05	
63	-3.15000e+00	5.455899e+05	
64	-3.20000e+00	5.523636e+05	
65	-3.25000e+00	5.589969e+05	
66	-3.30000e+00	5.654748e+05	
Reset re-loads circuit ***************************

Circuit: ***************************

Doing analysis at TEMP = 25.000000 and TNOM = 25.000000


No. of Data Rows : 67
                          ***************************
                          DC transfer characteristic  Mon Jan  9 13:57:30  2023
--------------------------------------------------------------------------------
Index   v-sweep         rds             
--------------------------------------------------------------------------------
0	0.000000e+00	1.907097e+04	
1	-5.00000e-02	1.974806e+04	
2	-1.00000e-01	2.046343e+04	
3	-1.50000e-01	2.122038e+04	
4	-2.00000e-01	2.202261e+04	
5	-2.50000e-01	2.287426e+04	
6	-3.00000e-01	2.378003e+04	
7	-3.50000e-01	2.474518e+04	
8	-4.00000e-01	2.577570e+04	
9	-4.50000e-01	2.687842e+04	
10	-5.00000e-01	2.806115e+04	
11	-5.50000e-01	2.933284e+04	
12	-6.00000e-01	3.070385e+04	
13	-6.50000e-01	3.218619e+04	
14	-7.00000e-01	3.379388e+04	
15	-7.50000e-01	3.554338e+04	
16	-8.00000e-01	3.745412e+04	
17	-8.50000e-01	3.954922e+04	
18	-9.00000e-01	4.185633e+04	
19	-9.50000e-01	4.440882e+04	
20	-1.00000e+00	4.724721e+04	
21	-1.05000e+00	5.042104e+04	
22	-1.10000e+00	5.399133e+04	
23	-1.15000e+00	5.803348e+04	
24	-1.20000e+00	6.264079e+04	
25	-1.25000e+00	6.792787e+04	
26	-1.30000e+00	7.403240e+04	
27	-1.35000e+00	8.111092e+04	
28	-1.40000e+00	8.931943e+04	
29	-1.45000e+00	9.876299e+04	
30	-1.50000e+00	1.094018e+05	
31	-1.55000e+00	1.209434e+05	
32	-1.60000e+00	1.328371e+05	
33	-1.65000e+00	1.444721e+05	
34	-1.70000e+00	1.554497e+05	
35	-1.75000e+00	1.656710e+05	
36	-1.80000e+00	1.752277e+05	
37	-1.85000e+00	1.842657e+05	
38	-1.90000e+00	1.929150e+05	
39	-1.95000e+00	2.012708e+05	
40	-2.00000e+00	2.093984e+05	
41	-2.05000e+00	2.173409e+05	
42	-2.10000e+00	2.251272e+05	
43	-2.15000e+00	2.327767e+05	
44	-2.20000e+00	2.403030e+05	
45	-2.25000e+00	2.477155e+05	
46	-2.30000e+00	2.550214e+05	
47	-2.35000e+00	2.622259e+05	
48	-2.40000e+00	2.693331e+05	
49	-2.45000e+00	2.763465e+05	
50	-2.50000e+00	2.832689e+05	
51	-2.55000e+00	2.901027e+05	
52	-2.60000e+00	2.968499e+05	
53	-2.65000e+00	3.035125e+05	
54	-2.70000e+00	3.100921e+05	

Index   v-sweep         rds             
--------------------------------------------------------------------------------
55	-2.75000e+00	3.165905e+05	
56	-2.80000e+00	3.230090e+05	
57	-2.85000e+00	3.293491e+05	
58	-2.90000e+00	3.356120e+05	
59	-2.95000e+00	3.417992e+05	
60	-3.00000e+00	3.479117e+05	
61	-3.05000e+00	3.539506e+05	
62	-3.10000e+00	3.599168e+05	
63	-3.15000e+00	3.658110e+05	
64	-3.20000e+00	3.716338e+05	
65	-3.25000e+00	3.773850e+05	
66	-3.30000e+00	3.830639e+05	
Reset re-loads circuit ***************************

Circuit: ***************************

Doing analysis at TEMP = 25.000000 and TNOM = 25.000000


No. of Data Rows : 67
                          ***************************
                          DC transfer characteristic  Mon Jan  9 13:57:30  2023
--------------------------------------------------------------------------------
Index   v-sweep         rds             
--------------------------------------------------------------------------------
0	0.000000e+00	1.645786e+04	
1	-5.00000e-02	1.695189e+04	
2	-1.00000e-01	1.746870e+04	
3	-1.50000e-01	1.800988e+04	
4	-2.00000e-01	1.857720e+04	
5	-2.50000e-01	1.917255e+04	
6	-3.00000e-01	1.979805e+04	
7	-3.50000e-01	2.045603e+04	
8	-4.00000e-01	2.114905e+04	
9	-4.50000e-01	2.187996e+04	
10	-5.00000e-01	2.265194e+04	
11	-5.50000e-01	2.346850e+04	
12	-6.00000e-01	2.433359e+04	
13	-6.50000e-01	2.525164e+04	
14	-7.00000e-01	2.622762e+04	
15	-7.50000e-01	2.726714e+04	
16	-8.00000e-01	2.837656e+04	
17	-8.50000e-01	2.956313e+04	
18	-9.00000e-01	3.083510e+04	
19	-9.50000e-01	3.220195e+04	
20	-1.00000e+00	3.367459e+04	
21	-1.05000e+00	3.526568e+04	
22	-1.10000e+00	3.698989e+04	
23	-1.15000e+00	3.886443e+04	
24	-1.20000e+00	4.090947e+04	
25	-1.25000e+00	4.314886e+04	
26	-1.30000e+00	4.561087e+04	
27	-1.35000e+00	4.832915e+04	
28	-1.40000e+00	5.134384e+04	
29	-1.45000e+00	5.470272e+04	
30	-1.50000e+00	5.846228e+04	
31	-1.55000e+00	6.268802e+04	
32	-1.60000e+00	6.745287e+04	
33	-1.65000e+00	7.283109e+04	
34	-1.70000e+00	7.888365e+04	
35	-1.75000e+00	8.563007e+04	
36	-1.80000e+00	9.300815e+04	
37	-1.85000e+00	1.008422e+05	
38	-1.90000e+00	1.088623e+05	
39	-1.95000e+00	1.167921e+05	
40	-2.00000e+00	1.244482e+05	
41	-2.05000e+00	1.317694e+05	
42	-2.10000e+00	1.387781e+05	
43	-2.15000e+00	1.455281e+05	
44	-2.20000e+00	1.520733e+05	
45	-2.25000e+00	1.584564e+05	
46	-2.30000e+00	1.647083e+05	
47	-2.35000e+00	1.708503e+05	
48	-2.40000e+00	1.768972e+05	
49	-2.45000e+00	1.828592e+05	
50	-2.50000e+00	1.887434e+05	
51	-2.55000e+00	1.945550e+05	
52	-2.60000e+00	2.002977e+05	
53	-2.65000e+00	2.059746e+05	
54	-2.70000e+00	2.115879e+05	

Index   v-sweep         rds             
--------------------------------------------------------------------------------
55	-2.75000e+00	2.171395e+05	
56	-2.80000e+00	2.226309e+05	
57	-2.85000e+00	2.280635e+05	
58	-2.90000e+00	2.334384e+05	
59	-2.95000e+00	2.387567e+05	
60	-3.00000e+00	2.440193e+05	
61	-3.05000e+00	2.492272e+05	
62	-3.10000e+00	2.543812e+05	
63	-3.15000e+00	2.594821e+05	
64	-3.20000e+00	2.645305e+05	
65	-3.25000e+00	2.695274e+05	
66	-3.30000e+00	2.744731e+05	
Reset re-loads circuit ***************************

Circuit: ***************************

Note: No ".plot", ".print", or ".fourier" lines; no simulations run
