
Note: Compatibility modes selected: hs

Warning: m=xx on .subckt line will override multiplier m hierarchy!


Circuit: ***************************

Doing analysis at TEMP = -40.000000 and TNOM = -40.000000


No. of Data Rows : 67
                          ***************************
                          DC transfer characteristic  Mon Jan  9 13:57:30  2023
--------------------------------------------------------------------------------
Index   v-sweep         rds             
--------------------------------------------------------------------------------
0	0.000000e+00	1.706919e+06	
1	-5.00000e-02	2.018649e+07	
2	-1.00000e-01	1.860709e+08	
3	-1.50000e-01	6.701588e+08	
4	-2.00000e-01	1.456209e+09	
5	-2.50000e-01	2.371925e+09	
6	-3.00000e-01	3.255219e+09	
7	-3.50000e-01	4.029337e+09	
8	-4.00000e-01	4.681303e+09	
9	-4.50000e-01	5.225249e+09	
10	-5.00000e-01	5.681493e+09	
11	-5.50000e-01	6.068591e+09	
12	-6.00000e-01	6.401403e+09	
13	-6.50000e-01	6.691283e+09	
14	-7.00000e-01	6.946785e+09	
15	-7.50000e-01	7.174365e+09	
16	-8.00000e-01	7.378934e+09	
17	-8.50000e-01	7.564279e+09	
18	-9.00000e-01	7.733358e+09	
19	-9.50000e-01	7.888514e+09	
20	-1.00000e+00	8.031629e+09	
21	-1.05000e+00	8.164232e+09	
22	-1.10000e+00	8.287583e+09	
23	-1.15000e+00	8.402731e+09	
24	-1.20000e+00	8.510558e+09	
25	-1.25000e+00	8.611813e+09	
26	-1.30000e+00	8.707137e+09	
27	-1.35000e+00	8.797082e+09	
28	-1.40000e+00	8.882129e+09	
29	-1.45000e+00	8.962697e+09	
30	-1.50000e+00	9.039155e+09	
31	-1.55000e+00	9.111827e+09	
32	-1.60000e+00	9.181001e+09	
33	-1.65000e+00	9.246931e+09	
34	-1.70000e+00	9.309838e+09	
35	-1.75000e+00	9.369918e+09	
36	-1.80000e+00	9.427338e+09	
37	-1.85000e+00	9.482239e+09	
38	-1.90000e+00	9.534735e+09	
39	-1.95000e+00	9.584911e+09	
40	-2.00000e+00	9.632820e+09	
41	-2.05000e+00	9.678484e+09	
42	-2.10000e+00	9.721886e+09	
43	-2.15000e+00	9.762971e+09	
44	-2.20000e+00	9.801641e+09	
45	-2.25000e+00	9.837749e+09	
46	-2.30000e+00	9.871098e+09	
47	-2.35000e+00	9.901436e+09	
48	-2.40000e+00	9.928455e+09	
49	-2.45000e+00	9.951784e+09	
50	-2.50000e+00	9.970995e+09	
51	-2.55000e+00	9.985595e+09	
52	-2.60000e+00	9.995033e+09	
53	-2.65000e+00	9.998703e+09	
54	-2.70000e+00	9.995945e+09	

Index   v-sweep         rds             
--------------------------------------------------------------------------------
55	-2.75000e+00	9.986057e+09	
56	-2.80000e+00	9.968303e+09	
57	-2.85000e+00	9.941928e+09	
58	-2.90000e+00	9.906170e+09	
59	-2.95000e+00	9.860278e+09	
60	-3.00000e+00	9.803536e+09	
61	-3.05000e+00	9.735280e+09	
62	-3.10000e+00	9.654923e+09	
63	-3.15000e+00	9.561978e+09	
64	-3.20000e+00	9.456077e+09	
65	-3.25000e+00	9.336997e+09	
66	-3.30000e+00	9.204670e+09	
Reset re-loads circuit ***************************

Circuit: ***************************

Doing analysis at TEMP = -40.000000 and TNOM = -40.000000


No. of Data Rows : 67
                          ***************************
                          DC transfer characteristic  Mon Jan  9 13:57:30  2023
--------------------------------------------------------------------------------
Index   v-sweep         rds             
--------------------------------------------------------------------------------
0	0.000000e+00	4.646555e+04	
1	-5.00000e-02	5.501923e+04	
2	-1.00000e-01	6.736474e+04	
3	-1.50000e-01	8.663402e+04	
4	-2.00000e-01	1.203289e+05	
5	-2.50000e-01	1.897550e+05	
6	-3.00000e-01	3.644854e+05	
7	-3.50000e-01	8.566554e+05	
8	-4.00000e-01	2.089405e+06	
9	-4.50000e-01	4.468273e+06	
10	-5.00000e-01	8.038873e+06	
11	-5.50000e-01	1.248091e+07	
12	-6.00000e-01	1.735991e+07	
13	-6.50000e-01	2.232930e+07	
14	-7.00000e-01	2.718383e+07	
15	-7.50000e-01	3.182957e+07	
16	-8.00000e-01	3.623895e+07	
17	-8.50000e-01	4.041749e+07	
18	-9.00000e-01	4.438433e+07	
19	-9.50000e-01	4.816245e+07	
20	-1.00000e+00	5.177417e+07	
21	-1.05000e+00	5.523942e+07	
22	-1.10000e+00	5.857533e+07	
23	-1.15000e+00	6.179636e+07	
24	-1.20000e+00	6.491462e+07	
25	-1.25000e+00	6.794023e+07	
26	-1.30000e+00	7.088168e+07	
27	-1.35000e+00	7.374612e+07	
28	-1.40000e+00	7.653960e+07	
29	-1.45000e+00	7.926730e+07	
30	-1.50000e+00	8.193365e+07	
31	-1.55000e+00	8.454251e+07	
32	-1.60000e+00	8.709722e+07	
33	-1.65000e+00	8.960073e+07	
34	-1.70000e+00	9.205563e+07	
35	-1.75000e+00	9.446422e+07	
36	-1.80000e+00	9.682853e+07	
37	-1.85000e+00	9.915036e+07	
38	-1.90000e+00	1.014313e+08	
39	-1.95000e+00	1.036725e+08	
40	-2.00000e+00	1.058752e+08	
41	-2.05000e+00	1.080399e+08	
42	-2.10000e+00	1.101668e+08	
43	-2.15000e+00	1.122558e+08	
44	-2.20000e+00	1.143059e+08	
45	-2.25000e+00	1.163152e+08	
46	-2.30000e+00	1.182810e+08	
47	-2.35000e+00	1.201989e+08	
48	-2.40000e+00	1.220634e+08	
49	-2.45000e+00	1.238668e+08	
50	-2.50000e+00	1.255994e+08	
51	-2.55000e+00	1.272489e+08	
52	-2.60000e+00	1.288003e+08	
53	-2.65000e+00	1.302356e+08	
54	-2.70000e+00	1.315335e+08	

Index   v-sweep         rds             
--------------------------------------------------------------------------------
55	-2.75000e+00	1.326695e+08	
56	-2.80000e+00	1.336160e+08	
57	-2.85000e+00	1.343426e+08	
58	-2.90000e+00	1.348166e+08	
59	-2.95000e+00	1.350039e+08	
60	-3.00000e+00	1.348701e+08	
61	-3.05000e+00	1.343821e+08	
62	-3.10000e+00	1.335099e+08	
63	-3.15000e+00	1.322280e+08	
64	-3.20000e+00	1.305182e+08	
65	-3.25000e+00	1.283705e+08	
66	-3.30000e+00	1.257855e+08	
Reset re-loads circuit ***************************

Circuit: ***************************

Doing analysis at TEMP = -40.000000 and TNOM = -40.000000


No. of Data Rows : 67
                          ***************************
                          DC transfer characteristic  Mon Jan  9 13:57:30  2023
--------------------------------------------------------------------------------
Index   v-sweep         rds             
--------------------------------------------------------------------------------
0	0.000000e+00	2.338152e+04	
1	-5.00000e-02	2.528339e+04	
2	-1.00000e-01	2.751845e+04	
3	-1.50000e-01	3.018229e+04	
4	-2.00000e-01	3.341067e+04	
5	-2.50000e-01	3.740274e+04	
6	-3.00000e-01	4.246226e+04	
7	-3.50000e-01	4.907467e+04	
8	-4.00000e-01	5.806043e+04	
9	-4.50000e-01	7.090267e+04	
10	-5.00000e-01	9.050016e+04	
11	-5.50000e-01	1.230063e+05	
12	-6.00000e-01	1.823467e+05	
13	-6.50000e-01	2.997999e+05	
14	-7.00000e-01	5.355389e+05	
15	-7.50000e-01	9.705918e+05	
16	-8.00000e-01	1.662061e+06	
17	-8.50000e-01	2.601219e+06	
18	-9.00000e-01	3.721923e+06	
19	-9.50000e-01	4.941587e+06	
20	-1.00000e+00	6.192944e+06	
21	-1.05000e+00	7.433393e+06	
22	-1.10000e+00	8.640940e+06	
23	-1.15000e+00	9.806895e+06	
24	-1.20000e+00	1.092991e+07	
25	-1.25000e+00	1.201218e+07	
26	-1.30000e+00	1.305729e+07	
27	-1.35000e+00	1.406913e+07	
28	-1.40000e+00	1.505141e+07	
29	-1.45000e+00	1.600743e+07	
30	-1.50000e+00	1.694008e+07	
31	-1.55000e+00	1.785179e+07	
32	-1.60000e+00	1.874465e+07	
33	-1.65000e+00	1.962040e+07	
34	-1.70000e+00	2.048054e+07	
35	-1.75000e+00	2.132632e+07	
36	-1.80000e+00	2.215881e+07	
37	-1.85000e+00	2.297893e+07	
38	-1.90000e+00	2.378747e+07	
39	-1.95000e+00	2.458512e+07	
40	-2.00000e+00	2.537245e+07	
41	-2.05000e+00	2.614999e+07	
42	-2.10000e+00	2.691818e+07	
43	-2.15000e+00	2.767742e+07	
44	-2.20000e+00	2.842803e+07	
45	-2.25000e+00	2.917028e+07	
46	-2.30000e+00	2.990436e+07	
47	-2.35000e+00	3.063040e+07	
48	-2.40000e+00	3.134839e+07	
49	-2.45000e+00	3.205819e+07	
50	-2.50000e+00	3.275950e+07	
51	-2.55000e+00	3.345176e+07	
52	-2.60000e+00	3.413410e+07	
53	-2.65000e+00	3.480528e+07	
54	-2.70000e+00	3.546356e+07	

Index   v-sweep         rds             
--------------------------------------------------------------------------------
55	-2.75000e+00	3.610664e+07	
56	-2.80000e+00	3.673147e+07	
57	-2.85000e+00	3.733421e+07	
58	-2.90000e+00	3.791006e+07	
59	-2.95000e+00	3.845313e+07	
60	-3.00000e+00	3.895640e+07	
61	-3.05000e+00	3.941161e+07	
62	-3.10000e+00	3.980927e+07	
63	-3.15000e+00	4.013874e+07	
64	-3.20000e+00	4.038837e+07	
65	-3.25000e+00	4.054579e+07	
66	-3.30000e+00	4.059829e+07	
Reset re-loads circuit ***************************

Circuit: ***************************

Doing analysis at TEMP = -40.000000 and TNOM = -40.000000


No. of Data Rows : 67
                          ***************************
                          DC transfer characteristic  Mon Jan  9 13:57:30  2023
--------------------------------------------------------------------------------
Index   v-sweep         rds             
--------------------------------------------------------------------------------
0	0.000000e+00	1.639838e+04	
1	-5.00000e-02	1.723888e+04	
2	-1.00000e-01	1.816902e+04	
3	-1.50000e-01	1.920392e+04	
4	-2.00000e-01	2.036230e+04	
5	-2.50000e-01	2.166761e+04	
6	-3.00000e-01	2.314964e+04	
7	-3.50000e-01	2.484674e+04	
8	-4.00000e-01	2.680918e+04	
9	-4.50000e-01	2.910410e+04	
10	-5.00000e-01	3.182311e+04	
11	-5.50000e-01	3.509444e+04	
12	-6.00000e-01	3.910274e+04	
13	-6.50000e-01	4.412301e+04	
14	-7.00000e-01	5.058086e+04	
15	-7.50000e-01	5.916492e+04	
16	-8.00000e-01	7.104589e+04	
17	-8.50000e-01	8.832004e+04	
18	-9.00000e-01	1.149186e+05	
19	-9.50000e-01	1.583795e+05	
20	-1.00000e+00	2.326683e+05	
21	-1.05000e+00	3.604004e+05	
22	-1.10000e+00	5.692603e+05	
23	-1.15000e+00	8.792783e+05	
24	-1.20000e+00	1.289919e+06	
25	-1.25000e+00	1.780127e+06	
26	-1.30000e+00	2.319959e+06	
27	-1.35000e+00	2.882229e+06	
28	-1.40000e+00	3.447732e+06	
29	-1.45000e+00	4.005184e+06	
30	-1.50000e+00	4.549071e+06	
31	-1.55000e+00	5.077433e+06	
32	-1.60000e+00	5.590248e+06	
33	-1.65000e+00	6.088426e+06	
34	-1.70000e+00	6.573246e+06	
35	-1.75000e+00	7.046056e+06	
36	-1.80000e+00	7.508134e+06	
37	-1.85000e+00	7.960629e+06	
38	-1.90000e+00	8.404546e+06	
39	-1.95000e+00	8.840753e+06	
40	-2.00000e+00	9.269992e+06	
41	-2.05000e+00	9.692893e+06	
42	-2.10000e+00	1.011000e+07	
43	-2.15000e+00	1.052176e+07	
44	-2.20000e+00	1.092859e+07	
45	-2.25000e+00	1.133081e+07	
46	-2.30000e+00	1.172871e+07	
47	-2.35000e+00	1.212256e+07	
48	-2.40000e+00	1.251257e+07	
49	-2.45000e+00	1.289892e+07	
50	-2.50000e+00	1.328179e+07	
51	-2.55000e+00	1.366130e+07	
52	-2.60000e+00	1.403756e+07	
53	-2.65000e+00	1.441065e+07	
54	-2.70000e+00	1.478062e+07	

Index   v-sweep         rds             
--------------------------------------------------------------------------------
55	-2.75000e+00	1.514743e+07	
56	-2.80000e+00	1.551101e+07	
57	-2.85000e+00	1.587120e+07	
58	-2.90000e+00	1.622770e+07	
59	-2.95000e+00	1.658008e+07	
60	-3.00000e+00	1.692770e+07	
61	-3.05000e+00	1.726970e+07	
62	-3.10000e+00	1.760489e+07	
63	-3.15000e+00	1.793174e+07	
64	-3.20000e+00	1.824827e+07	
65	-3.25000e+00	1.855203e+07	
66	-3.30000e+00	1.883998e+07	
Reset re-loads circuit ***************************

Circuit: ***************************

Doing analysis at TEMP = -40.000000 and TNOM = -40.000000


No. of Data Rows : 67
                          ***************************
                          DC transfer characteristic  Mon Jan  9 13:57:30  2023
--------------------------------------------------------------------------------
Index   v-sweep         rds             
--------------------------------------------------------------------------------
0	0.000000e+00	1.311349e+04	
1	-5.00000e-02	1.359716e+04	
2	-1.00000e-01	1.411727e+04	
3	-1.50000e-01	1.467812e+04	
4	-2.00000e-01	1.528468e+04	
5	-2.50000e-01	1.594276e+04	
6	-3.00000e-01	1.665923e+04	
7	-3.50000e-01	1.744219e+04	
8	-4.00000e-01	1.830134e+04	
9	-4.50000e-01	1.924835e+04	
10	-5.00000e-01	2.029740e+04	
11	-5.50000e-01	2.146588e+04	
12	-6.00000e-01	2.277534e+04	
13	-6.50000e-01	2.425283e+04	
14	-7.00000e-01	2.593274e+04	
15	-7.50000e-01	2.785947e+04	
16	-8.00000e-01	3.009126e+04	
17	-8.50000e-01	3.270599e+04	
18	-9.00000e-01	3.581000e+04	
19	-9.50000e-01	3.955203e+04	
20	-1.00000e+00	4.414582e+04	
21	-1.05000e+00	4.990797e+04	
22	-1.10000e+00	5.732356e+04	
23	-1.15000e+00	6.716293e+04	
24	-1.20000e+00	8.069431e+04	
25	-1.25000e+00	1.000693e+05	
26	-1.30000e+00	1.289866e+05	
27	-1.35000e+00	1.736616e+05	
28	-1.40000e+00	2.436780e+05	
29	-1.45000e+00	3.513393e+05	
30	-1.50000e+00	5.079189e+05	
31	-1.55000e+00	7.179645e+05	
32	-1.60000e+00	9.763023e+05	
33	-1.65000e+00	1.270500e+06	
34	-1.70000e+00	1.586189e+06	
35	-1.75000e+00	1.911209e+06	
36	-1.80000e+00	2.237134e+06	
37	-1.85000e+00	2.558975e+06	
38	-1.90000e+00	2.874232e+06	
39	-1.95000e+00	3.181966e+06	
40	-2.00000e+00	3.482115e+06	
41	-2.05000e+00	3.775065e+06	
42	-2.10000e+00	4.061388e+06	
43	-2.15000e+00	4.341712e+06	
44	-2.20000e+00	4.616641e+06	
45	-2.25000e+00	4.886729e+06	
46	-2.30000e+00	5.152471e+06	
47	-2.35000e+00	5.414294e+06	
48	-2.40000e+00	5.672571e+06	
49	-2.45000e+00	5.927621e+06	
50	-2.50000e+00	6.179719e+06	
51	-2.55000e+00	6.429099e+06	
52	-2.60000e+00	6.675966e+06	
53	-2.65000e+00	6.920494e+06	
54	-2.70000e+00	7.162834e+06	

Index   v-sweep         rds             
--------------------------------------------------------------------------------
55	-2.75000e+00	7.403117e+06	
56	-2.80000e+00	7.641457e+06	
57	-2.85000e+00	7.877951e+06	
58	-2.90000e+00	8.112680e+06	
59	-2.95000e+00	8.345713e+06	
60	-3.00000e+00	8.577098e+06	
61	-3.05000e+00	8.806866e+06	
62	-3.10000e+00	9.035018e+06	
63	-3.15000e+00	9.261524e+06	
64	-3.20000e+00	9.486305e+06	
65	-3.25000e+00	9.709222e+06	
66	-3.30000e+00	9.930054e+06	
Reset re-loads circuit ***************************

Circuit: ***************************

Doing analysis at TEMP = -40.000000 and TNOM = -40.000000


No. of Data Rows : 67
                          ***************************
                          DC transfer characteristic  Mon Jan  9 13:57:31  2023
--------------------------------------------------------------------------------
Index   v-sweep         rds             
--------------------------------------------------------------------------------
0	0.000000e+00	1.125564e+04	
1	-5.00000e-02	1.157590e+04	
2	-1.00000e-01	1.191456e+04	
3	-1.50000e-01	1.227326e+04	
4	-2.00000e-01	1.265382e+04	
5	-2.50000e-01	1.305832e+04	
6	-3.00000e-01	1.348907e+04	
7	-3.50000e-01	1.394873e+04	
8	-4.00000e-01	1.444029e+04	
9	-4.50000e-01	1.496720e+04	
10	-5.00000e-01	1.553341e+04	
11	-5.50000e-01	1.614348e+04	
12	-6.00000e-01	1.680271e+04	
13	-6.50000e-01	1.751727e+04	
14	-7.00000e-01	1.829444e+04	
15	-7.50000e-01	1.914279e+04	
16	-8.00000e-01	2.007256e+04	
17	-8.50000e-01	2.109603e+04	
18	-9.00000e-01	2.222805e+04	
19	-9.50000e-01	2.348681e+04	
20	-1.00000e+00	2.489475e+04	
21	-1.05000e+00	2.647988e+04	
22	-1.10000e+00	2.827767e+04	
23	-1.15000e+00	3.033356e+04	
24	-1.20000e+00	3.270676e+04	
25	-1.25000e+00	3.547570e+04	
26	-1.30000e+00	3.874632e+04	
27	-1.35000e+00	4.266473e+04	
28	-1.40000e+00	4.743725e+04	
29	-1.45000e+00	5.336275e+04	
30	-1.50000e+00	6.088591e+04	
31	-1.55000e+00	7.068648e+04	
32	-1.60000e+00	8.382865e+04	
33	-1.65000e+00	1.020041e+05	
34	-1.70000e+00	1.278931e+05	
35	-1.75000e+00	1.655890e+05	
36	-1.80000e+00	2.207938e+05	
37	-1.85000e+00	3.001711e+05	
38	-1.90000e+00	4.093661e+05	
39	-1.95000e+00	5.503984e+05	
40	-2.00000e+00	7.203506e+05	
41	-2.05000e+00	9.124860e+05	
42	-2.10000e+00	1.118789e+06	
43	-2.15000e+00	1.332148e+06	
44	-2.20000e+00	1.547343e+06	
45	-2.25000e+00	1.761064e+06	
46	-2.30000e+00	1.971486e+06	
47	-2.35000e+00	2.177780e+06	
48	-2.40000e+00	2.379718e+06	
49	-2.45000e+00	2.577402e+06	
50	-2.50000e+00	2.771100e+06	
51	-2.55000e+00	2.961140e+06	
52	-2.60000e+00	3.147865e+06	
53	-2.65000e+00	3.331599e+06	
54	-2.70000e+00	3.512638e+06	

Index   v-sweep         rds             
--------------------------------------------------------------------------------
55	-2.75000e+00	3.691243e+06	
56	-2.80000e+00	3.867645e+06	
57	-2.85000e+00	4.042045e+06	
58	-2.90000e+00	4.214615e+06	
59	-2.95000e+00	4.385506e+06	
60	-3.00000e+00	4.554846e+06	
61	-3.05000e+00	4.722748e+06	
62	-3.10000e+00	4.889310e+06	
63	-3.15000e+00	5.054614e+06	
64	-3.20000e+00	5.218735e+06	
65	-3.25000e+00	5.381734e+06	
66	-3.30000e+00	5.543665e+06	
Reset re-loads circuit ***************************

Circuit: ***************************

Note: No ".plot", ".print", or ".fourier" lines; no simulations run
