
Note: Compatibility modes selected: hs

Warning: m=xx on .subckt line will override multiplier m hierarchy!


Circuit: ***************************

Doing analysis at TEMP = 125.000000 and TNOM = 125.000000


No. of Data Rows : 67
                          ***************************
                          DC transfer characteristic  Mon Jan  9 13:57:32  2023
--------------------------------------------------------------------------------
Index   v-sweep         rds             
--------------------------------------------------------------------------------
0	0.000000e+00	2.808698e+05	
1	-5.00000e-02	4.323989e+05	
2	-1.00000e-01	8.600155e+05	
3	-1.50000e-01	2.664215e+06	
4	-2.00000e-01	9.770738e+06	
5	-2.50000e-01	2.526394e+07	
6	-3.00000e-01	4.455640e+07	
7	-3.50000e-01	6.192578e+07	
8	-4.00000e-01	7.582129e+07	
9	-4.50000e-01	8.687819e+07	
10	-5.00000e-01	9.599720e+07	
11	-5.50000e-01	1.038395e+08	
12	-6.00000e-01	1.108273e+08	
13	-6.50000e-01	1.172230e+08	
14	-7.00000e-01	1.231912e+08	
15	-7.50000e-01	1.288373e+08	
16	-8.00000e-01	1.342313e+08	
17	-8.50000e-01	1.394206e+08	
18	-9.00000e-01	1.444382e+08	
19	-9.50000e-01	1.493082e+08	
20	-1.00000e+00	1.540482e+08	
21	-1.05000e+00	1.586714e+08	
22	-1.10000e+00	1.631883e+08	
23	-1.15000e+00	1.676071e+08	
24	-1.20000e+00	1.719343e+08	
25	-1.25000e+00	1.761756e+08	
26	-1.30000e+00	1.803355e+08	
27	-1.35000e+00	1.844180e+08	
28	-1.40000e+00	1.884264e+08	
29	-1.45000e+00	1.923639e+08	
30	-1.50000e+00	1.962331e+08	
31	-1.55000e+00	2.000363e+08	
32	-1.60000e+00	2.037757e+08	
33	-1.65000e+00	2.074533e+08	
34	-1.70000e+00	2.110706e+08	
35	-1.75000e+00	2.146291e+08	
36	-1.80000e+00	2.181297e+08	
37	-1.85000e+00	2.215733e+08	
38	-1.90000e+00	2.249597e+08	
39	-1.95000e+00	2.282885e+08	
40	-2.00000e+00	2.315581e+08	
41	-2.05000e+00	2.347658e+08	
42	-2.10000e+00	2.379075e+08	
43	-2.15000e+00	2.409773e+08	
44	-2.20000e+00	2.439670e+08	
45	-2.25000e+00	2.468658e+08	
46	-2.30000e+00	2.496601e+08	
47	-2.35000e+00	2.523322e+08	
48	-2.40000e+00	2.548611e+08	
49	-2.45000e+00	2.572208e+08	
50	-2.50000e+00	2.593809e+08	
51	-2.55000e+00	2.613060e+08	
52	-2.60000e+00	2.629557e+08	
53	-2.65000e+00	2.642850e+08	
54	-2.70000e+00	2.652443e+08	

Index   v-sweep         rds             
--------------------------------------------------------------------------------
55	-2.75000e+00	2.657809e+08	
56	-2.80000e+00	2.658398e+08	
57	-2.85000e+00	2.653656e+08	
58	-2.90000e+00	2.643042e+08	
59	-2.95000e+00	2.626060e+08	
60	-3.00000e+00	2.602277e+08	
61	-3.05000e+00	2.571361e+08	
62	-3.10000e+00	2.533098e+08	
63	-3.15000e+00	2.487425e+08	
64	-3.20000e+00	2.434442e+08	
65	-3.25000e+00	2.374424e+08	
66	-3.30000e+00	2.307821e+08	
Reset re-loads circuit ***************************

Circuit: ***************************

Doing analysis at TEMP = 125.000000 and TNOM = 125.000000


No. of Data Rows : 67
                          ***************************
                          DC transfer characteristic  Mon Jan  9 13:57:32  2023
--------------------------------------------------------------------------------
Index   v-sweep         rds             
--------------------------------------------------------------------------------
0	0.000000e+00	6.309075e+04	
1	-5.00000e-02	7.024489e+04	
2	-1.00000e-01	7.918164e+04	
3	-1.50000e-01	9.065535e+04	
4	-2.00000e-01	1.059071e+05	
5	-2.50000e-01	1.271168e+05	
6	-3.00000e-01	1.584348e+05	
7	-3.50000e-01	2.085609e+05	
8	-4.00000e-01	2.976741e+05	
9	-4.50000e-01	4.754996e+05	
10	-5.00000e-01	8.527887e+05	
11	-5.50000e-01	1.581948e+06	
12	-6.00000e-01	2.678925e+06	
13	-6.50000e-01	3.927384e+06	
14	-7.00000e-01	5.098378e+06	
15	-7.50000e-01	6.106233e+06	
16	-8.00000e-01	6.962151e+06	
17	-8.50000e-01	7.703533e+06	
18	-9.00000e-01	8.364263e+06	
19	-9.50000e-01	8.968887e+06	
20	-1.00000e+00	9.534001e+06	
21	-1.05000e+00	1.007065e+07	
22	-1.10000e+00	1.058621e+07	
23	-1.15000e+00	1.108571e+07	
24	-1.20000e+00	1.157260e+07	
25	-1.25000e+00	1.204933e+07	
26	-1.30000e+00	1.251766e+07	
27	-1.35000e+00	1.297888e+07	
28	-1.40000e+00	1.343393e+07	
29	-1.45000e+00	1.388355e+07	
30	-1.50000e+00	1.432830e+07	
31	-1.55000e+00	1.476861e+07	
32	-1.60000e+00	1.520482e+07	
33	-1.65000e+00	1.563723e+07	
34	-1.70000e+00	1.606604e+07	
35	-1.75000e+00	1.649145e+07	
36	-1.80000e+00	1.691362e+07	
37	-1.85000e+00	1.733267e+07	
38	-1.90000e+00	1.774870e+07	
39	-1.95000e+00	1.816181e+07	
40	-2.00000e+00	1.857208e+07	
41	-2.05000e+00	1.897953e+07	
42	-2.10000e+00	1.938421e+07	
43	-2.15000e+00	1.978609e+07	
44	-2.20000e+00	2.018513e+07	
45	-2.25000e+00	2.058120e+07	
46	-2.30000e+00	2.097410e+07	
47	-2.35000e+00	2.136352e+07	
48	-2.40000e+00	2.174900e+07	
49	-2.45000e+00	2.212989e+07	
50	-2.50000e+00	2.250530e+07	
51	-2.55000e+00	2.287405e+07	
52	-2.60000e+00	2.323461e+07	
53	-2.65000e+00	2.358499e+07	
54	-2.70000e+00	2.392274e+07	

Index   v-sweep         rds             
--------------------------------------------------------------------------------
55	-2.75000e+00	2.424483e+07	
56	-2.80000e+00	2.454759e+07	
57	-2.85000e+00	2.482671e+07	
58	-2.90000e+00	2.507712e+07	
59	-2.95000e+00	2.529310e+07	
60	-3.00000e+00	2.546822e+07	
61	-3.05000e+00	2.559555e+07	
62	-3.10000e+00	2.566771e+07	
63	-3.15000e+00	2.567720e+07	
64	-3.20000e+00	2.561665e+07	
65	-3.25000e+00	2.547924e+07	
66	-3.30000e+00	2.525906e+07	
Reset re-loads circuit ***************************

Circuit: ***************************

Doing analysis at TEMP = 125.000000 and TNOM = 125.000000


No. of Data Rows : 67
                          ***************************
                          DC transfer characteristic  Mon Jan  9 13:57:32  2023
--------------------------------------------------------------------------------
Index   v-sweep         rds             
--------------------------------------------------------------------------------
0	0.000000e+00	3.679683e+04	
1	-5.00000e-02	3.906492e+04	
2	-1.00000e-01	4.162054e+04	
3	-1.50000e-01	4.452194e+04	
4	-2.00000e-01	4.784420e+04	
5	-2.50000e-01	5.168570e+04	
6	-3.00000e-01	5.617788e+04	
7	-3.50000e-01	6.150027e+04	
8	-4.00000e-01	6.790428e+04	
9	-4.50000e-01	7.575254e+04	
10	-5.00000e-01	8.558610e+04	
11	-5.50000e-01	9.824485e+04	
12	-6.00000e-01	1.150931e+05	
13	-6.50000e-01	1.384615e+05	
14	-7.00000e-01	1.725419e+05	
15	-7.50000e-01	2.251761e+05	
16	-8.00000e-01	3.109713e+05	
17	-8.50000e-01	4.541517e+05	
18	-9.00000e-01	6.822922e+05	
19	-9.50000e-01	1.000807e+06	
20	-1.00000e+00	1.373186e+06	
21	-1.05000e+00	1.746054e+06	
22	-1.10000e+00	2.086190e+06	
23	-1.15000e+00	2.385967e+06	
24	-1.20000e+00	2.650696e+06	
25	-1.25000e+00	2.888654e+06	
26	-1.30000e+00	3.107102e+06	
27	-1.35000e+00	3.311477e+06	
28	-1.40000e+00	3.505622e+06	
29	-1.45000e+00	3.692210e+06	
30	-1.50000e+00	3.873097e+06	
31	-1.55000e+00	4.049587e+06	
32	-1.60000e+00	4.222607e+06	
33	-1.65000e+00	4.392829e+06	
34	-1.70000e+00	4.560744e+06	
35	-1.75000e+00	4.726716e+06	
36	-1.80000e+00	4.891022e+06	
37	-1.85000e+00	5.053873e+06	
38	-1.90000e+00	5.215434e+06	
39	-1.95000e+00	5.375834e+06	
40	-2.00000e+00	5.535174e+06	
41	-2.05000e+00	5.693537e+06	
42	-2.10000e+00	5.850991e+06	
43	-2.15000e+00	6.007589e+06	
44	-2.20000e+00	6.163376e+06	
45	-2.25000e+00	6.318389e+06	
46	-2.30000e+00	6.472659e+06	
47	-2.35000e+00	6.626208e+06	
48	-2.40000e+00	6.779053e+06	
49	-2.45000e+00	6.931200e+06	
50	-2.50000e+00	7.082647e+06	
51	-2.55000e+00	7.233375e+06	
52	-2.60000e+00	7.383345e+06	
53	-2.65000e+00	7.532491e+06	
54	-2.70000e+00	7.680706e+06	

Index   v-sweep         rds             
--------------------------------------------------------------------------------
55	-2.75000e+00	7.827837e+06	
56	-2.80000e+00	7.973660e+06	
57	-2.85000e+00	8.117870e+06	
58	-2.90000e+00	8.260055e+06	
59	-2.95000e+00	8.399671e+06	
60	-3.00000e+00	8.536020e+06	
61	-3.05000e+00	8.668215e+06	
62	-3.10000e+00	8.795156e+06	
63	-3.15000e+00	8.915501e+06	
64	-3.20000e+00	9.027642e+06	
65	-3.25000e+00	9.129692e+06	
66	-3.30000e+00	9.219477e+06	
Reset re-loads circuit ***************************

Circuit: ***************************

Doing analysis at TEMP = 125.000000 and TNOM = 125.000000


No. of Data Rows : 67
                          ***************************
                          DC transfer characteristic  Mon Jan  9 13:57:32  2023
--------------------------------------------------------------------------------
Index   v-sweep         rds             
--------------------------------------------------------------------------------
0	0.000000e+00	2.687866e+04	
1	-5.00000e-02	2.800793e+04	
2	-1.00000e-01	2.923172e+04	
3	-1.50000e-01	3.056240e+04	
4	-2.00000e-01	3.201458e+04	
5	-2.50000e-01	3.360569e+04	
6	-3.00000e-01	3.535663e+04	
7	-3.50000e-01	3.729271e+04	
8	-4.00000e-01	3.944486e+04	
9	-4.50000e-01	4.185128e+04	
10	-5.00000e-01	4.455970e+04	
11	-5.50000e-01	4.763053e+04	
12	-6.00000e-01	5.114130e+04	
13	-6.50000e-01	5.519314e+04	
14	-7.00000e-01	5.992034e+04	
15	-7.50000e-01	6.550489e+04	
16	-8.00000e-01	7.219901e+04	
17	-8.50000e-01	8.036143e+04	
18	-9.00000e-01	9.051693e+04	
19	-9.50000e-01	1.034574e+05	
20	-1.00000e+00	1.204161e+05	
21	-1.05000e+00	1.433695e+05	
22	-1.10000e+00	1.755372e+05	
23	-1.15000e+00	2.220820e+05	
24	-1.20000e+00	2.905891e+05	
25	-1.25000e+00	3.897611e+05	
26	-1.30000e+00	5.241408e+05	
27	-1.35000e+00	6.872421e+05	
28	-1.40000e+00	8.624141e+05	
29	-1.45000e+00	1.033002e+06	
30	-1.50000e+00	1.190020e+06	
31	-1.55000e+00	1.331760e+06	
32	-1.60000e+00	1.460147e+06	
33	-1.65000e+00	1.578035e+06	
34	-1.70000e+00	1.688020e+06	
35	-1.75000e+00	1.792135e+06	
36	-1.80000e+00	1.891879e+06	
37	-1.85000e+00	1.988329e+06	
38	-1.90000e+00	2.082260e+06	
39	-1.95000e+00	2.174229e+06	
40	-2.00000e+00	2.264640e+06	
41	-2.05000e+00	2.353792e+06	
42	-2.10000e+00	2.441906e+06	
43	-2.15000e+00	2.529149e+06	
44	-2.20000e+00	2.615649e+06	
45	-2.25000e+00	2.701504e+06	
46	-2.30000e+00	2.786791e+06	
47	-2.35000e+00	2.871571e+06	
48	-2.40000e+00	2.955892e+06	
49	-2.45000e+00	3.039793e+06	
50	-2.50000e+00	3.123306e+06	
51	-2.55000e+00	3.206458e+06	
52	-2.60000e+00	3.289268e+06	
53	-2.65000e+00	3.371755e+06	
54	-2.70000e+00	3.453933e+06	

Index   v-sweep         rds             
--------------------------------------------------------------------------------
55	-2.75000e+00	3.535811e+06	
56	-2.80000e+00	3.617396e+06	
57	-2.85000e+00	3.698690e+06	
58	-2.90000e+00	3.779687e+06	
59	-2.95000e+00	3.860374e+06	
60	-3.00000e+00	3.940725e+06	
61	-3.05000e+00	4.020696e+06	
62	-3.10000e+00	4.100224e+06	
63	-3.15000e+00	4.179212e+06	
64	-3.20000e+00	4.257526e+06	
65	-3.25000e+00	4.334983e+06	
66	-3.30000e+00	4.411336e+06	
Reset re-loads circuit ***************************

Circuit: ***************************

Doing analysis at TEMP = 125.000000 and TNOM = 125.000000


No. of Data Rows : 67
                          ***************************
                          DC transfer characteristic  Mon Jan  9 13:57:32  2023
--------------------------------------------------------------------------------
Index   v-sweep         rds             
--------------------------------------------------------------------------------
0	0.000000e+00	2.167316e+04	
1	-5.00000e-02	2.235943e+04	
2	-1.00000e-01	2.308806e+04	
3	-1.50000e-01	2.386307e+04	
4	-2.00000e-01	2.468906e+04	
5	-2.50000e-01	2.557120e+04	
6	-3.00000e-01	2.651543e+04	
7	-3.50000e-01	2.752853e+04	
8	-4.00000e-01	2.861830e+04	
9	-4.50000e-01	2.979380e+04	
10	-5.00000e-01	3.106553e+04	
11	-5.50000e-01	3.244579e+04	
12	-6.00000e-01	3.394907e+04	
13	-6.50000e-01	3.559254e+04	
14	-7.00000e-01	3.739672e+04	
15	-7.50000e-01	3.938633e+04	
16	-8.00000e-01	4.159139e+04	
17	-8.50000e-01	4.404873e+04	
18	-9.00000e-01	4.680404e+04	
19	-9.50000e-01	4.991461e+04	
20	-1.00000e+00	5.345328e+04	
21	-1.05000e+00	5.751391e+04	
22	-1.10000e+00	6.221942e+04	
23	-1.15000e+00	6.773358e+04	
24	-1.20000e+00	7.427871e+04	
25	-1.25000e+00	8.216288e+04	
26	-1.30000e+00	9.182211e+04	
27	-1.35000e+00	1.038866e+05	
28	-1.40000e+00	1.192834e+05	
29	-1.45000e+00	1.393893e+05	
30	-1.50000e+00	1.662275e+05	
31	-1.55000e+00	2.026241e+05	
32	-1.60000e+00	2.520281e+05	
33	-1.65000e+00	3.174372e+05	
34	-1.70000e+00	3.992125e+05	
35	-1.75000e+00	4.932850e+05	
36	-1.80000e+00	5.923058e+05	
37	-1.85000e+00	6.892893e+05	
38	-1.90000e+00	7.802033e+05	
39	-1.95000e+00	8.639561e+05	
40	-2.00000e+00	9.411390e+05	
41	-2.05000e+00	1.012929e+06	
42	-2.10000e+00	1.080516e+06	
43	-2.15000e+00	1.144893e+06	
44	-2.20000e+00	1.206829e+06	
45	-2.25000e+00	1.266899e+06	
46	-2.30000e+00	1.325524e+06	
47	-2.35000e+00	1.383017e+06	
48	-2.40000e+00	1.439608e+06	
49	-2.45000e+00	1.495470e+06	
50	-2.50000e+00	1.550731e+06	
51	-2.55000e+00	1.605490e+06	
52	-2.60000e+00	1.659822e+06	
53	-2.65000e+00	1.713787e+06	
54	-2.70000e+00	1.767430e+06	

Index   v-sweep         rds             
--------------------------------------------------------------------------------
55	-2.75000e+00	1.820789e+06	
56	-2.80000e+00	1.873891e+06	
57	-2.85000e+00	1.926761e+06	
58	-2.90000e+00	1.979419e+06	
59	-2.95000e+00	2.031879e+06	
60	-3.00000e+00	2.084154e+06	
61	-3.05000e+00	2.136256e+06	
62	-3.10000e+00	2.188192e+06	
63	-3.15000e+00	2.239968e+06	
64	-3.20000e+00	2.291589e+06	
65	-3.25000e+00	2.343054e+06	
66	-3.30000e+00	2.394360e+06	
Reset re-loads circuit ***************************

Circuit: ***************************

Doing analysis at TEMP = 125.000000 and TNOM = 125.000000


No. of Data Rows : 67
                          ***************************
                          DC transfer characteristic  Mon Jan  9 13:57:32  2023
--------------------------------------------------------------------------------
Index   v-sweep         rds             
--------------------------------------------------------------------------------
0	0.000000e+00	1.846402e+04	
1	-5.00000e-02	1.893040e+04	
2	-1.00000e-01	1.941933e+04	
3	-1.50000e-01	1.993251e+04	
4	-2.00000e-01	2.047176e+04	
5	-2.50000e-01	2.103914e+04	
6	-3.00000e-01	2.163690e+04	
7	-3.50000e-01	2.226754e+04	
8	-4.00000e-01	2.293385e+04	
9	-4.50000e-01	2.363894e+04	
10	-5.00000e-01	2.438630e+04	
11	-5.50000e-01	2.517984e+04	
12	-6.00000e-01	2.602398e+04	
13	-6.50000e-01	2.692370e+04	
14	-7.00000e-01	2.788468e+04	
15	-7.50000e-01	2.891338e+04	
16	-8.00000e-01	3.001721e+04	
17	-8.50000e-01	3.120470e+04	
18	-9.00000e-01	3.248572e+04	
19	-9.50000e-01	3.387175e+04	
20	-1.00000e+00	3.537621e+04	
21	-1.05000e+00	3.701491e+04	
22	-1.10000e+00	3.880659e+04	
23	-1.15000e+00	4.077364e+04	
24	-1.20000e+00	4.294299e+04	
25	-1.25000e+00	4.534734e+04	
26	-1.30000e+00	4.802677e+04	
27	-1.35000e+00	5.103090e+04	
28	-1.40000e+00	5.442185e+04	
29	-1.45000e+00	5.827831e+04	
30	-1.50000e+00	6.270131e+04	
31	-1.55000e+00	6.782237e+04	
32	-1.60000e+00	7.381523e+04	
33	-1.65000e+00	8.091291e+04	
34	-1.70000e+00	8.943267e+04	
35	-1.75000e+00	9.981196e+04	
36	-1.80000e+00	1.126588e+05	
37	-1.85000e+00	1.288164e+05	
38	-1.90000e+00	1.494281e+05	
39	-1.95000e+00	1.759519e+05	
40	-2.00000e+00	2.100041e+05	
41	-2.05000e+00	2.528591e+05	
42	-2.10000e+00	3.045913e+05	
43	-2.15000e+00	3.633764e+05	
44	-2.20000e+00	4.258054e+05	
45	-2.25000e+00	4.882545e+05	
46	-2.30000e+00	5.481836e+05	
47	-2.35000e+00	6.044849e+05	
48	-2.40000e+00	6.570945e+05	
49	-2.45000e+00	7.064605e+05	
50	-2.50000e+00	7.531756e+05	
51	-2.55000e+00	7.977991e+05	
52	-2.60000e+00	8.407953e+05	
53	-2.65000e+00	8.825279e+05	
54	-2.70000e+00	9.232743e+05	

Index   v-sweep         rds             
--------------------------------------------------------------------------------
55	-2.75000e+00	9.632434e+05	
56	-2.80000e+00	1.002592e+06	
57	-2.85000e+00	1.041440e+06	
58	-2.90000e+00	1.079877e+06	
59	-2.95000e+00	1.117972e+06	
60	-3.00000e+00	1.155778e+06	
61	-3.05000e+00	1.193337e+06	
62	-3.10000e+00	1.230682e+06	
63	-3.15000e+00	1.267839e+06	
64	-3.20000e+00	1.304829e+06	
65	-3.25000e+00	1.341667e+06	
66	-3.30000e+00	1.378369e+06	
Reset re-loads circuit ***************************

Circuit: ***************************

Note: No ".plot", ".print", or ".fourier" lines; no simulations run
