
Note: Compatibility modes selected: hs

Warning: m=xx on .subckt line will override multiplier m hierarchy!


Circuit: ***************************

Doing analysis at TEMP = -40.000000 and TNOM = -40.000000


No. of Data Rows : 67
                          ***************************
                          DC transfer characteristic  Mon Jan  9 13:57:31  2023
--------------------------------------------------------------------------------
Index   v-sweep         rds             
--------------------------------------------------------------------------------
0	0.000000e+00	1.371346e+07	
1	-5.00000e-02	1.451714e+08	
2	-1.00000e-01	1.355612e+09	
3	-1.50000e-01	5.004468e+09	
4	-2.00000e-01	1.108024e+10	
5	-2.50000e-01	1.829900e+10	
6	-3.00000e-01	2.536117e+10	
7	-3.50000e-01	3.160855e+10	
8	-4.00000e-01	3.690201e+10	
9	-4.50000e-01	4.133655e+10	
10	-5.00000e-01	4.506757e+10	
11	-5.50000e-01	4.824141e+10	
12	-6.00000e-01	5.097682e+10	
13	-6.50000e-01	5.336506e+10	
14	-7.00000e-01	5.547511e+10	
15	-7.50000e-01	5.735906e+10	
16	-8.00000e-01	5.905658e+10	
17	-8.50000e-01	6.059821e+10	
18	-9.00000e-01	6.200783e+10	
19	-9.50000e-01	6.330432e+10	
20	-1.00000e+00	6.450284e+10	
21	-1.05000e+00	6.561571e+10	
22	-1.10000e+00	6.665310e+10	
23	-1.15000e+00	6.762344e+10	
24	-1.20000e+00	6.853384e+10	
25	-1.25000e+00	6.939034e+10	
26	-1.30000e+00	7.019811e+10	
27	-1.35000e+00	7.096160e+10	
28	-1.40000e+00	7.168471e+10	
29	-1.45000e+00	7.237082e+10	
30	-1.50000e+00	7.302291e+10	
31	-1.55000e+00	7.364363e+10	
32	-1.60000e+00	7.423531e+10	
33	-1.65000e+00	7.479999e+10	
34	-1.70000e+00	7.533949e+10	
35	-1.75000e+00	7.585540e+10	
36	-1.80000e+00	7.634908e+10	
37	-1.85000e+00	7.682167e+10	
38	-1.90000e+00	7.727409e+10	
39	-1.95000e+00	7.770702e+10	
40	-2.00000e+00	7.812089e+10	
41	-2.05000e+00	7.851582e+10	
42	-2.10000e+00	7.889167e+10	
43	-2.15000e+00	7.924794e+10	
44	-2.20000e+00	7.958374e+10	
45	-2.25000e+00	7.989781e+10	
46	-2.30000e+00	8.018844e+10	
47	-2.35000e+00	8.045345e+10	
48	-2.40000e+00	8.069018e+10	
49	-2.45000e+00	8.089544e+10	
50	-2.50000e+00	8.106552e+10	
51	-2.55000e+00	8.119620e+10	
52	-2.60000e+00	8.128274e+10	
53	-2.65000e+00	8.131990e+10	
54	-2.70000e+00	8.130203e+10	

Index   v-sweep         rds             
--------------------------------------------------------------------------------
55	-2.75000e+00	8.122310e+10	
56	-2.80000e+00	8.107682e+10	
57	-2.85000e+00	8.085672e+10	
58	-2.90000e+00	8.055632e+10	
59	-2.95000e+00	8.016926e+10	
60	-3.00000e+00	7.968949e+10	
61	-3.05000e+00	7.911146e+10	
62	-3.10000e+00	7.843035e+10	
63	-3.15000e+00	7.764219e+10	
64	-3.20000e+00	7.674414e+10	
65	-3.25000e+00	7.573460e+10	
66	-3.30000e+00	7.461341e+10	
Reset re-loads circuit ***************************

Circuit: ***************************

Doing analysis at TEMP = -40.000000 and TNOM = -40.000000


No. of Data Rows : 67
                          ***************************
                          DC transfer characteristic  Mon Jan  9 13:57:31  2023
--------------------------------------------------------------------------------
Index   v-sweep         rds             
--------------------------------------------------------------------------------
0	0.000000e+00	4.626645e+05	
1	-5.00000e-02	5.472824e+05	
2	-1.00000e-01	6.691338e+05	
3	-1.50000e-01	8.586998e+05	
4	-2.00000e-01	1.188553e+06	
5	-2.50000e-01	1.863324e+06	
6	-3.00000e-01	3.548033e+06	
7	-3.50000e-01	8.282438e+06	
8	-4.00000e-01	2.021880e+07	
9	-4.50000e-01	4.347858e+07	
10	-5.00000e-01	7.867502e+07	
11	-5.50000e-01	1.226765e+08	
12	-6.00000e-01	1.710954e+08	
13	-6.50000e-01	2.203938e+08	
14	-7.00000e-01	2.684762e+08	
15	-7.50000e-01	3.143949e+08	
16	-8.00000e-01	3.578860e+08	
17	-8.50000e-01	3.990230e+08	
18	-9.00000e-01	4.380157e+08	
19	-9.50000e-01	4.751088e+08	
20	-1.00000e+00	5.105370e+08	
21	-1.05000e+00	5.445079e+08	
22	-1.10000e+00	5.771987e+08	
23	-1.15000e+00	6.087579e+08	
24	-1.20000e+00	6.393090e+08	
25	-1.25000e+00	6.689550e+08	
26	-1.30000e+00	6.977815e+08	
27	-1.35000e+00	7.258605e+08	
28	-1.40000e+00	7.532525e+08	
29	-1.45000e+00	7.800090e+08	
30	-1.50000e+00	8.061740e+08	
31	-1.55000e+00	8.317856e+08	
32	-1.60000e+00	8.568767e+08	
33	-1.65000e+00	8.814761e+08	
34	-1.70000e+00	9.056091e+08	
35	-1.75000e+00	9.292982e+08	
36	-1.80000e+00	9.525629e+08	
37	-1.85000e+00	9.754207e+08	
38	-1.90000e+00	9.978865e+08	
39	-1.95000e+00	1.019973e+09	
40	-2.00000e+00	1.041689e+09	
41	-2.05000e+00	1.063042e+09	
42	-2.10000e+00	1.084034e+09	
43	-2.15000e+00	1.104662e+09	
44	-2.20000e+00	1.124916e+09	
45	-2.25000e+00	1.144779e+09	
46	-2.30000e+00	1.164222e+09	
47	-2.35000e+00	1.183207e+09	
48	-2.40000e+00	1.201675e+09	
49	-2.45000e+00	1.219554e+09	
50	-2.50000e+00	1.236748e+09	
51	-2.55000e+00	1.253138e+09	
52	-2.60000e+00	1.268577e+09	
53	-2.65000e+00	1.282887e+09	
54	-2.70000e+00	1.295862e+09	

Index   v-sweep         rds             
--------------------------------------------------------------------------------
55	-2.75000e+00	1.307262e+09	
56	-2.80000e+00	1.316815e+09	
57	-2.85000e+00	1.324222e+09	
58	-2.90000e+00	1.329162e+09	
59	-2.95000e+00	1.331298e+09	
60	-3.00000e+00	1.330290e+09	
61	-3.05000e+00	1.325810e+09	
62	-3.10000e+00	1.317557e+09	
63	-3.15000e+00	1.305278e+09	
64	-3.20000e+00	1.288784e+09	
65	-3.25000e+00	1.267973e+09	
66	-3.30000e+00	1.242841e+09	
Reset re-loads circuit ***************************

Circuit: ***************************

Doing analysis at TEMP = -40.000000 and TNOM = -40.000000


No. of Data Rows : 67
                          ***************************
                          DC transfer characteristic  Mon Jan  9 13:57:31  2023
--------------------------------------------------------------------------------
Index   v-sweep         rds             
--------------------------------------------------------------------------------
0	0.000000e+00	2.311077e+05	
1	-5.00000e-02	2.500105e+05	
2	-1.00000e-01	2.722466e+05	
3	-1.50000e-01	2.987792e+05	
4	-2.00000e-01	3.309790e+05	
5	-2.50000e-01	3.708627e+05	
6	-3.00000e-01	4.215165e+05	
7	-3.50000e-01	4.878917e+05	
8	-4.00000e-01	5.783979e+05	
9	-4.50000e-01	7.083270e+05	
10	-5.00000e-01	9.077763e+05	
11	-5.50000e-01	1.241100e+06	
12	-6.00000e-01	1.854700e+06	
13	-6.50000e-01	3.076781e+06	
14	-7.00000e-01	5.529532e+06	
15	-7.50000e-01	1.002486e+07	
16	-8.00000e-01	1.709561e+07	
17	-8.50000e-01	2.659745e+07	
18	-9.00000e-01	3.783100e+07	
19	-9.50000e-01	4.996444e+07	
20	-1.00000e+00	6.234007e+07	
21	-1.05000e+00	7.455311e+07	
22	-1.10000e+00	8.640261e+07	
23	-1.15000e+00	9.781597e+07	
24	-1.20000e+00	1.087895e+08	
25	-1.25000e+00	1.193513e+08	
26	-1.30000e+00	1.295414e+08	
27	-1.35000e+00	1.394011e+08	
28	-1.40000e+00	1.489690e+08	
29	-1.45000e+00	1.582790e+08	
30	-1.50000e+00	1.673602e+08	
31	-1.55000e+00	1.762374e+08	
32	-1.60000e+00	1.849315e+08	
33	-1.65000e+00	1.934599e+08	
34	-1.70000e+00	2.018373e+08	
35	-1.75000e+00	2.100763e+08	
36	-1.80000e+00	2.181874e+08	
37	-1.85000e+00	2.261796e+08	
38	-1.90000e+00	2.340608e+08	
39	-1.95000e+00	2.418375e+08	
40	-2.00000e+00	2.495155e+08	
41	-2.05000e+00	2.570999e+08	
42	-2.10000e+00	2.645950e+08	
43	-2.15000e+00	2.720046e+08	
44	-2.20000e+00	2.793318e+08	
45	-2.25000e+00	2.865792e+08	
46	-2.30000e+00	2.937487e+08	
47	-2.35000e+00	3.008412e+08	
48	-2.40000e+00	3.078568e+08	
49	-2.45000e+00	3.147940e+08	
50	-2.50000e+00	3.216497e+08	
51	-2.55000e+00	3.284181e+08	
52	-2.60000e+00	3.350908e+08	
53	-2.65000e+00	3.416554e+08	
54	-2.70000e+00	3.480947e+08	

Index   v-sweep         rds             
--------------------------------------------------------------------------------
55	-2.75000e+00	3.543858e+08	
56	-2.80000e+00	3.604990e+08	
57	-2.85000e+00	3.663962e+08	
58	-2.90000e+00	3.720302e+08	
59	-2.95000e+00	3.773435e+08	
60	-3.00000e+00	3.822669e+08	
61	-3.05000e+00	3.867196e+08	
62	-3.10000e+00	3.906088e+08	
63	-3.15000e+00	3.938303e+08	
64	-3.20000e+00	3.962703e+08	
65	-3.25000e+00	3.978080e+08	
66	-3.30000e+00	3.983194e+08	
Reset re-loads circuit ***************************

Circuit: ***************************

Doing analysis at TEMP = -40.000000 and TNOM = -40.000000


No. of Data Rows : 67
                          ***************************
                          DC transfer characteristic  Mon Jan  9 13:57:31  2023
--------------------------------------------------------------------------------
Index   v-sweep         rds             
--------------------------------------------------------------------------------
0	0.000000e+00	1.597152e+05	
1	-5.00000e-02	1.679767e+05	
2	-1.00000e-01	1.771282e+05	
3	-1.50000e-01	1.873215e+05	
4	-2.00000e-01	1.987450e+05	
5	-2.50000e-01	2.116351e+05	
6	-3.00000e-01	2.262930e+05	
7	-3.50000e-01	2.431076e+05	
8	-4.00000e-01	2.625906e+05	
9	-4.50000e-01	2.854278e+05	
10	-5.00000e-01	3.125599e+05	
11	-5.50000e-01	3.453097e+05	
12	-6.00000e-01	3.855946e+05	
13	-6.50000e-01	4.362904e+05	
14	-7.00000e-01	5.018857e+05	
15	-7.50000e-01	5.897138e+05	
16	-8.00000e-01	7.123774e+05	
17	-8.50000e-01	8.926982e+05	
18	-9.00000e-01	1.173873e+06	
19	-9.50000e-01	1.638949e+06	
20	-1.00000e+00	2.439947e+06	
21	-1.05000e+00	3.814356e+06	
22	-1.10000e+00	6.032771e+06	
23	-1.15000e+00	9.260751e+06	
24	-1.20000e+00	1.344678e+07	
25	-1.25000e+00	1.835191e+07	
26	-1.30000e+00	2.367608e+07	
27	-1.35000e+00	2.916424e+07	
28	-1.40000e+00	3.464513e+07	
29	-1.45000e+00	4.002320e+07	
30	-1.50000e+00	4.525524e+07	
31	-1.55000e+00	5.032905e+07	
32	-1.60000e+00	5.524862e+07	
33	-1.65000e+00	6.002529e+07	
34	-1.70000e+00	6.467285e+07	
35	-1.75000e+00	6.920516e+07	
36	-1.80000e+00	7.363500e+07	
37	-1.85000e+00	7.797370e+07	
38	-1.90000e+00	8.223104e+07	
39	-1.95000e+00	8.641543e+07	
40	-2.00000e+00	9.053398e+07	
41	-2.05000e+00	9.459276e+07	
42	-2.10000e+00	9.859691e+07	
43	-2.15000e+00	1.025508e+08	
44	-2.20000e+00	1.064582e+08	
45	-2.25000e+00	1.103224e+08	
46	-2.30000e+00	1.141460e+08	
47	-2.35000e+00	1.179315e+08	
48	-2.40000e+00	1.216809e+08	
49	-2.45000e+00	1.253961e+08	
50	-2.50000e+00	1.290785e+08	
51	-2.55000e+00	1.327294e+08	
52	-2.60000e+00	1.363497e+08	
53	-2.65000e+00	1.399402e+08	
54	-2.70000e+00	1.435012e+08	

Index   v-sweep         rds             
--------------------------------------------------------------------------------
55	-2.75000e+00	1.470323e+08	
56	-2.80000e+00	1.505328e+08	
57	-2.85000e+00	1.540007e+08	
58	-2.90000e+00	1.574332e+08	
59	-2.95000e+00	1.608257e+08	
60	-3.00000e+00	1.641719e+08	
61	-3.05000e+00	1.674630e+08	
62	-3.10000e+00	1.706872e+08	
63	-3.15000e+00	1.738292e+08	
64	-3.20000e+00	1.768695e+08	
65	-3.25000e+00	1.797835e+08	
66	-3.30000e+00	1.825415e+08	
Reset re-loads circuit ***************************

Circuit: ***************************

Doing analysis at TEMP = -40.000000 and TNOM = -40.000000


No. of Data Rows : 67
                          ***************************
                          DC transfer characteristic  Mon Jan  9 13:57:31  2023
--------------------------------------------------------------------------------
Index   v-sweep         rds             
--------------------------------------------------------------------------------
0	0.000000e+00	1.257758e+05	
1	-5.00000e-02	1.304662e+05	
2	-1.00000e-01	1.355144e+05	
3	-1.50000e-01	1.409629e+05	
4	-2.00000e-01	1.468611e+05	
5	-2.50000e-01	1.532672e+05	
6	-3.00000e-01	1.602495e+05	
7	-3.50000e-01	1.678895e+05	
8	-4.00000e-01	1.762845e+05	
9	-4.50000e-01	1.855520e+05	
10	-5.00000e-01	1.958352e+05	
11	-5.50000e-01	2.073102e+05	
12	-6.00000e-01	2.201964e+05	
13	-6.50000e-01	2.347699e+05	
14	-7.00000e-01	2.513836e+05	
15	-7.50000e-01	2.704953e+05	
16	-8.00000e-01	2.927088e+05	
17	-8.50000e-01	3.188373e+05	
18	-9.00000e-01	3.499989e+05	
19	-9.50000e-01	3.877710e+05	
20	-1.00000e+00	4.344423e+05	
21	-1.05000e+00	4.934395e+05	
22	-1.10000e+00	5.700761e+05	
23	-1.15000e+00	6.728982e+05	
24	-1.20000e+00	8.161473e+05	
25	-1.25000e+00	1.024206e+06	
26	-1.30000e+00	1.339034e+06	
27	-1.35000e+00	1.830090e+06	
28	-1.40000e+00	2.600090e+06	
29	-1.45000e+00	3.770374e+06	
30	-1.50000e+00	5.434839e+06	
31	-1.55000e+00	7.607022e+06	
32	-1.60000e+00	1.020779e+07	
33	-1.65000e+00	1.310375e+07	
34	-1.70000e+00	1.615933e+07	
35	-1.75000e+00	1.926886e+07	
36	-1.80000e+00	2.236378e+07	
37	-1.85000e+00	2.540617e+07	
38	-1.90000e+00	2.837885e+07	
39	-1.95000e+00	3.127705e+07	
40	-2.00000e+00	3.410260e+07	
41	-2.05000e+00	3.686046e+07	
42	-2.10000e+00	3.955676e+07	
43	-2.15000e+00	4.219770e+07	
44	-2.20000e+00	4.478910e+07	
45	-2.25000e+00	4.733618e+07	
46	-2.30000e+00	4.984352e+07	
47	-2.35000e+00	5.231508e+07	
48	-2.40000e+00	5.475427e+07	
49	-2.45000e+00	5.716400e+07	
50	-2.50000e+00	5.954678e+07	
51	-2.55000e+00	6.190474e+07	
52	-2.60000e+00	6.423973e+07	
53	-2.65000e+00	6.655334e+07	
54	-2.70000e+00	6.884693e+07	

Index   v-sweep         rds             
--------------------------------------------------------------------------------
55	-2.75000e+00	7.112169e+07	
56	-2.80000e+00	7.337864e+07	
57	-2.85000e+00	7.561865e+07	
58	-2.90000e+00	7.784246e+07	
59	-2.95000e+00	8.005064e+07	
60	-3.00000e+00	8.224362e+07	
61	-3.05000e+00	8.442159e+07	
62	-3.10000e+00	8.658450e+07	
63	-3.15000e+00	8.873194e+07	
64	-3.20000e+00	9.086301e+07	
65	-3.25000e+00	9.297621e+07	
66	-3.30000e+00	9.506920e+07	
Reset re-loads circuit ***************************

Circuit: ***************************

Doing analysis at TEMP = -40.000000 and TNOM = -40.000000


No. of Data Rows : 67
                          ***************************
                          DC transfer characteristic  Mon Jan  9 13:57:31  2023
--------------------------------------------------------------------------------
Index   v-sweep         rds             
--------------------------------------------------------------------------------
0	0.000000e+00	1.063869e+05	
1	-5.00000e-02	1.094515e+05	
2	-1.00000e-01	1.126945e+05	
3	-1.50000e-01	1.161320e+05	
4	-2.00000e-01	1.197820e+05	
5	-2.50000e-01	1.236647e+05	
6	-3.00000e-01	1.278032e+05	
7	-3.50000e-01	1.322237e+05	
8	-4.00000e-01	1.369558e+05	
9	-4.50000e-01	1.420338e+05	
10	-5.00000e-01	1.474969e+05	
11	-5.50000e-01	1.533907e+05	
12	-6.00000e-01	1.597682e+05	
13	-6.50000e-01	1.666912e+05	
14	-7.00000e-01	1.742328e+05	
15	-7.50000e-01	1.824797e+05	
16	-8.00000e-01	1.915354e+05	
17	-8.50000e-01	2.015246e+05	
18	-9.00000e-01	2.125991e+05	
19	-9.50000e-01	2.249450e+05	
20	-1.00000e+00	2.387937e+05	
21	-1.05000e+00	2.544353e+05	
22	-1.10000e+00	2.722394e+05	
23	-1.15000e+00	2.926830e+05	
24	-1.20000e+00	3.163921e+05	
25	-1.25000e+00	3.442033e+05	
26	-1.30000e+00	3.772572e+05	
27	-1.35000e+00	4.171440e+05	
28	-1.40000e+00	4.661356e+05	
29	-1.45000e+00	5.275651e+05	
30	-1.50000e+00	6.064578e+05	
31	-1.55000e+00	7.105945e+05	
32	-1.60000e+00	8.522815e+05	
33	-1.65000e+00	1.051159e+06	
34	-1.70000e+00	1.338079e+06	
35	-1.75000e+00	1.758743e+06	
36	-1.80000e+00	2.372810e+06	
37	-1.85000e+00	3.242009e+06	
38	-1.90000e+00	4.406552e+06	
39	-1.95000e+00	5.863461e+06	
40	-2.00000e+00	7.564940e+06	
41	-2.05000e+00	9.437900e+06	
42	-2.10000e+00	1.140856e+07	
43	-2.15000e+00	1.341803e+07	
44	-2.20000e+00	1.542646e+07	
45	-2.25000e+00	1.741046e+07	
46	-2.30000e+00	1.935831e+07	
47	-2.35000e+00	2.126566e+07	
48	-2.40000e+00	2.313235e+07	
49	-2.45000e+00	2.496040e+07	
50	-2.50000e+00	2.675281e+07	
51	-2.55000e+00	2.851282e+07	
52	-2.60000e+00	3.024361e+07	
53	-2.65000e+00	3.194811e+07	
54	-2.70000e+00	3.362896e+07	

Index   v-sweep         rds             
--------------------------------------------------------------------------------
55	-2.75000e+00	3.528845e+07	
56	-2.80000e+00	3.692859e+07	
57	-2.85000e+00	3.855112e+07	
58	-2.90000e+00	4.015754e+07	
59	-2.95000e+00	4.174913e+07	
60	-3.00000e+00	4.332703e+07	
61	-3.05000e+00	4.489219e+07	
62	-3.10000e+00	4.644546e+07	
63	-3.15000e+00	4.798755e+07	
64	-3.20000e+00	4.951909e+07	
65	-3.25000e+00	5.104061e+07	
66	-3.30000e+00	5.255257e+07	
Reset re-loads circuit ***************************

Circuit: ***************************

Note: No ".plot", ".print", or ".fourier" lines; no simulations run
