
Note: Compatibility modes selected: hs

Warning: m=xx on .subckt line will override multiplier m hierarchy!


Circuit: ***************************

Doing analysis at TEMP = -40.000000 and TNOM = -40.000000


No. of Data Rows : 67
                          ***************************
                          DC transfer characteristic  Mon Jan  9 13:57:31  2023
--------------------------------------------------------------------------------
Index   v-sweep         rds             
--------------------------------------------------------------------------------
0	0.000000e+00	2.213001e+06	
1	-5.00000e-02	1.274271e+07	
2	-1.00000e-01	9.402726e+07	
3	-1.50000e-01	2.357097e+08	
4	-2.00000e-01	3.383098e+08	
5	-2.50000e-01	4.016014e+08	
6	-3.00000e-01	4.448991e+08	
7	-3.50000e-01	4.781899e+08	
8	-4.00000e-01	5.058975e+08	
9	-4.50000e-01	5.300870e+08	
10	-5.00000e-01	5.518131e+08	
11	-5.50000e-01	5.716670e+08	
12	-6.00000e-01	5.900096e+08	
13	-6.50000e-01	6.070793e+08	
14	-7.00000e-01	6.230446e+08	
15	-7.50000e-01	6.380312e+08	
16	-8.00000e-01	6.521377e+08	
17	-8.50000e-01	6.654442e+08	
18	-9.00000e-01	6.780175e+08	
19	-9.50000e-01	6.899151e+08	
20	-1.00000e+00	7.011866e+08	
21	-1.05000e+00	7.118762e+08	
22	-1.10000e+00	7.220231e+08	
23	-1.15000e+00	7.316626e+08	
24	-1.20000e+00	7.408266e+08	
25	-1.25000e+00	7.495443e+08	
26	-1.30000e+00	7.578423e+08	
27	-1.35000e+00	7.657451e+08	
28	-1.40000e+00	7.732751e+08	
29	-1.45000e+00	7.804530e+08	
30	-1.50000e+00	7.872981e+08	
31	-1.55000e+00	7.938279e+08	
32	-1.60000e+00	8.000590e+08	
33	-1.65000e+00	8.060060e+08	
34	-1.70000e+00	8.116828e+08	
35	-1.75000e+00	8.171015e+08	
36	-1.80000e+00	8.222729e+08	
37	-1.85000e+00	8.272061e+08	
38	-1.90000e+00	8.319086e+08	
39	-1.95000e+00	8.363856e+08	
40	-2.00000e+00	8.406401e+08	
41	-2.05000e+00	8.446725e+08	
42	-2.10000e+00	8.484801e+08	
43	-2.15000e+00	8.520567e+08	
44	-2.20000e+00	8.553922e+08	
45	-2.25000e+00	8.584723e+08	
46	-2.30000e+00	8.612778e+08	
47	-2.35000e+00	8.637844e+08	
48	-2.40000e+00	8.659622e+08	
49	-2.45000e+00	8.677753e+08	
50	-2.50000e+00	8.691821e+08	
51	-2.55000e+00	8.701346e+08	
52	-2.60000e+00	8.705789e+08	
53	-2.65000e+00	8.704552e+08	
54	-2.70000e+00	8.696987e+08	

Index   v-sweep         rds             
--------------------------------------------------------------------------------
55	-2.75000e+00	8.682401e+08	
56	-2.80000e+00	8.660066e+08	
57	-2.85000e+00	8.629234e+08	
58	-2.90000e+00	8.589154e+08	
59	-2.95000e+00	8.539090e+08	
60	-3.00000e+00	8.478343e+08	
61	-3.05000e+00	8.406276e+08	
62	-3.10000e+00	8.322338e+08	
63	-3.15000e+00	8.226090e+08	
64	-3.20000e+00	8.117228e+08	
65	-3.25000e+00	7.995607e+08	
66	-3.30000e+00	7.861256e+08	
Reset re-loads circuit ***************************

Circuit: ***************************

Doing analysis at TEMP = -40.000000 and TNOM = -40.000000


No. of Data Rows : 67
                          ***************************
                          DC transfer characteristic  Mon Jan  9 13:57:31  2023
--------------------------------------------------------------------------------
Index   v-sweep         rds             
--------------------------------------------------------------------------------
0	0.000000e+00	8.951053e+04	
1	-5.00000e-02	1.026062e+05	
2	-1.00000e-01	1.198739e+05	
3	-1.50000e-01	1.436438e+05	
4	-2.00000e-01	1.782938e+05	
5	-2.50000e-01	2.328815e+05	
6	-3.00000e-01	3.281553e+05	
7	-3.50000e-01	5.139525e+05	
8	-4.00000e-01	8.873016e+05	
9	-4.50000e-01	1.505045e+06	
10	-5.00000e-01	2.217074e+06	
11	-5.50000e-01	2.843293e+06	
12	-6.00000e-01	3.352854e+06	
13	-6.50000e-01	3.779897e+06	
14	-7.00000e-01	4.156317e+06	
15	-7.50000e-01	4.501687e+06	
16	-8.00000e-01	4.827074e+06	
17	-8.50000e-01	5.138764e+06	
18	-9.00000e-01	5.440438e+06	
19	-9.50000e-01	5.734342e+06	
20	-1.00000e+00	6.021900e+06	
21	-1.05000e+00	6.304051e+06	
22	-1.10000e+00	6.581437e+06	
23	-1.15000e+00	6.854514e+06	
24	-1.20000e+00	7.123615e+06	
25	-1.25000e+00	7.388990e+06	
26	-1.30000e+00	7.650837e+06	
27	-1.35000e+00	7.909312e+06	
28	-1.40000e+00	8.164542e+06	
29	-1.45000e+00	8.416637e+06	
30	-1.50000e+00	8.665689e+06	
31	-1.55000e+00	8.911778e+06	
32	-1.60000e+00	9.154979e+06	
33	-1.65000e+00	9.395354e+06	
34	-1.70000e+00	9.632965e+06	
35	-1.75000e+00	9.867866e+06	
36	-1.80000e+00	1.010011e+07	
37	-1.85000e+00	1.032973e+07	
38	-1.90000e+00	1.055679e+07	
39	-1.95000e+00	1.078130e+07	
40	-2.00000e+00	1.100331e+07	
41	-2.05000e+00	1.122281e+07	
42	-2.10000e+00	1.143982e+07	
43	-2.15000e+00	1.165429e+07	
44	-2.20000e+00	1.186619e+07	
45	-2.25000e+00	1.207540e+07	
46	-2.30000e+00	1.228177e+07	
47	-2.35000e+00	1.248507e+07	
48	-2.40000e+00	1.268498e+07	
49	-2.45000e+00	1.288107e+07	
50	-2.50000e+00	1.307276e+07	
51	-2.55000e+00	1.325932e+07	
52	-2.60000e+00	1.343982e+07	
53	-2.65000e+00	1.361310e+07	
54	-2.70000e+00	1.377778e+07	

Index   v-sweep         rds             
--------------------------------------------------------------------------------
55	-2.75000e+00	1.393218e+07	
56	-2.80000e+00	1.407435e+07	
57	-2.85000e+00	1.420202e+07	
58	-2.90000e+00	1.431265e+07	
59	-2.95000e+00	1.440340e+07	
60	-3.00000e+00	1.447121e+07	
61	-3.05000e+00	1.451282e+07	
62	-3.10000e+00	1.452490e+07	
63	-3.15000e+00	1.450415e+07	
64	-3.20000e+00	1.444740e+07	
65	-3.25000e+00	1.435184e+07	
66	-3.30000e+00	1.421514e+07	
Reset re-loads circuit ***************************

Circuit: ***************************

Doing analysis at TEMP = -40.000000 and TNOM = -40.000000


No. of Data Rows : 67
                          ***************************
                          DC transfer characteristic  Mon Jan  9 13:57:31  2023
--------------------------------------------------------------------------------
Index   v-sweep         rds             
--------------------------------------------------------------------------------
0	0.000000e+00	4.612174e+04	
1	-5.00000e-02	4.949079e+04	
2	-1.00000e-01	5.333555e+04	
3	-1.50000e-01	5.776399e+04	
4	-2.00000e-01	6.291921e+04	
5	-2.50000e-01	6.899491e+04	
6	-3.00000e-01	7.625952e+04	
7	-3.50000e-01	8.509538e+04	
8	-4.00000e-01	9.606431e+04	
9	-4.50000e-01	1.100219e+05	
10	-5.00000e-01	1.283235e+05	
11	-5.50000e-01	1.532026e+05	
12	-6.00000e-01	1.884551e+05	
13	-6.50000e-01	2.404851e+05	
14	-7.00000e-01	3.188866e+05	
15	-7.50000e-01	4.326952e+05	
16	-8.00000e-01	5.784952e+05	
17	-8.50000e-01	7.353878e+05	
18	-9.00000e-01	8.830347e+05	
19	-9.50000e-01	1.015058e+06	
20	-1.00000e+00	1.133789e+06	
21	-1.05000e+00	1.243183e+06	
22	-1.10000e+00	1.346329e+06	
23	-1.15000e+00	1.445251e+06	
24	-1.20000e+00	1.541214e+06	
25	-1.25000e+00	1.635009e+06	
26	-1.30000e+00	1.727141e+06	
27	-1.35000e+00	1.817936e+06	
28	-1.40000e+00	1.907614e+06	
29	-1.45000e+00	1.996327e+06	
30	-1.50000e+00	2.084181e+06	
31	-1.55000e+00	2.171253e+06	
32	-1.60000e+00	2.257599e+06	
33	-1.65000e+00	2.343264e+06	
34	-1.70000e+00	2.428280e+06	
35	-1.75000e+00	2.512674e+06	
36	-1.80000e+00	2.596466e+06	
37	-1.85000e+00	2.679676e+06	
38	-1.90000e+00	2.762317e+06	
39	-1.95000e+00	2.844401e+06	
40	-2.00000e+00	2.925940e+06	
41	-2.05000e+00	3.006942e+06	
42	-2.10000e+00	3.087417e+06	
43	-2.15000e+00	3.167371e+06	
44	-2.20000e+00	3.246810e+06	
45	-2.25000e+00	3.325739e+06	
46	-2.30000e+00	3.404161e+06	
47	-2.35000e+00	3.482076e+06	
48	-2.40000e+00	3.559480e+06	
49	-2.45000e+00	3.636365e+06	
50	-2.50000e+00	3.712712e+06	
51	-2.55000e+00	3.788493e+06	
52	-2.60000e+00	3.863664e+06	
53	-2.65000e+00	3.938162e+06	
54	-2.70000e+00	4.011893e+06	

Index   v-sweep         rds             
--------------------------------------------------------------------------------
55	-2.75000e+00	4.084735e+06	
56	-2.80000e+00	4.156517e+06	
57	-2.85000e+00	4.227019e+06	
58	-2.90000e+00	4.295956e+06	
59	-2.95000e+00	4.362969e+06	
60	-3.00000e+00	4.427611e+06	
61	-3.05000e+00	4.489339e+06	
62	-3.10000e+00	4.547499e+06	
63	-3.15000e+00	4.601324e+06	
64	-3.20000e+00	4.649924e+06	
65	-3.25000e+00	4.692292e+06	
66	-3.30000e+00	4.727309e+06	
Reset re-loads circuit ***************************

Circuit: ***************************

Doing analysis at TEMP = -40.000000 and TNOM = -40.000000


No. of Data Rows : 67
                          ***************************
                          DC transfer characteristic  Mon Jan  9 13:57:31  2023
--------------------------------------------------------------------------------
Index   v-sweep         rds             
--------------------------------------------------------------------------------
0	0.000000e+00	3.249728e+04	
1	-5.00000e-02	3.412032e+04	
2	-1.00000e-01	3.589100e+04	
3	-1.50000e-01	3.783036e+04	
4	-2.00000e-01	3.996361e+04	
5	-2.50000e-01	4.232125e+04	
6	-3.00000e-01	4.494051e+04	
7	-3.50000e-01	4.786727e+04	
8	-4.00000e-01	5.115880e+04	
9	-4.50000e-01	5.488739e+04	
10	-5.00000e-01	5.914561e+04	
11	-5.50000e-01	6.405387e+04	
12	-6.00000e-01	6.977137e+04	
13	-6.50000e-01	7.651272e+04	
14	-7.00000e-01	8.457311e+04	
15	-7.50000e-01	9.436741e+04	
16	-8.00000e-01	1.064911e+05	
17	-8.50000e-01	1.218139e+05	
18	-9.00000e-01	1.416112e+05	
19	-9.50000e-01	1.677032e+05	
20	-1.00000e+00	2.024260e+05	
21	-1.05000e+00	2.479515e+05	
22	-1.10000e+00	3.044626e+05	
23	-1.15000e+00	3.684349e+05	
24	-1.20000e+00	4.341225e+05	
25	-1.25000e+00	4.972989e+05	
26	-1.30000e+00	5.566310e+05	
27	-1.35000e+00	6.125001e+05	
28	-1.40000e+00	6.657369e+05	
29	-1.45000e+00	7.170792e+05	
30	-1.50000e+00	7.670620e+05	
31	-1.55000e+00	8.160477e+05	
32	-1.60000e+00	8.642774e+05	
33	-1.65000e+00	9.119120e+05	
34	-1.70000e+00	9.590606e+05	
35	-1.75000e+00	1.005798e+06	
36	-1.80000e+00	1.052178e+06	
37	-1.85000e+00	1.098237e+06	
38	-1.90000e+00	1.144004e+06	
39	-1.95000e+00	1.189500e+06	
40	-2.00000e+00	1.234739e+06	
41	-2.05000e+00	1.279735e+06	
42	-2.10000e+00	1.324496e+06	
43	-2.15000e+00	1.369031e+06	
44	-2.20000e+00	1.413345e+06	
45	-2.25000e+00	1.457444e+06	
46	-2.30000e+00	1.501332e+06	
47	-2.35000e+00	1.545013e+06	
48	-2.40000e+00	1.588490e+06	
49	-2.45000e+00	1.631765e+06	
50	-2.50000e+00	1.674842e+06	
51	-2.55000e+00	1.717720e+06	
52	-2.60000e+00	1.760402e+06	
53	-2.65000e+00	1.802887e+06	
54	-2.70000e+00	1.845174e+06	

Index   v-sweep         rds             
--------------------------------------------------------------------------------
55	-2.75000e+00	1.887258e+06	
56	-2.80000e+00	1.929132e+06	
57	-2.85000e+00	1.970783e+06	
58	-2.90000e+00	2.012192e+06	
59	-2.95000e+00	2.053330e+06	
60	-3.00000e+00	2.094157e+06	
61	-3.05000e+00	2.134614e+06	
62	-3.10000e+00	2.174623e+06	
63	-3.15000e+00	2.214080e+06	
64	-3.20000e+00	2.252847e+06	
65	-3.25000e+00	2.290750e+06	
66	-3.30000e+00	2.327568e+06	
Reset re-loads circuit ***************************

Circuit: ***************************

Doing analysis at TEMP = -40.000000 and TNOM = -40.000000


No. of Data Rows : 67
                          ***************************
                          DC transfer characteristic  Mon Jan  9 13:57:31  2023
--------------------------------------------------------------------------------
Index   v-sweep         rds             
--------------------------------------------------------------------------------
0	0.000000e+00	2.595182e+04	
1	-5.00000e-02	2.694958e+04	
2	-1.00000e-01	2.801437e+04	
3	-1.50000e-01	2.915317e+04	
4	-2.00000e-01	3.037392e+04	
5	-2.50000e-01	3.168576e+04	
6	-3.00000e-01	3.309925e+04	
7	-3.50000e-01	3.462664e+04	
8	-4.00000e-01	3.628219e+04	
9	-4.50000e-01	3.808270e+04	
10	-5.00000e-01	4.004798e+04	
11	-5.50000e-01	4.220163e+04	
12	-6.00000e-01	4.457196e+04	
13	-6.50000e-01	4.719322e+04	
14	-7.00000e-01	5.010721e+04	
15	-7.50000e-01	5.336548e+04	
16	-8.00000e-01	5.703227e+04	
17	-8.50000e-01	6.118858e+04	
18	-9.00000e-01	6.593784e+04	
19	-9.50000e-01	7.141387e+04	
20	-1.00000e+00	7.779219e+04	
21	-1.05000e+00	8.530602e+04	
22	-1.10000e+00	9.426857e+04	
23	-1.15000e+00	1.051026e+05	
24	-1.20000e+00	1.183733e+05	
25	-1.25000e+00	1.348086e+05	
26	-1.30000e+00	1.552527e+05	
27	-1.35000e+00	1.804494e+05	
28	-1.40000e+00	2.105690e+05	
29	-1.45000e+00	2.447049e+05	
30	-1.50000e+00	2.809965e+05	
31	-1.55000e+00	3.175537e+05	
32	-1.60000e+00	3.532543e+05	
33	-1.65000e+00	3.877689e+05	
34	-1.70000e+00	4.211908e+05	
35	-1.75000e+00	4.537368e+05	
36	-1.80000e+00	4.856138e+05	
37	-1.85000e+00	5.169823e+05	
38	-1.90000e+00	5.479580e+05	
39	-1.95000e+00	5.786221e+05	
40	-2.00000e+00	6.090312e+05	
41	-2.05000e+00	6.392253e+05	
42	-2.10000e+00	6.692325e+05	
43	-2.15000e+00	6.990733e+05	
44	-2.20000e+00	7.287627e+05	
45	-2.25000e+00	7.583119e+05	
46	-2.30000e+00	7.877293e+05	
47	-2.35000e+00	8.170213e+05	
48	-2.40000e+00	8.461931e+05	
49	-2.45000e+00	8.752486e+05	
50	-2.50000e+00	9.041911e+05	
51	-2.55000e+00	9.330232e+05	
52	-2.60000e+00	9.617472e+05	
53	-2.65000e+00	9.903647e+05	
54	-2.70000e+00	1.018877e+06	

Index   v-sweep         rds             
--------------------------------------------------------------------------------
55	-2.75000e+00	1.047286e+06	
56	-2.80000e+00	1.075593e+06	
57	-2.85000e+00	1.103798e+06	
58	-2.90000e+00	1.131901e+06	
59	-2.95000e+00	1.159903e+06	
60	-3.00000e+00	1.187802e+06	
61	-3.05000e+00	1.215596e+06	
62	-3.10000e+00	1.243282e+06	
63	-3.15000e+00	1.270850e+06	
64	-3.20000e+00	1.298292e+06	
65	-3.25000e+00	1.325590e+06	
66	-3.30000e+00	1.352721e+06	
Reset re-loads circuit ***************************

Circuit: ***************************

Doing analysis at TEMP = -40.000000 and TNOM = -40.000000


No. of Data Rows : 67
                          ***************************
                          DC transfer characteristic  Mon Jan  9 13:57:31  2023
--------------------------------------------------------------------------------
Index   v-sweep         rds             
--------------------------------------------------------------------------------
0	0.000000e+00	2.217538e+04	
1	-5.00000e-02	2.287320e+04	
2	-1.00000e-01	2.360820e+04	
3	-1.50000e-01	2.438341e+04	
4	-2.00000e-01	2.520219e+04	
5	-2.50000e-01	2.606833e+04	
6	-3.00000e-01	2.698602e+04	
7	-3.50000e-01	2.795998e+04	
8	-4.00000e-01	2.899554e+04	
9	-4.50000e-01	3.009870e+04	
10	-5.00000e-01	3.127628e+04	
11	-5.50000e-01	3.253604e+04	
12	-6.00000e-01	3.388684e+04	
13	-6.50000e-01	3.533890e+04	
14	-7.00000e-01	3.690399e+04	
15	-7.50000e-01	3.859577e+04	
16	-8.00000e-01	4.043021e+04	
17	-8.50000e-01	4.242605e+04	
18	-9.00000e-01	4.460544e+04	
19	-9.50000e-01	4.699474e+04	
20	-1.00000e+00	4.962558e+04	
21	-1.05000e+00	5.253617e+04	
22	-1.10000e+00	5.577310e+04	
23	-1.15000e+00	5.939368e+04	
24	-1.20000e+00	6.346905e+04	
25	-1.25000e+00	6.808838e+04	
26	-1.30000e+00	7.336440e+04	
27	-1.35000e+00	7.944074e+04	
28	-1.40000e+00	8.650114e+04	
29	-1.45000e+00	9.477998e+04	
30	-1.50000e+00	1.045713e+05	
31	-1.55000e+00	1.162282e+05	
32	-1.60000e+00	1.301333e+05	
33	-1.65000e+00	1.466102e+05	
34	-1.70000e+00	1.657571e+05	
35	-1.75000e+00	1.872682e+05	
36	-1.80000e+00	2.104232e+05	
37	-1.85000e+00	2.343527e+05	
38	-1.90000e+00	2.583746e+05	
39	-1.95000e+00	2.821275e+05	
40	-2.00000e+00	3.054991e+05	
41	-2.05000e+00	3.285029e+05	
42	-2.10000e+00	3.511941e+05	
43	-2.15000e+00	3.736312e+05	
44	-2.20000e+00	3.958628e+05	
45	-2.25000e+00	4.179262e+05	
46	-2.30000e+00	4.398488e+05	
47	-2.35000e+00	4.616508e+05	
48	-2.40000e+00	4.833466e+05	
49	-2.45000e+00	5.049470e+05	
50	-2.50000e+00	5.264598e+05	
51	-2.55000e+00	5.478910e+05	
52	-2.60000e+00	5.692452e+05	
53	-2.65000e+00	5.905257e+05	
54	-2.70000e+00	6.117352e+05	

Index   v-sweep         rds             
--------------------------------------------------------------------------------
55	-2.75000e+00	6.328760e+05	
56	-2.80000e+00	6.539497e+05	
57	-2.85000e+00	6.749576e+05	
58	-2.90000e+00	6.959011e+05	
59	-2.95000e+00	7.167809e+05	
60	-3.00000e+00	7.375979e+05	
61	-3.05000e+00	7.583528e+05	
62	-3.10000e+00	7.790461e+05	
63	-3.15000e+00	7.996781e+05	
64	-3.20000e+00	8.202489e+05	
65	-3.25000e+00	8.407584e+05	
66	-3.30000e+00	8.612058e+05	
Reset re-loads circuit ***************************

Circuit: ***************************

Note: No ".plot", ".print", or ".fourier" lines; no simulations run
