
Note: Compatibility modes selected: hs

Warning: m=xx on .subckt line will override multiplier m hierarchy!


Circuit: ***************************

Doing analysis at TEMP = 125.000000 and TNOM = 125.000000


No. of Data Rows : 67
                          ***************************
                          DC transfer characteristic  Mon Jan  9 13:57:32  2023
--------------------------------------------------------------------------------
Index   v-sweep         rds             
--------------------------------------------------------------------------------
0	0.000000e+00	5.335826e+06	
1	-5.00000e-02	8.377122e+06	
2	-1.00000e-01	1.747457e+07	
3	-1.50000e-01	5.896516e+07	
4	-2.00000e-01	2.365972e+08	
5	-2.50000e-01	7.133539e+08	
6	-3.00000e-01	1.567174e+09	
7	-3.50000e-01	2.724090e+09	
8	-4.00000e-01	4.025254e+09	
9	-4.50000e-01	5.327034e+09	
10	-5.00000e-01	6.545712e+09	
11	-5.50000e-01	7.650250e+09	
12	-6.00000e-01	8.639938e+09	
13	-6.50000e-01	9.526948e+09	
14	-7.00000e-01	1.032680e+10	
15	-7.50000e-01	1.105422e+10	
16	-8.00000e-01	1.172175e+10	
17	-8.50000e-01	1.233958e+10	
18	-9.00000e-01	1.291583e+10	
19	-9.50000e-01	1.345694e+10	
20	-1.00000e+00	1.396798e+10	
21	-1.05000e+00	1.445301e+10	
22	-1.10000e+00	1.491528e+10	
23	-1.15000e+00	1.535742e+10	
24	-1.20000e+00	1.578157e+10	
25	-1.25000e+00	1.618952e+10	
26	-1.30000e+00	1.658274e+10	
27	-1.35000e+00	1.696250e+10	
28	-1.40000e+00	1.732985e+10	
29	-1.45000e+00	1.768570e+10	
30	-1.50000e+00	1.803085e+10	
31	-1.55000e+00	1.836600e+10	
32	-1.60000e+00	1.869173e+10	
33	-1.65000e+00	1.900859e+10	
34	-1.70000e+00	1.931704e+10	
35	-1.75000e+00	1.961748e+10	
36	-1.80000e+00	1.991027e+10	
37	-1.85000e+00	2.019568e+10	
38	-1.90000e+00	2.047394e+10	
39	-1.95000e+00	2.074517e+10	
40	-2.00000e+00	2.100943e+10	
41	-2.05000e+00	2.126666e+10	
42	-2.10000e+00	2.151668e+10	
43	-2.15000e+00	2.175913e+10	
44	-2.20000e+00	2.199350e+10	
45	-2.25000e+00	2.221906e+10	
46	-2.30000e+00	2.243484e+10	
47	-2.35000e+00	2.263959e+10	
48	-2.40000e+00	2.283176e+10	
49	-2.45000e+00	2.300949e+10	
50	-2.50000e+00	2.317053e+10	
51	-2.55000e+00	2.331228e+10	
52	-2.60000e+00	2.343179e+10	
53	-2.65000e+00	2.352575e+10	
54	-2.70000e+00	2.359051e+10	

Index   v-sweep         rds             
--------------------------------------------------------------------------------
55	-2.75000e+00	2.362220e+10	
56	-2.80000e+00	2.361675e+10	
57	-2.85000e+00	2.357004e+10	
58	-2.90000e+00	2.347802e+10	
59	-2.95000e+00	2.333690e+10	
60	-3.00000e+00	2.314329e+10	
61	-3.05000e+00	2.289444e+10	
62	-3.10000e+00	2.258841e+10	
63	-3.15000e+00	2.222424e+10	
64	-3.20000e+00	2.180211e+10	
65	-3.25000e+00	2.132342e+10	
66	-3.30000e+00	2.079082e+10	
Reset re-loads circuit ***************************

Circuit: ***************************

Doing analysis at TEMP = 125.000000 and TNOM = 125.000000


No. of Data Rows : 67
                          ***************************
                          DC transfer characteristic  Mon Jan  9 13:57:32  2023
--------------------------------------------------------------------------------
Index   v-sweep         rds             
--------------------------------------------------------------------------------
0	0.000000e+00	1.260822e+06	
1	-5.00000e-02	1.415258e+06	
2	-1.00000e-01	1.612430e+06	
3	-1.50000e-01	1.872703e+06	
4	-2.00000e-01	2.231483e+06	
5	-2.50000e-01	2.755515e+06	
6	-3.00000e-01	3.583982e+06	
7	-3.50000e-01	5.044020e+06	
8	-4.00000e-01	7.999273e+06	
9	-4.50000e-01	1.481904e+07	
10	-5.00000e-01	3.104556e+07	
11	-5.50000e-01	6.528177e+07	
12	-6.00000e-01	1.243407e+08	
13	-6.50000e-01	2.078828e+08	
14	-7.00000e-01	3.086393e+08	
15	-7.50000e-01	4.170747e+08	
16	-8.00000e-01	5.255079e+08	
17	-8.50000e-01	6.294383e+08	
18	-9.00000e-01	7.269827e+08	
19	-9.50000e-01	8.178432e+08	
20	-1.00000e+00	9.024896e+08	
21	-1.05000e+00	9.816716e+08	
22	-1.10000e+00	1.056174e+09	
23	-1.15000e+00	1.126710e+09	
24	-1.20000e+00	1.193892e+09	
25	-1.25000e+00	1.258227e+09	
26	-1.30000e+00	1.320128e+09	
27	-1.35000e+00	1.379934e+09	
28	-1.40000e+00	1.437916e+09	
29	-1.45000e+00	1.494298e+09	
30	-1.50000e+00	1.549261e+09	
31	-1.55000e+00	1.602955e+09	
32	-1.60000e+00	1.655504e+09	
33	-1.65000e+00	1.707010e+09	
34	-1.70000e+00	1.757559e+09	
35	-1.75000e+00	1.807226e+09	
36	-1.80000e+00	1.856072e+09	
37	-1.85000e+00	1.904149e+09	
38	-1.90000e+00	1.951504e+09	
39	-1.95000e+00	1.998175e+09	
40	-2.00000e+00	2.044194e+09	
41	-2.05000e+00	2.089589e+09	
42	-2.10000e+00	2.134380e+09	
43	-2.15000e+00	2.178582e+09	
44	-2.20000e+00	2.222201e+09	
45	-2.25000e+00	2.265233e+09	
46	-2.30000e+00	2.307663e+09	
47	-2.35000e+00	2.349459e+09	
48	-2.40000e+00	2.390570e+09	
49	-2.45000e+00	2.430922e+09	
50	-2.50000e+00	2.470408e+09	
51	-2.55000e+00	2.508889e+09	
52	-2.60000e+00	2.546182e+09	
53	-2.65000e+00	2.582052e+09	
54	-2.70000e+00	2.616212e+09	

Index   v-sweep         rds             
--------------------------------------------------------------------------------
55	-2.75000e+00	2.648310e+09	
56	-2.80000e+00	2.677925e+09	
57	-2.85000e+00	2.704568e+09	
58	-2.90000e+00	2.727675e+09	
59	-2.95000e+00	2.746618e+09	
60	-3.00000e+00	2.760706e+09	
61	-3.05000e+00	2.769207e+09	
62	-3.10000e+00	2.771364e+09	
63	-3.15000e+00	2.766427e+09	
64	-3.20000e+00	2.753686e+09	
65	-3.25000e+00	2.732514e+09	
66	-3.30000e+00	2.702410e+09	
Reset re-loads circuit ***************************

Circuit: ***************************

Doing analysis at TEMP = 125.000000 and TNOM = 125.000000


No. of Data Rows : 67
                          ***************************
                          DC transfer characteristic  Mon Jan  9 13:57:32  2023
--------------------------------------------------------------------------------
Index   v-sweep         rds             
--------------------------------------------------------------------------------
0	0.000000e+00	7.223544e+05	
1	-5.00000e-02	7.702335e+05	
2	-1.00000e-01	8.248588e+05	
3	-1.50000e-01	8.877604e+05	
4	-2.00000e-01	9.609670e+05	
5	-2.50000e-01	1.047225e+06	
6	-3.00000e-01	1.150345e+06	
7	-3.50000e-01	1.275762e+06	
8	-4.00000e-01	1.431492e+06	
9	-4.50000e-01	1.629822e+06	
10	-5.00000e-01	1.890482e+06	
11	-5.50000e-01	2.246916e+06	
12	-6.00000e-01	2.759518e+06	
13	-6.50000e-01	3.545134e+06	
14	-7.00000e-01	4.844948e+06	
15	-7.50000e-01	7.173981e+06	
16	-8.00000e-01	1.158395e+07	
17	-8.50000e-01	1.987114e+07	
18	-9.00000e-01	3.419074e+07	
19	-9.50000e-01	5.586804e+07	
20	-1.00000e+00	8.440287e+07	
21	-1.05000e+00	1.177116e+08	
22	-1.10000e+00	1.532432e+08	
23	-1.15000e+00	1.889263e+08	
24	-1.20000e+00	2.234896e+08	
25	-1.25000e+00	2.563464e+08	
26	-1.30000e+00	2.873494e+08	
27	-1.35000e+00	3.165832e+08	
28	-1.40000e+00	3.442300e+08	
29	-1.45000e+00	3.704974e+08	
30	-1.50000e+00	3.955832e+08	
31	-1.55000e+00	4.196624e+08	
32	-1.60000e+00	4.428835e+08	
33	-1.65000e+00	4.653703e+08	
34	-1.70000e+00	4.872248e+08	
35	-1.75000e+00	5.085307e+08	
36	-1.80000e+00	5.293568e+08	
37	-1.85000e+00	5.497596e+08	
38	-1.90000e+00	5.697860e+08	
39	-1.95000e+00	5.894746e+08	
40	-2.00000e+00	6.088579e+08	
41	-2.05000e+00	6.279631e+08	
42	-2.10000e+00	6.468129e+08	
43	-2.15000e+00	6.654268e+08	
44	-2.20000e+00	6.838212e+08	
45	-2.25000e+00	7.020101e+08	
46	-2.30000e+00	7.200053e+08	
47	-2.35000e+00	7.378165e+08	
48	-2.40000e+00	7.554515e+08	
49	-2.45000e+00	7.729158e+08	
50	-2.50000e+00	7.902125e+08	
51	-2.55000e+00	8.073414e+08	
52	-2.60000e+00	8.242987e+08	
53	-2.65000e+00	8.410753e+08	
54	-2.70000e+00	8.576558e+08	

Index   v-sweep         rds             
--------------------------------------------------------------------------------
55	-2.75000e+00	8.740170e+08	
56	-2.80000e+00	8.901250e+08	
57	-2.85000e+00	9.059339e+08	
58	-2.90000e+00	9.213821e+08	
59	-2.95000e+00	9.363901e+08	
60	-3.00000e+00	9.508574e+08	
61	-3.05000e+00	9.646589e+08	
62	-3.10000e+00	9.776431e+08	
63	-3.15000e+00	9.896289e+08	
64	-3.20000e+00	1.000405e+09	
65	-3.25000e+00	1.009730e+09	
66	-3.30000e+00	1.017335e+09	
Reset re-loads circuit ***************************

Circuit: ***************************

Doing analysis at TEMP = 125.000000 and TNOM = 125.000000


No. of Data Rows : 67
                          ***************************
                          DC transfer characteristic  Mon Jan  9 13:57:32  2023
--------------------------------------------------------------------------------
Index   v-sweep         rds             
--------------------------------------------------------------------------------
0	0.000000e+00	5.132204e+05	
1	-5.00000e-02	5.361614e+05	
2	-1.00000e-01	5.612292e+05	
3	-1.50000e-01	5.887335e+05	
4	-2.00000e-01	6.190475e+05	
5	-2.50000e-01	6.526241e+05	
6	-3.00000e-01	6.900190e+05	
7	-3.50000e-01	7.319214e+05	
8	-4.00000e-01	7.791961e+05	
9	-4.50000e-01	8.329433e+05	
10	-5.00000e-01	8.945841e+05	
11	-5.50000e-01	9.659846e+05	
12	-6.00000e-01	1.049644e+06	
13	-6.50000e-01	1.148982e+06	
14	-7.00000e-01	1.268798e+06	
15	-7.50000e-01	1.416024e+06	
16	-8.00000e-01	1.601005e+06	
17	-8.50000e-01	1.839776e+06	
18	-9.00000e-01	2.158269e+06	
19	-9.50000e-01	2.600385e+06	
20	-1.00000e+00	3.243911e+06	
21	-1.05000e+00	4.231696e+06	
22	-1.10000e+00	5.828068e+06	
23	-1.15000e+00	8.498160e+06	
24	-1.20000e+00	1.295026e+07	
25	-1.25000e+00	1.999910e+07	
26	-1.30000e+00	3.018754e+07	
27	-1.35000e+00	4.341908e+07	
28	-1.40000e+00	5.895638e+07	
29	-1.45000e+00	7.577499e+07	
30	-1.50000e+00	9.294872e+07	
31	-1.55000e+00	1.098400e+08	
32	-1.60000e+00	1.261031e+08	
33	-1.65000e+00	1.416043e+08	
34	-1.70000e+00	1.563358e+08	
35	-1.75000e+00	1.703521e+08	
36	-1.80000e+00	1.837326e+08	
37	-1.85000e+00	1.965601e+08	
38	-1.90000e+00	2.089120e+08	
39	-1.95000e+00	2.208562e+08	
40	-2.00000e+00	2.324506e+08	
41	-2.05000e+00	2.437438e+08	
42	-2.10000e+00	2.547761e+08	
43	-2.15000e+00	2.655811e+08	
44	-2.20000e+00	2.761863e+08	
45	-2.25000e+00	2.866149e+08	
46	-2.30000e+00	2.968860e+08	
47	-2.35000e+00	3.070156e+08	
48	-2.40000e+00	3.170172e+08	
49	-2.45000e+00	3.269022e+08	
50	-2.50000e+00	3.366801e+08	
51	-2.55000e+00	3.463591e+08	
52	-2.60000e+00	3.559462e+08	
53	-2.65000e+00	3.654470e+08	
54	-2.70000e+00	3.748666e+08	

Index   v-sweep         rds             
--------------------------------------------------------------------------------
55	-2.75000e+00	3.842086e+08	
56	-2.80000e+00	3.934758e+08	
57	-2.85000e+00	4.026698e+08	
58	-2.90000e+00	4.117905e+08	
59	-2.95000e+00	4.208360e+08	
60	-3.00000e+00	4.298019e+08	
61	-3.05000e+00	4.386805e+08	
62	-3.10000e+00	4.474601e+08	
63	-3.15000e+00	4.561238e+08	
64	-3.20000e+00	4.646483e+08	
65	-3.25000e+00	4.730023e+08	
66	-3.30000e+00	4.811449e+08	
Reset re-loads circuit ***************************

Circuit: ***************************

Doing analysis at TEMP = 125.000000 and TNOM = 125.000000


No. of Data Rows : 67
                          ***************************
                          DC transfer characteristic  Mon Jan  9 13:57:32  2023
--------------------------------------------------------------------------------
Index   v-sweep         rds             
--------------------------------------------------------------------------------
0	0.000000e+00	4.015854e+05	
1	-5.00000e-02	4.149524e+05	
2	-1.00000e-01	4.292290e+05	
3	-1.50000e-01	4.445113e+05	
4	-2.00000e-01	4.609096e+05	
5	-2.50000e-01	4.785504e+05	
6	-3.00000e-01	4.975806e+05	
7	-3.50000e-01	5.181708e+05	
8	-4.00000e-01	5.405209e+05	
9	-4.50000e-01	5.648661e+05	
10	-5.00000e-01	5.914859e+05	
11	-5.50000e-01	6.207139e+05	
12	-6.00000e-01	6.529523e+05	
13	-6.50000e-01	6.886904e+05	
14	-7.00000e-01	7.285289e+05	
15	-7.50000e-01	7.732135e+05	
16	-8.00000e-01	8.236813e+05	
17	-8.50000e-01	8.811258e+05	
18	-9.00000e-01	9.470896e+05	
19	-9.50000e-01	1.023600e+06	
20	-1.00000e+00	1.113372e+06	
21	-1.05000e+00	1.220119e+06	
22	-1.10000e+00	1.349042e+06	
23	-1.15000e+00	1.507621e+06	
24	-1.20000e+00	1.706938e+06	
25	-1.25000e+00	1.963947e+06	
26	-1.30000e+00	2.305482e+06	
27	-1.35000e+00	2.775400e+06	
28	-1.40000e+00	3.447180e+06	
29	-1.45000e+00	4.444703e+06	
30	-1.50000e+00	5.970583e+06	
31	-1.55000e+00	8.327212e+06	
32	-1.60000e+00	1.188975e+07	
33	-1.65000e+00	1.698871e+07	
34	-1.70000e+00	2.373768e+07	
35	-1.75000e+00	3.193871e+07	
36	-1.80000e+00	4.115508e+07	
37	-1.85000e+00	5.088574e+07	
38	-1.90000e+00	6.071192e+07	
39	-1.95000e+00	7.035530e+07	
40	-2.00000e+00	7.966747e+07	
41	-2.05000e+00	8.859225e+07	
42	-2.10000e+00	9.712848e+07	
43	-2.15000e+00	1.053030e+08	
44	-2.20000e+00	1.131539e+08	
45	-2.25000e+00	1.207213e+08	
46	-2.30000e+00	1.280433e+08	
47	-2.35000e+00	1.351534e+08	
48	-2.40000e+00	1.420807e+08	
49	-2.45000e+00	1.488497e+08	
50	-2.50000e+00	1.554813e+08	
51	-2.55000e+00	1.619925e+08	
52	-2.60000e+00	1.683979e+08	
53	-2.65000e+00	1.747095e+08	
54	-2.70000e+00	1.809376e+08	

Index   v-sweep         rds             
--------------------------------------------------------------------------------
55	-2.75000e+00	1.870905e+08	
56	-2.80000e+00	1.931754e+08	
57	-2.85000e+00	1.991985e+08	
58	-2.90000e+00	2.051649e+08	
59	-2.95000e+00	2.110789e+08	
60	-3.00000e+00	2.169444e+08	
61	-3.05000e+00	2.227644e+08	
62	-3.10000e+00	2.285414e+08	
63	-3.15000e+00	2.342774e+08	
64	-3.20000e+00	2.399737e+08	
65	-3.25000e+00	2.456307e+08	
66	-3.30000e+00	2.512479e+08	
Reset re-loads circuit ***************************

Circuit: ***************************

Doing analysis at TEMP = 125.000000 and TNOM = 125.000000


No. of Data Rows : 67
                          ***************************
                          DC transfer characteristic  Mon Jan  9 13:57:32  2023
--------------------------------------------------------------------------------
Index   v-sweep         rds             
--------------------------------------------------------------------------------
0	0.000000e+00	3.317882e+05	
1	-5.00000e-02	3.404887e+05	
2	-1.00000e-01	3.496511e+05	
3	-1.50000e-01	3.593130e+05	
4	-2.00000e-01	3.695167e+05	
5	-2.50000e-01	3.803087e+05	
6	-3.00000e-01	3.917417e+05	
7	-3.50000e-01	4.038743e+05	
8	-4.00000e-01	4.167727e+05	
9	-4.50000e-01	4.305119e+05	
10	-5.00000e-01	4.451767e+05	
11	-5.50000e-01	4.608638e+05	
12	-6.00000e-01	4.776840e+05	
13	-6.50000e-01	4.957643e+05	
14	-7.00000e-01	5.152519e+05	
15	-7.50000e-01	5.363173e+05	
16	-8.00000e-01	5.591601e+05	
17	-8.50000e-01	5.840145e+05	
18	-9.00000e-01	6.111580e+05	
19	-9.50000e-01	6.409213e+05	
20	-1.00000e+00	6.737015e+05	
21	-1.05000e+00	7.099801e+05	
22	-1.10000e+00	7.503462e+05	
23	-1.15000e+00	7.955277e+05	
24	-1.20000e+00	8.464349e+05	
25	-1.25000e+00	9.042202e+05	
26	-1.30000e+00	9.703628e+05	
27	-1.35000e+00	1.046791e+06	
28	-1.40000e+00	1.136063e+06	
29	-1.45000e+00	1.241635e+06	
30	-1.50000e+00	1.368276e+06	
31	-1.55000e+00	1.522722e+06	
32	-1.60000e+00	1.714718e+06	
33	-1.65000e+00	1.958736e+06	
34	-1.70000e+00	2.276807e+06	
35	-1.75000e+00	2.703197e+06	
36	-1.80000e+00	3.291831e+06	
37	-1.85000e+00	4.126962e+06	
38	-1.90000e+00	5.334982e+06	
39	-1.95000e+00	7.088434e+06	
40	-2.00000e+00	9.584565e+06	
41	-2.05000e+00	1.298507e+07	
42	-2.10000e+00	1.733703e+07	
43	-2.15000e+00	2.253114e+07	
44	-2.20000e+00	2.833487e+07	
45	-2.25000e+00	3.447524e+07	
46	-2.30000e+00	4.071410e+07	
47	-2.35000e+00	4.688364e+07	
48	-2.40000e+00	5.288650e+07	
49	-2.45000e+00	5.867892e+07	
50	-2.50000e+00	6.425141e+07	
51	-2.55000e+00	6.961350e+07	
52	-2.60000e+00	7.478366e+07	
53	-2.65000e+00	7.978329e+07	
54	-2.70000e+00	8.463355e+07	

Index   v-sweep         rds             
--------------------------------------------------------------------------------
55	-2.75000e+00	8.935387e+07	
56	-2.80000e+00	9.396137e+07	
57	-2.85000e+00	9.847083e+07	
58	-2.90000e+00	1.028948e+08	
59	-2.95000e+00	1.072439e+08	
60	-3.00000e+00	1.115271e+08	
61	-3.05000e+00	1.157520e+08	
62	-3.10000e+00	1.199248e+08	
63	-3.15000e+00	1.240509e+08	
64	-3.20000e+00	1.281349e+08	
65	-3.25000e+00	1.321807e+08	
66	-3.30000e+00	1.361915e+08	
Reset re-loads circuit ***************************

Circuit: ***************************

Note: No ".plot", ".print", or ".fourier" lines; no simulations run
