
Note: Compatibility modes selected: hs

Warning: m=xx on .subckt line will override multiplier m hierarchy!


Circuit: ***************************

Doing analysis at TEMP = 25.000000 and TNOM = 25.000000


No. of Data Rows : 67
                          ***************************
                          DC transfer characteristic  Mon Jan  9 13:57:30  2023
--------------------------------------------------------------------------------
Index   v-sweep         rds             
--------------------------------------------------------------------------------
0	0.000000e+00	8.122586e+04	
1	-5.00000e-02	1.345508e+05	
2	-1.00000e-01	3.069462e+05	
3	-1.50000e-01	9.366799e+05	
4	-2.00000e-01	1.926435e+06	
5	-2.50000e-01	2.538683e+06	
6	-3.00000e-01	2.834370e+06	
7	-3.50000e-01	2.995867e+06	
8	-4.00000e-01	3.099164e+06	
9	-4.50000e-01	3.172947e+06	
10	-5.00000e-01	3.229236e+06	
11	-5.50000e-01	3.273788e+06	
12	-6.00000e-01	3.309732e+06	
13	-6.50000e-01	3.338965e+06	
14	-7.00000e-01	3.362749e+06	
15	-7.50000e-01	3.381986e+06	
16	-8.00000e-01	3.397353e+06	
17	-8.50000e-01	3.409385e+06	
18	-9.00000e-01	3.418512e+06	
19	-9.50000e-01	3.425092e+06	
20	-1.00000e+00	3.429426e+06	
21	-1.05000e+00	3.431770e+06	
22	-1.10000e+00	3.432345e+06	
23	-1.15000e+00	3.431342e+06	
24	-1.20000e+00	3.428930e+06	
25	-1.25000e+00	3.425256e+06	
26	-1.30000e+00	3.420450e+06	
27	-1.35000e+00	3.414628e+06	
28	-1.40000e+00	3.407893e+06	
29	-1.45000e+00	3.400336e+06	
30	-1.50000e+00	3.392040e+06	
31	-1.55000e+00	3.383078e+06	
32	-1.60000e+00	3.373516e+06	
33	-1.65000e+00	3.363414e+06	
34	-1.70000e+00	3.352826e+06	
35	-1.75000e+00	3.341798e+06	
36	-1.80000e+00	3.330373e+06	
37	-1.85000e+00	3.318589e+06	
38	-1.90000e+00	3.306478e+06	
39	-1.95000e+00	3.294067e+06	
40	-2.00000e+00	3.281378e+06	
41	-2.05000e+00	3.268427e+06	
42	-2.10000e+00	3.255225e+06	
43	-2.15000e+00	3.241776e+06	
44	-2.20000e+00	3.228077e+06	
45	-2.25000e+00	3.214117e+06	
46	-2.30000e+00	3.199878e+06	
47	-2.35000e+00	3.185331e+06	
48	-2.40000e+00	3.170440e+06	
49	-2.45000e+00	3.155156e+06	
50	-2.50000e+00	3.139422e+06	
51	-2.55000e+00	3.123167e+06	
52	-2.60000e+00	3.106312e+06	
53	-2.65000e+00	3.088763e+06	
54	-2.70000e+00	3.070417e+06	

Index   v-sweep         rds             
--------------------------------------------------------------------------------
55	-2.75000e+00	3.051159e+06	
56	-2.80000e+00	3.030864e+06	
57	-2.85000e+00	3.009399e+06	
58	-2.90000e+00	2.986621e+06	
59	-2.95000e+00	2.962383e+06	
60	-3.00000e+00	2.936533e+06	
61	-3.05000e+00	2.908919e+06	
62	-3.10000e+00	2.879390e+06	
63	-3.15000e+00	2.847802e+06	
64	-3.20000e+00	2.814018e+06	
65	-3.25000e+00	2.777917e+06	
66	-3.30000e+00	2.739394e+06	
Reset re-loads circuit ***************************

Circuit: ***************************

Doing analysis at TEMP = 25.000000 and TNOM = 25.000000


No. of Data Rows : 67
                          ***************************
                          DC transfer characteristic  Mon Jan  9 13:57:30  2023
--------------------------------------------------------------------------------
Index   v-sweep         rds             
--------------------------------------------------------------------------------
0	0.000000e+00	1.360194e+04	
1	-5.00000e-02	1.505848e+04	
2	-1.00000e-01	1.682488e+04	
3	-1.50000e-01	1.901076e+04	
4	-2.00000e-01	2.178335e+04	
5	-2.50000e-01	2.540954e+04	
6	-3.00000e-01	3.033797e+04	
7	-3.50000e-01	3.736590e+04	
8	-4.00000e-01	4.797464e+04	
9	-4.50000e-01	6.486978e+04	
10	-5.00000e-01	9.191296e+04	
11	-5.50000e-01	1.301072e+05	
12	-6.00000e-01	1.714505e+05	
13	-6.50000e-01	2.062338e+05	
14	-7.00000e-01	2.327126e+05	
15	-7.50000e-01	2.533372e+05	
16	-8.00000e-01	2.703862e+05	
17	-8.50000e-01	2.852195e+05	
18	-9.00000e-01	2.985788e+05	
19	-9.50000e-01	3.108739e+05	
20	-1.00000e+00	3.223430e+05	
21	-1.05000e+00	3.331329e+05	
22	-1.10000e+00	3.433407e+05	
23	-1.15000e+00	3.530344e+05	
24	-1.20000e+00	3.622647e+05	
25	-1.25000e+00	3.710711e+05	
26	-1.30000e+00	3.794857e+05	
27	-1.35000e+00	3.875357e+05	
28	-1.40000e+00	3.952443e+05	
29	-1.45000e+00	4.026322e+05	
30	-1.50000e+00	4.097176e+05	
31	-1.55000e+00	4.165172e+05	
32	-1.60000e+00	4.230461e+05	
33	-1.65000e+00	4.293183e+05	
34	-1.70000e+00	4.353466e+05	
35	-1.75000e+00	4.411430e+05	
36	-1.80000e+00	4.467185e+05	
37	-1.85000e+00	4.520836e+05	
38	-1.90000e+00	4.572480e+05	
39	-1.95000e+00	4.622207e+05	
40	-2.00000e+00	4.670102e+05	
41	-2.05000e+00	4.716244e+05	
42	-2.10000e+00	4.760706e+05	
43	-2.15000e+00	4.803555e+05	
44	-2.20000e+00	4.844851e+05	
45	-2.25000e+00	4.884645e+05	
46	-2.30000e+00	4.922982e+05	
47	-2.35000e+00	4.959891e+05	
48	-2.40000e+00	4.995392e+05	
49	-2.45000e+00	5.029487e+05	
50	-2.50000e+00	5.062157e+05	
51	-2.55000e+00	5.093362e+05	
52	-2.60000e+00	5.123035e+05	
53	-2.65000e+00	5.151076e+05	
54	-2.70000e+00	5.177348e+05	

Index   v-sweep         rds             
--------------------------------------------------------------------------------
55	-2.75000e+00	5.201674e+05	
56	-2.80000e+00	5.223832e+05	
57	-2.85000e+00	5.243548e+05	
58	-2.90000e+00	5.260498e+05	
59	-2.95000e+00	5.274297e+05	
60	-3.00000e+00	5.284509e+05	
61	-3.05000e+00	5.290636e+05	
62	-3.10000e+00	5.292130e+05	
63	-3.15000e+00	5.288395e+05	
64	-3.20000e+00	5.278795e+05	
65	-3.25000e+00	5.262669e+05	
66	-3.30000e+00	5.239344e+05	
Reset re-loads circuit ***************************

Circuit: ***************************

Doing analysis at TEMP = 25.000000 and TNOM = 25.000000


No. of Data Rows : 67
                          ***************************
                          DC transfer characteristic  Mon Jan  9 13:57:30  2023
--------------------------------------------------------------------------------
Index   v-sweep         rds             
--------------------------------------------------------------------------------
0	0.000000e+00	8.148648e+03	
1	-5.00000e-02	8.647272e+03	
2	-1.00000e-01	9.200727e+03	
3	-1.50000e-01	9.818533e+03	
4	-2.00000e-01	1.051254e+04	
5	-2.50000e-01	1.129769e+04	
6	-3.00000e-01	1.219305e+04	
7	-3.50000e-01	1.322340e+04	
8	-4.00000e-01	1.442140e+04	
9	-4.50000e-01	1.583101e+04	
10	-5.00000e-01	1.751258e+04	
11	-5.50000e-01	1.955088e+04	
12	-6.00000e-01	2.206775e+04	
13	-6.50000e-01	2.524187e+04	
14	-7.00000e-01	2.933796e+04	
15	-7.50000e-01	3.474056e+04	
16	-8.00000e-01	4.195490e+04	
17	-8.50000e-01	5.144643e+04	
18	-9.00000e-01	6.313590e+04	
19	-9.50000e-01	7.587620e+04	
20	-1.00000e+00	8.800598e+04	
21	-1.05000e+00	9.860288e+04	
22	-1.10000e+00	1.076871e+05	
23	-1.15000e+00	1.156353e+05	
24	-1.20000e+00	1.227971e+05	
25	-1.25000e+00	1.294104e+05	
26	-1.30000e+00	1.356233e+05	
27	-1.35000e+00	1.415265e+05	
28	-1.40000e+00	1.471773e+05	
29	-1.45000e+00	1.526129e+05	
30	-1.50000e+00	1.578585e+05	
31	-1.55000e+00	1.629325e+05	
32	-1.60000e+00	1.678484e+05	
33	-1.65000e+00	1.726168e+05	
34	-1.70000e+00	1.772463e+05	
35	-1.75000e+00	1.817444e+05	
36	-1.80000e+00	1.861171e+05	
37	-1.85000e+00	1.903701e+05	
38	-1.90000e+00	1.945084e+05	
39	-1.95000e+00	1.985365e+05	
40	-2.00000e+00	2.024586e+05	
41	-2.05000e+00	2.062785e+05	
42	-2.10000e+00	2.100001e+05	
43	-2.15000e+00	2.136266e+05	
44	-2.20000e+00	2.171613e+05	
45	-2.25000e+00	2.206073e+05	
46	-2.30000e+00	2.239674e+05	
47	-2.35000e+00	2.272445e+05	
48	-2.40000e+00	2.304411e+05	
49	-2.45000e+00	2.335595e+05	
50	-2.50000e+00	2.366020e+05	
51	-2.55000e+00	2.395704e+05	
52	-2.60000e+00	2.424663e+05	
53	-2.65000e+00	2.452908e+05	
54	-2.70000e+00	2.480445e+05	

Index   v-sweep         rds             
--------------------------------------------------------------------------------
55	-2.75000e+00	2.507271e+05	
56	-2.80000e+00	2.533374e+05	
57	-2.85000e+00	2.558733e+05	
58	-2.90000e+00	2.583308e+05	
59	-2.95000e+00	2.607046e+05	
60	-3.00000e+00	2.629868e+05	
61	-3.05000e+00	2.651675e+05	
62	-3.10000e+00	2.672335e+05	
63	-3.15000e+00	2.691686e+05	
64	-3.20000e+00	2.709531e+05	
65	-3.25000e+00	2.725631e+05	
66	-3.30000e+00	2.739709e+05	
Reset re-loads circuit ***************************

Circuit: ***************************

Doing analysis at TEMP = 25.000000 and TNOM = 25.000000


No. of Data Rows : 67
                          ***************************
                          DC transfer characteristic  Mon Jan  9 13:57:30  2023
--------------------------------------------------------------------------------
Index   v-sweep         rds             
--------------------------------------------------------------------------------
0	0.000000e+00	6.188356e+03	
1	-5.00000e-02	6.460274e+03	
2	-1.00000e-01	6.752483e+03	
3	-1.50000e-01	7.067327e+03	
4	-2.00000e-01	7.407527e+03	
5	-2.50000e-01	7.776255e+03	
6	-3.00000e-01	8.177234e+03	
7	-3.50000e-01	8.614865e+03	
8	-4.00000e-01	9.094380e+03	
9	-4.50000e-01	9.622056e+03	
10	-5.00000e-01	1.020548e+04	
11	-5.50000e-01	1.085391e+04	
12	-6.00000e-01	1.157875e+04	
13	-6.50000e-01	1.239420e+04	
14	-7.00000e-01	1.331815e+04	
15	-7.50000e-01	1.437339e+04	
16	-8.00000e-01	1.558936e+04	
17	-8.50000e-01	1.700455e+04	
18	-9.00000e-01	1.866984e+04	
19	-9.50000e-01	2.065301e+04	
20	-1.00000e+00	2.304412e+04	
21	-1.05000e+00	2.596006e+04	
22	-1.10000e+00	2.954184e+04	
23	-1.15000e+00	3.392798e+04	
24	-1.20000e+00	3.917755e+04	
25	-1.25000e+00	4.514532e+04	
26	-1.30000e+00	5.142838e+04	
27	-1.35000e+00	5.754160e+04	
28	-1.40000e+00	6.318559e+04	
29	-1.45000e+00	6.831025e+04	
30	-1.50000e+00	7.299788e+04	
31	-1.55000e+00	7.735372e+04	
32	-1.60000e+00	8.146239e+04	
33	-1.65000e+00	8.538268e+04	
34	-1.70000e+00	8.915346e+04	
35	-1.75000e+00	9.280033e+04	
36	-1.80000e+00	9.634047e+04	
37	-1.85000e+00	9.978574e+04	
38	-1.90000e+00	1.031446e+05	
39	-1.95000e+00	1.064235e+05	
40	-2.00000e+00	1.096271e+05	
41	-2.05000e+00	1.127595e+05	
42	-2.10000e+00	1.158239e+05	
43	-2.15000e+00	1.188230e+05	
44	-2.20000e+00	1.217593e+05	
45	-2.25000e+00	1.246350e+05	
46	-2.30000e+00	1.274520e+05	
47	-2.35000e+00	1.302121e+05	
48	-2.40000e+00	1.329170e+05	
49	-2.45000e+00	1.355683e+05	
50	-2.50000e+00	1.381675e+05	
51	-2.55000e+00	1.407159e+05	
52	-2.60000e+00	1.432151e+05	
53	-2.65000e+00	1.456661e+05	
54	-2.70000e+00	1.480702e+05	

Index   v-sweep         rds             
--------------------------------------------------------------------------------
55	-2.75000e+00	1.504286e+05	
56	-2.80000e+00	1.527423e+05	
57	-2.85000e+00	1.550121e+05	
58	-2.90000e+00	1.572388e+05	
59	-2.95000e+00	1.594230e+05	
60	-3.00000e+00	1.615647e+05	
61	-3.05000e+00	1.636639e+05	
62	-3.10000e+00	1.657198e+05	
63	-3.15000e+00	1.677308e+05	
64	-3.20000e+00	1.696946e+05	
65	-3.25000e+00	1.716077e+05	
66	-3.30000e+00	1.734651e+05	
Reset re-loads circuit ***************************

Circuit: ***************************

Doing analysis at TEMP = 25.000000 and TNOM = 25.000000


No. of Data Rows : 67
                          ***************************
                          DC transfer characteristic  Mon Jan  9 13:57:30  2023
--------------------------------------------------------------------------------
Index   v-sweep         rds             
--------------------------------------------------------------------------------
0	0.000000e+00	5.185048e+03	
1	-5.00000e-02	5.364921e+03	
2	-1.00000e-01	5.554983e+03	
3	-1.50000e-01	5.756118e+03	
4	-2.00000e-01	5.969314e+03	
5	-2.50000e-01	6.195683e+03	
6	-3.00000e-01	6.436475e+03	
7	-3.50000e-01	6.693105e+03	
8	-4.00000e-01	6.967178e+03	
9	-4.50000e-01	7.260522e+03	
10	-5.00000e-01	7.575233e+03	
11	-5.50000e-01	7.913717e+03	
12	-6.00000e-01	8.278756e+03	
13	-6.50000e-01	8.673582e+03	
14	-7.00000e-01	9.101969e+03	
15	-7.50000e-01	9.568356e+03	
16	-8.00000e-01	1.007799e+04	
17	-8.50000e-01	1.063712e+04	
18	-9.00000e-01	1.125324e+04	
19	-9.50000e-01	1.193542e+04	
20	-1.00000e+00	1.269470e+04	
21	-1.05000e+00	1.354464e+04	
22	-1.10000e+00	1.450205e+04	
23	-1.15000e+00	1.558787e+04	
24	-1.20000e+00	1.682836e+04	
25	-1.25000e+00	1.825644e+04	
26	-1.30000e+00	1.991308e+04	
27	-1.35000e+00	2.184790e+04	
28	-1.40000e+00	2.411734e+04	
29	-1.45000e+00	2.677627e+04	
30	-1.50000e+00	2.985736e+04	
31	-1.55000e+00	3.333595e+04	
32	-1.60000e+00	3.709835e+04	
33	-1.65000e+00	4.095679e+04	
34	-1.70000e+00	4.472638e+04	
35	-1.75000e+00	4.829963e+04	
36	-1.80000e+00	5.165431e+04	
37	-1.85000e+00	5.481562e+04	
38	-1.90000e+00	5.782095e+04	
39	-1.95000e+00	6.070328e+04	
40	-2.00000e+00	6.348733e+04	
41	-2.05000e+00	6.619043e+04	
42	-2.10000e+00	6.882455e+04	
43	-2.15000e+00	7.139800e+04	
44	-2.20000e+00	7.391668e+04	
45	-2.25000e+00	7.638489e+04	
46	-2.30000e+00	7.880585e+04	
47	-2.35000e+00	8.118209e+04	
48	-2.40000e+00	8.351561e+04	
49	-2.45000e+00	8.580810e+04	
50	-2.50000e+00	8.806099e+04	
51	-2.55000e+00	9.027554e+04	
52	-2.60000e+00	9.245286e+04	
53	-2.65000e+00	9.459396e+04	
54	-2.70000e+00	9.669978e+04	

Index   v-sweep         rds             
--------------------------------------------------------------------------------
55	-2.75000e+00	9.877121e+04	
56	-2.80000e+00	1.008090e+05	
57	-2.85000e+00	1.028141e+05	
58	-2.90000e+00	1.047870e+05	
59	-2.95000e+00	1.067286e+05	
60	-3.00000e+00	1.086395e+05	
61	-3.05000e+00	1.105203e+05	
62	-3.10000e+00	1.123716e+05	
63	-3.15000e+00	1.141939e+05	
64	-3.20000e+00	1.159876e+05	
65	-3.25000e+00	1.177530e+05	
66	-3.30000e+00	1.194901e+05	
Reset re-loads circuit ***************************

Circuit: ***************************

Doing analysis at TEMP = 25.000000 and TNOM = 25.000000


No. of Data Rows : 67
                          ***************************
                          DC transfer characteristic  Mon Jan  9 13:57:30  2023
--------------------------------------------------------------------------------
Index   v-sweep         rds             
--------------------------------------------------------------------------------
0	0.000000e+00	4.578662e+03	
1	-5.00000e-02	4.710704e+03	
2	-1.00000e-01	4.848782e+03	
3	-1.50000e-01	4.993316e+03	
4	-2.00000e-01	5.144764e+03	
5	-2.50000e-01	5.303631e+03	
6	-3.00000e-01	5.470471e+03	
7	-3.50000e-01	5.645894e+03	
8	-4.00000e-01	5.830575e+03	
9	-4.50000e-01	6.025261e+03	
10	-5.00000e-01	6.230781e+03	
11	-5.50000e-01	6.448060e+03	
12	-6.00000e-01	6.678129e+03	
13	-6.50000e-01	6.922145e+03	
14	-7.00000e-01	7.181405e+03	
15	-7.50000e-01	7.457376e+03	
16	-8.00000e-01	7.751716e+03	
17	-8.50000e-01	8.066309e+03	
18	-9.00000e-01	8.403306e+03	
19	-9.50000e-01	8.765171e+03	
20	-1.00000e+00	9.154739e+03	
21	-1.05000e+00	9.575292e+03	
22	-1.10000e+00	1.003064e+04	
23	-1.15000e+00	1.052524e+04	
24	-1.20000e+00	1.106434e+04	
25	-1.25000e+00	1.165411e+04	
26	-1.30000e+00	1.230191e+04	
27	-1.35000e+00	1.301653e+04	
28	-1.40000e+00	1.380853e+04	
29	-1.45000e+00	1.469062e+04	
30	-1.50000e+00	1.567815e+04	
31	-1.55000e+00	1.678958e+04	
32	-1.60000e+00	1.804687e+04	
33	-1.65000e+00	1.947539e+04	
34	-1.70000e+00	2.110281e+04	
35	-1.75000e+00	2.295556e+04	
36	-1.80000e+00	2.505114e+04	
37	-1.85000e+00	2.738540e+04	
38	-1.90000e+00	2.991867e+04	
39	-1.95000e+00	3.257309e+04	
40	-2.00000e+00	3.525286e+04	
41	-2.05000e+00	3.787854e+04	
42	-2.10000e+00	4.040805e+04	
43	-2.15000e+00	4.283300e+04	
44	-2.20000e+00	4.516308e+04	
45	-2.25000e+00	4.741319e+04	
46	-2.30000e+00	4.959712e+04	
47	-2.35000e+00	5.172570e+04	
48	-2.40000e+00	5.380688e+04	
49	-2.45000e+00	5.584639e+04	
50	-2.50000e+00	5.784834e+04	
51	-2.55000e+00	5.981571e+04	
52	-2.60000e+00	6.175076e+04	
53	-2.65000e+00	6.365520e+04	
54	-2.70000e+00	6.553039e+04	

Index   v-sweep         rds             
--------------------------------------------------------------------------------
55	-2.75000e+00	6.737744e+04	
56	-2.80000e+00	6.919727e+04	
57	-2.85000e+00	7.099068e+04	
58	-2.90000e+00	7.275838e+04	
59	-2.95000e+00	7.450100e+04	
60	-3.00000e+00	7.621911e+04	
61	-3.05000e+00	7.791327e+04	
62	-3.10000e+00	7.958395e+04	
63	-3.15000e+00	8.123165e+04	
64	-3.20000e+00	8.285681e+04	
65	-3.25000e+00	8.445986e+04	
66	-3.30000e+00	8.604121e+04	
Reset re-loads circuit ***************************

Circuit: ***************************

Note: No ".plot", ".print", or ".fourier" lines; no simulations run
