
Note: Compatibility modes selected: hs

Warning: m=xx on .subckt line will override multiplier m hierarchy!


Circuit: ***************************

Doing analysis at TEMP = 125.000000 and TNOM = 125.000000


No. of Data Rows : 67
                          ***************************
                          DC transfer characteristic  Mon Jan  9 13:57:32  2023
--------------------------------------------------------------------------------
Index   v-sweep         rds             
--------------------------------------------------------------------------------
0	0.000000e+00	1.057098e+07	
1	-5.00000e-02	1.668348e+07	
2	-1.00000e-01	3.523626e+07	
3	-1.50000e-01	1.212793e+08	
4	-2.00000e-01	4.935664e+08	
5	-2.50000e-01	1.523825e+09	
6	-3.00000e-01	3.498416e+09	
7	-3.50000e-01	6.455330e+09	
8	-4.00000e-01	1.018549e+10	
9	-4.50000e-01	1.435385e+10	
10	-5.00000e-01	1.863726e+10	
11	-5.50000e-01	2.280171e+10	
12	-6.00000e-01	2.671375e+10	
13	-6.50000e-01	3.031773e+10	
14	-7.00000e-01	3.360659e+10	
15	-7.50000e-01	3.659879e+10	
16	-8.00000e-01	3.932358e+10	
17	-8.50000e-01	4.181277e+10	
18	-9.00000e-01	4.409664e+10	
19	-9.50000e-01	4.620229e+10	
20	-1.00000e+00	4.815318e+10	
21	-1.05000e+00	4.996924e+10	
22	-1.10000e+00	5.166731e+10	
23	-1.15000e+00	5.326156e+10	
24	-1.20000e+00	5.476390e+10	
25	-1.25000e+00	5.618440e+10	
26	-1.30000e+00	5.753156e+10	
27	-1.35000e+00	5.881267e+10	
28	-1.40000e+00	6.003392e+10	
29	-1.45000e+00	6.120068e+10	
30	-1.50000e+00	6.231757e+10	
31	-1.55000e+00	6.338863e+10	
32	-1.60000e+00	6.441737e+10	
33	-1.65000e+00	6.540690e+10	
34	-1.70000e+00	6.635992e+10	
35	-1.75000e+00	6.727879e+10	
36	-1.80000e+00	6.816558e+10	
37	-1.85000e+00	6.902205e+10	
38	-1.90000e+00	6.984966e+10	
39	-1.95000e+00	7.064956e+10	
40	-2.00000e+00	7.142257e+10	
41	-2.05000e+00	7.216915e+10	
42	-2.10000e+00	7.288932e+10	
43	-2.15000e+00	7.358264e+10	
44	-2.20000e+00	7.424814e+10	
45	-2.25000e+00	7.488423e+10	
46	-2.30000e+00	7.548863e+10	
47	-2.35000e+00	7.605829e+10	
48	-2.40000e+00	7.658933e+10	
49	-2.45000e+00	7.707697e+10	
50	-2.50000e+00	7.751545e+10	
51	-2.55000e+00	7.789802e+10	
52	-2.60000e+00	7.821694e+10	
53	-2.65000e+00	7.846351e+10	
54	-2.70000e+00	7.862812e+10	

Index   v-sweep         rds             
--------------------------------------------------------------------------------
55	-2.75000e+00	7.870044e+10	
56	-2.80000e+00	7.866953e+10	
57	-2.85000e+00	7.852417e+10	
58	-2.90000e+00	7.825315e+10	
59	-2.95000e+00	7.784565e+10	
60	-3.00000e+00	7.729169e+10	
61	-3.05000e+00	7.658263e+10	
62	-3.10000e+00	7.571158e+10	
63	-3.15000e+00	7.467396e+10	
64	-3.20000e+00	7.346786e+10	
65	-3.25000e+00	7.209441e+10	
66	-3.30000e+00	7.055796e+10	
Reset re-loads circuit ***************************

Circuit: ***************************

Doing analysis at TEMP = 125.000000 and TNOM = 125.000000


No. of Data Rows : 67
                          ***************************
                          DC transfer characteristic  Mon Jan  9 13:57:32  2023
--------------------------------------------------------------------------------
Index   v-sweep         rds             
--------------------------------------------------------------------------------
0	0.000000e+00	2.509868e+06	
1	-5.00000e-02	2.821043e+06	
2	-1.00000e-01	3.219690e+06	
3	-1.50000e-01	3.748241e+06	
4	-2.00000e-01	4.481124e+06	
5	-2.50000e-01	5.560236e+06	
6	-3.00000e-01	7.285858e+06	
7	-3.50000e-01	1.037686e+07	
8	-4.00000e-01	1.676916e+07	
9	-4.50000e-01	3.185570e+07	
10	-5.00000e-01	6.842380e+07	
11	-5.50000e-01	1.474628e+08	
12	-6.00000e-01	2.903005e+08	
13	-6.50000e-01	5.079476e+08	
14	-7.00000e-01	7.964435e+08	
15	-7.50000e-01	1.139878e+09	
16	-8.00000e-01	1.517377e+09	
17	-8.50000e-01	1.909414e+09	
18	-9.00000e-01	2.301116e+09	
19	-9.50000e-01	2.682848e+09	
20	-1.00000e+00	3.049318e+09	
21	-1.05000e+00	3.398278e+09	
22	-1.10000e+00	3.729378e+09	
23	-1.15000e+00	4.043328e+09	
24	-1.20000e+00	4.341351e+09	
25	-1.25000e+00	4.624861e+09	
26	-1.30000e+00	4.895277e+09	
27	-1.35000e+00	5.153931e+09	
28	-1.40000e+00	5.402030e+09	
29	-1.45000e+00	5.640644e+09	
30	-1.50000e+00	5.870710e+09	
31	-1.55000e+00	6.093044e+09	
32	-1.60000e+00	6.308352e+09	
33	-1.65000e+00	6.517248e+09	
34	-1.70000e+00	6.720262e+09	
35	-1.75000e+00	6.917858e+09	
36	-1.80000e+00	7.110438e+09	
37	-1.85000e+00	7.298354e+09	
38	-1.90000e+00	7.481916e+09	
39	-1.95000e+00	7.661391e+09	
40	-2.00000e+00	7.837014e+09	
41	-2.05000e+00	8.008988e+09	
42	-2.10000e+00	8.177481e+09	
43	-2.15000e+00	8.342629e+09	
44	-2.20000e+00	8.504532e+09	
45	-2.25000e+00	8.663244e+09	
46	-2.30000e+00	8.818769e+09	
47	-2.35000e+00	8.971052e+09	
48	-2.40000e+00	9.119959e+09	
49	-2.45000e+00	9.265267e+09	
50	-2.50000e+00	9.406642e+09	
51	-2.55000e+00	9.543622e+09	
52	-2.60000e+00	9.675589e+09	
53	-2.65000e+00	9.801752e+09	
54	-2.70000e+00	9.921123e+09	

Index   v-sweep         rds             
--------------------------------------------------------------------------------
55	-2.75000e+00	1.003249e+10	
56	-2.80000e+00	1.013442e+10	
57	-2.85000e+00	1.022523e+10	
58	-2.90000e+00	1.030298e+10	
59	-2.95000e+00	1.036552e+10	
60	-3.00000e+00	1.041050e+10	
61	-3.05000e+00	1.043541e+10	
62	-3.10000e+00	1.043767e+10	
63	-3.15000e+00	1.041473e+10	
64	-3.20000e+00	1.036415e+10	
65	-3.25000e+00	1.028379e+10	
66	-3.30000e+00	1.017190e+10	
Reset re-loads circuit ***************************

Circuit: ***************************

Doing analysis at TEMP = 125.000000 and TNOM = 125.000000


No. of Data Rows : 67
                          ***************************
                          DC transfer characteristic  Mon Jan  9 13:57:32  2023
--------------------------------------------------------------------------------
Index   v-sweep         rds             
--------------------------------------------------------------------------------
0	0.000000e+00	1.439269e+06	
1	-5.00000e-02	1.535725e+06	
2	-1.00000e-01	1.645976e+06	
3	-1.50000e-01	1.773204e+06	
4	-2.00000e-01	1.921643e+06	
5	-2.50000e-01	2.097052e+06	
6	-3.00000e-01	2.307471e+06	
7	-3.50000e-01	2.564444e+06	
8	-4.00000e-01	2.885132e+06	
9	-4.50000e-01	3.296105e+06	
10	-5.00000e-01	3.840518e+06	
11	-5.50000e-01	4.592595e+06	
12	-6.00000e-01	5.688702e+06	
13	-6.50000e-01	7.398112e+06	
14	-7.00000e-01	1.028912e+07	
15	-7.50000e-01	1.560137e+07	
16	-8.00000e-01	2.591519e+07	
17	-8.50000e-01	4.577606e+07	
18	-9.00000e-01	8.119374e+07	
19	-9.50000e-01	1.375022e+08	
20	-1.00000e+00	2.169644e+08	
21	-1.05000e+00	3.178771e+08	
22	-1.10000e+00	4.355007e+08	
23	-1.15000e+00	5.638753e+08	
24	-1.20000e+00	6.974179e+08	
25	-1.25000e+00	8.317784e+08	
26	-1.30000e+00	9.640184e+08	
27	-1.35000e+00	1.092408e+09	
28	-1.40000e+00	1.216102e+09	
29	-1.45000e+00	1.334833e+09	
30	-1.50000e+00	1.448681e+09	
31	-1.55000e+00	1.557909e+09	
32	-1.60000e+00	1.662869e+09	
33	-1.65000e+00	1.763936e+09	
34	-1.70000e+00	1.861476e+09	
35	-1.75000e+00	1.955832e+09	
36	-1.80000e+00	2.047311e+09	
37	-1.85000e+00	2.136189e+09	
38	-1.90000e+00	2.222708e+09	
39	-1.95000e+00	2.307081e+09	
40	-2.00000e+00	2.389491e+09	
41	-2.05000e+00	2.470101e+09	
42	-2.10000e+00	2.549052e+09	
43	-2.15000e+00	2.626467e+09	
44	-2.20000e+00	2.702453e+09	
45	-2.25000e+00	2.777104e+09	
46	-2.30000e+00	2.850502e+09	
47	-2.35000e+00	2.922716e+09	
48	-2.40000e+00	2.993806e+09	
49	-2.45000e+00	3.063819e+09	
50	-2.50000e+00	3.132791e+09	
51	-2.55000e+00	3.200740e+09	
52	-2.60000e+00	3.267671e+09	
53	-2.65000e+00	3.333562e+09	
54	-2.70000e+00	3.398369e+09	

Index   v-sweep         rds             
--------------------------------------------------------------------------------
55	-2.75000e+00	3.462010e+09	
56	-2.80000e+00	3.524364e+09	
57	-2.85000e+00	3.585259e+09	
58	-2.90000e+00	3.644461e+09	
59	-2.95000e+00	3.701668e+09	
60	-3.00000e+00	3.756492e+09	
61	-3.05000e+00	3.808454e+09	
62	-3.10000e+00	3.856971e+09	
63	-3.15000e+00	3.901351e+09	
64	-3.20000e+00	3.940789e+09	
65	-3.25000e+00	3.974366e+09	
66	-3.30000e+00	4.001063e+09	
Reset re-loads circuit ***************************

Circuit: ***************************

Doing analysis at TEMP = 125.000000 and TNOM = 125.000000


No. of Data Rows : 67
                          ***************************
                          DC transfer characteristic  Mon Jan  9 13:57:32  2023
--------------------------------------------------------------------------------
Index   v-sweep         rds             
--------------------------------------------------------------------------------
0	0.000000e+00	1.022614e+06	
1	-5.00000e-02	1.068756e+06	
2	-1.00000e-01	1.119237e+06	
3	-1.50000e-01	1.174699e+06	
4	-2.00000e-01	1.235917e+06	
5	-2.50000e-01	1.303834e+06	
6	-3.00000e-01	1.379611e+06	
7	-3.50000e-01	1.464694e+06	
8	-4.00000e-01	1.560904e+06	
9	-4.50000e-01	1.670567e+06	
10	-5.00000e-01	1.796706e+06	
11	-5.50000e-01	1.943310e+06	
12	-6.00000e-01	2.115759e+06	
13	-6.50000e-01	2.321471e+06	
14	-7.00000e-01	2.570951e+06	
15	-7.50000e-01	2.879524e+06	
16	-8.00000e-01	3.270349e+06	
17	-8.50000e-01	3.779842e+06	
18	-9.00000e-01	4.467902e+06	
19	-9.50000e-01	5.437960e+06	
20	-1.00000e+00	6.877425e+06	
21	-1.05000e+00	9.138837e+06	
22	-1.10000e+00	1.289073e+07	
23	-1.15000e+00	1.934119e+07	
24	-1.20000e+00	3.040864e+07	
25	-1.25000e+00	4.853616e+07	
26	-1.30000e+00	7.597121e+07	
27	-1.35000e+00	1.138584e+08	
28	-1.40000e+00	1.617633e+08	
29	-1.45000e+00	2.178905e+08	
30	-1.50000e+00	2.797484e+08	
31	-1.55000e+00	3.448330e+08	
32	-1.60000e+00	4.110652e+08	
33	-1.65000e+00	4.769440e+08	
34	-1.70000e+00	5.415108e+08	
35	-1.75000e+00	6.042328e+08	
36	-1.80000e+00	6.648738e+08	
37	-1.85000e+00	7.233879e+08	
38	-1.90000e+00	7.798404e+08	
39	-1.95000e+00	8.343552e+08	
40	-2.00000e+00	8.870819e+08	
41	-2.05000e+00	9.381761e+08	
42	-2.10000e+00	9.877879e+08	
43	-2.15000e+00	1.036057e+09	
44	-2.20000e+00	1.083109e+09	
45	-2.25000e+00	1.129058e+09	
46	-2.30000e+00	1.174002e+09	
47	-2.35000e+00	1.218030e+09	
48	-2.40000e+00	1.261219e+09	
49	-2.45000e+00	1.303636e+09	
50	-2.50000e+00	1.345341e+09	
51	-2.55000e+00	1.386384e+09	
52	-2.60000e+00	1.426811e+09	
53	-2.65000e+00	1.466661e+09	
54	-2.70000e+00	1.505968e+09	

Index   v-sweep         rds             
--------------------------------------------------------------------------------
55	-2.75000e+00	1.544760e+09	
56	-2.80000e+00	1.583059e+09	
57	-2.85000e+00	1.620882e+09	
58	-2.90000e+00	1.658237e+09	
59	-2.95000e+00	1.695124e+09	
60	-3.00000e+00	1.731531e+09	
61	-3.05000e+00	1.767432e+09	
62	-3.10000e+00	1.802784e+09	
63	-3.15000e+00	1.837519e+09	
64	-3.20000e+00	1.871545e+09	
65	-3.25000e+00	1.904735e+09	
66	-3.30000e+00	1.936923e+09	
Reset re-loads circuit ***************************

Circuit: ***************************

Doing analysis at TEMP = 125.000000 and TNOM = 125.000000


No. of Data Rows : 67
                          ***************************
                          DC transfer characteristic  Mon Jan  9 13:57:32  2023
--------------------------------------------------------------------------------
Index   v-sweep         rds             
--------------------------------------------------------------------------------
0	0.000000e+00	8.000742e+05	
1	-5.00000e-02	8.269054e+05	
2	-1.00000e-01	8.555876e+05	
3	-1.50000e-01	8.863191e+05	
4	-2.00000e-01	9.193274e+05	
5	-2.50000e-01	9.548751e+05	
6	-3.00000e-01	9.932669e+05	
7	-3.50000e-01	1.034858e+06	
8	-4.00000e-01	1.080065e+06	
9	-4.50000e-01	1.129380e+06	
10	-5.00000e-01	1.183389e+06	
11	-5.50000e-01	1.242796e+06	
12	-6.00000e-01	1.308448e+06	
13	-6.50000e-01	1.381383e+06	
14	-7.00000e-01	1.462881e+06	
15	-7.50000e-01	1.554537e+06	
16	-8.00000e-01	1.658366e+06	
17	-8.50000e-01	1.776950e+06	
18	-9.00000e-01	1.913648e+06	
19	-9.50000e-01	2.072910e+06	
20	-1.00000e+00	2.260743e+06	
21	-1.05000e+00	2.485448e+06	
22	-1.10000e+00	2.758780e+06	
23	-1.15000e+00	3.097870e+06	
24	-1.20000e+00	3.528484e+06	
25	-1.25000e+00	4.090746e+06	
26	-1.30000e+00	4.849446e+06	
27	-1.35000e+00	5.912923e+06	
28	-1.40000e+00	7.467347e+06	
29	-1.45000e+00	9.835346e+06	
30	-1.50000e+00	1.356138e+07	
31	-1.55000e+00	1.949352e+07	
32	-1.60000e+00	2.877040e+07	
33	-1.65000e+00	4.260586e+07	
34	-1.70000e+00	6.189637e+07	
35	-1.75000e+00	8.686655e+07	
36	-1.80000e+00	1.169776e+08	
37	-1.85000e+00	1.511281e+08	
38	-1.90000e+00	1.879922e+08	
39	-1.95000e+00	2.263179e+08	
40	-2.00000e+00	2.650969e+08	
41	-2.05000e+00	3.036113e+08	
42	-2.10000e+00	3.414046e+08	
43	-2.15000e+00	3.782226e+08	
44	-2.20000e+00	4.139523e+08	
45	-2.25000e+00	4.485721e+08	
46	-2.30000e+00	4.821145e+08	
47	-2.35000e+00	5.146412e+08	
48	-2.40000e+00	5.462274e+08	
49	-2.45000e+00	5.769518e+08	
50	-2.50000e+00	6.068910e+08	
51	-2.55000e+00	6.361167e+08	
52	-2.60000e+00	6.646944e+08	
53	-2.65000e+00	6.926829e+08	
54	-2.70000e+00	7.201345e+08	

Index   v-sweep         rds             
--------------------------------------------------------------------------------
55	-2.75000e+00	7.470954e+08	
56	-2.80000e+00	7.736066e+08	
57	-2.85000e+00	7.997037e+08	
58	-2.90000e+00	8.254185e+08	
59	-2.95000e+00	8.507783e+08	
60	-3.00000e+00	8.758074e+08	
61	-3.05000e+00	9.005266e+08	
62	-3.10000e+00	9.249536e+08	
63	-3.15000e+00	9.491029e+08	
64	-3.20000e+00	9.729856e+08	
65	-3.25000e+00	9.966085e+08	
66	-3.30000e+00	1.019974e+09	
Reset re-loads circuit ***************************

Circuit: ***************************

Doing analysis at TEMP = 125.000000 and TNOM = 125.000000


No. of Data Rows : 67
                          ***************************
                          DC transfer characteristic  Mon Jan  9 13:57:32  2023
--------------------------------------------------------------------------------
Index   v-sweep         rds             
--------------------------------------------------------------------------------
0	0.000000e+00	6.609339e+05	
1	-5.00000e-02	6.783601e+05	
2	-1.00000e-01	6.967234e+05	
3	-1.50000e-01	7.161013e+05	
4	-2.00000e-01	7.365803e+05	
5	-2.50000e-01	7.582569e+05	
6	-3.00000e-01	7.812393e+05	
7	-3.50000e-01	8.056491e+05	
8	-4.00000e-01	8.316235e+05	
9	-4.50000e-01	8.593178e+05	
10	-5.00000e-01	8.889085e+05	
11	-5.50000e-01	9.205971e+05	
12	-6.00000e-01	9.546149e+05	
13	-6.50000e-01	9.912280e+05	
14	-7.00000e-01	1.030745e+06	
15	-7.50000e-01	1.073525e+06	
16	-8.00000e-01	1.119989e+06	
17	-8.50000e-01	1.170632e+06	
18	-9.00000e-01	1.226046e+06	
19	-9.50000e-01	1.286934e+06	
20	-1.00000e+00	1.354147e+06	
21	-1.05000e+00	1.428722e+06	
22	-1.10000e+00	1.511931e+06	
23	-1.15000e+00	1.605358e+06	
24	-1.20000e+00	1.710993e+06	
25	-1.25000e+00	1.831373e+06	
26	-1.30000e+00	1.969783e+06	
27	-1.35000e+00	2.130538e+06	
28	-1.40000e+00	2.319419e+06	
29	-1.45000e+00	2.544326e+06	
30	-1.50000e+00	2.816298e+06	
31	-1.55000e+00	3.151151e+06	
32	-1.60000e+00	3.572156e+06	
33	-1.65000e+00	4.114529e+06	
34	-1.70000e+00	4.833067e+06	
35	-1.75000e+00	5.815120e+06	
36	-1.80000e+00	7.202050e+06	
37	-1.85000e+00	9.221917e+06	
38	-1.90000e+00	1.223061e+07	
39	-1.95000e+00	1.674217e+07	
40	-2.00000e+00	2.340576e+07	
41	-2.05000e+00	3.288687e+07	
42	-2.10000e+00	4.566919e+07	
43	-2.15000e+00	6.187497e+07	
44	-2.20000e+00	8.121124e+07	
45	-2.25000e+00	1.030649e+08	
46	-2.30000e+00	1.266782e+08	
47	-2.35000e+00	1.513139e+08	
48	-2.40000e+00	1.763584e+08	
49	-2.45000e+00	2.013583e+08	
50	-2.50000e+00	2.260122e+08	
51	-2.55000e+00	2.501408e+08	
52	-2.60000e+00	2.736542e+08	
53	-2.65000e+00	2.965218e+08	
54	-2.70000e+00	3.187506e+08	

Index   v-sweep         rds             
--------------------------------------------------------------------------------
55	-2.75000e+00	3.403691e+08	
56	-2.80000e+00	3.614168e+08	
57	-2.85000e+00	3.819373e+08	
58	-2.90000e+00	4.019750e+08	
59	-2.95000e+00	4.215721e+08	
60	-3.00000e+00	4.407679e+08	
61	-3.05000e+00	4.595981e+08	
62	-3.10000e+00	4.780947e+08	
63	-3.15000e+00	4.962863e+08	
64	-3.20000e+00	5.141984e+08	
65	-3.25000e+00	5.318533e+08	
66	-3.30000e+00	5.492708e+08	
Reset re-loads circuit ***************************

Circuit: ***************************

Note: No ".plot", ".print", or ".fourier" lines; no simulations run
