
Note: Compatibility modes selected: hs

Warning: m=xx on .subckt line will override multiplier m hierarchy!


Circuit: ***************************

Doing analysis at TEMP = -40.000000 and TNOM = -40.000000


No. of Data Rows : 67
                          ***************************
                          DC transfer characteristic  Mon Jan  9 13:57:31  2023
--------------------------------------------------------------------------------
Index   v-sweep         rds             
--------------------------------------------------------------------------------
0	0.000000e+00	5.001705e+07	
1	-5.00000e-02	5.155750e+08	
2	-1.00000e-01	4.899396e+09	
3	-1.50000e-01	1.894686e+10	
4	-2.00000e-01	4.483835e+10	
5	-2.50000e-01	7.960087e+10	
6	-3.00000e-01	1.177277e+11	
7	-3.50000e-01	1.545531e+11	
8	-4.00000e-01	1.875797e+11	
9	-4.50000e-01	2.160796e+11	
10	-5.00000e-01	2.402779e+11	
11	-5.50000e-01	2.607605e+11	
12	-6.00000e-01	2.781690e+11	
13	-6.50000e-01	2.930789e+11	
14	-7.00000e-01	3.059666e+11	
15	-7.50000e-01	3.172125e+11	
16	-8.00000e-01	3.271166e+11	
17	-8.50000e-01	3.359140e+11	
18	-9.00000e-01	3.437901e+11	
19	-9.50000e-01	3.508917e+11	
20	-1.00000e+00	3.573361e+11	
21	-1.05000e+00	3.632179e+11	
22	-1.10000e+00	3.686137e+11	
23	-1.15000e+00	3.735867e+11	
24	-1.20000e+00	3.781891e+11	
25	-1.25000e+00	3.824645e+11	
26	-1.30000e+00	3.864495e+11	
27	-1.35000e+00	3.901754e+11	
28	-1.40000e+00	3.936686e+11	
29	-1.45000e+00	3.969522e+11	
30	-1.50000e+00	4.000457e+11	
31	-1.55000e+00	4.029665e+11	
32	-1.60000e+00	4.057295e+11	
33	-1.65000e+00	4.083477e+11	
34	-1.70000e+00	4.108325e+11	
35	-1.75000e+00	4.131940e+11	
36	-1.80000e+00	4.154407e+11	
37	-1.85000e+00	4.175798e+11	
38	-1.90000e+00	4.196175e+11	
39	-1.95000e+00	4.215585e+11	
40	-2.00000e+00	4.234064e+11	
41	-2.05000e+00	4.251634e+11	
42	-2.10000e+00	4.268303e+11	
43	-2.15000e+00	4.284065e+11	
44	-2.20000e+00	4.298897e+11	
45	-2.25000e+00	4.312760e+11	
46	-2.30000e+00	4.325595e+11	
47	-2.35000e+00	4.337327e+11	
48	-2.40000e+00	4.347857e+11	
49	-2.45000e+00	4.357069e+11	
50	-2.50000e+00	4.364822e+11	
51	-2.55000e+00	4.370955e+11	
52	-2.60000e+00	4.375287e+11	
53	-2.65000e+00	4.377613e+11	
54	-2.70000e+00	4.377712e+11	

Index   v-sweep         rds             
--------------------------------------------------------------------------------
55	-2.75000e+00	4.375345e+11	
56	-2.80000e+00	4.370258e+11	
57	-2.85000e+00	4.362186e+11	
58	-2.90000e+00	4.350857e+11	
59	-2.95000e+00	4.335998e+11	
60	-3.00000e+00	4.317341e+11	
61	-3.05000e+00	4.294626e+11	
62	-3.10000e+00	4.267612e+11	
63	-3.15000e+00	4.236082e+11	
64	-3.20000e+00	4.199850e+11	
65	-3.25000e+00	4.158771e+11	
66	-3.30000e+00	4.112743e+11	
Reset re-loads circuit ***************************

Circuit: ***************************

Doing analysis at TEMP = -40.000000 and TNOM = -40.000000


No. of Data Rows : 67
                          ***************************
                          DC transfer characteristic  Mon Jan  9 13:57:32  2023
--------------------------------------------------------------------------------
Index   v-sweep         rds             
--------------------------------------------------------------------------------
0	0.000000e+00	1.800997e+06	
1	-5.00000e-02	2.131474e+06	
2	-1.00000e-01	2.608265e+06	
3	-1.50000e-01	3.352059e+06	
4	-2.00000e-01	4.651791e+06	
5	-2.50000e-01	7.328647e+06	
6	-3.00000e-01	1.408174e+07	
7	-3.50000e-01	3.335625e+07	
8	-4.00000e-01	8.335538e+07	
9	-4.50000e-01	1.861191e+08	
10	-5.00000e-01	3.545178e+08	
11	-5.50000e-01	5.860824e+08	
12	-6.00000e-01	8.664981e+08	
13	-6.50000e-01	1.177178e+09	
14	-7.00000e-01	1.501328e+09	
15	-7.50000e-01	1.826600e+09	
16	-8.00000e-01	2.145195e+09	
17	-8.50000e-01	2.452851e+09	
18	-9.00000e-01	2.747681e+09	
19	-9.50000e-01	3.029239e+09	
20	-1.00000e+00	3.297875e+09	
21	-1.05000e+00	3.554334e+09	
22	-1.10000e+00	3.799515e+09	
23	-1.15000e+00	4.034346e+09	
24	-1.20000e+00	4.259716e+09	
25	-1.25000e+00	4.476440e+09	
26	-1.30000e+00	4.685255e+09	
27	-1.35000e+00	4.886816e+09	
28	-1.40000e+00	5.081701e+09	
29	-1.45000e+00	5.270421e+09	
30	-1.50000e+00	5.453426e+09	
31	-1.55000e+00	5.631116e+09	
32	-1.60000e+00	5.803842e+09	
33	-1.65000e+00	5.971918e+09	
34	-1.70000e+00	6.135622e+09	
35	-1.75000e+00	6.295204e+09	
36	-1.80000e+00	6.450885e+09	
37	-1.85000e+00	6.602864e+09	
38	-1.90000e+00	6.751316e+09	
39	-1.95000e+00	6.896395e+09	
40	-2.00000e+00	7.038231e+09	
41	-2.05000e+00	7.176927e+09	
42	-2.10000e+00	7.312559e+09	
43	-2.15000e+00	7.445167e+09	
44	-2.20000e+00	7.574751e+09	
45	-2.25000e+00	7.701257e+09	
46	-2.30000e+00	7.824573e+09	
47	-2.35000e+00	7.944510e+09	
48	-2.40000e+00	8.060791e+09	
49	-2.45000e+00	8.173034e+09	
50	-2.50000e+00	8.280739e+09	
51	-2.55000e+00	8.383266e+09	
52	-2.60000e+00	8.479822e+09	
53	-2.65000e+00	8.569449e+09	
54	-2.70000e+00	8.651012e+09	

Index   v-sweep         rds             
--------------------------------------------------------------------------------
55	-2.75000e+00	8.723193e+09	
56	-2.80000e+00	8.784497e+09	
57	-2.85000e+00	8.833263e+09	
58	-2.90000e+00	8.867690e+09	
59	-2.95000e+00	8.885873e+09	
60	-3.00000e+00	8.885861e+09	
61	-3.05000e+00	8.865725e+09	
62	-3.10000e+00	8.823642e+09	
63	-3.15000e+00	8.757993e+09	
64	-3.20000e+00	8.667465e+09	
65	-3.25000e+00	8.551153e+09	
66	-3.30000e+00	8.408652e+09	
Reset re-loads circuit ***************************

Circuit: ***************************

Doing analysis at TEMP = -40.000000 and TNOM = -40.000000


No. of Data Rows : 67
                          ***************************
                          DC transfer characteristic  Mon Jan  9 13:57:32  2023
--------------------------------------------------------------------------------
Index   v-sweep         rds             
--------------------------------------------------------------------------------
0	0.000000e+00	8.875286e+05	
1	-5.00000e-02	9.607383e+05	
2	-1.00000e-01	1.047027e+06	
3	-1.50000e-01	1.150227e+06	
4	-2.00000e-01	1.275819e+06	
5	-2.50000e-01	1.431912e+06	
6	-3.00000e-01	1.630997e+06	
7	-3.50000e-01	1.893280e+06	
8	-4.00000e-01	2.253438e+06	
9	-4.50000e-01	2.775340e+06	
10	-5.00000e-01	3.586715e+06	
11	-5.50000e-01	4.965948e+06	
12	-6.00000e-01	7.559817e+06	
13	-6.50000e-01	1.285076e+07	
14	-7.00000e-01	2.374476e+07	
15	-7.50000e-01	4.439411e+07	
16	-8.00000e-01	7.855618e+07	
17	-8.50000e-01	1.276986e+08	
18	-9.00000e-01	1.904913e+08	
19	-9.50000e-01	2.637282e+08	
20	-1.00000e+00	3.436742e+08	
21	-1.05000e+00	4.270330e+08	
22	-1.10000e+00	5.113429e+08	
23	-1.15000e+00	5.949771e+08	
24	-1.20000e+00	6.769711e+08	
25	-1.25000e+00	7.568238e+08	
26	-1.30000e+00	8.343315e+08	
27	-1.35000e+00	9.094684e+08	
28	-1.40000e+00	9.823076e+08	
29	-1.45000e+00	1.052972e+09	
30	-1.50000e+00	1.121606e+09	
31	-1.55000e+00	1.188356e+09	
32	-1.60000e+00	1.253363e+09	
33	-1.65000e+00	1.316758e+09	
34	-1.70000e+00	1.378662e+09	
35	-1.75000e+00	1.439181e+09	
36	-1.80000e+00	1.498413e+09	
37	-1.85000e+00	1.556443e+09	
38	-1.90000e+00	1.613348e+09	
39	-1.95000e+00	1.669194e+09	
40	-2.00000e+00	1.724044e+09	
41	-2.05000e+00	1.777950e+09	
42	-2.10000e+00	1.830961e+09	
43	-2.15000e+00	1.883118e+09	
44	-2.20000e+00	1.934460e+09	
45	-2.25000e+00	1.985017e+09	
46	-2.30000e+00	2.034817e+09	
47	-2.35000e+00	2.083879e+09	
48	-2.40000e+00	2.132214e+09	
49	-2.45000e+00	2.179826e+09	
50	-2.50000e+00	2.226703e+09	
51	-2.55000e+00	2.272821e+09	
52	-2.60000e+00	2.318134e+09	
53	-2.65000e+00	2.362572e+09	
54	-2.70000e+00	2.406038e+09	

Index   v-sweep         rds             
--------------------------------------------------------------------------------
55	-2.75000e+00	2.448394e+09	
56	-2.80000e+00	2.489464e+09	
57	-2.85000e+00	2.529018e+09	
58	-2.90000e+00	2.566771e+09	
59	-2.95000e+00	2.602373e+09	
60	-3.00000e+00	2.635407e+09	
61	-3.05000e+00	2.665380e+09	
62	-3.10000e+00	2.691728e+09	
63	-3.15000e+00	2.713815e+09	
64	-3.20000e+00	2.730946e+09	
65	-3.25000e+00	2.742378e+09	
66	-3.30000e+00	2.747341e+09	
Reset re-loads circuit ***************************

Circuit: ***************************

Doing analysis at TEMP = -40.000000 and TNOM = -40.000000


No. of Data Rows : 67
                          ***************************
                          DC transfer characteristic  Mon Jan  9 13:57:32  2023
--------------------------------------------------------------------------------
Index   v-sweep         rds             
--------------------------------------------------------------------------------
0	0.000000e+00	6.021252e+05	
1	-5.00000e-02	6.335553e+05	
2	-1.00000e-01	6.684224e+05	
3	-1.50000e-01	7.073218e+05	
4	-2.00000e-01	7.509949e+05	
5	-2.50000e-01	8.003757e+05	
6	-3.00000e-01	8.566581e+05	
7	-3.50000e-01	9.213923e+05	
8	-4.00000e-01	9.966273e+05	
9	-4.50000e-01	1.085127e+06	
10	-5.00000e-01	1.190707e+06	
11	-5.50000e-01	1.318780e+06	
12	-6.00000e-01	1.477263e+06	
13	-6.50000e-01	1.678167e+06	
14	-7.00000e-01	1.940495e+06	
15	-7.50000e-01	2.295796e+06	
16	-8.00000e-01	2.799337e+06	
17	-8.50000e-01	3.553442e+06	
18	-9.00000e-01	4.756595e+06	
19	-9.50000e-01	6.800157e+06	
20	-1.00000e+00	1.041994e+07	
21	-1.05000e+00	1.681230e+07	
22	-1.10000e+00	2.747915e+07	
23	-1.15000e+00	4.369379e+07	
24	-1.20000e+00	6.592834e+07	
25	-1.25000e+00	9.369153e+07	
26	-1.30000e+00	1.258174e+08	
27	-1.35000e+00	1.609148e+08	
28	-1.40000e+00	1.977129e+08	
29	-1.45000e+00	2.352223e+08	
30	-1.50000e+00	2.727551e+08	
31	-1.55000e+00	3.098762e+08	
32	-1.60000e+00	3.463356e+08	
33	-1.65000e+00	3.820087e+08	
34	-1.70000e+00	4.168502e+08	
35	-1.75000e+00	4.508623e+08	
36	-1.80000e+00	4.840737e+08	
37	-1.85000e+00	5.165265e+08	
38	-1.90000e+00	5.482683e+08	
39	-1.95000e+00	5.793474e+08	
40	-2.00000e+00	6.098102e+08	
41	-2.05000e+00	6.397002e+08	
42	-2.10000e+00	6.690571e+08	
43	-2.15000e+00	6.979170e+08	
44	-2.20000e+00	7.263122e+08	
45	-2.25000e+00	7.542718e+08	
46	-2.30000e+00	7.818216e+08	
47	-2.35000e+00	8.089848e+08	
48	-2.40000e+00	8.357820e+08	
49	-2.45000e+00	8.622316e+08	
50	-2.50000e+00	8.883498e+08	
51	-2.55000e+00	9.141504e+08	
52	-2.60000e+00	9.396453e+08	
53	-2.65000e+00	9.648437e+08	
54	-2.70000e+00	9.897519e+08	

Index   v-sweep         rds             
--------------------------------------------------------------------------------
55	-2.75000e+00	1.014372e+09	
56	-2.80000e+00	1.038703e+09	
57	-2.85000e+00	1.062735e+09	
58	-2.90000e+00	1.086453e+09	
59	-2.95000e+00	1.109830e+09	
60	-3.00000e+00	1.132827e+09	
61	-3.05000e+00	1.155389e+09	
62	-3.10000e+00	1.177444e+09	
63	-3.15000e+00	1.198893e+09	
64	-3.20000e+00	1.219614e+09	
65	-3.25000e+00	1.239451e+09	
66	-3.30000e+00	1.258216e+09	
Reset re-loads circuit ***************************

Circuit: ***************************

Doing analysis at TEMP = -40.000000 and TNOM = -40.000000


No. of Data Rows : 67
                          ***************************
                          DC transfer characteristic  Mon Jan  9 13:57:32  2023
--------------------------------------------------------------------------------
Index   v-sweep         rds             
--------------------------------------------------------------------------------
0	0.000000e+00	4.652042e+05	
1	-5.00000e-02	4.827078e+05	
2	-1.00000e-01	5.015679e+05	
3	-1.50000e-01	5.219484e+05	
4	-2.00000e-01	5.440408e+05	
5	-2.50000e-01	5.680698e+05	
6	-3.00000e-01	5.943017e+05	
7	-3.50000e-01	6.230534e+05	
8	-4.00000e-01	6.547058e+05	
9	-4.50000e-01	6.897203e+05	
10	-5.00000e-01	7.286614e+05	
11	-5.50000e-01	7.722270e+05	
12	-6.00000e-01	8.212898e+05	
13	-6.50000e-01	8.769557e+05	
14	-7.00000e-01	9.406463e+05	
15	-7.50000e-01	1.014219e+06	
16	-8.00000e-01	1.100144e+06	
17	-8.50000e-01	1.201780e+06	
18	-9.00000e-01	1.323792e+06	
19	-9.50000e-01	1.472846e+06	
20	-1.00000e+00	1.658751e+06	
21	-1.05000e+00	1.896443e+06	
22	-1.10000e+00	2.209531e+06	
23	-1.15000e+00	2.636843e+06	
24	-1.20000e+00	3.244713e+06	
25	-1.25000e+00	4.149796e+06	
26	-1.30000e+00	5.558441e+06	
27	-1.35000e+00	7.822013e+06	
28	-1.40000e+00	1.147908e+07	
29	-1.45000e+00	1.721190e+07	
30	-1.50000e+00	2.566184e+07	
31	-1.55000e+00	3.718000e+07	
32	-1.60000e+00	5.168781e+07	
33	-1.65000e+00	6.873347e+07	
34	-1.70000e+00	8.767221e+07	
35	-1.75000e+00	1.078470e+08	
36	-1.80000e+00	1.287003e+08	
37	-1.85000e+00	1.498134e+08	
38	-1.90000e+00	1.708993e+08	
39	-1.95000e+00	1.917766e+08	
40	-2.00000e+00	2.123405e+08	
41	-2.05000e+00	2.325380e+08	
42	-2.10000e+00	2.523490e+08	
43	-2.15000e+00	2.717739e+08	
44	-2.20000e+00	2.908246e+08	
45	-2.25000e+00	3.095190e+08	
46	-2.30000e+00	3.278779e+08	
47	-2.35000e+00	3.459225e+08	
48	-2.40000e+00	3.636737e+08	
49	-2.45000e+00	3.811509e+08	
50	-2.50000e+00	3.983723e+08	
51	-2.55000e+00	4.153544e+08	
52	-2.60000e+00	4.321121e+08	
53	-2.65000e+00	4.486590e+08	
54	-2.70000e+00	4.650071e+08	

Index   v-sweep         rds             
--------------------------------------------------------------------------------
55	-2.75000e+00	4.811672e+08	
56	-2.80000e+00	4.971489e+08	
57	-2.85000e+00	5.129609e+08	
58	-2.90000e+00	5.286106e+08	
59	-2.95000e+00	5.441041e+08	
60	-3.00000e+00	5.594464e+08	
61	-3.05000e+00	5.746410e+08	
62	-3.10000e+00	5.896892e+08	
63	-3.15000e+00	6.045898e+08	
64	-3.20000e+00	6.193385e+08	
65	-3.25000e+00	6.339264e+08	
66	-3.30000e+00	6.483392e+08	
Reset re-loads circuit ***************************

Circuit: ***************************

Doing analysis at TEMP = -40.000000 and TNOM = -40.000000


No. of Data Rows : 67
                          ***************************
                          DC transfer characteristic  Mon Jan  9 13:57:32  2023
--------------------------------------------------------------------------------
Index   v-sweep         rds             
--------------------------------------------------------------------------------
0	0.000000e+00	3.862133e+05	
1	-5.00000e-02	3.974343e+05	
2	-1.00000e-01	4.093194e+05	
3	-1.50000e-01	4.219297e+05	
4	-2.00000e-01	4.353334e+05	
5	-2.50000e-01	4.496078e+05	
6	-3.00000e-01	4.648405e+05	
7	-3.50000e-01	4.811315e+05	
8	-4.00000e-01	4.985947e+05	
9	-4.50000e-01	5.173615e+05	
10	-5.00000e-01	5.375831e+05	
11	-5.50000e-01	5.594356e+05	
12	-6.00000e-01	5.831241e+05	
13	-6.50000e-01	6.088898e+05	
14	-7.00000e-01	6.370181e+05	
15	-7.50000e-01	6.678488e+05	
16	-8.00000e-01	7.017899e+05	
17	-8.50000e-01	7.393358e+05	
18	-9.00000e-01	7.810908e+05	
19	-9.50000e-01	8.278015e+05	
20	-1.00000e+00	8.804009e+05	
21	-1.05000e+00	9.400696e+05	
22	-1.10000e+00	1.008323e+06	
23	-1.15000e+00	1.087135e+06	
24	-1.20000e+00	1.179128e+06	
25	-1.25000e+00	1.287843e+06	
26	-1.30000e+00	1.418182e+06	
27	-1.35000e+00	1.577081e+06	
28	-1.40000e+00	1.774636e+06	
29	-1.45000e+00	2.025960e+06	
30	-1.50000e+00	2.354375e+06	
31	-1.55000e+00	2.796923e+06	
32	-1.60000e+00	3.413834e+06	
33	-1.65000e+00	4.304008e+06	
34	-1.70000e+00	5.627297e+06	
35	-1.75000e+00	7.627659e+06	
36	-1.80000e+00	1.063669e+07	
37	-1.85000e+00	1.502672e+07	
38	-1.90000e+00	2.110620e+07	
39	-1.95000e+00	2.900704e+07	
40	-2.00000e+00	3.863700e+07	
41	-2.05000e+00	4.972201e+07	
42	-2.10000e+00	6.189905e+07	
43	-2.15000e+00	7.480469e+07	
44	-2.20000e+00	8.812948e+07	
45	-2.25000e+00	1.016375e+08	
46	-2.30000e+00	1.151634e+08	
47	-2.35000e+00	1.285993e+08	
48	-2.40000e+00	1.418798e+08	
49	-2.45000e+00	1.549694e+08	
50	-2.50000e+00	1.678519e+08	
51	-2.55000e+00	1.805237e+08	
52	-2.60000e+00	1.929883e+08	
53	-2.65000e+00	2.052539e+08	
54	-2.70000e+00	2.173303e+08	

Index   v-sweep         rds             
--------------------------------------------------------------------------------
55	-2.75000e+00	2.292286e+08	
56	-2.80000e+00	2.409596e+08	
57	-2.85000e+00	2.525339e+08	
58	-2.90000e+00	2.639614e+08	
59	-2.95000e+00	2.752513e+08	
60	-3.00000e+00	2.864118e+08	
61	-3.05000e+00	2.974506e+08	
62	-3.10000e+00	3.083745e+08	
63	-3.15000e+00	3.191898e+08	
64	-3.20000e+00	3.299018e+08	
65	-3.25000e+00	3.405155e+08	
66	-3.30000e+00	3.510350e+08	
Reset re-loads circuit ***************************

Circuit: ***************************

Note: No ".plot", ".print", or ".fourier" lines; no simulations run
