
Note: Compatibility modes selected: hs

Warning: m=xx on .subckt line will override multiplier m hierarchy!


Circuit: ***************************

Doing analysis at TEMP = -40.000000 and TNOM = -40.000000


No. of Data Rows : 67
                          ***************************
                          DC transfer characteristic  Mon Jan  9 13:57:30  2023
--------------------------------------------------------------------------------
Index   v-sweep         rds             
--------------------------------------------------------------------------------
0	0.000000e+00	3.316223e+06	
1	-5.00000e-02	3.973039e+07	
2	-1.00000e-01	3.724233e+08	
3	-1.50000e-01	1.401992e+09	
4	-2.00000e-01	3.256569e+09	
5	-2.50000e-01	5.700618e+09	
6	-3.00000e-01	8.337135e+09	
7	-3.50000e-01	1.084585e+10	
8	-4.00000e-01	1.306568e+10	
9	-4.50000e-01	1.495814e+10	
10	-5.00000e-01	1.654738e+10	
11	-5.50000e-01	1.787911e+10	
12	-6.00000e-01	1.900053e+10	
13	-6.50000e-01	1.995280e+10	
14	-7.00000e-01	2.076939e+10	
15	-7.50000e-01	2.147672e+10	
16	-8.00000e-01	2.209538e+10	
17	-8.50000e-01	2.264143e+10	
18	-9.00000e-01	2.312741e+10	
19	-9.50000e-01	2.356319e+10	
20	-1.00000e+00	2.395661e+10	
21	-1.05000e+00	2.431398e+10	
22	-1.10000e+00	2.464036e+10	
23	-1.15000e+00	2.493992e+10	
24	-1.20000e+00	2.521608e+10	
25	-1.25000e+00	2.547169e+10	
26	-1.30000e+00	2.570913e+10	
27	-1.35000e+00	2.593041e+10	
28	-1.40000e+00	2.613727e+10	
29	-1.45000e+00	2.633115e+10	
30	-1.50000e+00	2.651333e+10	
31	-1.55000e+00	2.668490e+10	
32	-1.60000e+00	2.684682e+10	
33	-1.65000e+00	2.699990e+10	
34	-1.70000e+00	2.714488e+10	
35	-1.75000e+00	2.728237e+10	
36	-1.80000e+00	2.741291e+10	
37	-1.85000e+00	2.753696e+10	
38	-1.90000e+00	2.765490e+10	
39	-1.95000e+00	2.776701e+10	
40	-2.00000e+00	2.787354e+10	
41	-2.05000e+00	2.797460e+10	
42	-2.10000e+00	2.807025e+10	
43	-2.15000e+00	2.816044e+10	
44	-2.20000e+00	2.824505e+10	
45	-2.25000e+00	2.832382e+10	
46	-2.30000e+00	2.839640e+10	
47	-2.35000e+00	2.846231e+10	
48	-2.40000e+00	2.852097e+10	
49	-2.45000e+00	2.857164e+10	
50	-2.50000e+00	2.861348e+10	
51	-2.55000e+00	2.864550e+10	
52	-2.60000e+00	2.866659e+10	
53	-2.65000e+00	2.867551e+10	
54	-2.70000e+00	2.867090e+10	

Index   v-sweep         rds             
--------------------------------------------------------------------------------
55	-2.75000e+00	2.865130e+10	
56	-2.80000e+00	2.861516e+10	
57	-2.85000e+00	2.856086e+10	
58	-2.90000e+00	2.848674e+10	
59	-2.95000e+00	2.839111e+10	
60	-3.00000e+00	2.827231e+10	
61	-3.05000e+00	2.812873e+10	
62	-3.10000e+00	2.795886e+10	
63	-3.15000e+00	2.776131e+10	
64	-3.20000e+00	2.753490e+10	
65	-3.25000e+00	2.727865e+10	
66	-3.30000e+00	2.699184e+10	
Reset re-loads circuit ***************************

Circuit: ***************************

Doing analysis at TEMP = -40.000000 and TNOM = -40.000000


No. of Data Rows : 67
                          ***************************
                          DC transfer characteristic  Mon Jan  9 13:57:30  2023
--------------------------------------------------------------------------------
Index   v-sweep         rds             
--------------------------------------------------------------------------------
0	0.000000e+00	9.307662e+04	
1	-5.00000e-02	1.104181e+05	
2	-1.00000e-01	1.355788e+05	
3	-1.50000e-01	1.751515e+05	
4	-2.00000e-01	2.451591e+05	
5	-2.50000e-01	3.919826e+05	
6	-3.00000e-01	7.701366e+05	
7	-3.50000e-01	1.858938e+06	
8	-4.00000e-01	4.659581e+06	
9	-4.50000e-01	1.034464e+07	
10	-5.00000e-01	1.958493e+07	
11	-5.50000e-01	3.225016e+07	
12	-6.00000e-01	4.758940e+07	
13	-6.50000e-01	6.461561e+07	
14	-7.00000e-01	8.242122e+07	
15	-7.50000e-01	1.003246e+08	
16	-8.00000e-01	1.178842e+08	
17	-8.50000e-01	1.348507e+08	
18	-9.00000e-01	1.511075e+08	
19	-9.50000e-01	1.666206e+08	
20	-1.00000e+00	1.814032e+08	
21	-1.05000e+00	1.954928e+08	
22	-1.10000e+00	2.089373e+08	
23	-1.15000e+00	2.217877e+08	
24	-1.20000e+00	2.340934e+08	
25	-1.25000e+00	2.459006e+08	
26	-1.30000e+00	2.572511e+08	
27	-1.35000e+00	2.681826e+08	
28	-1.40000e+00	2.787283e+08	
29	-1.45000e+00	2.889179e+08	
30	-1.50000e+00	2.987777e+08	
31	-1.55000e+00	3.083309e+08	
32	-1.60000e+00	3.175981e+08	
33	-1.65000e+00	3.265977e+08	
34	-1.70000e+00	3.353462e+08	
35	-1.75000e+00	3.438582e+08	
36	-1.80000e+00	3.521468e+08	
37	-1.85000e+00	3.602238e+08	
38	-1.90000e+00	3.680995e+08	
39	-1.95000e+00	3.757829e+08	
40	-2.00000e+00	3.832819e+08	
41	-2.05000e+00	3.906026e+08	
42	-2.10000e+00	3.977494e+08	
43	-2.15000e+00	4.047251e+08	
44	-2.20000e+00	4.115295e+08	
45	-2.25000e+00	4.181601e+08	
46	-2.30000e+00	4.246103e+08	
47	-2.35000e+00	4.308699e+08	
48	-2.40000e+00	4.369231e+08	
49	-2.45000e+00	4.427487e+08	
50	-2.50000e+00	4.483186e+08	
51	-2.55000e+00	4.535970e+08	
52	-2.60000e+00	4.585398e+08	
53	-2.65000e+00	4.630937e+08	
54	-2.70000e+00	4.671956e+08	

Index   v-sweep         rds             
--------------------------------------------------------------------------------
55	-2.75000e+00	4.707729e+08	
56	-2.80000e+00	4.737432e+08	
57	-2.85000e+00	4.760157e+08	
58	-2.90000e+00	4.774922e+08	
59	-2.95000e+00	4.780697e+08	
60	-3.00000e+00	4.776436e+08	
61	-3.05000e+00	4.761113e+08	
62	-3.10000e+00	4.733776e+08	
63	-3.15000e+00	4.693593e+08	
64	-3.20000e+00	4.639914e+08	
65	-3.25000e+00	4.572321e+08	
66	-3.30000e+00	4.490678e+08	
Reset re-loads circuit ***************************

Circuit: ***************************

Doing analysis at TEMP = -40.000000 and TNOM = -40.000000


No. of Data Rows : 67
                          ***************************
                          DC transfer characteristic  Mon Jan  9 13:57:31  2023
--------------------------------------------------------------------------------
Index   v-sweep         rds             
--------------------------------------------------------------------------------
0	0.000000e+00	4.683696e+04	
1	-5.00000e-02	5.068597e+04	
2	-1.00000e-01	5.521991e+04	
3	-1.50000e-01	6.063867e+04	
4	-2.00000e-01	6.722765e+04	
5	-2.50000e-01	7.540839e+04	
6	-3.00000e-01	8.582900e+04	
7	-3.50000e-01	9.953542e+04	
8	-4.00000e-01	1.183172e+05	
9	-4.50000e-01	1.454588e+05	
10	-5.00000e-01	1.875024e+05	
11	-5.50000e-01	2.586522e+05	
12	-6.00000e-01	3.918570e+05	
13	-6.50000e-01	6.629968e+05	
14	-7.00000e-01	1.223183e+06	
15	-7.50000e-01	2.295109e+06	
16	-8.00000e-01	4.092381e+06	
17	-8.50000e-01	6.716580e+06	
18	-9.00000e-01	1.011913e+07	
19	-9.50000e-01	1.414005e+07	
20	-1.00000e+00	1.857732e+07	
21	-1.05000e+00	2.324293e+07	
22	-1.10000e+00	2.799014e+07	
23	-1.15000e+00	3.271779e+07	
24	-1.20000e+00	3.736314e+07	
25	-1.25000e+00	4.189149e+07	
26	-1.30000e+00	4.628686e+07	
27	-1.35000e+00	5.054489e+07	
28	-1.40000e+00	5.466800e+07	
29	-1.45000e+00	5.866224e+07	
30	-1.50000e+00	6.253533e+07	
31	-1.55000e+00	6.629553e+07	
32	-1.60000e+00	6.995101e+07	
33	-1.65000e+00	7.350946e+07	
34	-1.70000e+00	7.697799e+07	
35	-1.75000e+00	8.036305e+07	
36	-1.80000e+00	8.367046e+07	
37	-1.85000e+00	8.690542e+07	
38	-1.90000e+00	9.007256e+07	
39	-1.95000e+00	9.317605e+07	
40	-2.00000e+00	9.621958e+07	
41	-2.05000e+00	9.920646e+07	
42	-2.10000e+00	1.021397e+08	
43	-2.15000e+00	1.050218e+08	
44	-2.20000e+00	1.078551e+08	
45	-2.25000e+00	1.106417e+08	
46	-2.30000e+00	1.133831e+08	
47	-2.35000e+00	1.160806e+08	
48	-2.40000e+00	1.187351e+08	
49	-2.45000e+00	1.213467e+08	
50	-2.50000e+00	1.239149e+08	
51	-2.55000e+00	1.264385e+08	
52	-2.60000e+00	1.289148e+08	
53	-2.65000e+00	1.313399e+08	
54	-2.70000e+00	1.337082e+08	

Index   v-sweep         rds             
--------------------------------------------------------------------------------
55	-2.75000e+00	1.360119e+08	
56	-2.80000e+00	1.382409e+08	
57	-2.85000e+00	1.403820e+08	
58	-2.90000e+00	1.424188e+08	
59	-2.95000e+00	1.443313e+08	
60	-3.00000e+00	1.460955e+08	
61	-3.05000e+00	1.476834e+08	
62	-3.10000e+00	1.490627e+08	
63	-3.15000e+00	1.501973e+08	
64	-3.20000e+00	1.510476e+08	
65	-3.25000e+00	1.515718e+08	
66	-3.30000e+00	1.517267e+08	
Reset re-loads circuit ***************************

Circuit: ***************************

Doing analysis at TEMP = -40.000000 and TNOM = -40.000000


No. of Data Rows : 67
                          ***************************
                          DC transfer characteristic  Mon Jan  9 13:57:31  2023
--------------------------------------------------------------------------------
Index   v-sweep         rds             
--------------------------------------------------------------------------------
0	0.000000e+00	3.281407e+04	
1	-5.00000e-02	3.450977e+04	
2	-1.00000e-01	3.638901e+04	
3	-1.50000e-01	3.848328e+04	
4	-2.00000e-01	4.083163e+04	
5	-2.50000e-01	4.348319e+04	
6	-3.00000e-01	4.650058e+04	
7	-3.50000e-01	4.996483e+04	
8	-4.00000e-01	5.398269e+04	
9	-4.50000e-01	5.869755e+04	
10	-5.00000e-01	6.430646e+04	
11	-5.50000e-01	7.108736e+04	
12	-6.00000e-01	7.944433e+04	
13	-6.50000e-01	8.998579e+04	
14	-7.00000e-01	1.036660e+05	
15	-7.50000e-01	1.220537e+05	
16	-8.00000e-01	1.478668e+05	
17	-8.50000e-01	1.860828e+05	
18	-9.00000e-01	2.462798e+05	
19	-9.50000e-01	3.473533e+05	
20	-1.00000e+00	5.254620e+05	
21	-1.05000e+00	8.419917e+05	
22	-1.10000e+00	1.380061e+06	
23	-1.15000e+00	2.219848e+06	
24	-1.20000e+00	3.404935e+06	
25	-1.25000e+00	4.925123e+06	
26	-1.30000e+00	6.725139e+06	
27	-1.35000e+00	8.727839e+06	
28	-1.40000e+00	1.085618e+07	
29	-1.45000e+00	1.304612e+07	
30	-1.50000e+00	1.525065e+07	
31	-1.55000e+00	1.743844e+07	
32	-1.60000e+00	1.959047e+07	
33	-1.65000e+00	2.169643e+07	
34	-1.70000e+00	2.375174e+07	
35	-1.75000e+00	2.575542e+07	
36	-1.80000e+00	2.770857e+07	
37	-1.85000e+00	2.961345e+07	
38	-1.90000e+00	3.147285e+07	
39	-1.95000e+00	3.328973e+07	
40	-2.00000e+00	3.506701e+07	
41	-2.05000e+00	3.680749e+07	
42	-2.10000e+00	3.851372e+07	
43	-2.15000e+00	4.018806e+07	
44	-2.20000e+00	4.183263e+07	
45	-2.25000e+00	4.344934e+07	
46	-2.30000e+00	4.503990e+07	
47	-2.35000e+00	4.660585e+07	
48	-2.40000e+00	4.814855e+07	
49	-2.45000e+00	4.966922e+07	
50	-2.50000e+00	5.116894e+07	
51	-2.55000e+00	5.264865e+07	
52	-2.60000e+00	5.410914e+07	
53	-2.65000e+00	5.555108e+07	
54	-2.70000e+00	5.697490e+07	

Index   v-sweep         rds             
--------------------------------------------------------------------------------
55	-2.75000e+00	5.838087e+07	
56	-2.80000e+00	5.976893e+07	
57	-2.85000e+00	6.113868e+07	
58	-2.90000e+00	6.248926e+07	
59	-2.95000e+00	6.381921e+07	
60	-3.00000e+00	6.512633e+07	
61	-3.05000e+00	6.640751e+07	
62	-3.10000e+00	6.765848e+07	
63	-3.15000e+00	6.887366e+07	
64	-3.20000e+00	7.004586e+07	
65	-3.25000e+00	7.116608e+07	
66	-3.30000e+00	7.222328e+07	
Reset re-loads circuit ***************************

Circuit: ***************************

Doing analysis at TEMP = -40.000000 and TNOM = -40.000000


No. of Data Rows : 67
                          ***************************
                          DC transfer characteristic  Mon Jan  9 13:57:31  2023
--------------------------------------------------------------------------------
Index   v-sweep         rds             
--------------------------------------------------------------------------------
0	0.000000e+00	2.621297e+04	
1	-5.00000e-02	2.718578e+04	
2	-1.00000e-01	2.823298e+04	
3	-1.50000e-01	2.936342e+04	
4	-2.00000e-01	3.058743e+04	
5	-2.50000e-01	3.191714e+04	
6	-3.00000e-01	3.336682e+04	
7	-3.50000e-01	3.495346e+04	
8	-4.00000e-01	3.669741e+04	
9	-4.50000e-01	3.862324e+04	
10	-5.00000e-01	4.076089e+04	
11	-5.50000e-01	4.314726e+04	
12	-6.00000e-01	4.582829e+04	
13	-6.50000e-01	4.886191e+04	
14	-7.00000e-01	5.232221e+04	
15	-7.50000e-01	5.630539e+04	
16	-8.00000e-01	6.093859e+04	
17	-8.50000e-01	6.639322e+04	
18	-9.00000e-01	7.290550e+04	
19	-9.50000e-01	8.080947e+04	
20	-1.00000e+00	9.059120e+04	
21	-1.05000e+00	1.029814e+05	
22	-1.10000e+00	1.191192e+05	
23	-1.15000e+00	1.408507e+05	
24	-1.20000e+00	1.712874e+05	
25	-1.25000e+00	2.158532e+05	
26	-1.30000e+00	2.841634e+05	
27	-1.35000e+00	3.929665e+05	
28	-1.40000e+00	5.693534e+05	
29	-1.45000e+00	8.510631e+05	
30	-1.50000e+00	1.279534e+06	
31	-1.55000e+00	1.886152e+06	
32	-1.60000e+00	2.679921e+06	
33	-1.65000e+00	3.644841e+06	
34	-1.70000e+00	4.747202e+06	
35	-1.75000e+00	5.946671e+06	
36	-1.80000e+00	7.205325e+06	
37	-1.85000e+00	8.492436e+06	
38	-1.90000e+00	9.785604e+06	
39	-1.95000e+00	1.106986e+07	
40	-2.00000e+00	1.233601e+07	
41	-2.05000e+00	1.357896e+07	
42	-2.10000e+00	1.479637e+07	
43	-2.15000e+00	1.598766e+07	
44	-2.20000e+00	1.715330e+07	
45	-2.25000e+00	1.829431e+07	
46	-2.30000e+00	1.941205e+07	
47	-2.35000e+00	2.050797e+07	
48	-2.40000e+00	2.158351e+07	
49	-2.45000e+00	2.264006e+07	
50	-2.50000e+00	2.367893e+07	
51	-2.55000e+00	2.470130e+07	
52	-2.60000e+00	2.570826e+07	
53	-2.65000e+00	2.670080e+07	
54	-2.70000e+00	2.767978e+07	

Index   v-sweep         rds             
--------------------------------------------------------------------------------
55	-2.75000e+00	2.864600e+07	
56	-2.80000e+00	2.960018e+07	
57	-2.85000e+00	3.054292e+07	
58	-2.90000e+00	3.147480e+07	
59	-2.95000e+00	3.239626e+07	
60	-3.00000e+00	3.330771e+07	
61	-3.05000e+00	3.420942e+07	
62	-3.10000e+00	3.510158e+07	
63	-3.15000e+00	3.598419e+07	
64	-3.20000e+00	3.685708e+07	
65	-3.25000e+00	3.771982e+07	
66	-3.30000e+00	3.857164e+07	
Reset re-loads circuit ***************************

Circuit: ***************************

Doing analysis at TEMP = -40.000000 and TNOM = -40.000000


No. of Data Rows : 67
                          ***************************
                          DC transfer characteristic  Mon Jan  9 13:57:31  2023
--------------------------------------------------------------------------------
Index   v-sweep         rds             
--------------------------------------------------------------------------------
0	0.000000e+00	2.247882e+04	
1	-5.00000e-02	2.312120e+04	
2	-1.00000e-01	2.380102e+04	
3	-1.50000e-01	2.452164e+04	
4	-2.00000e-01	2.528685e+04	
5	-2.50000e-01	2.610092e+04	
6	-3.00000e-01	2.696869e+04	
7	-3.50000e-01	2.789565e+04	
8	-4.00000e-01	2.888805e+04	
9	-4.50000e-01	2.995307e+04	
10	-5.00000e-01	3.109900e+04	
11	-5.50000e-01	3.233539e+04	
12	-6.00000e-01	3.367339e+04	
13	-6.50000e-01	3.512604e+04	
14	-7.00000e-01	3.670871e+04	
15	-7.50000e-01	3.843964e+04	
16	-8.00000e-01	4.034064e+04	
17	-8.50000e-01	4.243799e+04	
18	-9.00000e-01	4.476368e+04	
19	-9.50000e-01	4.735697e+04	
20	-1.00000e+00	5.026664e+04	
21	-1.05000e+00	5.355397e+04	
22	-1.10000e+00	5.729702e+04	
23	-1.15000e+00	6.159663e+04	
24	-1.20000e+00	6.658529e+04	
25	-1.25000e+00	7.244028e+04	
26	-1.30000e+00	7.940366e+04	
27	-1.35000e+00	8.781368e+04	
28	-1.40000e+00	9.815503e+04	
29	-1.45000e+00	1.111418e+05	
30	-1.50000e+00	1.278578e+05	
31	-1.55000e+00	1.499976e+05	
32	-1.60000e+00	1.802848e+05	
33	-1.65000e+00	2.231809e+05	
34	-1.70000e+00	2.860067e+05	
35	-1.75000e+00	3.804277e+05	
36	-1.80000e+00	5.236777e+05	
37	-1.85000e+00	7.379623e+05	
38	-1.90000e+00	1.046376e+06	
39	-1.95000e+00	1.465910e+06	
40	-2.00000e+00	2.001292e+06	
41	-2.05000e+00	2.643483e+06	
42	-2.10000e+00	3.373223e+06	
43	-2.15000e+00	4.166869e+06	
44	-2.20000e+00	5.001519e+06	
45	-2.25000e+00	5.858009e+06	
46	-2.30000e+00	6.721895e+06	
47	-2.35000e+00	7.583164e+06	
48	-2.40000e+00	8.435382e+06	
49	-2.45000e+00	9.274769e+06	
50	-2.50000e+00	1.009938e+07	
51	-2.55000e+00	1.090847e+07	
52	-2.60000e+00	1.170206e+07	
53	-2.65000e+00	1.248061e+07	
54	-2.70000e+00	1.324483e+07	

Index   v-sweep         rds             
--------------------------------------------------------------------------------
55	-2.75000e+00	1.399554e+07	
56	-2.80000e+00	1.473359e+07	
57	-2.85000e+00	1.545983e+07	
58	-2.90000e+00	1.617504e+07	
59	-2.95000e+00	1.687997e+07	
60	-3.00000e+00	1.757530e+07	
61	-3.05000e+00	1.826164e+07	
62	-3.10000e+00	1.893955e+07	
63	-3.15000e+00	1.960954e+07	
64	-3.20000e+00	2.027205e+07	
65	-3.25000e+00	2.092748e+07	
66	-3.30000e+00	2.157619e+07	
Reset re-loads circuit ***************************

Circuit: ***************************

Note: No ".plot", ".print", or ".fourier" lines; no simulations run
