
Note: Compatibility modes selected: hs

Warning: m=xx on .subckt line will override multiplier m hierarchy!


Circuit: ***************************

Doing analysis at TEMP = 25.000000 and TNOM = 25.000000


No. of Data Rows : 67
                          ***************************
                          DC transfer characteristic  Mon Jan  9 13:57:30  2023
--------------------------------------------------------------------------------
Index   v-sweep         rds             
--------------------------------------------------------------------------------
0	0.000000e+00	1.019291e+06	
1	-5.00000e-02	2.790890e+06	
2	-1.00000e-01	1.642463e+07	
3	-1.50000e-01	7.520718e+07	
4	-2.00000e-01	1.772622e+08	
5	-2.50000e-01	2.786198e+08	
6	-3.00000e-01	3.594146e+08	
7	-3.50000e-01	4.219460e+08	
8	-4.00000e-01	4.722297e+08	
9	-4.50000e-01	5.146628e+08	
10	-5.00000e-01	5.519316e+08	
11	-5.50000e-01	5.856343e+08	
12	-6.00000e-01	6.167406e+08	
13	-6.50000e-01	6.458595e+08	
14	-7.00000e-01	6.733886e+08	
15	-7.50000e-01	6.995980e+08	
16	-8.00000e-01	7.246781e+08	
17	-8.50000e-01	7.487681e+08	
18	-9.00000e-01	7.719733e+08	
19	-9.50000e-01	7.943759e+08	
20	-1.00000e+00	8.160414e+08	
21	-1.05000e+00	8.370240e+08	
22	-1.10000e+00	8.573690e+08	
23	-1.15000e+00	8.771154e+08	
24	-1.20000e+00	8.962968e+08	
25	-1.25000e+00	9.149432e+08	
26	-1.30000e+00	9.330812e+08	
27	-1.35000e+00	9.507350e+08	
28	-1.40000e+00	9.679263e+08	
29	-1.45000e+00	9.846751e+08	
30	-1.50000e+00	1.001000e+09	
31	-1.55000e+00	1.016918e+09	
32	-1.60000e+00	1.032444e+09	
33	-1.65000e+00	1.047592e+09	
34	-1.70000e+00	1.062376e+09	
35	-1.75000e+00	1.076805e+09	
36	-1.80000e+00	1.090888e+09	
37	-1.85000e+00	1.104632e+09	
38	-1.90000e+00	1.118040e+09	
39	-1.95000e+00	1.131110e+09	
40	-2.00000e+00	1.143837e+09	
41	-2.05000e+00	1.156210e+09	
42	-2.10000e+00	1.168209e+09	
43	-2.15000e+00	1.179810e+09	
44	-2.20000e+00	1.190974e+09	
45	-2.25000e+00	1.201655e+09	
46	-2.30000e+00	1.211791e+09	
47	-2.35000e+00	1.221309e+09	
48	-2.40000e+00	1.230119e+09	
49	-2.45000e+00	1.238113e+09	
50	-2.50000e+00	1.245169e+09	
51	-2.55000e+00	1.251145e+09	
52	-2.60000e+00	1.255886e+09	
53	-2.65000e+00	1.259217e+09	
54	-2.70000e+00	1.260955e+09	

Index   v-sweep         rds             
--------------------------------------------------------------------------------
55	-2.75000e+00	1.260905e+09	
56	-2.80000e+00	1.258868e+09	
57	-2.85000e+00	1.254647e+09	
58	-2.90000e+00	1.248054e+09	
59	-2.95000e+00	1.238917e+09	
60	-3.00000e+00	1.227092e+09	
61	-3.05000e+00	1.212465e+09	
62	-3.10000e+00	1.194968e+09	
63	-3.15000e+00	1.174583e+09	
64	-3.20000e+00	1.151346e+09	
65	-3.25000e+00	1.125351e+09	
66	-3.30000e+00	1.096753e+09	
Reset re-loads circuit ***************************

Circuit: ***************************

Doing analysis at TEMP = 25.000000 and TNOM = 25.000000


No. of Data Rows : 67
                          ***************************
                          DC transfer characteristic  Mon Jan  9 13:57:30  2023
--------------------------------------------------------------------------------
Index   v-sweep         rds             
--------------------------------------------------------------------------------
0	0.000000e+00	1.061894e+05	
1	-5.00000e-02	1.210489e+05	
2	-1.00000e-01	1.405961e+05	
3	-1.50000e-01	1.674245e+05	
4	-2.00000e-01	2.063945e+05	
5	-2.50000e-01	2.675800e+05	
6	-3.00000e-01	3.745117e+05	
7	-3.50000e-01	5.886046e+05	
8	-4.00000e-01	1.069866e+06	
9	-4.50000e-01	2.114895e+06	
10	-5.00000e-01	3.880447e+06	
11	-5.50000e-01	6.033353e+06	
12	-6.00000e-01	8.112071e+06	
13	-6.50000e-01	9.926166e+06	
14	-7.00000e-01	1.148651e+07	
15	-7.50000e-01	1.285724e+07	
16	-8.00000e-01	1.409598e+07	
17	-8.50000e-01	1.524349e+07	
18	-9.00000e-01	1.632676e+07	
19	-9.50000e-01	1.736345e+07	
20	-1.00000e+00	1.836521e+07	
21	-1.05000e+00	1.933990e+07	
22	-1.10000e+00	2.029292e+07	
23	-1.15000e+00	2.122807e+07	
24	-1.20000e+00	2.214807e+07	
25	-1.25000e+00	2.305494e+07	
26	-1.30000e+00	2.395017e+07	
27	-1.35000e+00	2.483489e+07	
28	-1.40000e+00	2.570999e+07	
29	-1.45000e+00	2.657617e+07	
30	-1.50000e+00	2.743398e+07	
31	-1.55000e+00	2.828388e+07	
32	-1.60000e+00	2.912625e+07	
33	-1.65000e+00	2.996139e+07	
34	-1.70000e+00	3.078957e+07	
35	-1.75000e+00	3.161102e+07	
36	-1.80000e+00	3.242592e+07	
37	-1.85000e+00	3.323444e+07	
38	-1.90000e+00	3.403671e+07	
39	-1.95000e+00	3.483284e+07	
40	-2.00000e+00	3.562289e+07	
41	-2.05000e+00	3.640686e+07	
42	-2.10000e+00	3.718470e+07	
43	-2.15000e+00	3.795626e+07	
44	-2.20000e+00	3.872124e+07	
45	-2.25000e+00	3.947918e+07	
46	-2.30000e+00	4.022938e+07	
47	-2.35000e+00	4.097084e+07	
48	-2.40000e+00	4.170214e+07	
49	-2.45000e+00	4.242141e+07	
50	-2.50000e+00	4.312617e+07	
51	-2.55000e+00	4.381323e+07	
52	-2.60000e+00	4.447855e+07	
53	-2.65000e+00	4.511713e+07	
54	-2.70000e+00	4.572289e+07	

Index   v-sweep         rds             
--------------------------------------------------------------------------------
55	-2.75000e+00	4.628855e+07	
56	-2.80000e+00	4.680557e+07	
57	-2.85000e+00	4.726412e+07	
58	-2.90000e+00	4.765315e+07	
59	-2.95000e+00	4.796045e+07	
60	-3.00000e+00	4.817294e+07	
61	-3.05000e+00	4.827699e+07	
62	-3.10000e+00	4.825890e+07	
63	-3.15000e+00	4.810554e+07	
64	-3.20000e+00	4.780500e+07	
65	-3.25000e+00	4.734746e+07	
66	-3.30000e+00	4.672591e+07	
Reset re-loads circuit ***************************

Circuit: ***************************

Doing analysis at TEMP = 25.000000 and TNOM = 25.000000


No. of Data Rows : 67
                          ***************************
                          DC transfer characteristic  Mon Jan  9 13:57:30  2023
--------------------------------------------------------------------------------
Index   v-sweep         rds             
--------------------------------------------------------------------------------
0	0.000000e+00	5.715534e+04	
1	-5.00000e-02	6.112798e+04	
2	-1.00000e-01	6.566992e+04	
3	-1.50000e-01	7.091261e+04	
4	-2.00000e-01	7.703114e+04	
5	-2.50000e-01	8.426383e+04	
6	-3.00000e-01	9.294323e+04	
7	-3.50000e-01	1.035471e+05	
8	-4.00000e-01	1.167854e+05	
9	-4.50000e-01	1.337557e+05	
10	-5.00000e-01	1.562358e+05	
11	-5.50000e-01	1.872598e+05	
12	-6.00000e-01	2.323084e+05	
13	-6.50000e-01	3.017848e+05	
14	-7.00000e-01	4.157113e+05	
15	-7.50000e-01	6.093207e+05	
16	-8.00000e-01	9.267643e+05	
17	-8.50000e-01	1.382255e+06	
18	-9.00000e-01	1.923904e+06	
19	-9.50000e-01	2.471966e+06	
20	-1.00000e+00	2.978243e+06	
21	-1.05000e+00	3.432558e+06	
22	-1.10000e+00	3.842405e+06	
23	-1.15000e+00	4.218688e+06	
24	-1.20000e+00	4.570648e+06	
25	-1.25000e+00	4.905054e+06	
26	-1.30000e+00	5.226620e+06	
27	-1.35000e+00	5.538595e+06	
28	-1.40000e+00	5.843228e+06	
29	-1.45000e+00	6.142093e+06	
30	-1.50000e+00	6.436312e+06	
31	-1.55000e+00	6.726694e+06	
32	-1.60000e+00	7.013837e+06	
33	-1.65000e+00	7.298184e+06	
34	-1.70000e+00	7.580074e+06	
35	-1.75000e+00	7.859766e+06	
36	-1.80000e+00	8.137465e+06	
37	-1.85000e+00	8.413330e+06	
38	-1.90000e+00	8.687489e+06	
39	-1.95000e+00	8.960047e+06	
40	-2.00000e+00	9.231089e+06	
41	-2.05000e+00	9.500686e+06	
42	-2.10000e+00	9.768895e+06	
43	-2.15000e+00	1.003576e+07	
44	-2.20000e+00	1.030134e+07	
45	-2.25000e+00	1.056564e+07	
46	-2.30000e+00	1.082870e+07	
47	-2.35000e+00	1.109052e+07	
48	-2.40000e+00	1.135110e+07	
49	-2.45000e+00	1.161041e+07	
50	-2.50000e+00	1.186840e+07	
51	-2.55000e+00	1.212497e+07	
52	-2.60000e+00	1.237997e+07	
53	-2.65000e+00	1.263317e+07	
54	-2.70000e+00	1.288425e+07	

Index   v-sweep         rds             
--------------------------------------------------------------------------------
55	-2.75000e+00	1.313276e+07	
56	-2.80000e+00	1.337807e+07	
57	-2.85000e+00	1.361939e+07	
58	-2.90000e+00	1.385565e+07	
59	-2.95000e+00	1.408553e+07	
60	-3.00000e+00	1.430734e+07	
61	-3.05000e+00	1.451904e+07	
62	-3.10000e+00	1.471815e+07	
63	-3.15000e+00	1.490176e+07	
64	-3.20000e+00	1.506648e+07	
65	-3.25000e+00	1.520846e+07	
66	-3.30000e+00	1.532344e+07	
Reset re-loads circuit ***************************

Circuit: ***************************

Doing analysis at TEMP = 25.000000 and TNOM = 25.000000


No. of Data Rows : 67
                          ***************************
                          DC transfer characteristic  Mon Jan  9 13:57:30  2023
--------------------------------------------------------------------------------
Index   v-sweep         rds             
--------------------------------------------------------------------------------
0	0.000000e+00	4.068600e+04	
1	-5.00000e-02	4.255816e+04	
2	-1.00000e-01	4.460112e+04	
3	-1.50000e-01	4.683936e+04	
4	-2.00000e-01	4.930222e+04	
5	-2.50000e-01	5.202526e+04	
6	-3.00000e-01	5.505189e+04	
7	-3.50000e-01	5.843577e+04	
8	-4.00000e-01	6.224391e+04	
9	-4.50000e-01	6.656111e+04	
10	-5.00000e-01	7.149623e+04	
11	-5.50000e-01	7.719132e+04	
12	-6.00000e-01	8.383500e+04	
13	-6.50000e-01	9.168305e+04	
14	-7.00000e-01	1.010903e+05	
15	-7.50000e-01	1.125619e+05	
16	-8.00000e-01	1.268385e+05	
17	-8.50000e-01	1.450406e+05	
18	-9.00000e-01	1.689209e+05	
19	-9.50000e-01	2.013040e+05	
20	-1.00000e+00	2.468222e+05	
21	-1.05000e+00	3.129438e+05	
22	-1.10000e+00	4.105985e+05	
23	-1.15000e+00	5.518691e+05	
24	-1.20000e+00	7.416721e+05	
25	-1.25000e+00	9.686632e+05	
26	-1.30000e+00	1.209438e+06	
27	-1.35000e+00	1.443631e+06	
28	-1.40000e+00	1.661859e+06	
29	-1.45000e+00	1.863166e+06	
30	-1.50000e+00	2.050146e+06	
31	-1.55000e+00	2.226023e+06	
32	-1.60000e+00	2.393572e+06	
33	-1.65000e+00	2.554904e+06	
34	-1.70000e+00	2.711556e+06	
35	-1.75000e+00	2.864629e+06	
36	-1.80000e+00	3.014911e+06	
37	-1.85000e+00	3.162972e+06	
38	-1.90000e+00	3.309228e+06	
39	-1.95000e+00	3.453984e+06	
40	-2.00000e+00	3.597472e+06	
41	-2.05000e+00	3.739866e+06	
42	-2.10000e+00	3.881300e+06	
43	-2.15000e+00	4.021878e+06	
44	-2.20000e+00	4.161683e+06	
45	-2.25000e+00	4.300781e+06	
46	-2.30000e+00	4.439224e+06	
47	-2.35000e+00	4.577054e+06	
48	-2.40000e+00	4.714307e+06	
49	-2.45000e+00	4.851011e+06	
50	-2.50000e+00	4.987191e+06	
51	-2.55000e+00	5.122867e+06	
52	-2.60000e+00	5.258052e+06	
53	-2.65000e+00	5.392759e+06	
54	-2.70000e+00	5.526993e+06	

Index   v-sweep         rds             
--------------------------------------------------------------------------------
55	-2.75000e+00	5.660754e+06	
56	-2.80000e+00	5.794031e+06	
57	-2.85000e+00	5.926803e+06	
58	-2.90000e+00	6.059029e+06	
59	-2.95000e+00	6.190643e+06	
60	-3.00000e+00	6.321545e+06	
61	-3.05000e+00	6.451592e+06	
62	-3.10000e+00	6.580579e+06	
63	-3.15000e+00	6.708227e+06	
64	-3.20000e+00	6.834162e+06	
65	-3.25000e+00	6.957894e+06	
66	-3.30000e+00	7.078794e+06	
Reset re-loads circuit ***************************

Circuit: ***************************

Doing analysis at TEMP = 25.000000 and TNOM = 25.000000


No. of Data Rows : 67
                          ***************************
                          DC transfer characteristic  Mon Jan  9 13:57:30  2023
--------------------------------------------------------------------------------
Index   v-sweep         rds             
--------------------------------------------------------------------------------
0	0.000000e+00	3.251060e+04	
1	-5.00000e-02	3.362322e+04	
2	-1.00000e-01	3.480940e+04	
3	-1.50000e-01	3.607668e+04	
4	-2.00000e-01	3.743366e+04	
5	-2.50000e-01	3.889021e+04	
6	-3.00000e-01	4.045768e+04	
7	-3.50000e-01	4.214923e+04	
8	-4.00000e-01	4.398019e+04	
9	-4.50000e-01	4.596848e+04	
10	-5.00000e-01	4.813527e+04	
11	-5.50000e-01	5.050566e+04	
12	-6.00000e-01	5.310971e+04	
13	-6.50000e-01	5.598363e+04	
14	-7.00000e-01	5.917154e+04	
15	-7.50000e-01	6.272763e+04	
16	-8.00000e-01	6.671924e+04	
17	-8.50000e-01	7.123107e+04	
18	-9.00000e-01	7.637101e+04	
19	-9.50000e-01	8.227857e+04	
20	-1.00000e+00	8.913705e+04	
21	-1.05000e+00	9.719157e+04	
22	-1.10000e+00	1.067764e+05	
23	-1.15000e+00	1.183569e+05	
24	-1.20000e+00	1.325951e+05	
25	-1.25000e+00	1.504526e+05	
26	-1.30000e+00	1.733489e+05	
27	-1.35000e+00	2.033908e+05	
28	-1.40000e+00	2.436405e+05	
29	-1.45000e+00	2.982319e+05	
30	-1.50000e+00	3.717810e+05	
31	-1.55000e+00	4.673249e+05	
32	-1.60000e+00	5.832386e+05	
33	-1.65000e+00	7.122514e+05	
34	-1.70000e+00	8.448562e+05	
35	-1.75000e+00	9.738949e+05	
36	-1.80000e+00	1.096152e+06	
37	-1.85000e+00	1.211261e+06	
38	-1.90000e+00	1.320147e+06	
39	-1.95000e+00	1.424042e+06	
40	-2.00000e+00	1.524069e+06	
41	-2.05000e+00	1.621128e+06	
42	-2.10000e+00	1.715899e+06	
43	-2.15000e+00	1.808889e+06	
44	-2.20000e+00	1.900470e+06	
45	-2.25000e+00	1.990919e+06	
46	-2.30000e+00	2.080441e+06	
47	-2.35000e+00	2.169190e+06	
48	-2.40000e+00	2.257284e+06	
49	-2.45000e+00	2.344813e+06	
50	-2.50000e+00	2.431846e+06	
51	-2.55000e+00	2.518440e+06	
52	-2.60000e+00	2.604637e+06	
53	-2.65000e+00	2.690472e+06	
54	-2.70000e+00	2.775973e+06	

Index   v-sweep         rds             
--------------------------------------------------------------------------------
55	-2.75000e+00	2.861164e+06	
56	-2.80000e+00	2.946062e+06	
57	-2.85000e+00	3.030685e+06	
58	-2.90000e+00	3.115043e+06	
59	-2.95000e+00	3.199148e+06	
60	-3.00000e+00	3.283008e+06	
61	-3.05000e+00	3.366627e+06	
62	-3.10000e+00	3.450008e+06	
63	-3.15000e+00	3.533148e+06	
64	-3.20000e+00	3.616038e+06	
65	-3.25000e+00	3.698661e+06	
66	-3.30000e+00	3.780987e+06	
Reset re-loads circuit ***************************

Circuit: ***************************

Doing analysis at TEMP = 25.000000 and TNOM = 25.000000


No. of Data Rows : 67
                          ***************************
                          DC transfer characteristic  Mon Jan  9 13:57:30  2023
--------------------------------------------------------------------------------
Index   v-sweep         rds             
--------------------------------------------------------------------------------
0	0.000000e+00	2.766958e+04	
1	-5.00000e-02	2.841964e+04	
2	-1.00000e-01	2.920819e+04	
3	-1.50000e-01	3.003826e+04	
4	-2.00000e-01	3.091322e+04	
5	-2.50000e-01	3.183682e+04	
6	-3.00000e-01	3.281320e+04	
7	-3.50000e-01	3.384704e+04	
8	-4.00000e-01	3.494354e+04	
9	-4.50000e-01	3.610859e+04	
10	-5.00000e-01	3.734879e+04	
11	-5.50000e-01	3.867166e+04	
12	-6.00000e-01	4.008574e+04	
13	-6.50000e-01	4.160079e+04	
14	-7.00000e-01	4.322799e+04	
15	-7.50000e-01	4.498026e+04	
16	-8.00000e-01	4.687256e+04	
17	-8.50000e-01	4.892235e+04	
18	-9.00000e-01	5.115007e+04	
19	-9.50000e-01	5.357989e+04	
20	-1.00000e+00	5.624051e+04	
21	-1.05000e+00	5.916630e+04	
22	-1.10000e+00	6.239878e+04	
23	-1.15000e+00	6.598854e+04	
24	-1.20000e+00	6.999782e+04	
25	-1.25000e+00	7.450398e+04	
26	-1.30000e+00	7.960436e+04	
27	-1.35000e+00	8.542290e+04	
28	-1.40000e+00	9.211960e+04	
29	-1.45000e+00	9.990396e+04	
30	-1.50000e+00	1.090545e+05	
31	-1.55000e+00	1.199469e+05	
32	-1.60000e+00	1.330954e+05	
33	-1.65000e+00	1.492106e+05	
34	-1.70000e+00	1.692775e+05	
35	-1.75000e+00	1.946428e+05	
36	-1.80000e+00	2.270670e+05	
37	-1.85000e+00	2.686193e+05	
38	-1.90000e+00	3.211974e+05	
39	-1.95000e+00	3.855482e+05	
40	-2.00000e+00	4.602248e+05	
41	-2.05000e+00	5.415675e+05	
42	-2.10000e+00	6.251520e+05	
43	-2.15000e+00	7.075224e+05	
44	-2.20000e+00	7.868834e+05	
45	-2.25000e+00	8.627745e+05	
46	-2.30000e+00	9.354521e+05	
47	-2.35000e+00	1.005429e+06	
48	-2.40000e+00	1.073237e+06	
49	-2.45000e+00	1.139333e+06	
50	-2.50000e+00	1.204083e+06	
51	-2.55000e+00	1.267768e+06	
52	-2.60000e+00	1.330602e+06	
53	-2.65000e+00	1.392747e+06	
54	-2.70000e+00	1.454325e+06	

Index   v-sweep         rds             
--------------------------------------------------------------------------------
55	-2.75000e+00	1.515430e+06	
56	-2.80000e+00	1.576134e+06	
57	-2.85000e+00	1.636492e+06	
58	-2.90000e+00	1.696548e+06	
59	-2.95000e+00	1.756336e+06	
60	-3.00000e+00	1.815884e+06	
61	-3.05000e+00	1.875214e+06	
62	-3.10000e+00	1.934343e+06	
63	-3.15000e+00	1.993286e+06	
64	-3.20000e+00	2.052055e+06	
65	-3.25000e+00	2.110659e+06	
66	-3.30000e+00	2.169108e+06	
Reset re-loads circuit ***************************

Circuit: ***************************

Note: No ".plot", ".print", or ".fourier" lines; no simulations run
