
Note: Compatibility modes selected: hs

Warning: m=xx on .subckt line will override multiplier m hierarchy!


Circuit: ***************************

Doing analysis at TEMP = -40.000000 and TNOM = -40.000000


No. of Data Rows : 67
                          ***************************
                          DC transfer characteristic  Mon Jan  9 13:57:30  2023
--------------------------------------------------------------------------------
Index   v-sweep         rds             
--------------------------------------------------------------------------------
0	0.000000e+00	4.360662e+05	
1	-5.00000e-02	4.667800e+06	
2	-1.00000e-01	3.801767e+07	
3	-1.50000e-01	1.053386e+08	
4	-2.00000e-01	1.717719e+08	
5	-2.50000e-01	2.231940e+08	
6	-3.00000e-01	2.622438e+08	
7	-3.50000e-01	2.932419e+08	
8	-4.00000e-01	3.190482e+08	
9	-4.50000e-01	3.413387e+08	
10	-5.00000e-01	3.611029e+08	
11	-5.50000e-01	3.789499e+08	
12	-6.00000e-01	3.952744e+08	
13	-6.50000e-01	4.103459e+08	
14	-7.00000e-01	4.243571e+08	
15	-7.50000e-01	4.374516e+08	
16	-8.00000e-01	4.497406e+08	
17	-8.50000e-01	4.613125e+08	
18	-9.00000e-01	4.722399e+08	
19	-9.50000e-01	4.825830e+08	
20	-1.00000e+00	4.923933e+08	
21	-1.05000e+00	5.017151e+08	
22	-1.10000e+00	5.105867e+08	
23	-1.15000e+00	5.190423e+08	
24	-1.20000e+00	5.271119e+08	
25	-1.25000e+00	5.348225e+08	
26	-1.30000e+00	5.421984e+08	
27	-1.35000e+00	5.492613e+08	
28	-1.40000e+00	5.560312e+08	
29	-1.45000e+00	5.625261e+08	
30	-1.50000e+00	5.687624e+08	
31	-1.55000e+00	5.747552e+08	
32	-1.60000e+00	5.805181e+08	
33	-1.65000e+00	5.860633e+08	
34	-1.70000e+00	5.914020e+08	
35	-1.75000e+00	5.965438e+08	
36	-1.80000e+00	6.014970e+08	
37	-1.85000e+00	6.062684e+08	
38	-1.90000e+00	6.108628e+08	
39	-1.95000e+00	6.152834e+08	
40	-2.00000e+00	6.195308e+08	
41	-2.05000e+00	6.236031e+08	
42	-2.10000e+00	6.274954e+08	
43	-2.15000e+00	6.311995e+08	
44	-2.20000e+00	6.347032e+08	
45	-2.25000e+00	6.379901e+08	
46	-2.30000e+00	6.410392e+08	
47	-2.35000e+00	6.438243e+08	
48	-2.40000e+00	6.463138e+08	
49	-2.45000e+00	6.484708e+08	
50	-2.50000e+00	6.502521e+08	
51	-2.55000e+00	6.516093e+08	
52	-2.60000e+00	6.524883e+08	
53	-2.65000e+00	6.528300e+08	
54	-2.70000e+00	6.525710e+08	

Index   v-sweep         rds             
--------------------------------------------------------------------------------
55	-2.75000e+00	6.516447e+08	
56	-2.80000e+00	6.499824e+08	
57	-2.85000e+00	6.475153e+08	
58	-2.90000e+00	6.441761e+08	
59	-2.95000e+00	6.399013e+08	
60	-3.00000e+00	6.346338e+08	
61	-3.05000e+00	6.283251e+08	
62	-3.10000e+00	6.209380e+08	
63	-3.15000e+00	6.124490e+08	
64	-3.20000e+00	6.028501e+08	
65	-3.25000e+00	5.921505e+08	
66	-3.30000e+00	5.803778e+08	
Reset re-loads circuit ***************************

Circuit: ***************************

Doing analysis at TEMP = -40.000000 and TNOM = -40.000000


No. of Data Rows : 67
                          ***************************
                          DC transfer characteristic  Mon Jan  9 13:57:31  2023
--------------------------------------------------------------------------------
Index   v-sweep         rds             
--------------------------------------------------------------------------------
0	0.000000e+00	9.239918e+03	
1	-5.00000e-02	1.081778e+04	
2	-1.00000e-01	1.302025e+04	
3	-1.50000e-01	1.629749e+04	
4	-2.00000e-01	2.163282e+04	
5	-2.50000e-01	3.149769e+04	
6	-3.00000e-01	5.293338e+04	
7	-3.50000e-01	1.051248e+05	
8	-4.00000e-01	2.191457e+05	
9	-4.50000e-01	3.981348e+05	
10	-5.00000e-01	6.012178e+05	
11	-5.50000e-01	7.938201e+05	
12	-6.00000e-01	9.666043e+05	
13	-6.50000e-01	1.122026e+06	
14	-7.00000e-01	1.264565e+06	
15	-7.50000e-01	1.397871e+06	
16	-8.00000e-01	1.524484e+06	
17	-8.50000e-01	1.646099e+06	
18	-9.00000e-01	1.763853e+06	
19	-9.50000e-01	1.878514e+06	
20	-1.00000e+00	1.990618e+06	
21	-1.05000e+00	2.100542e+06	
22	-1.10000e+00	2.208561e+06	
23	-1.15000e+00	2.314879e+06	
24	-1.20000e+00	2.419652e+06	
25	-1.25000e+00	2.523000e+06	
26	-1.30000e+00	2.625017e+06	
27	-1.35000e+00	2.725779e+06	
28	-1.40000e+00	2.825351e+06	
29	-1.45000e+00	2.923783e+06	
30	-1.50000e+00	3.021121e+06	
31	-1.55000e+00	3.117402e+06	
32	-1.60000e+00	3.212660e+06	
33	-1.65000e+00	3.306924e+06	
34	-1.70000e+00	3.400221e+06	
35	-1.75000e+00	3.492572e+06	
36	-1.80000e+00	3.583998e+06	
37	-1.85000e+00	3.674517e+06	
38	-1.90000e+00	3.764142e+06	
39	-1.95000e+00	3.852882e+06	
40	-2.00000e+00	3.940741e+06	
41	-2.05000e+00	4.027711e+06	
42	-2.10000e+00	4.113775e+06	
43	-2.15000e+00	4.198898e+06	
44	-2.20000e+00	4.283024e+06	
45	-2.25000e+00	4.366066e+06	
46	-2.30000e+00	4.447901e+06	
47	-2.35000e+00	4.528357e+06	
48	-2.40000e+00	4.607202e+06	
49	-2.45000e+00	4.684134e+06	
50	-2.50000e+00	4.758762e+06	
51	-2.55000e+00	4.830599e+06	
52	-2.60000e+00	4.899040e+06	
53	-2.65000e+00	4.963355e+06	
54	-2.70000e+00	5.022677e+06	

Index   v-sweep         rds             
--------------------------------------------------------------------------------
55	-2.75000e+00	5.075995e+06	
56	-2.80000e+00	5.122156e+06	
57	-2.85000e+00	5.159876e+06	
58	-2.90000e+00	5.187756e+06	
59	-2.95000e+00	5.204316e+06	
60	-3.00000e+00	5.208046e+06	
61	-3.05000e+00	5.197463e+06	
62	-3.10000e+00	5.171190e+06	
63	-3.15000e+00	5.128040e+06	
64	-3.20000e+00	5.067106e+06	
65	-3.25000e+00	4.987850e+06	
66	-3.30000e+00	4.890172e+06	
Reset re-loads circuit ***************************

Circuit: ***************************

Doing analysis at TEMP = -40.000000 and TNOM = -40.000000


No. of Data Rows : 67
                          ***************************
                          DC transfer characteristic  Mon Jan  9 13:57:31  2023
--------------------------------------------------------------------------------
Index   v-sweep         rds             
--------------------------------------------------------------------------------
0	0.000000e+00	4.656748e+03	
1	-5.00000e-02	5.015439e+03	
2	-1.00000e-01	5.430995e+03	
3	-1.50000e-01	5.918052e+03	
4	-2.00000e-01	6.496707e+03	
5	-2.50000e-01	7.195296e+03	
6	-3.00000e-01	8.055028e+03	
7	-3.50000e-01	9.138062e+03	
8	-4.00000e-01	1.054226e+04	
9	-4.50000e-01	1.242965e+04	
10	-5.00000e-01	1.508429e+04	
11	-5.50000e-01	1.903511e+04	
12	-6.00000e-01	2.531513e+04	
13	-6.50000e-01	3.592866e+04	
14	-7.00000e-01	5.420318e+04	
15	-7.50000e-01	8.342170e+04	
16	-8.00000e-01	1.230000e+05	
17	-8.50000e-01	1.677324e+05	
18	-9.00000e-01	2.124151e+05	
19	-9.50000e-01	2.546697e+05	
20	-1.00000e+00	2.941717e+05	
21	-1.05000e+00	3.313480e+05	
22	-1.10000e+00	3.667305e+05	
23	-1.15000e+00	4.007603e+05	
24	-1.20000e+00	4.337638e+05	
25	-1.25000e+00	4.659734e+05	
26	-1.30000e+00	4.975537e+05	
27	-1.35000e+00	5.286219e+05	
28	-1.40000e+00	5.592629e+05	
29	-1.45000e+00	5.895384e+05	
30	-1.50000e+00	6.194948e+05	
31	-1.55000e+00	6.491668e+05	
32	-1.60000e+00	6.785813e+05	
33	-1.65000e+00	7.077592e+05	
34	-1.70000e+00	7.367171e+05	
35	-1.75000e+00	7.654682e+05	
36	-1.80000e+00	7.940233e+05	
37	-1.85000e+00	8.223914e+05	
38	-1.90000e+00	8.505799e+05	
39	-1.95000e+00	8.785949e+05	
40	-2.00000e+00	9.064418e+05	
41	-2.05000e+00	9.341252e+05	
42	-2.10000e+00	9.616488e+05	
43	-2.15000e+00	9.890158e+05	
44	-2.20000e+00	1.016229e+06	
45	-2.25000e+00	1.043289e+06	
46	-2.30000e+00	1.070197e+06	
47	-2.35000e+00	1.096951e+06	
48	-2.40000e+00	1.123548e+06	
49	-2.45000e+00	1.149979e+06	
50	-2.50000e+00	1.176234e+06	
51	-2.55000e+00	1.202293e+06	
52	-2.60000e+00	1.228128e+06	
53	-2.65000e+00	1.253700e+06	
54	-2.70000e+00	1.278956e+06	

Index   v-sweep         rds             
--------------------------------------------------------------------------------
55	-2.75000e+00	1.303821e+06	
56	-2.80000e+00	1.328201e+06	
57	-2.85000e+00	1.351972e+06	
58	-2.90000e+00	1.374978e+06	
59	-2.95000e+00	1.397024e+06	
60	-3.00000e+00	1.417875e+06	
61	-3.05000e+00	1.437249e+06	
62	-3.10000e+00	1.454814e+06	
63	-3.15000e+00	1.470192e+06	
64	-3.20000e+00	1.482957e+06	
65	-3.25000e+00	1.492645e+06	
66	-3.30000e+00	1.498763e+06	
Reset re-loads circuit ***************************

Circuit: ***************************

Doing analysis at TEMP = -40.000000 and TNOM = -40.000000


No. of Data Rows : 67
                          ***************************
                          DC transfer characteristic  Mon Jan  9 13:57:31  2023
--------------------------------------------------------------------------------
Index   v-sweep         rds             
--------------------------------------------------------------------------------
0	0.000000e+00	3.297123e+03	
1	-5.00000e-02	3.460775e+03	
2	-1.00000e-01	3.640385e+03	
3	-1.50000e-01	3.838401e+03	
4	-2.00000e-01	4.057801e+03	
5	-2.50000e-01	4.302239e+03	
6	-3.00000e-01	4.576247e+03	
7	-3.50000e-01	4.885521e+03	
8	-4.00000e-01	5.237310e+03	
9	-4.50000e-01	5.640981e+03	
10	-5.00000e-01	6.108849e+03	
11	-5.50000e-01	6.657417e+03	
12	-6.00000e-01	7.309280e+03	
13	-6.50000e-01	8.096150e+03	
14	-7.00000e-01	9.063784e+03	
15	-7.50000e-01	1.028028e+04	
16	-8.00000e-01	1.185043e+04	
17	-8.50000e-01	1.394105e+04	
18	-9.00000e-01	1.682501e+04	
19	-9.50000e-01	2.095182e+04	
20	-1.00000e+00	2.702887e+04	
21	-1.05000e+00	3.600082e+04	
22	-1.10000e+00	4.866631e+04	
23	-1.15000e+00	6.492259e+04	
24	-1.20000e+00	8.351063e+04	
25	-1.25000e+00	1.028390e+05	
26	-1.30000e+00	1.218520e+05	
27	-1.35000e+00	1.401435e+05	
28	-1.40000e+00	1.576815e+05	
29	-1.45000e+00	1.745712e+05	
30	-1.50000e+00	1.909405e+05	
31	-1.55000e+00	2.069007e+05	
32	-1.60000e+00	2.225385e+05	
33	-1.65000e+00	2.379193e+05	
34	-1.70000e+00	2.530911e+05	
35	-1.75000e+00	2.680896e+05	
36	-1.80000e+00	2.829414e+05	
37	-1.85000e+00	2.976666e+05	
38	-1.90000e+00	3.122804e+05	
39	-1.95000e+00	3.267945e+05	
40	-2.00000e+00	3.412181e+05	
41	-2.05000e+00	3.555584e+05	
42	-2.10000e+00	3.698213e+05	
43	-2.15000e+00	3.840114e+05	
44	-2.20000e+00	3.981324e+05	
45	-2.25000e+00	4.121877e+05	
46	-2.30000e+00	4.261797e+05	
47	-2.35000e+00	4.401108e+05	
48	-2.40000e+00	4.539826e+05	
49	-2.45000e+00	4.677969e+05	
50	-2.50000e+00	4.815548e+05	
51	-2.55000e+00	4.952572e+05	
52	-2.60000e+00	5.089047e+05	
53	-2.65000e+00	5.224974e+05	
54	-2.70000e+00	5.360344e+05	

Index   v-sweep         rds             
--------------------------------------------------------------------------------
55	-2.75000e+00	5.495140e+05	
56	-2.80000e+00	5.629327e+05	
57	-2.85000e+00	5.762851e+05	
58	-2.90000e+00	5.895624e+05	
59	-2.95000e+00	6.027518e+05	
60	-3.00000e+00	6.158350e+05	
61	-3.05000e+00	6.287868e+05	
62	-3.10000e+00	6.415725e+05	
63	-3.15000e+00	6.541466e+05	
64	-3.20000e+00	6.664496e+05	
65	-3.25000e+00	6.784057e+05	
66	-3.30000e+00	6.899204e+05	
Reset re-loads circuit ***************************

Circuit: ***************************

Doing analysis at TEMP = -40.000000 and TNOM = -40.000000


No. of Data Rows : 67
                          ***************************
                          DC transfer characteristic  Mon Jan  9 13:57:31  2023
--------------------------------------------------------------------------------
Index   v-sweep         rds             
--------------------------------------------------------------------------------
0	0.000000e+00	2.660928e+03	
1	-5.00000e-02	2.757969e+03	
2	-1.00000e-01	2.861760e+03	
3	-1.50000e-01	2.973029e+03	
4	-2.00000e-01	3.092613e+03	
5	-2.50000e-01	3.221479e+03	
6	-3.00000e-01	3.360750e+03	
7	-3.50000e-01	3.511737e+03	
8	-4.00000e-01	3.675979e+03	
9	-4.50000e-01	3.855301e+03	
10	-5.00000e-01	4.051873e+03	
11	-5.50000e-01	4.268303e+03	
12	-6.00000e-01	4.507752e+03	
13	-6.50000e-01	4.774084e+03	
14	-7.00000e-01	5.072076e+03	
15	-7.50000e-01	5.407699e+03	
16	-8.00000e-01	5.788510e+03	
17	-8.50000e-01	6.224213e+03	
18	-9.00000e-01	6.727456e+03	
19	-9.50000e-01	7.315017e+03	
20	-1.00000e+00	8.009567e+03	
21	-1.05000e+00	8.842378e+03	
22	-1.10000e+00	9.857530e+03	
23	-1.15000e+00	1.111852e+04	
24	-1.20000e+00	1.271864e+04	
25	-1.25000e+00	1.479648e+04	
26	-1.30000e+00	1.755662e+04	
27	-1.35000e+00	2.128707e+04	
28	-1.40000e+00	2.634407e+04	
29	-1.45000e+00	3.304741e+04	
30	-1.50000e+00	4.147079e+04	
31	-1.55000e+00	5.128868e+04	
32	-1.60000e+00	6.190296e+04	
33	-1.65000e+00	7.275062e+04	
34	-1.70000e+00	8.348645e+04	
35	-1.75000e+00	9.396955e+04	
36	-1.80000e+00	1.041774e+05	
37	-1.85000e+00	1.141370e+05	
38	-1.90000e+00	1.238881e+05	
39	-1.95000e+00	1.334689e+05	
40	-2.00000e+00	1.429111e+05	
41	-2.05000e+00	1.522397e+05	
42	-2.10000e+00	1.614740e+05	
43	-2.15000e+00	1.706287e+05	
44	-2.20000e+00	1.797153e+05	
45	-2.25000e+00	1.887423e+05	
46	-2.30000e+00	1.977167e+05	
47	-2.35000e+00	2.066436e+05	
48	-2.40000e+00	2.155272e+05	
49	-2.45000e+00	2.243710e+05	
50	-2.50000e+00	2.331777e+05	
51	-2.55000e+00	2.419493e+05	
52	-2.60000e+00	2.506877e+05	
53	-2.65000e+00	2.593945e+05	
54	-2.70000e+00	2.680708e+05	

Index   v-sweep         rds             
--------------------------------------------------------------------------------
55	-2.75000e+00	2.767176e+05	
56	-2.80000e+00	2.853360e+05	
57	-2.85000e+00	2.939265e+05	
58	-2.90000e+00	3.024898e+05	
59	-2.95000e+00	3.110260e+05	
60	-3.00000e+00	3.195355e+05	
61	-3.05000e+00	3.280177e+05	
62	-3.10000e+00	3.364719e+05	
63	-3.15000e+00	3.448965e+05	
64	-3.20000e+00	3.532886e+05	
65	-3.25000e+00	3.616439e+05	
66	-3.30000e+00	3.699557e+05	
Reset re-loads circuit ***************************

Circuit: ***************************

Doing analysis at TEMP = -40.000000 and TNOM = -40.000000


No. of Data Rows : 67
                          ***************************
                          DC transfer characteristic  Mon Jan  9 13:57:31  2023
--------------------------------------------------------------------------------
Index   v-sweep         rds             
--------------------------------------------------------------------------------
0	0.000000e+00	2.301512e+03	
1	-5.00000e-02	2.367517e+03	
2	-1.00000e-01	2.437053e+03	
3	-1.50000e-01	2.510410e+03	
4	-2.00000e-01	2.587913e+03	
5	-2.50000e-01	2.669922e+03	
6	-3.00000e-01	2.756841e+03	
7	-3.50000e-01	2.849124e+03	
8	-4.00000e-01	2.947284e+03	
9	-4.50000e-01	3.051898e+03	
10	-5.00000e-01	3.163624e+03	
11	-5.50000e-01	3.283212e+03	
12	-6.00000e-01	3.411521e+03	
13	-6.50000e-01	3.549538e+03	
14	-7.00000e-01	3.698407e+03	
15	-7.50000e-01	3.859457e+03	
16	-8.00000e-01	4.034243e+03	
17	-8.50000e-01	4.224597e+03	
18	-9.00000e-01	4.432688e+03	
19	-9.50000e-01	4.661107e+03	
20	-1.00000e+00	4.912973e+03	
21	-1.05000e+00	5.192071e+03	
22	-1.10000e+00	5.503042e+03	
23	-1.15000e+00	5.851632e+03	
24	-1.20000e+00	6.245034e+03	
25	-1.25000e+00	6.692369e+03	
26	-1.30000e+00	7.205351e+03	
27	-1.35000e+00	7.799240e+03	
28	-1.40000e+00	8.494221e+03	
29	-1.45000e+00	9.317396e+03	
30	-1.50000e+00	1.030570e+04	
31	-1.55000e+00	1.151010e+04	
32	-1.60000e+00	1.300129e+04	
33	-1.65000e+00	1.487672e+04	
34	-1.70000e+00	1.726639e+04	
35	-1.75000e+00	2.033002e+04	
36	-1.80000e+00	2.423101e+04	
37	-1.85000e+00	2.907405e+04	
38	-1.90000e+00	3.482633e+04	
39	-1.95000e+00	4.129180e+04	
40	-2.00000e+00	4.818521e+04	
41	-2.05000e+00	5.524698e+04	
42	-2.10000e+00	6.230704e+04	
43	-2.15000e+00	6.928217e+04	
44	-2.20000e+00	7.614528e+04	
45	-2.25000e+00	8.289736e+04	
46	-2.30000e+00	8.955030e+04	
47	-2.35000e+00	9.611850e+04	
48	-2.40000e+00	1.026154e+05	
49	-2.45000e+00	1.090522e+05	
50	-2.50000e+00	1.154383e+05	
51	-2.55000e+00	1.217808e+05	
52	-2.60000e+00	1.280855e+05	
53	-2.65000e+00	1.343570e+05	
54	-2.70000e+00	1.405989e+05	

Index   v-sweep         rds             
--------------------------------------------------------------------------------
55	-2.75000e+00	1.468139e+05	
56	-2.80000e+00	1.530044e+05	
57	-2.85000e+00	1.591723e+05	
58	-2.90000e+00	1.653189e+05	
59	-2.95000e+00	1.714455e+05	
60	-3.00000e+00	1.775532e+05	
61	-3.05000e+00	1.836428e+05	
62	-3.10000e+00	1.897149e+05	
63	-3.15000e+00	1.957702e+05	
64	-3.20000e+00	2.018091e+05	
65	-3.25000e+00	2.078321e+05	
66	-3.30000e+00	2.138393e+05	
Reset re-loads circuit ***************************

Circuit: ***************************

Note: No ".plot", ".print", or ".fourier" lines; no simulations run
