
Note: Compatibility modes selected: hs

Warning: m=xx on .subckt line will override multiplier m hierarchy!


Circuit: ***************************

Doing analysis at TEMP = 125.000000 and TNOM = 125.000000


No. of Data Rows : 67
                          ***************************
                          DC transfer characteristic  Mon Jan  9 13:57:32  2023
--------------------------------------------------------------------------------
Index   v-sweep         rds             
--------------------------------------------------------------------------------
0	0.000000e+00	4.310377e+05	
1	-5.00000e-02	5.825327e+05	
2	-1.00000e-01	8.833844e+05	
3	-1.50000e-01	1.657937e+06	
4	-2.00000e-01	4.233153e+06	
5	-2.50000e-01	1.144593e+07	
6	-3.00000e-01	2.229639e+07	
7	-3.50000e-01	3.180096e+07	
8	-4.00000e-01	3.850600e+07	
9	-4.50000e-01	4.325592e+07	
10	-5.00000e-01	4.688883e+07	
11	-5.50000e-01	4.988880e+07	
12	-6.00000e-01	5.251156e+07	
13	-6.50000e-01	5.489385e+07	
14	-7.00000e-01	5.711187e+07	
15	-7.50000e-01	5.921011e+07	
16	-8.00000e-01	6.121583e+07	
17	-8.50000e-01	6.314648e+07	
18	-9.00000e-01	6.501372e+07	
19	-9.50000e-01	6.682566e+07	
20	-1.00000e+00	6.858814e+07	
21	-1.05000e+00	7.030553e+07	
22	-1.10000e+00	7.198119e+07	
23	-1.15000e+00	7.361780e+07	
24	-1.20000e+00	7.521757e+07	
25	-1.25000e+00	7.678232e+07	
26	-1.30000e+00	7.831364e+07	
27	-1.35000e+00	7.981289e+07	
28	-1.40000e+00	8.128130e+07	
29	-1.45000e+00	8.271997e+07	
30	-1.50000e+00	8.412989e+07	
31	-1.55000e+00	8.551199e+07	
32	-1.60000e+00	8.686710e+07	
33	-1.65000e+00	8.819601e+07	
34	-1.70000e+00	8.949944e+07	
35	-1.75000e+00	9.077801e+07	
36	-1.80000e+00	9.203229e+07	
37	-1.85000e+00	9.326275e+07	
38	-1.90000e+00	9.446969e+07	
39	-1.95000e+00	9.565328e+07	
40	-2.00000e+00	9.681344e+07	
41	-2.05000e+00	9.794983e+07	
42	-2.10000e+00	9.906172e+07	
43	-2.15000e+00	1.001479e+08	
44	-2.20000e+00	1.012067e+08	
45	-2.25000e+00	1.022357e+08	
46	-2.30000e+00	1.032316e+08	
47	-2.35000e+00	1.041903e+08	
48	-2.40000e+00	1.051064e+08	
49	-2.45000e+00	1.059734e+08	
50	-2.50000e+00	1.067836e+08	
51	-2.55000e+00	1.075274e+08	
52	-2.60000e+00	1.081941e+08	
53	-2.65000e+00	1.087711e+08	
54	-2.70000e+00	1.092444e+08	

Index   v-sweep         rds             
--------------------------------------------------------------------------------
55	-2.75000e+00	1.095983e+08	
56	-2.80000e+00	1.098161e+08	
57	-2.85000e+00	1.098799e+08	
58	-2.90000e+00	1.097711e+08	
59	-2.95000e+00	1.094714e+08	
60	-3.00000e+00	1.089627e+08	
61	-3.05000e+00	1.082284e+08	
62	-3.10000e+00	1.072538e+08	
63	-3.15000e+00	1.060276e+08	
64	-3.20000e+00	1.045418e+08	
65	-3.25000e+00	1.027934e+08	
66	-3.30000e+00	1.007841e+08	
Reset re-loads circuit ***************************

Circuit: ***************************

Doing analysis at TEMP = 125.000000 and TNOM = 125.000000


No. of Data Rows : 67
                          ***************************
                          DC transfer characteristic  Mon Jan  9 13:57:32  2023
--------------------------------------------------------------------------------
Index   v-sweep         rds             
--------------------------------------------------------------------------------
0	0.000000e+00	1.164030e+05	
1	-5.00000e-02	1.276527e+05	
2	-1.00000e-01	1.411762e+05	
3	-1.50000e-01	1.577354e+05	
4	-2.00000e-01	1.784715e+05	
5	-2.50000e-01	2.051679e+05	
6	-3.00000e-01	2.407585e+05	
7	-3.50000e-01	2.903742e+05	
8	-4.00000e-01	3.636363e+05	
9	-4.50000e-01	4.798934e+05	
10	-5.00000e-01	6.795096e+05	
11	-5.50000e-01	1.039149e+06	
12	-6.00000e-01	1.647759e+06	
13	-6.50000e-01	2.474377e+06	
14	-7.00000e-01	3.321612e+06	
15	-7.50000e-01	4.036539e+06	
16	-8.00000e-01	4.603170e+06	
17	-8.50000e-01	5.061657e+06	
18	-9.00000e-01	5.450826e+06	
19	-9.50000e-01	5.796537e+06	
20	-1.00000e+00	6.114421e+06	
21	-1.05000e+00	6.413790e+06	
22	-1.10000e+00	6.700276e+06	
23	-1.15000e+00	6.977377e+06	
24	-1.20000e+00	7.247328e+06	
25	-1.25000e+00	7.511602e+06	
26	-1.30000e+00	7.771198e+06	
27	-1.35000e+00	8.026808e+06	
28	-1.40000e+00	8.278929e+06	
29	-1.45000e+00	8.527922e+06	
30	-1.50000e+00	8.774057e+06	
31	-1.55000e+00	9.017542e+06	
32	-1.60000e+00	9.258537e+06	
33	-1.65000e+00	9.497168e+06	
34	-1.70000e+00	9.733540e+06	
35	-1.75000e+00	9.967737e+06	
36	-1.80000e+00	1.019983e+07	
37	-1.85000e+00	1.042988e+07	
38	-1.90000e+00	1.065794e+07	
39	-1.95000e+00	1.088405e+07	
40	-2.00000e+00	1.110826e+07	
41	-2.05000e+00	1.133059e+07	
42	-2.10000e+00	1.155106e+07	
43	-2.15000e+00	1.176970e+07	
44	-2.20000e+00	1.198651e+07	
45	-2.25000e+00	1.220148e+07	
46	-2.30000e+00	1.241456e+07	
47	-2.35000e+00	1.262570e+07	
48	-2.40000e+00	1.283478e+07	
49	-2.45000e+00	1.304162e+07	
50	-2.50000e+00	1.324600e+07	
51	-2.55000e+00	1.344756e+07	
52	-2.60000e+00	1.364585e+07	
53	-2.65000e+00	1.384026e+07	
54	-2.70000e+00	1.403001e+07	

Index   v-sweep         rds             
--------------------------------------------------------------------------------
55	-2.75000e+00	1.421411e+07	
56	-2.80000e+00	1.439132e+07	
57	-2.85000e+00	1.456014e+07	
58	-2.90000e+00	1.471876e+07	
59	-2.95000e+00	1.486504e+07	
60	-3.00000e+00	1.499652e+07	
61	-3.05000e+00	1.511039e+07	
62	-3.10000e+00	1.520350e+07	
63	-3.15000e+00	1.527244e+07	
64	-3.20000e+00	1.531358e+07	
65	-3.25000e+00	1.532316e+07	
66	-3.30000e+00	1.529744e+07	
Reset re-loads circuit ***************************

Circuit: ***************************

Doing analysis at TEMP = 125.000000 and TNOM = 125.000000


No. of Data Rows : 67
                          ***************************
                          DC transfer characteristic  Mon Jan  9 13:57:32  2023
--------------------------------------------------------------------------------
Index   v-sweep         rds             
--------------------------------------------------------------------------------
0	0.000000e+00	6.937953e+04	
1	-5.00000e-02	7.333431e+04	
2	-1.00000e-01	7.772941e+04	
3	-1.50000e-01	8.264252e+04	
4	-2.00000e-01	8.817068e+04	
5	-2.50000e-01	9.443670e+04	
6	-3.00000e-01	1.015982e+05	
7	-3.50000e-01	1.098610e+05	
8	-4.00000e-01	1.194984e+05	
9	-4.50000e-01	1.308812e+05	
10	-5.00000e-01	1.445247e+05	
11	-5.50000e-01	1.611636e+05	
12	-6.00000e-01	1.818785e+05	
13	-6.50000e-01	2.083116e+05	
14	-7.00000e-01	2.430471e+05	
15	-7.50000e-01	2.902813e+05	
16	-8.00000e-01	3.569352e+05	
17	-8.50000e-01	4.540661e+05	
18	-9.00000e-01	5.967754e+05	
19	-9.50000e-01	7.969326e+05	
20	-1.00000e+00	1.045824e+06	
21	-1.05000e+00	1.308402e+06	
22	-1.10000e+00	1.549312e+06	
23	-1.15000e+00	1.755397e+06	
24	-1.20000e+00	1.930450e+06	
25	-1.25000e+00	2.082929e+06	
26	-1.30000e+00	2.220140e+06	
27	-1.35000e+00	2.347160e+06	
28	-1.40000e+00	2.467279e+06	
29	-1.45000e+00	2.582594e+06	
30	-1.50000e+00	2.694450e+06	
31	-1.55000e+00	2.803726e+06	
32	-1.60000e+00	2.911005e+06	
33	-1.65000e+00	3.016687e+06	
34	-1.70000e+00	3.121048e+06	
35	-1.75000e+00	3.224287e+06	
36	-1.80000e+00	3.326546e+06	
37	-1.85000e+00	3.427932e+06	
38	-1.90000e+00	3.528523e+06	
39	-1.95000e+00	3.628380e+06	
40	-2.00000e+00	3.727552e+06	
41	-2.05000e+00	3.826076e+06	
42	-2.10000e+00	3.923980e+06	
43	-2.15000e+00	4.021291e+06	
44	-2.20000e+00	4.118027e+06	
45	-2.25000e+00	4.214206e+06	
46	-2.30000e+00	4.309842e+06	
47	-2.35000e+00	4.404945e+06	
48	-2.40000e+00	4.499525e+06	
49	-2.45000e+00	4.593589e+06	
50	-2.50000e+00	4.687139e+06	
51	-2.55000e+00	4.780174e+06	
52	-2.60000e+00	4.872687e+06	
53	-2.65000e+00	4.964663e+06	
54	-2.70000e+00	5.056072e+06	

Index   v-sweep         rds             
--------------------------------------------------------------------------------
55	-2.75000e+00	5.146870e+06	
56	-2.80000e+00	5.236989e+06	
57	-2.85000e+00	5.326332e+06	
58	-2.90000e+00	5.414762e+06	
59	-2.95000e+00	5.502092e+06	
60	-3.00000e+00	5.588076e+06	
61	-3.05000e+00	5.672391e+06	
62	-3.10000e+00	5.754626e+06	
63	-3.15000e+00	5.834263e+06	
64	-3.20000e+00	5.910668e+06	
65	-3.25000e+00	5.983066e+06	
66	-3.30000e+00	6.050541e+06	
Reset re-loads circuit ***************************

Circuit: ***************************

Doing analysis at TEMP = 125.000000 and TNOM = 125.000000


No. of Data Rows : 67
                          ***************************
                          DC transfer characteristic  Mon Jan  9 13:57:32  2023
--------------------------------------------------------------------------------
Index   v-sweep         rds             
--------------------------------------------------------------------------------
0	0.000000e+00	5.057515e+04	
1	-5.00000e-02	5.264911e+04	
2	-1.00000e-01	5.488248e+04	
3	-1.50000e-01	5.729434e+04	
4	-2.00000e-01	5.990693e+04	
5	-2.50000e-01	6.274634e+04	
6	-3.00000e-01	6.584338e+04	
7	-3.50000e-01	6.923469e+04	
8	-4.00000e-01	7.296417e+04	
9	-4.50000e-01	7.708490e+04	
10	-5.00000e-01	8.166162e+04	
11	-5.50000e-01	8.677409e+04	
12	-6.00000e-01	9.252173e+04	
13	-6.50000e-01	9.902994e+04	
14	-7.00000e-01	1.064591e+05	
15	-7.50000e-01	1.150172e+05	
16	-8.00000e-01	1.249789e+05	
17	-8.50000e-01	1.367133e+05	
18	-9.00000e-01	1.507257e+05	
19	-9.50000e-01	1.677230e+05	
20	-1.00000e+00	1.887133e+05	
21	-1.05000e+00	2.151579e+05	
22	-1.10000e+00	2.491867e+05	
23	-1.15000e+00	2.938421e+05	
24	-1.20000e+00	3.531346e+05	
25	-1.25000e+00	4.312561e+05	
26	-1.30000e+00	5.299543e+05	
27	-1.35000e+00	6.447249e+05	
28	-1.40000e+00	7.646043e+05	
29	-1.45000e+00	8.784016e+05	
30	-1.50000e+00	9.805822e+05	
31	-1.55000e+00	1.071089e+06	
32	-1.60000e+00	1.152259e+06	
33	-1.65000e+00	1.226656e+06	
34	-1.70000e+00	1.296308e+06	
35	-1.75000e+00	1.362642e+06	
36	-1.80000e+00	1.426622e+06	
37	-1.85000e+00	1.488892e+06	
38	-1.90000e+00	1.549885e+06	
39	-1.95000e+00	1.609893e+06	
40	-2.00000e+00	1.669121e+06	
41	-2.05000e+00	1.727711e+06	
42	-2.10000e+00	1.785765e+06	
43	-2.15000e+00	1.843358e+06	
44	-2.20000e+00	1.900546e+06	
45	-2.25000e+00	1.957368e+06	
46	-2.30000e+00	2.013858e+06	
47	-2.35000e+00	2.070040e+06	
48	-2.40000e+00	2.125933e+06	
49	-2.45000e+00	2.181552e+06	
50	-2.50000e+00	2.236909e+06	
51	-2.55000e+00	2.292015e+06	
52	-2.60000e+00	2.346878e+06	
53	-2.65000e+00	2.401505e+06	
54	-2.70000e+00	2.455900e+06	

Index   v-sweep         rds             
--------------------------------------------------------------------------------
55	-2.75000e+00	2.510068e+06	
56	-2.80000e+00	2.564013e+06	
57	-2.85000e+00	2.617734e+06	
58	-2.90000e+00	2.671232e+06	
59	-2.95000e+00	2.724501e+06	
60	-3.00000e+00	2.777532e+06	
61	-3.05000e+00	2.830310e+06	
62	-3.10000e+00	2.882809e+06	
63	-3.15000e+00	2.934992e+06	
64	-3.20000e+00	2.986805e+06	
65	-3.25000e+00	3.038171e+06	
66	-3.30000e+00	3.088986e+06	
Reset re-loads circuit ***************************

Circuit: ***************************

Doing analysis at TEMP = 125.000000 and TNOM = 125.000000


No. of Data Rows : 67
                          ***************************
                          DC transfer characteristic  Mon Jan  9 13:57:32  2023
--------------------------------------------------------------------------------
Index   v-sweep         rds             
--------------------------------------------------------------------------------
0	0.000000e+00	4.038419e+04	
1	-5.00000e-02	4.168973e+04	
2	-1.00000e-01	4.307192e+04	
3	-1.50000e-01	4.453769e+04	
4	-2.00000e-01	4.609483e+04	
5	-2.50000e-01	4.775214e+04	
6	-3.00000e-01	4.951960e+04	
7	-3.50000e-01	5.140852e+04	
8	-4.00000e-01	5.343186e+04	
9	-4.50000e-01	5.560443e+04	
10	-5.00000e-01	5.794336e+04	
11	-5.50000e-01	6.046845e+04	
12	-6.00000e-01	6.320279e+04	
13	-6.50000e-01	6.617342e+04	
14	-7.00000e-01	6.941226e+04	
15	-7.50000e-01	7.295718e+04	
16	-8.00000e-01	7.685355e+04	
17	-8.50000e-01	8.115605e+04	
18	-9.00000e-01	8.593125e+04	
19	-9.50000e-01	9.126095e+04	
20	-1.00000e+00	9.724671e+04	
21	-1.05000e+00	1.040160e+05	
22	-1.10000e+00	1.117309e+05	
23	-1.15000e+00	1.205999e+05	
24	-1.20000e+00	1.308951e+05	
25	-1.25000e+00	1.429758e+05	
26	-1.30000e+00	1.573232e+05	
27	-1.35000e+00	1.745857e+05	
28	-1.40000e+00	1.956385e+05	
29	-1.45000e+00	2.216418e+05	
30	-1.50000e+00	2.540534e+05	
31	-1.55000e+00	2.944709e+05	
32	-1.60000e+00	3.440879e+05	
33	-1.65000e+00	4.026573e+05	
34	-1.70000e+00	4.675473e+05	
35	-1.75000e+00	5.342316e+05	
36	-1.80000e+00	5.984178e+05	
37	-1.85000e+00	6.578176e+05	
38	-1.90000e+00	7.121536e+05	
39	-1.95000e+00	7.621967e+05	
40	-2.00000e+00	8.089573e+05	
41	-2.05000e+00	8.533170e+05	
42	-2.10000e+00	8.959416e+05	
43	-2.15000e+00	9.373041e+05	
44	-2.20000e+00	9.777334e+05	
45	-2.25000e+00	1.017457e+06	
46	-2.30000e+00	1.056633e+06	
47	-2.35000e+00	1.095374e+06	
48	-2.40000e+00	1.133759e+06	
49	-2.45000e+00	1.171845e+06	
50	-2.50000e+00	1.209675e+06	
51	-2.55000e+00	1.247280e+06	
52	-2.60000e+00	1.284685e+06	
53	-2.65000e+00	1.321907e+06	
54	-2.70000e+00	1.358960e+06	

Index   v-sweep         rds             
--------------------------------------------------------------------------------
55	-2.75000e+00	1.395856e+06	
56	-2.80000e+00	1.432604e+06	
57	-2.85000e+00	1.469210e+06	
58	-2.90000e+00	1.505680e+06	
59	-2.95000e+00	1.542019e+06	
60	-3.00000e+00	1.578231e+06	
61	-3.05000e+00	1.614319e+06	
62	-3.10000e+00	1.650286e+06	
63	-3.15000e+00	1.686131e+06	
64	-3.20000e+00	1.721857e+06	
65	-3.25000e+00	1.757461e+06	
66	-3.30000e+00	1.792940e+06	
Reset re-loads circuit ***************************

Circuit: ***************************

Doing analysis at TEMP = 125.000000 and TNOM = 125.000000


No. of Data Rows : 67
                          ***************************
                          DC transfer characteristic  Mon Jan  9 13:57:32  2023
--------------------------------------------------------------------------------
Index   v-sweep         rds             
--------------------------------------------------------------------------------
0	0.000000e+00	3.394257e+04	
1	-5.00000e-02	3.485444e+04	
2	-1.00000e-01	3.580962e+04	
3	-1.50000e-01	3.681125e+04	
4	-2.00000e-01	3.786279e+04	
5	-2.50000e-01	3.896806e+04	
6	-3.00000e-01	4.013128e+04	
7	-3.50000e-01	4.135710e+04	
8	-4.00000e-01	4.265072e+04	
9	-4.50000e-01	4.401789e+04	
10	-5.00000e-01	4.546507e+04	
11	-5.50000e-01	4.699946e+04	
12	-6.00000e-01	4.862917e+04	
13	-6.50000e-01	5.036336e+04	
14	-7.00000e-01	5.221236e+04	
15	-7.50000e-01	5.418794e+04	
16	-8.00000e-01	5.630351e+04	
17	-8.50000e-01	5.857447e+04	
18	-9.00000e-01	6.101852e+04	
19	-9.50000e-01	6.365616e+04	
20	-1.00000e+00	6.651125e+04	
21	-1.05000e+00	6.961170e+04	
22	-1.10000e+00	7.299039e+04	
23	-1.15000e+00	7.668629e+04	
24	-1.20000e+00	8.074594e+04	
25	-1.25000e+00	8.522530e+04	
26	-1.30000e+00	9.019228e+04	
27	-1.35000e+00	9.572990e+04	
28	-1.40000e+00	1.019407e+05	
29	-1.45000e+00	1.089523e+05	
30	-1.50000e+00	1.169255e+05	
31	-1.55000e+00	1.260638e+05	
32	-1.60000e+00	1.366278e+05	
33	-1.65000e+00	1.489513e+05	
34	-1.70000e+00	1.634613e+05	
35	-1.75000e+00	1.806947e+05	
36	-1.80000e+00	2.012991e+05	
37	-1.85000e+00	2.259830e+05	
38	-1.90000e+00	2.553596e+05	
39	-1.95000e+00	2.896325e+05	
40	-2.00000e+00	3.281911e+05	
41	-2.05000e+00	3.694429e+05	
42	-2.10000e+00	4.112484e+05	
43	-2.15000e+00	4.517735e+05	
44	-2.20000e+00	4.900531e+05	
45	-2.25000e+00	5.259393e+05	
46	-2.30000e+00	5.597343e+05	
47	-2.35000e+00	5.918719e+05	
48	-2.40000e+00	6.227548e+05	
49	-2.45000e+00	6.527030e+05	
50	-2.50000e+00	6.819536e+05	
51	-2.55000e+00	7.106773e+05	
52	-2.60000e+00	7.389957e+05	
53	-2.65000e+00	7.669954e+05	
54	-2.70000e+00	7.947387e+05	

Index   v-sweep         rds             
--------------------------------------------------------------------------------
55	-2.75000e+00	8.222706e+05	
56	-2.80000e+00	8.496243e+05	
57	-2.85000e+00	8.768243e+05	
58	-2.90000e+00	9.038891e+05	
59	-2.95000e+00	9.308327e+05	
60	-3.00000e+00	9.576660e+05	
61	-3.05000e+00	9.843974e+05	
62	-3.10000e+00	1.011034e+06	
63	-3.15000e+00	1.037580e+06	
64	-3.20000e+00	1.064040e+06	
65	-3.25000e+00	1.090419e+06	
66	-3.30000e+00	1.116718e+06	
Reset re-loads circuit ***************************

Circuit: ***************************

Note: No ".plot", ".print", or ".fourier" lines; no simulations run
