
Note: Compatibility modes selected: hs

Warning: m=xx on .subckt line will override multiplier m hierarchy!


Circuit: ***************************

Doing analysis at TEMP = -40.000000 and TNOM = -40.000000


No. of Data Rows : 67
                          ***************************
                          DC transfer characteristic  Mon Jan  9 13:57:31  2023
--------------------------------------------------------------------------------
Index   v-sweep         rds             
--------------------------------------------------------------------------------
0	0.000000e+00	3.998614e+06	
1	-5.00000e-02	2.690006e+07	
2	-1.00000e-01	2.277912e+08	
3	-1.50000e-01	7.032900e+08	
4	-2.00000e-01	1.197479e+09	
5	-2.50000e-01	1.572767e+09	
6	-3.00000e-01	1.848543e+09	
7	-3.50000e-01	2.062935e+09	
8	-4.00000e-01	2.240418e+09	
9	-4.50000e-01	2.394589e+09	
10	-5.00000e-01	2.533007e+09	
11	-5.50000e-01	2.660046e+09	
12	-6.00000e-01	2.778369e+09	
13	-6.50000e-01	2.889680e+09	
14	-7.00000e-01	2.995128e+09	
15	-7.50000e-01	3.095523e+09	
16	-8.00000e-01	3.191461e+09	
17	-8.50000e-01	3.283398e+09	
18	-9.00000e-01	3.371694e+09	
19	-9.50000e-01	3.456645e+09	
20	-1.00000e+00	3.538494e+09	
21	-1.05000e+00	3.617452e+09	
22	-1.10000e+00	3.693700e+09	
23	-1.15000e+00	3.767397e+09	
24	-1.20000e+00	3.838688e+09	
25	-1.25000e+00	3.907700e+09	
26	-1.30000e+00	3.974550e+09	
27	-1.35000e+00	4.039345e+09	
28	-1.40000e+00	4.102184e+09	
29	-1.45000e+00	4.163157e+09	
30	-1.50000e+00	4.222348e+09	
31	-1.55000e+00	4.279833e+09	
32	-1.60000e+00	4.335685e+09	
33	-1.65000e+00	4.389969e+09	
34	-1.70000e+00	4.442743e+09	
35	-1.75000e+00	4.494058e+09	
36	-1.80000e+00	4.543958e+09	
37	-1.85000e+00	4.592478e+09	
38	-1.90000e+00	4.639639e+09	
39	-1.95000e+00	4.685452e+09	
40	-2.00000e+00	4.729908e+09	
41	-2.05000e+00	4.772983e+09	
42	-2.10000e+00	4.814628e+09	
43	-2.15000e+00	4.854769e+09	
44	-2.20000e+00	4.893301e+09	
45	-2.25000e+00	4.930086e+09	
46	-2.30000e+00	4.964946e+09	
47	-2.35000e+00	4.997663e+09	
48	-2.40000e+00	5.027973e+09	
49	-2.45000e+00	5.055564e+09	
50	-2.50000e+00	5.080074e+09	
51	-2.55000e+00	5.101091e+09	
52	-2.60000e+00	5.118153e+09	
53	-2.65000e+00	5.130754e+09	
54	-2.70000e+00	5.138345e+09	

Index   v-sweep         rds             
--------------------------------------------------------------------------------
55	-2.75000e+00	5.140346e+09	
56	-2.80000e+00	5.136153e+09	
57	-2.85000e+00	5.125158e+09	
58	-2.90000e+00	5.106758e+09	
59	-2.95000e+00	5.080381e+09	
60	-3.00000e+00	5.045503e+09	
61	-3.05000e+00	5.001675e+09	
62	-3.10000e+00	4.948540e+09	
63	-3.15000e+00	4.885862e+09	
64	-3.20000e+00	4.813539e+09	
65	-3.25000e+00	4.731622e+09	
66	-3.30000e+00	4.640325e+09	
Reset re-loads circuit ***************************

Circuit: ***************************

Doing analysis at TEMP = -40.000000 and TNOM = -40.000000


No. of Data Rows : 67
                          ***************************
                          DC transfer characteristic  Mon Jan  9 13:57:31  2023
--------------------------------------------------------------------------------
Index   v-sweep         rds             
--------------------------------------------------------------------------------
0	0.000000e+00	1.814573e+05	
1	-5.00000e-02	2.105068e+05	
2	-1.00000e-01	2.502176e+05	
3	-1.50000e-01	3.076179e+05	
4	-2.00000e-01	3.972428e+05	
5	-2.50000e-01	5.532040e+05	
6	-3.00000e-01	8.665680e+05	
7	-3.50000e-01	1.587409e+06	
8	-4.00000e-01	3.208046e+06	
9	-4.50000e-01	5.963804e+06	
10	-5.00000e-01	9.215714e+06	
11	-5.50000e-01	1.222986e+07	
12	-6.00000e-01	1.479894e+07	
13	-6.50000e-01	1.699893e+07	
14	-7.00000e-01	1.894464e+07	
15	-7.50000e-01	2.072197e+07	
16	-8.00000e-01	2.238646e+07	
17	-8.50000e-01	2.397292e+07	
18	-9.00000e-01	2.550332e+07	
19	-9.50000e-01	2.699180e+07	
20	-1.00000e+00	2.844773e+07	
21	-1.05000e+00	2.987745e+07	
22	-1.10000e+00	3.128538e+07	
23	-1.15000e+00	3.267468e+07	
24	-1.20000e+00	3.404764e+07	
25	-1.25000e+00	3.540598e+07	
26	-1.30000e+00	3.675100e+07	
27	-1.35000e+00	3.808369e+07	
28	-1.40000e+00	3.940486e+07	
29	-1.45000e+00	4.071514e+07	
30	-1.50000e+00	4.201504e+07	
31	-1.55000e+00	4.330499e+07	
32	-1.60000e+00	4.458534e+07	
33	-1.65000e+00	4.585640e+07	
34	-1.70000e+00	4.711843e+07	
35	-1.75000e+00	4.837164e+07	
36	-1.80000e+00	4.961622e+07	
37	-1.85000e+00	5.085232e+07	
38	-1.90000e+00	5.208007e+07	
39	-1.95000e+00	5.329955e+07	
40	-2.00000e+00	5.451075e+07	
41	-2.05000e+00	5.571363e+07	
42	-2.10000e+00	5.690799e+07	
43	-2.15000e+00	5.809351e+07	
44	-2.20000e+00	5.926964e+07	
45	-2.25000e+00	6.043557e+07	
46	-2.30000e+00	6.159010e+07	
47	-2.35000e+00	6.273158e+07	
48	-2.40000e+00	6.385778e+07	
49	-2.45000e+00	6.496573e+07	
50	-2.50000e+00	6.605161e+07	
51	-2.55000e+00	6.711057e+07	
52	-2.60000e+00	6.813654e+07	
53	-2.65000e+00	6.912212e+07	
54	-2.70000e+00	7.005837e+07	

Index   v-sweep         rds             
--------------------------------------------------------------------------------
55	-2.75000e+00	7.093474e+07	
56	-2.80000e+00	7.173895e+07	
57	-2.85000e+00	7.245696e+07	
58	-2.90000e+00	7.307310e+07	
59	-2.95000e+00	7.357019e+07	
60	-3.00000e+00	7.392991e+07	
61	-3.05000e+00	7.413320e+07	
62	-3.10000e+00	7.416098e+07	
63	-3.15000e+00	7.399487e+07	
64	-3.20000e+00	7.361814e+07	
65	-3.25000e+00	7.301670e+07	
66	-3.30000e+00	7.218018e+07	
Reset re-loads circuit ***************************

Circuit: ***************************

Doing analysis at TEMP = -40.000000 and TNOM = -40.000000


No. of Data Rows : 67
                          ***************************
                          DC transfer characteristic  Mon Jan  9 13:57:31  2023
--------------------------------------------------------------------------------
Index   v-sweep         rds             
--------------------------------------------------------------------------------
0	0.000000e+00	9.158462e+04	
1	-5.00000e-02	9.852026e+04	
2	-1.00000e-01	1.065354e+05	
3	-1.50000e-01	1.159024e+05	
4	-2.00000e-01	1.269930e+05	
5	-2.50000e-01	1.403279e+05	
6	-3.00000e-01	1.566582e+05	
7	-3.50000e-01	1.771059e+05	
8	-4.00000e-01	2.034168e+05	
9	-4.50000e-01	2.384404e+05	
10	-5.00000e-01	2.870877e+05	
11	-5.50000e-01	3.583217e+05	
12	-6.00000e-01	4.692858e+05	
13	-6.50000e-01	6.527159e+05	
14	-7.00000e-01	9.628457e+05	
15	-7.50000e-01	1.453371e+06	
16	-8.00000e-01	2.109112e+06	
17	-8.50000e-01	2.828734e+06	
18	-9.00000e-01	3.516260e+06	
19	-9.50000e-01	4.136740e+06	
20	-1.00000e+00	4.694741e+06	
21	-1.05000e+00	5.205458e+06	
22	-1.10000e+00	5.682684e+06	
23	-1.15000e+00	6.136443e+06	
24	-1.20000e+00	6.573536e+06	
25	-1.25000e+00	6.998507e+06	
26	-1.30000e+00	7.414406e+06	
27	-1.35000e+00	7.823314e+06	
28	-1.40000e+00	8.226673e+06	
29	-1.45000e+00	8.625504e+06	
30	-1.50000e+00	9.020544e+06	
31	-1.55000e+00	9.412334e+06	
32	-1.60000e+00	9.801276e+06	
33	-1.65000e+00	1.018768e+07	
34	-1.70000e+00	1.057178e+07	
35	-1.75000e+00	1.095376e+07	
36	-1.80000e+00	1.133376e+07	
37	-1.85000e+00	1.171191e+07	
38	-1.90000e+00	1.208830e+07	
39	-1.95000e+00	1.246301e+07	
40	-2.00000e+00	1.283610e+07	
41	-2.05000e+00	1.320762e+07	
42	-2.10000e+00	1.357763e+07	
43	-2.15000e+00	1.394615e+07	
44	-2.20000e+00	1.431322e+07	
45	-2.25000e+00	1.467884e+07	
46	-2.30000e+00	1.504304e+07	
47	-2.35000e+00	1.540579e+07	
48	-2.40000e+00	1.576705e+07	
49	-2.45000e+00	1.612677e+07	
50	-2.50000e+00	1.648482e+07	
51	-2.55000e+00	1.684103e+07	
52	-2.60000e+00	1.719512e+07	
53	-2.65000e+00	1.754672e+07	
54	-2.70000e+00	1.789530e+07	

Index   v-sweep         rds             
--------------------------------------------------------------------------------
55	-2.75000e+00	1.824016e+07	
56	-2.80000e+00	1.858035e+07	
57	-2.85000e+00	1.891467e+07	
58	-2.90000e+00	1.924156e+07	
59	-2.95000e+00	1.955910e+07	
60	-3.00000e+00	1.986491e+07	
61	-3.05000e+00	2.015614e+07	
62	-3.10000e+00	2.042939e+07	
63	-3.15000e+00	2.068070e+07	
64	-3.20000e+00	2.090555e+07	
65	-3.25000e+00	2.109885e+07	
66	-3.30000e+00	2.125506e+07	
Reset re-loads circuit ***************************

Circuit: ***************************

Doing analysis at TEMP = -40.000000 and TNOM = -40.000000


No. of Data Rows : 67
                          ***************************
                          DC transfer characteristic  Mon Jan  9 13:57:31  2023
--------------------------------------------------------------------------------
Index   v-sweep         rds             
--------------------------------------------------------------------------------
0	0.000000e+00	6.330948e+04	
1	-5.00000e-02	6.645786e+04	
2	-1.00000e-01	6.991339e+04	
3	-1.50000e-01	7.372321e+04	
4	-2.00000e-01	7.794468e+04	
5	-2.50000e-01	8.264813e+04	
6	-3.00000e-01	8.792091e+04	
7	-3.50000e-01	9.387267e+04	
8	-4.00000e-01	1.006431e+05	
9	-4.50000e-01	1.084125e+05	
10	-5.00000e-01	1.174182e+05	
11	-5.50000e-01	1.279781e+05	
12	-6.00000e-01	1.405272e+05	
13	-6.50000e-01	1.556758e+05	
14	-7.00000e-01	1.743041e+05	
15	-7.50000e-01	1.977195e+05	
16	-8.00000e-01	2.279289e+05	
17	-8.50000e-01	2.681084e+05	
18	-9.00000e-01	3.233994e+05	
19	-9.50000e-01	4.020886e+05	
20	-1.00000e+00	5.166280e+05	
21	-1.05000e+00	6.819213e+05	
22	-1.10000e+00	9.063795e+05	
23	-1.15000e+00	1.179157e+06	
24	-1.20000e+00	1.472176e+06	
25	-1.25000e+00	1.759431e+06	
26	-1.30000e+00	2.028889e+06	
27	-1.35000e+00	2.279430e+06	
28	-1.40000e+00	2.514280e+06	
29	-1.45000e+00	2.737259e+06	
30	-1.50000e+00	2.951522e+06	
31	-1.55000e+00	3.159395e+06	
32	-1.60000e+00	3.362522e+06	
33	-1.65000e+00	3.562053e+06	
34	-1.70000e+00	3.758797e+06	
35	-1.75000e+00	3.953329e+06	
36	-1.80000e+00	4.146063e+06	
37	-1.85000e+00	4.337302e+06	
38	-1.90000e+00	4.527268e+06	
39	-1.95000e+00	4.716133e+06	
40	-2.00000e+00	4.904023e+06	
41	-2.05000e+00	5.091039e+06	
42	-2.10000e+00	5.277260e+06	
43	-2.15000e+00	5.462746e+06	
44	-2.20000e+00	5.647548e+06	
45	-2.25000e+00	5.831705e+06	
46	-2.30000e+00	6.015250e+06	
47	-2.35000e+00	6.198211e+06	
48	-2.40000e+00	6.380609e+06	
49	-2.45000e+00	6.562462e+06	
50	-2.50000e+00	6.743786e+06	
51	-2.55000e+00	6.924590e+06	
52	-2.60000e+00	7.104882e+06	
53	-2.65000e+00	7.284661e+06	
54	-2.70000e+00	7.463919e+06	

Index   v-sweep         rds             
--------------------------------------------------------------------------------
55	-2.75000e+00	7.642638e+06	
56	-2.80000e+00	7.820782e+06	
57	-2.85000e+00	7.998292e+06	
58	-2.90000e+00	8.175080e+06	
59	-2.95000e+00	8.351014e+06	
60	-3.00000e+00	8.525904e+06	
61	-3.05000e+00	8.699491e+06	
62	-3.10000e+00	8.871422e+06	
63	-3.15000e+00	9.041230e+06	
64	-3.20000e+00	9.208309e+06	
65	-3.25000e+00	9.371885e+06	
66	-3.30000e+00	9.530990e+06	
Reset re-loads circuit ***************************

Circuit: ***************************

Doing analysis at TEMP = -40.000000 and TNOM = -40.000000


No. of Data Rows : 67
                          ***************************
                          DC transfer characteristic  Mon Jan  9 13:57:31  2023
--------------------------------------------------------------------------------
Index   v-sweep         rds             
--------------------------------------------------------------------------------
0	0.000000e+00	4.970566e+04	
1	-5.00000e-02	5.154651e+04	
2	-1.00000e-01	5.351696e+04	
3	-1.50000e-01	5.563119e+04	
4	-2.00000e-01	5.790549e+04	
5	-2.50000e-01	6.035874e+04	
6	-3.00000e-01	6.301287e+04	
7	-3.50000e-01	6.589358e+04	
8	-4.00000e-01	6.903110e+04	
9	-4.50000e-01	7.246132e+04	
10	-5.00000e-01	7.622708e+04	
11	-5.50000e-01	8.038000e+04	
12	-6.00000e-01	8.498282e+04	
13	-6.50000e-01	9.011254e+04	
14	-7.00000e-01	9.586465e+04	
15	-7.50000e-01	1.023590e+05	
16	-8.00000e-01	1.097481e+05	
17	-8.50000e-01	1.182284e+05	
18	-9.00000e-01	1.280576e+05	
19	-9.50000e-01	1.395794e+05	
20	-1.00000e+00	1.532606e+05	
21	-1.05000e+00	1.697488e+05	
22	-1.10000e+00	1.899607e+05	
23	-1.15000e+00	2.152187e+05	
24	-1.20000e+00	2.474561e+05	
25	-1.25000e+00	2.894950e+05	
26	-1.30000e+00	3.453171e+05	
27	-1.35000e+00	4.199819e+05	
28	-1.40000e+00	5.183868e+05	
29	-1.45000e+00	6.421972e+05	
30	-1.50000e+00	7.866760e+05	
31	-1.55000e+00	9.417281e+05	
32	-1.60000e+00	1.097351e+06	
33	-1.65000e+00	1.247710e+06	
34	-1.70000e+00	1.391076e+06	
35	-1.75000e+00	1.527933e+06	
36	-1.80000e+00	1.659482e+06	
37	-1.85000e+00	1.786926e+06	
38	-1.90000e+00	1.911253e+06	
39	-1.95000e+00	2.033205e+06	
40	-2.00000e+00	2.153332e+06	
41	-2.05000e+00	2.272028e+06	
42	-2.10000e+00	2.389583e+06	
43	-2.15000e+00	2.506210e+06	
44	-2.20000e+00	2.622066e+06	
45	-2.25000e+00	2.737268e+06	
46	-2.30000e+00	2.851905e+06	
47	-2.35000e+00	2.966047e+06	
48	-2.40000e+00	3.079747e+06	
49	-2.45000e+00	3.193046e+06	
50	-2.50000e+00	3.305978e+06	
51	-2.55000e+00	3.418570e+06	
52	-2.60000e+00	3.530843e+06	
53	-2.65000e+00	3.642815e+06	
54	-2.70000e+00	3.754500e+06	

Index   v-sweep         rds             
--------------------------------------------------------------------------------
55	-2.75000e+00	3.865910e+06	
56	-2.80000e+00	3.977056e+06	
57	-2.85000e+00	4.087944e+06	
58	-2.90000e+00	4.198580e+06	
59	-2.95000e+00	4.308967e+06	
60	-3.00000e+00	4.419105e+06	
61	-3.05000e+00	4.528990e+06	
62	-3.10000e+00	4.638609e+06	
63	-3.15000e+00	4.747943e+06	
64	-3.20000e+00	4.856956e+06	
65	-3.25000e+00	4.965597e+06	
66	-3.30000e+00	5.073788e+06	
Reset re-loads circuit ***************************

Circuit: ***************************

Doing analysis at TEMP = -40.000000 and TNOM = -40.000000


No. of Data Rows : 67
                          ***************************
                          DC transfer characteristic  Mon Jan  9 13:57:31  2023
--------------------------------------------------------------------------------
Index   v-sweep         rds             
--------------------------------------------------------------------------------
0	0.000000e+00	4.184318e+04	
1	-5.00000e-02	4.307636e+04	
2	-1.00000e-01	4.437694e+04	
3	-1.50000e-01	4.575059e+04	
4	-2.00000e-01	4.720365e+04	
5	-2.50000e-01	4.874318e+04	
6	-3.00000e-01	5.037714e+04	
7	-3.50000e-01	5.211446e+04	
8	-4.00000e-01	5.396527e+04	
9	-4.50000e-01	5.594104e+04	
10	-5.00000e-01	5.805485e+04	
11	-5.50000e-01	6.032165e+04	
12	-6.00000e-01	6.275865e+04	
13	-6.50000e-01	6.538572e+04	
14	-7.00000e-01	6.822596e+04	
15	-7.50000e-01	7.130634e+04	
16	-8.00000e-01	7.465857e+04	
17	-8.50000e-01	7.832017e+04	
18	-9.00000e-01	8.233589e+04	
19	-9.50000e-01	8.675946e+04	
20	-1.00000e+00	9.165599e+04	
21	-1.05000e+00	9.710512e+04	
22	-1.10000e+00	1.032052e+05	
23	-1.15000e+00	1.100790e+05	
24	-1.20000e+00	1.178817e+05	
25	-1.25000e+00	1.268118e+05	
26	-1.30000e+00	1.371268e+05	
27	-1.35000e+00	1.491655e+05	
28	-1.40000e+00	1.633800e+05	
29	-1.45000e+00	1.803811e+05	
30	-1.50000e+00	2.010026e+05	
31	-1.55000e+00	2.263842e+05	
32	-1.60000e+00	2.580619e+05	
33	-1.65000e+00	2.980112e+05	
34	-1.70000e+00	3.485042e+05	
35	-1.75000e+00	4.115391e+05	
36	-1.80000e+00	4.877301e+05	
37	-1.85000e+00	5.752246e+05	
38	-1.90000e+00	6.698891e+05	
39	-1.95000e+00	7.670642e+05	
40	-2.00000e+00	8.633547e+05	
41	-2.05000e+00	9.571297e+05	
42	-2.10000e+00	1.048030e+06	
43	-2.15000e+00	1.136314e+06	
44	-2.20000e+00	1.222432e+06	
45	-2.25000e+00	1.306827e+06	
46	-2.30000e+00	1.389870e+06	
47	-2.35000e+00	1.471851e+06	
48	-2.40000e+00	1.552990e+06	
49	-2.45000e+00	1.633451e+06	
50	-2.50000e+00	1.713359e+06	
51	-2.55000e+00	1.792806e+06	
52	-2.60000e+00	1.871863e+06	
53	-2.65000e+00	1.950584e+06	
54	-2.70000e+00	2.029011e+06	

Index   v-sweep         rds             
--------------------------------------------------------------------------------
55	-2.75000e+00	2.107177e+06	
56	-2.80000e+00	2.185107e+06	
57	-2.85000e+00	2.262821e+06	
58	-2.90000e+00	2.340336e+06	
59	-2.95000e+00	2.417666e+06	
60	-3.00000e+00	2.494821e+06	
61	-3.05000e+00	2.571810e+06	
62	-3.10000e+00	2.648640e+06	
63	-3.15000e+00	2.725318e+06	
64	-3.20000e+00	2.801848e+06	
65	-3.25000e+00	2.878234e+06	
66	-3.30000e+00	2.954477e+06	
Reset re-loads circuit ***************************

Circuit: ***************************

Note: No ".plot", ".print", or ".fourier" lines; no simulations run
