
Note: Compatibility modes selected: hs

Warning: m=xx on .subckt line will override multiplier m hierarchy!


Circuit: ***************************

Doing analysis at TEMP = 125.000000 and TNOM = 125.000000


No. of Data Rows : 67
                          ***************************
                          DC transfer characteristic  Mon Jan  9 13:57:32  2023
--------------------------------------------------------------------------------
Index   v-sweep         rds             
--------------------------------------------------------------------------------
0	0.000000e+00	1.283627e+04	
1	-5.00000e-02	1.896099e+04	
2	-1.00000e-01	3.429161e+04	
3	-1.50000e-01	8.933305e+04	
4	-2.00000e-01	2.873688e+05	
5	-2.50000e-01	6.667722e+05	
6	-3.00000e-01	1.049725e+06	
7	-3.50000e-01	1.340325e+06	
8	-4.00000e-01	1.555436e+06	
9	-4.50000e-01	1.724700e+06	
10	-5.00000e-01	1.866720e+06	
11	-5.50000e-01	1.991636e+06	
12	-6.00000e-01	2.104992e+06	
13	-6.50000e-01	2.209951e+06	
14	-7.00000e-01	2.308418e+06	
15	-7.50000e-01	2.401602e+06	
16	-8.00000e-01	2.490314e+06	
17	-8.50000e-01	2.575124e+06	
18	-9.00000e-01	2.656452e+06	
19	-9.50000e-01	2.734621e+06	
20	-1.00000e+00	2.809888e+06	
21	-1.05000e+00	2.882462e+06	
22	-1.10000e+00	2.952520e+06	
23	-1.15000e+00	3.020215e+06	
24	-1.20000e+00	3.085680e+06	
25	-1.25000e+00	3.149034e+06	
26	-1.30000e+00	3.210384e+06	
27	-1.35000e+00	3.269827e+06	
28	-1.40000e+00	3.327451e+06	
29	-1.45000e+00	3.383339e+06	
30	-1.50000e+00	3.437565e+06	
31	-1.55000e+00	3.490202e+06	
32	-1.60000e+00	3.541313e+06	
33	-1.65000e+00	3.590959e+06	
34	-1.70000e+00	3.639197e+06	
35	-1.75000e+00	3.686076e+06	
36	-1.80000e+00	3.731640e+06	
37	-1.85000e+00	3.775929e+06	
38	-1.90000e+00	3.818971e+06	
39	-1.95000e+00	3.860786e+06	
40	-2.00000e+00	3.901379e+06	
41	-2.05000e+00	3.940742e+06	
42	-2.10000e+00	3.978847e+06	
43	-2.15000e+00	4.015642e+06	
44	-2.20000e+00	4.051046e+06	
45	-2.25000e+00	4.084948e+06	
46	-2.30000e+00	4.117196e+06	
47	-2.35000e+00	4.147596e+06	
48	-2.40000e+00	4.175906e+06	
49	-2.45000e+00	4.201828e+06	
50	-2.50000e+00	4.225009e+06	
51	-2.55000e+00	4.245034e+06	
52	-2.60000e+00	4.261430e+06	
53	-2.65000e+00	4.273662e+06	
54	-2.70000e+00	4.281141e+06	

Index   v-sweep         rds             
--------------------------------------------------------------------------------
55	-2.75000e+00	4.283231e+06	
56	-2.80000e+00	4.279261e+06	
57	-2.85000e+00	4.268542e+06	
58	-2.90000e+00	4.250389e+06	
59	-2.95000e+00	4.224142e+06	
60	-3.00000e+00	4.189201e+06	
61	-3.05000e+00	4.145054e+06	
62	-3.10000e+00	4.091309e+06	
63	-3.15000e+00	4.027725e+06	
64	-3.20000e+00	3.954240e+06	
65	-3.25000e+00	3.870989e+06	
66	-3.30000e+00	3.778316e+06	
Reset re-loads circuit ***************************

Circuit: ***************************

Doing analysis at TEMP = 125.000000 and TNOM = 125.000000


No. of Data Rows : 67
                          ***************************
                          DC transfer characteristic  Mon Jan  9 13:57:32  2023
--------------------------------------------------------------------------------
Index   v-sweep         rds             
--------------------------------------------------------------------------------
0	0.000000e+00	2.832569e+03	
1	-5.00000e-02	3.127489e+03	
2	-1.00000e-01	3.486968e+03	
3	-1.50000e-01	3.934637e+03	
4	-2.00000e-01	4.507078e+03	
5	-2.50000e-01	5.263837e+03	
6	-3.00000e-01	6.307877e+03	
7	-3.50000e-01	7.830426e+03	
8	-4.00000e-01	1.021556e+04	
9	-4.50000e-01	1.428518e+04	
10	-5.00000e-01	2.175952e+04	
11	-5.50000e-01	3.532504e+04	
12	-6.00000e-01	5.604428e+04	
13	-6.50000e-01	8.009157e+04	
14	-7.00000e-01	1.025068e+05	
15	-7.50000e-01	1.215737e+05	
16	-8.00000e-01	1.377664e+05	
17	-8.50000e-01	1.519562e+05	
18	-9.00000e-01	1.648137e+05	
19	-9.50000e-01	1.767722e+05	
20	-1.00000e+00	1.881001e+05	
21	-1.05000e+00	1.989643e+05	
22	-1.10000e+00	2.094713e+05	
23	-1.15000e+00	2.196906e+05	
24	-1.20000e+00	2.296691e+05	
25	-1.25000e+00	2.394394e+05	
26	-1.30000e+00	2.490250e+05	
27	-1.35000e+00	2.584430e+05	
28	-1.40000e+00	2.677065e+05	
29	-1.45000e+00	2.768255e+05	
30	-1.50000e+00	2.858081e+05	
31	-1.55000e+00	2.946610e+05	
32	-1.60000e+00	3.033895e+05	
33	-1.65000e+00	3.119983e+05	
34	-1.70000e+00	3.204914e+05	
35	-1.75000e+00	3.288723e+05	
36	-1.80000e+00	3.371443e+05	
37	-1.85000e+00	3.453101e+05	
38	-1.90000e+00	3.533722e+05	
39	-1.95000e+00	3.613331e+05	
40	-2.00000e+00	3.691948e+05	
41	-2.05000e+00	3.769591e+05	
42	-2.10000e+00	3.846275e+05	
43	-2.15000e+00	3.922008e+05	
44	-2.20000e+00	3.996796e+05	
45	-2.25000e+00	4.070632e+05	
46	-2.30000e+00	4.143499e+05	
47	-2.35000e+00	4.215362e+05	
48	-2.40000e+00	4.286163e+05	
49	-2.45000e+00	4.355817e+05	
50	-2.50000e+00	4.424200e+05	
51	-2.55000e+00	4.491142e+05	
52	-2.60000e+00	4.556413e+05	
53	-2.65000e+00	4.619716e+05	
54	-2.70000e+00	4.680672e+05	

Index   v-sweep         rds             
--------------------------------------------------------------------------------
55	-2.75000e+00	4.738806e+05	
56	-2.80000e+00	4.793538e+05	
57	-2.85000e+00	4.844169e+05	
58	-2.90000e+00	4.889878e+05	
59	-2.95000e+00	4.929714e+05	
60	-3.00000e+00	4.962601e+05	
61	-3.05000e+00	4.987350e+05	
62	-3.10000e+00	5.002679e+05	
63	-3.15000e+00	5.007247e+05	
64	-3.20000e+00	4.999699e+05	
65	-3.25000e+00	4.978726e+05	
66	-3.30000e+00	4.943132e+05	
Reset re-loads circuit ***************************

Circuit: ***************************

Doing analysis at TEMP = 125.000000 and TNOM = 125.000000


No. of Data Rows : 67
                          ***************************
                          DC transfer characteristic  Mon Jan  9 13:57:32  2023
--------------------------------------------------------------------------------
Index   v-sweep         rds             
--------------------------------------------------------------------------------
0	0.000000e+00	1.697046e+03	
1	-5.00000e-02	1.796682e+03	
2	-1.00000e-01	1.907732e+03	
3	-1.50000e-01	2.032269e+03	
4	-2.00000e-01	2.172903e+03	
5	-2.50000e-01	2.332959e+03	
6	-3.00000e-01	2.516740e+03	
7	-3.50000e-01	2.729913e+03	
8	-4.00000e-01	2.980088e+03	
9	-4.50000e-01	3.277715e+03	
10	-5.00000e-01	3.637510e+03	
11	-5.50000e-01	4.080812e+03	
12	-6.00000e-01	4.639577e+03	
13	-6.50000e-01	5.363405e+03	
14	-7.00000e-01	6.332155e+03	
15	-7.50000e-01	7.678376e+03	
16	-8.00000e-01	9.623627e+03	
17	-8.50000e-01	1.251703e+04	
18	-9.00000e-01	1.679591e+04	
19	-9.50000e-01	2.269313e+04	
20	-1.00000e+00	2.978863e+04	
21	-1.05000e+00	3.713707e+04	
22	-1.10000e+00	4.399988e+04	
23	-1.15000e+00	5.015778e+04	
24	-1.20000e+00	5.569527e+04	
25	-1.25000e+00	6.076831e+04	
26	-1.30000e+00	6.551065e+04	
27	-1.35000e+00	7.001774e+04	
28	-1.40000e+00	7.435372e+04	
29	-1.45000e+00	7.856117e+04	
30	-1.50000e+00	8.266854e+04	
31	-1.55000e+00	8.669514e+04	
32	-1.60000e+00	9.065434e+04	
33	-1.65000e+00	9.455561e+04	
34	-1.70000e+00	9.840580e+04	
35	-1.75000e+00	1.022100e+05	
36	-1.80000e+00	1.059719e+05	
37	-1.85000e+00	1.096945e+05	
38	-1.90000e+00	1.133802e+05	
39	-1.95000e+00	1.170307e+05	
40	-2.00000e+00	1.206476e+05	
41	-2.05000e+00	1.242320e+05	
42	-2.10000e+00	1.277850e+05	
43	-2.15000e+00	1.313076e+05	
44	-2.20000e+00	1.348004e+05	
45	-2.25000e+00	1.382642e+05	
46	-2.30000e+00	1.416996e+05	
47	-2.35000e+00	1.451069e+05	
48	-2.40000e+00	1.484868e+05	
49	-2.45000e+00	1.518394e+05	
50	-2.50000e+00	1.551649e+05	
51	-2.55000e+00	1.584632e+05	
52	-2.60000e+00	1.617340e+05	
53	-2.65000e+00	1.649764e+05	
54	-2.70000e+00	1.681891e+05	

Index   v-sweep         rds             
--------------------------------------------------------------------------------
55	-2.75000e+00	1.713697e+05	
56	-2.80000e+00	1.745149e+05	
57	-2.85000e+00	1.776198e+05	
58	-2.90000e+00	1.806776e+05	
59	-2.95000e+00	1.836792e+05	
60	-3.00000e+00	1.866124e+05	
61	-3.05000e+00	1.894618e+05	
62	-3.10000e+00	1.922075e+05	
63	-3.15000e+00	1.948249e+05	
64	-3.20000e+00	1.972842e+05	
65	-3.25000e+00	1.995495e+05	
66	-3.30000e+00	2.015788e+05	
Reset re-loads circuit ***************************

Circuit: ***************************

Doing analysis at TEMP = 125.000000 and TNOM = 125.000000


No. of Data Rows : 67
                          ***************************
                          DC transfer characteristic  Mon Jan  9 13:57:32  2023
--------------------------------------------------------------------------------
Index   v-sweep         rds             
--------------------------------------------------------------------------------
0	0.000000e+00	1.271072e+03	
1	-5.00000e-02	1.323497e+03	
2	-1.00000e-01	1.379970e+03	
3	-1.50000e-01	1.440978e+03	
4	-2.00000e-01	1.507087e+03	
5	-2.50000e-01	1.578965e+03	
6	-3.00000e-01	1.657400e+03	
7	-3.50000e-01	1.743328e+03	
8	-4.00000e-01	1.837875e+03	
9	-4.50000e-01	1.942402e+03	
10	-5.00000e-01	2.058571e+03	
11	-5.50000e-01	2.188433e+03	
12	-6.00000e-01	2.334548e+03	
13	-6.50000e-01	2.500150e+03	
14	-7.00000e-01	2.689383e+03	
15	-7.50000e-01	2.907639e+03	
16	-8.00000e-01	3.162050e+03	
17	-8.50000e-01	3.462231e+03	
18	-9.00000e-01	3.821404e+03	
19	-9.50000e-01	4.258149e+03	
20	-1.00000e+00	4.799127e+03	
21	-1.05000e+00	5.483301e+03	
22	-1.10000e+00	6.368112e+03	
23	-1.15000e+00	7.537037e+03	
24	-1.20000e+00	9.103501e+03	
25	-1.25000e+00	1.119467e+04	
26	-1.30000e+00	1.388779e+04	
27	-1.35000e+00	1.710860e+04	
28	-1.40000e+00	2.060582e+04	
29	-1.45000e+00	2.408761e+04	
30	-1.50000e+00	2.737545e+04	
31	-1.55000e+00	3.042439e+04	
32	-1.60000e+00	3.326150e+04	
33	-1.65000e+00	3.593293e+04	
34	-1.70000e+00	3.848053e+04	
35	-1.75000e+00	4.093614e+04	
36	-1.80000e+00	4.332248e+04	
37	-1.85000e+00	4.565539e+04	
38	-1.90000e+00	4.794590e+04	
39	-1.95000e+00	5.020177e+04	
40	-2.00000e+00	5.242851e+04	
41	-2.05000e+00	5.463010e+04	
42	-2.10000e+00	5.680947e+04	
43	-2.15000e+00	5.896882e+04	
44	-2.20000e+00	6.110979e+04	
45	-2.25000e+00	6.323369e+04	
46	-2.30000e+00	6.534151e+04	
47	-2.35000e+00	6.743407e+04	
48	-2.40000e+00	6.951202e+04	
49	-2.45000e+00	7.157588e+04	
50	-2.50000e+00	7.362612e+04	
51	-2.55000e+00	7.566310e+04	
52	-2.60000e+00	7.768714e+04	
53	-2.65000e+00	7.969853e+04	
54	-2.70000e+00	8.169748e+04	

Index   v-sweep         rds             
--------------------------------------------------------------------------------
55	-2.75000e+00	8.368418e+04	
56	-2.80000e+00	8.565877e+04	
57	-2.85000e+00	8.762131e+04	
58	-2.90000e+00	8.957175e+04	
59	-2.95000e+00	9.150992e+04	
60	-3.00000e+00	9.343541e+04	
61	-3.05000e+00	9.534753e+04	
62	-3.10000e+00	9.724516e+04	
63	-3.15000e+00	9.912660e+04	
64	-3.20000e+00	1.009894e+05	
65	-3.25000e+00	1.028301e+05	
66	-3.30000e+00	1.046438e+05	
Reset re-loads circuit ***************************

Circuit: ***************************

Doing analysis at TEMP = 125.000000 and TNOM = 125.000000


No. of Data Rows : 67
                          ***************************
                          DC transfer characteristic  Mon Jan  9 13:57:32  2023
--------------------------------------------------------------------------------
Index   v-sweep         rds             
--------------------------------------------------------------------------------
0	0.000000e+00	1.048251e+03	
1	-5.00000e-02	1.081707e+03	
2	-1.00000e-01	1.117103e+03	
3	-1.50000e-01	1.154613e+03	
4	-2.00000e-01	1.194431e+03	
5	-2.50000e-01	1.236777e+03	
6	-3.00000e-01	1.281899e+03	
7	-3.50000e-01	1.330078e+03	
8	-4.00000e-01	1.381635e+03	
9	-4.50000e-01	1.436938e+03	
10	-5.00000e-01	1.496410e+03	
11	-5.50000e-01	1.560538e+03	
12	-6.00000e-01	1.629891e+03	
13	-6.50000e-01	1.705132e+03	
14	-7.00000e-01	1.787042e+03	
15	-7.50000e-01	1.876546e+03	
16	-8.00000e-01	1.974746e+03	
17	-8.50000e-01	2.082968e+03	
18	-9.00000e-01	2.202822e+03	
19	-9.50000e-01	2.336274e+03	
20	-1.00000e+00	2.485759e+03	
21	-1.05000e+00	2.654319e+03	
22	-1.10000e+00	2.845802e+03	
23	-1.15000e+00	3.065140e+03	
24	-1.20000e+00	3.318738e+03	
25	-1.25000e+00	3.615034e+03	
26	-1.30000e+00	3.965296e+03	
27	-1.35000e+00	4.384762e+03	
28	-1.40000e+00	4.894198e+03	
29	-1.45000e+00	5.521850e+03	
30	-1.50000e+00	6.305290e+03	
31	-1.55000e+00	7.291373e+03	
32	-1.60000e+00	8.529970e+03	
33	-1.65000e+00	1.005522e+04	
34	-1.70000e+00	1.185488e+04	
35	-1.75000e+00	1.385081e+04	
36	-1.80000e+00	1.592289e+04	
37	-1.85000e+00	1.796481e+04	
38	-1.90000e+00	1.991924e+04	
39	-1.95000e+00	2.177319e+04	
40	-2.00000e+00	2.353697e+04	
41	-2.05000e+00	2.522777e+04	
42	-2.10000e+00	2.686186e+04	
43	-2.15000e+00	2.845230e+04	
44	-2.20000e+00	3.000884e+04	
45	-2.25000e+00	3.153855e+04	
46	-2.30000e+00	3.304654e+04	
47	-2.35000e+00	3.453650e+04	
48	-2.40000e+00	3.601112e+04	
49	-2.45000e+00	3.747240e+04	
50	-2.50000e+00	3.892180e+04	
51	-2.55000e+00	4.036045e+04	
52	-2.60000e+00	4.178923e+04	
53	-2.65000e+00	4.320879e+04	
54	-2.70000e+00	4.461967e+04	

Index   v-sweep         rds             
--------------------------------------------------------------------------------
55	-2.75000e+00	4.602229e+04	
56	-2.80000e+00	4.741700e+04	
57	-2.85000e+00	4.880407e+04	
58	-2.90000e+00	5.018375e+04	
59	-2.95000e+00	5.155623e+04	
60	-3.00000e+00	5.292168e+04	
61	-3.05000e+00	5.428023e+04	
62	-3.10000e+00	5.563200e+04	
63	-3.15000e+00	5.697706e+04	
64	-3.20000e+00	5.831546e+04	
65	-3.25000e+00	5.964720e+04	
66	-3.30000e+00	6.097216e+04	
Reset re-loads circuit ***************************

Circuit: ***************************

Doing analysis at TEMP = 125.000000 and TNOM = 125.000000


No. of Data Rows : 67
                          ***************************
                          DC transfer characteristic  Mon Jan  9 13:57:32  2023
--------------------------------------------------------------------------------
Index   v-sweep         rds             
--------------------------------------------------------------------------------
0	0.000000e+00	9.113266e+02	
1	-5.00000e-02	9.350888e+02	
2	-1.00000e-01	9.599504e+02	
3	-1.50000e-01	9.859892e+02	
4	-2.00000e-01	1.013291e+03	
5	-2.50000e-01	1.041949e+03	
6	-3.00000e-01	1.072067e+03	
7	-3.50000e-01	1.103759e+03	
8	-4.00000e-01	1.137152e+03	
9	-4.50000e-01	1.172385e+03	
10	-5.00000e-01	1.209616e+03	
11	-5.50000e-01	1.249018e+03	
12	-6.00000e-01	1.290786e+03	
13	-6.50000e-01	1.335141e+03	
14	-7.00000e-01	1.382328e+03	
15	-7.50000e-01	1.432629e+03	
16	-8.00000e-01	1.486359e+03	
17	-8.50000e-01	1.543883e+03	
18	-9.00000e-01	1.605615e+03	
19	-9.50000e-01	1.672032e+03	
20	-1.00000e+00	1.743688e+03	
21	-1.05000e+00	1.821226e+03	
22	-1.10000e+00	1.905397e+03	
23	-1.15000e+00	1.997086e+03	
24	-1.20000e+00	2.097342e+03	
25	-1.25000e+00	2.207417e+03	
26	-1.30000e+00	2.328814e+03	
27	-1.35000e+00	2.463357e+03	
28	-1.40000e+00	2.613277e+03	
29	-1.45000e+00	2.781325e+03	
30	-1.50000e+00	2.970931e+03	
31	-1.55000e+00	3.186414e+03	
32	-1.60000e+00	3.433261e+03	
33	-1.65000e+00	3.718510e+03	
34	-1.70000e+00	4.051249e+03	
35	-1.75000e+00	4.443242e+03	
36	-1.80000e+00	4.909612e+03	
37	-1.85000e+00	5.469350e+03	
38	-1.90000e+00	6.145000e+03	
39	-1.95000e+00	6.960182e+03	
40	-2.00000e+00	7.933108e+03	
41	-2.05000e+00	9.065653e+03	
42	-2.10000e+00	1.033308e+04	
43	-2.15000e+00	1.168529e+04	
44	-2.20000e+00	1.306415e+04	
45	-2.25000e+00	1.442447e+04	
46	-2.30000e+00	1.574291e+04	
47	-2.35000e+00	1.701388e+04	
48	-2.40000e+00	1.824129e+04	
49	-2.45000e+00	1.943227e+04	
50	-2.50000e+00	2.059396e+04	
51	-2.55000e+00	2.173239e+04	
52	-2.60000e+00	2.285223e+04	
53	-2.65000e+00	2.395700e+04	
54	-2.70000e+00	2.504933e+04	

Index   v-sweep         rds             
--------------------------------------------------------------------------------
55	-2.75000e+00	2.613117e+04	
56	-2.80000e+00	2.720396e+04	
57	-2.85000e+00	2.826880e+04	
58	-2.90000e+00	2.932651e+04	
59	-2.95000e+00	3.037772e+04	
60	-3.00000e+00	3.142292e+04	
61	-3.05000e+00	3.246251e+04	
62	-3.10000e+00	3.349679e+04	
63	-3.15000e+00	3.452601e+04	
64	-3.20000e+00	3.555036e+04	
65	-3.25000e+00	3.657001e+04	
66	-3.30000e+00	3.758510e+04	
Reset re-loads circuit ***************************

Circuit: ***************************

Note: No ".plot", ".print", or ".fourier" lines; no simulations run
