
Note: Compatibility modes selected: hs

Warning: m=xx on .subckt line will override multiplier m hierarchy!


Circuit: ***************************

Doing analysis at TEMP = 25.000000 and TNOM = 25.000000


No. of Data Rows : 67
                          ***************************
                          DC transfer characteristic  Mon Jan  9 13:57:30  2023
--------------------------------------------------------------------------------
Index   v-sweep         rds             
--------------------------------------------------------------------------------
0	0.000000e+00	9.367129e+06	
1	-5.00000e-02	2.719549e+07	
2	-1.00000e-01	1.758074e+08	
3	-1.50000e-01	9.066345e+08	
4	-2.00000e-01	2.679542e+09	
5	-2.50000e-01	5.452754e+09	
6	-3.00000e-01	8.761586e+09	
7	-3.50000e-01	1.211499e+10	
8	-4.00000e-01	1.522326e+10	
9	-4.50000e-01	1.798669e+10	
10	-5.00000e-01	2.040955e+10	
11	-5.50000e-01	2.253529e+10	
12	-6.00000e-01	2.441433e+10	
13	-6.50000e-01	2.609195e+10	
14	-7.00000e-01	2.760520e+10	
15	-7.50000e-01	2.898331e+10	
16	-8.00000e-01	3.024908e+10	
17	-8.50000e-01	3.142026e+10	
18	-9.00000e-01	3.251077e+10	
19	-9.50000e-01	3.353165e+10	
20	-1.00000e+00	3.449173e+10	
21	-1.05000e+00	3.539817e+10	
22	-1.10000e+00	3.625683e+10	
23	-1.15000e+00	3.707260e+10	
24	-1.20000e+00	3.784957e+10	
25	-1.25000e+00	3.859123e+10	
26	-1.30000e+00	3.930054e+10	
27	-1.35000e+00	3.998010e+10	
28	-1.40000e+00	4.063214e+10	
29	-1.45000e+00	4.125864e+10	
30	-1.50000e+00	4.186135e+10	
31	-1.55000e+00	4.244183e+10	
32	-1.60000e+00	4.300144e+10	
33	-1.65000e+00	4.354142e+10	
34	-1.70000e+00	4.406285e+10	
35	-1.75000e+00	4.456670e+10	
36	-1.80000e+00	4.505377e+10	
37	-1.85000e+00	4.552475e+10	
38	-1.90000e+00	4.598016e+10	
39	-1.95000e+00	4.642036e+10	
40	-2.00000e+00	4.684552e+10	
41	-2.05000e+00	4.725557e+10	
42	-2.10000e+00	4.765023e+10	
43	-2.15000e+00	4.802888e+10	
44	-2.20000e+00	4.839061e+10	
45	-2.25000e+00	4.873413e+10	
46	-2.30000e+00	4.905775e+10	
47	-2.35000e+00	4.935930e+10	
48	-2.40000e+00	4.963617e+10	
49	-2.45000e+00	4.988522e+10	
50	-2.50000e+00	5.010277e+10	
51	-2.55000e+00	5.028464e+10	
52	-2.60000e+00	5.042609e+10	
53	-2.65000e+00	5.052195e+10	
54	-2.70000e+00	5.056660e+10	

Index   v-sweep         rds             
--------------------------------------------------------------------------------
55	-2.75000e+00	5.055408e+10	
56	-2.80000e+00	5.047824e+10	
57	-2.85000e+00	5.033288e+10	
58	-2.90000e+00	5.011190e+10	
59	-2.95000e+00	4.980957e+10	
60	-3.00000e+00	4.942071e+10	
61	-3.05000e+00	4.894096e+10	
62	-3.10000e+00	4.836701e+10	
63	-3.15000e+00	4.769686e+10	
64	-3.20000e+00	4.692995e+10	
65	-3.25000e+00	4.606738e+10	
66	-3.30000e+00	4.511195e+10	
Reset re-loads circuit ***************************

Circuit: ***************************

Doing analysis at TEMP = 25.000000 and TNOM = 25.000000


No. of Data Rows : 67
                          ***************************
                          DC transfer characteristic  Mon Jan  9 13:57:30  2023
--------------------------------------------------------------------------------
Index   v-sweep         rds             
--------------------------------------------------------------------------------
0	0.000000e+00	1.055742e+06	
1	-5.00000e-02	1.216339e+06	
2	-1.00000e-01	1.433844e+06	
3	-1.50000e-01	1.744307e+06	
4	-2.00000e-01	2.220710e+06	
5	-2.50000e-01	3.030576e+06	
6	-3.00000e-01	4.619276e+06	
7	-3.50000e-01	8.319160e+06	
8	-4.00000e-01	1.792900e+07	
9	-4.50000e-01	4.110172e+07	
10	-5.00000e-01	8.597717e+07	
11	-5.50000e-01	1.545242e+08	
12	-6.00000e-01	2.410250e+08	
13	-6.50000e-01	3.365469e+08	
14	-7.00000e-01	4.335673e+08	
15	-7.50000e-01	5.275923e+08	
16	-8.00000e-01	6.166622e+08	
17	-8.50000e-01	7.003376e+08	
18	-9.00000e-01	7.789108e+08	
19	-9.50000e-01	8.529471e+08	
20	-1.00000e+00	9.230587e+08	
21	-1.05000e+00	9.898100e+08	
22	-1.10000e+00	1.053686e+09	
23	-1.15000e+00	1.115091e+09	
24	-1.20000e+00	1.174357e+09	
25	-1.25000e+00	1.231753e+09	
26	-1.30000e+00	1.287499e+09	
27	-1.35000e+00	1.341777e+09	
28	-1.40000e+00	1.394734e+09	
29	-1.45000e+00	1.446493e+09	
30	-1.50000e+00	1.497157e+09	
31	-1.55000e+00	1.546812e+09	
32	-1.60000e+00	1.595530e+09	
33	-1.65000e+00	1.643374e+09	
34	-1.70000e+00	1.690397e+09	
35	-1.75000e+00	1.736645e+09	
36	-1.80000e+00	1.782159e+09	
37	-1.85000e+00	1.826973e+09	
38	-1.90000e+00	1.871117e+09	
39	-1.95000e+00	1.914618e+09	
40	-2.00000e+00	1.957494e+09	
41	-2.05000e+00	1.999764e+09	
42	-2.10000e+00	2.041435e+09	
43	-2.15000e+00	2.082509e+09	
44	-2.20000e+00	2.122980e+09	
45	-2.25000e+00	2.162827e+09	
46	-2.30000e+00	2.202016e+09	
47	-2.35000e+00	2.240493e+09	
48	-2.40000e+00	2.278179e+09	
49	-2.45000e+00	2.314969e+09	
50	-2.50000e+00	2.350723e+09	
51	-2.55000e+00	2.385258e+09	
52	-2.60000e+00	2.418348e+09	
53	-2.65000e+00	2.449714e+09	
54	-2.70000e+00	2.479017e+09	

Index   v-sweep         rds             
--------------------------------------------------------------------------------
55	-2.75000e+00	2.505860e+09	
56	-2.80000e+00	2.529782e+09	
57	-2.85000e+00	2.550258e+09	
58	-2.90000e+00	2.566707e+09	
59	-2.95000e+00	2.578500e+09	
60	-3.00000e+00	2.584975e+09	
61	-3.05000e+00	2.585457e+09	
62	-3.10000e+00	2.579286e+09	
63	-3.15000e+00	2.565847e+09	
64	-3.20000e+00	2.544612e+09	
65	-3.25000e+00	2.515171e+09	
66	-3.30000e+00	2.477274e+09	
Reset re-loads circuit ***************************

Circuit: ***************************

Doing analysis at TEMP = 25.000000 and TNOM = 25.000000


No. of Data Rows : 67
                          ***************************
                          DC transfer characteristic  Mon Jan  9 13:57:30  2023
--------------------------------------------------------------------------------
Index   v-sweep         rds             
--------------------------------------------------------------------------------
0	0.000000e+00	5.572290e+05	
1	-5.00000e-02	5.988654e+05	
2	-1.00000e-01	6.471646e+05	
3	-1.50000e-01	7.038594e+05	
4	-2.00000e-01	7.713369e+05	
5	-2.50000e-01	8.529760e+05	
6	-3.00000e-01	9.537145e+05	
7	-3.50000e-01	1.081047e+06	
8	-4.00000e-01	1.246871e+06	
9	-4.50000e-01	1.471121e+06	
10	-5.00000e-01	1.789402e+06	
11	-5.50000e-01	2.270149e+06	
12	-6.00000e-01	3.055329e+06	
13	-6.50000e-01	4.457063e+06	
14	-7.00000e-01	7.156556e+06	
15	-7.50000e-01	1.244515e+07	
16	-8.00000e-01	2.208319e+07	
17	-8.50000e-01	3.737101e+07	
18	-9.00000e-01	5.815897e+07	
19	-9.50000e-01	8.292264e+07	
20	-1.00000e+00	1.096946e+08	
21	-1.05000e+00	1.368699e+08	
22	-1.10000e+00	1.634646e+08	
23	-1.15000e+00	1.890149e+08	
24	-1.20000e+00	2.133839e+08	
25	-1.25000e+00	2.366045e+08	
26	-1.30000e+00	2.587822e+08	
27	-1.35000e+00	2.800433e+08	
28	-1.40000e+00	3.005104e+08	
29	-1.45000e+00	3.202928e+08	
30	-1.50000e+00	3.394841e+08	
31	-1.55000e+00	3.581625e+08	
32	-1.60000e+00	3.763929e+08	
33	-1.65000e+00	3.942289e+08	
34	-1.70000e+00	4.117146e+08	
35	-1.75000e+00	4.288868e+08	
36	-1.80000e+00	4.457758e+08	
37	-1.85000e+00	4.624071e+08	
38	-1.90000e+00	4.788021e+08	
39	-1.95000e+00	4.949788e+08	
40	-2.00000e+00	5.109525e+08	
41	-2.05000e+00	5.267364e+08	
42	-2.10000e+00	5.423416e+08	
43	-2.15000e+00	5.577779e+08	
44	-2.20000e+00	5.730534e+08	
45	-2.25000e+00	5.881750e+08	
46	-2.30000e+00	6.031482e+08	
47	-2.35000e+00	6.179773e+08	
48	-2.40000e+00	6.326645e+08	
49	-2.45000e+00	6.472103e+08	
50	-2.50000e+00	6.616121e+08	
51	-2.55000e+00	6.758641e+08	
52	-2.60000e+00	6.899560e+08	
53	-2.65000e+00	7.038715e+08	
54	-2.70000e+00	7.175870e+08	

Index   v-sweep         rds             
--------------------------------------------------------------------------------
55	-2.75000e+00	7.310698e+08	
56	-2.80000e+00	7.442761e+08	
57	-2.85000e+00	7.571486e+08	
58	-2.90000e+00	7.696139e+08	
59	-2.95000e+00	7.815806e+08	
60	-3.00000e+00	7.929366e+08	
61	-3.05000e+00	8.035471e+08	
62	-3.10000e+00	8.132534e+08	
63	-3.15000e+00	8.218723e+08	
64	-3.20000e+00	8.291966e+08	
65	-3.25000e+00	8.349982e+08	
66	-3.30000e+00	8.390322e+08	
Reset re-loads circuit ***************************

Circuit: ***************************

Doing analysis at TEMP = 25.000000 and TNOM = 25.000000


No. of Data Rows : 67
                          ***************************
                          DC transfer characteristic  Mon Jan  9 13:57:30  2023
--------------------------------------------------------------------------------
Index   v-sweep         rds             
--------------------------------------------------------------------------------
0	0.000000e+00	3.857547e+05	
1	-5.00000e-02	4.045411e+05	
2	-1.00000e-01	4.252290e+05	
3	-1.50000e-01	4.481219e+05	
4	-2.00000e-01	4.735918e+05	
5	-2.50000e-01	5.020989e+05	
6	-3.00000e-01	5.342197e+05	
7	-3.50000e-01	5.706856e+05	
8	-4.00000e-01	6.124390e+05	
9	-4.50000e-01	6.607142e+05	
10	-5.00000e-01	7.171585e+05	
11	-5.50000e-01	7.840190e+05	
12	-6.00000e-01	8.644373e+05	
13	-6.50000e-01	9.629325e+05	
14	-7.00000e-01	1.086223e+06	
15	-7.50000e-01	1.244682e+06	
16	-8.00000e-01	1.455035e+06	
17	-8.50000e-01	1.745567e+06	
18	-9.00000e-01	2.166545e+06	
19	-9.50000e-01	2.811206e+06	
20	-1.00000e+00	3.855714e+06	
21	-1.05000e+00	5.620710e+06	
22	-1.10000e+00	8.616062e+06	
23	-1.15000e+00	1.345459e+07	
24	-1.20000e+00	2.056269e+07	
25	-1.25000e+00	2.988621e+07	
26	-1.30000e+00	4.089469e+07	
27	-1.35000e+00	5.286260e+07	
28	-1.40000e+00	6.515200e+07	
29	-1.45000e+00	7.733421e+07	
30	-1.50000e+00	8.917879e+07	
31	-1.55000e+00	1.005932e+08	
32	-1.60000e+00	1.115644e+08	
33	-1.65000e+00	1.221188e+08	
34	-1.70000e+00	1.322983e+08	
35	-1.75000e+00	1.421480e+08	
36	-1.80000e+00	1.517106e+08	
37	-1.85000e+00	1.610237e+08	
38	-1.90000e+00	1.701198e+08	
39	-1.95000e+00	1.790262e+08	
40	-2.00000e+00	1.877659e+08	
41	-2.05000e+00	1.963580e+08	
42	-2.10000e+00	2.048183e+08	
43	-2.15000e+00	2.131603e+08	
44	-2.20000e+00	2.213952e+08	
45	-2.25000e+00	2.295322e+08	
46	-2.30000e+00	2.375795e+08	
47	-2.35000e+00	2.455438e+08	
48	-2.40000e+00	2.534308e+08	
49	-2.45000e+00	2.612455e+08	
50	-2.50000e+00	2.689922e+08	
51	-2.55000e+00	2.766743e+08	
52	-2.60000e+00	2.842949e+08	
53	-2.65000e+00	2.918564e+08	
54	-2.70000e+00	2.993604e+08	

Index   v-sweep         rds             
--------------------------------------------------------------------------------
55	-2.75000e+00	3.068079e+08	
56	-2.80000e+00	3.141986e+08	
57	-2.85000e+00	3.215313e+08	
58	-2.90000e+00	3.288027e+08	
59	-2.95000e+00	3.360076e+08	
60	-3.00000e+00	3.431377e+08	
61	-3.05000e+00	3.501810e+08	
62	-3.10000e+00	3.571210e+08	
63	-3.15000e+00	3.639355e+08	
64	-3.20000e+00	3.705954e+08	
65	-3.25000e+00	3.770633e+08	
66	-3.30000e+00	3.832925e+08	
Reset re-loads circuit ***************************

Circuit: ***************************

Doing analysis at TEMP = 25.000000 and TNOM = 25.000000


No. of Data Rows : 67
                          ***************************
                          DC transfer characteristic  Mon Jan  9 13:57:30  2023
--------------------------------------------------------------------------------
Index   v-sweep         rds             
--------------------------------------------------------------------------------
0	0.000000e+00	2.997216e+05	
1	-5.00000e-02	3.104072e+05	
2	-1.00000e-01	3.218714e+05	
3	-1.50000e-01	3.342025e+05	
4	-2.00000e-01	3.475027e+05	
5	-2.50000e-01	3.618907e+05	
6	-3.00000e-01	3.775056e+05	
7	-3.50000e-01	3.945111e+05	
8	-4.00000e-01	4.131013e+05	
9	-4.50000e-01	4.335084e+05	
10	-5.00000e-01	4.560116e+05	
11	-5.50000e-01	4.809509e+05	
12	-6.00000e-01	5.087432e+05	
13	-6.50000e-01	5.399061e+05	
14	-7.00000e-01	5.750896e+05	
15	-7.50000e-01	6.151212e+05	
16	-8.00000e-01	6.610700e+05	
17	-8.50000e-01	7.143406e+05	
18	-9.00000e-01	7.768136e+05	
19	-9.50000e-01	8.510606e+05	
20	-1.00000e+00	9.406834e+05	
21	-1.05000e+00	1.050866e+06	
22	-1.10000e+00	1.189294e+06	
23	-1.15000e+00	1.367756e+06	
24	-1.20000e+00	1.604969e+06	
25	-1.25000e+00	1.931689e+06	
26	-1.30000e+00	2.399854e+06	
27	-1.35000e+00	3.097909e+06	
28	-1.40000e+00	4.172039e+06	
29	-1.45000e+00	5.841719e+06	
30	-1.50000e+00	8.377014e+06	
31	-1.55000e+00	1.200576e+07	
32	-1.60000e+00	1.678682e+07	
33	-1.65000e+00	2.255737e+07	
34	-1.70000e+00	2.900615e+07	
35	-1.75000e+00	3.580144e+07	
36	-1.80000e+00	4.268083e+07	
37	-1.85000e+00	4.947652e+07	
38	-1.90000e+00	5.610062e+07	
39	-1.95000e+00	6.251897e+07	
40	-2.00000e+00	6.872839e+07	
41	-2.05000e+00	7.474132e+07	
42	-2.10000e+00	8.057653e+07	
43	-2.15000e+00	8.625426e+07	
44	-2.20000e+00	9.179375e+07	
45	-2.25000e+00	9.721227e+07	
46	-2.30000e+00	1.025248e+08	
47	-2.35000e+00	1.077443e+08	
48	-2.40000e+00	1.128814e+08	
49	-2.45000e+00	1.179454e+08	
50	-2.50000e+00	1.229440e+08	
51	-2.55000e+00	1.278837e+08	
52	-2.60000e+00	1.327700e+08	
53	-2.65000e+00	1.376075e+08	
54	-2.70000e+00	1.424001e+08	

Index   v-sweep         rds             
--------------------------------------------------------------------------------
55	-2.75000e+00	1.471514e+08	
56	-2.80000e+00	1.518641e+08	
57	-2.85000e+00	1.565407e+08	
58	-2.90000e+00	1.611834e+08	
59	-2.95000e+00	1.657939e+08	
60	-3.00000e+00	1.703736e+08	
61	-3.05000e+00	1.749236e+08	
62	-3.10000e+00	1.794446e+08	
63	-3.15000e+00	1.839367e+08	
64	-3.20000e+00	1.883993e+08	
65	-3.25000e+00	1.928309e+08	
66	-3.30000e+00	1.972291e+08	
Reset re-loads circuit ***************************

Circuit: ***************************

Doing analysis at TEMP = 25.000000 and TNOM = 25.000000


No. of Data Rows : 67
                          ***************************
                          DC transfer characteristic  Mon Jan  9 13:57:30  2023
--------------------------------------------------------------------------------
Index   v-sweep         rds             
--------------------------------------------------------------------------------
0	0.000000e+00	2.483958e+05	
1	-5.00000e-02	2.553029e+05	
2	-1.00000e-01	2.625982e+05	
3	-1.50000e-01	2.703153e+05	
4	-2.00000e-01	2.784918e+05	
5	-2.50000e-01	2.871700e+05	
6	-3.00000e-01	2.963975e+05	
7	-3.50000e-01	3.062282e+05	
8	-4.00000e-01	3.167230e+05	
9	-4.50000e-01	3.279518e+05	
10	-5.00000e-01	3.399940e+05	
11	-5.50000e-01	3.529415e+05	
12	-6.00000e-01	3.669001e+05	
13	-6.50000e-01	3.819929e+05	
14	-7.00000e-01	3.983638e+05	
15	-7.50000e-01	4.161821e+05	
16	-8.00000e-01	4.356482e+05	
17	-8.50000e-01	4.570012e+05	
18	-9.00000e-01	4.805285e+05	
19	-9.50000e-01	5.065790e+05	
20	-1.00000e+00	5.355796e+05	
21	-1.05000e+00	5.680591e+05	
22	-1.10000e+00	6.046792e+05	
23	-1.15000e+00	6.462789e+05	
24	-1.20000e+00	6.939374e+05	
25	-1.25000e+00	7.490645e+05	
26	-1.30000e+00	8.135343e+05	
27	-1.35000e+00	8.898871e+05	
28	-1.40000e+00	9.816404e+05	
29	-1.45000e+00	1.093782e+06	
30	-1.50000e+00	1.233562e+06	
31	-1.55000e+00	1.411811e+06	
32	-1.60000e+00	1.645117e+06	
33	-1.65000e+00	1.959444e+06	
34	-1.70000e+00	2.395860e+06	
35	-1.75000e+00	3.018608e+06	
36	-1.80000e+00	3.923300e+06	
37	-1.85000e+00	5.237184e+06	
38	-1.90000e+00	7.097476e+06	
39	-1.95000e+00	9.601865e+06	
40	-2.00000e+00	1.275536e+07	
41	-2.05000e+00	1.645677e+07	
42	-2.10000e+00	2.053794e+07	
43	-2.15000e+00	2.482332e+07	
44	-2.20000e+00	2.917157e+07	
45	-2.25000e+00	3.348868e+07	
46	-2.30000e+00	3.772201e+07	
47	-2.35000e+00	4.184815e+07	
48	-2.40000e+00	4.586154e+07	
49	-2.45000e+00	4.976627e+07	
50	-2.50000e+00	5.357093e+07	
51	-2.55000e+00	5.728567e+07	
52	-2.60000e+00	6.092061e+07	
53	-2.65000e+00	6.448513e+07	
54	-2.70000e+00	6.798758e+07	

Index   v-sweep         rds             
--------------------------------------------------------------------------------
55	-2.75000e+00	7.143519e+07	
56	-2.80000e+00	7.483419e+07	
57	-2.85000e+00	7.818990e+07	
58	-2.90000e+00	8.150682e+07	
59	-2.95000e+00	8.478880e+07	
60	-3.00000e+00	8.803908e+07	
61	-3.05000e+00	9.126046e+07	
62	-3.10000e+00	9.445531e+07	
63	-3.15000e+00	9.762567e+07	
64	-3.20000e+00	1.007733e+08	
65	-3.25000e+00	1.038996e+08	
66	-3.30000e+00	1.070060e+08	
Reset re-loads circuit ***************************

Circuit: ***************************

Note: No ".plot", ".print", or ".fourier" lines; no simulations run
