
Note: Compatibility modes selected: hs

Warning: m=xx on .subckt line will override multiplier m hierarchy!


Circuit: ***************************

Doing analysis at TEMP = 25.000000 and TNOM = 25.000000


No. of Data Rows : 67
                          ***************************
                          DC transfer characteristic  Mon Jan  9 13:57:30  2023
--------------------------------------------------------------------------------
Index   v-sweep         rds             
--------------------------------------------------------------------------------
0	0.000000e+00	5.422731e+05	
1	-5.00000e-02	1.800453e+06	
2	-1.00000e-01	1.317610e+07	
3	-1.50000e-01	6.547779e+07	
4	-2.00000e-01	1.852706e+08	
5	-2.50000e-01	3.662540e+08	
6	-3.00000e-01	5.780032e+08	
7	-3.50000e-01	7.904600e+08	
8	-4.00000e-01	9.864050e+08	
9	-4.50000e-01	1.160068e+09	
10	-5.00000e-01	1.311866e+09	
11	-5.50000e-01	1.444549e+09	
12	-6.00000e-01	1.561289e+09	
13	-6.50000e-01	1.664947e+09	
14	-7.00000e-01	1.757881e+09	
15	-7.50000e-01	1.841969e+09	
16	-8.00000e-01	1.918687e+09	
17	-8.50000e-01	1.989192e+09	
18	-9.00000e-01	2.054401e+09	
19	-9.50000e-01	2.115041e+09	
20	-1.00000e+00	2.171702e+09	
21	-1.05000e+00	2.224861e+09	
22	-1.10000e+00	2.274912e+09	
23	-1.15000e+00	2.322185e+09	
24	-1.20000e+00	2.366955e+09	
25	-1.25000e+00	2.409457e+09	
26	-1.30000e+00	2.449893e+09	
27	-1.35000e+00	2.488438e+09	
28	-1.40000e+00	2.525243e+09	
29	-1.45000e+00	2.560441e+09	
30	-1.50000e+00	2.594151e+09	
31	-1.55000e+00	2.626477e+09	
32	-1.60000e+00	2.657510e+09	
33	-1.65000e+00	2.687334e+09	
34	-1.70000e+00	2.716020e+09	
35	-1.75000e+00	2.743634e+09	
36	-1.80000e+00	2.770228e+09	
37	-1.85000e+00	2.795848e+09	
38	-1.90000e+00	2.820531e+09	
39	-1.95000e+00	2.844300e+09	
40	-2.00000e+00	2.867169e+09	
41	-2.05000e+00	2.889137e+09	
42	-2.10000e+00	2.910188e+09	
43	-2.15000e+00	2.930287e+09	
44	-2.20000e+00	2.949383e+09	
45	-2.25000e+00	2.967399e+09	
46	-2.30000e+00	2.984238e+09	
47	-2.35000e+00	2.999773e+09	
48	-2.40000e+00	3.013852e+09	
49	-2.45000e+00	3.026293e+09	
50	-2.50000e+00	3.036881e+09	
51	-2.55000e+00	3.045375e+09	
52	-2.60000e+00	3.051502e+09	
53	-2.65000e+00	3.054963e+09	
54	-2.70000e+00	3.055436e+09	

Index   v-sweep         rds             
--------------------------------------------------------------------------------
55	-2.75000e+00	3.052581e+09	
56	-2.80000e+00	3.046046e+09	
57	-2.85000e+00	3.035479e+09	
58	-2.90000e+00	3.020533e+09	
59	-2.95000e+00	3.000884e+09	
60	-3.00000e+00	2.976240e+09	
61	-3.05000e+00	2.946355e+09	
62	-3.10000e+00	2.911045e+09	
63	-3.15000e+00	2.870198e+09	
64	-3.20000e+00	2.823783e+09	
65	-3.25000e+00	2.771865e+09	
66	-3.30000e+00	2.714602e+09	
Reset re-loads circuit ***************************

Circuit: ***************************

Doing analysis at TEMP = 25.000000 and TNOM = 25.000000


No. of Data Rows : 67
                          ***************************
                          DC transfer characteristic  Mon Jan  9 13:57:30  2023
--------------------------------------------------------------------------------
Index   v-sweep         rds             
--------------------------------------------------------------------------------
0	0.000000e+00	5.308683e+04	
1	-5.00000e-02	6.128019e+04	
2	-1.00000e-01	7.242604e+04	
3	-1.50000e-01	8.843187e+04	
4	-2.00000e-01	1.132044e+05	
5	-2.50000e-01	1.558481e+05	
6	-3.00000e-01	2.409981e+05	
7	-3.50000e-01	4.432754e+05	
8	-4.00000e-01	9.736746e+05	
9	-4.50000e-01	2.243716e+06	
10	-5.00000e-01	4.674696e+06	
11	-5.50000e-01	8.366523e+06	
12	-6.00000e-01	1.303465e+07	
13	-6.50000e-01	1.822824e+07	
14	-7.00000e-01	2.355499e+07	
15	-7.50000e-01	2.876715e+07	
16	-8.00000e-01	3.374495e+07	
17	-8.50000e-01	3.845025e+07	
18	-9.00000e-01	4.288750e+07	
19	-9.50000e-01	4.707942e+07	
20	-1.00000e+00	5.105420e+07	
21	-1.05000e+00	5.483948e+07	
22	-1.10000e+00	5.845997e+07	
23	-1.15000e+00	6.193686e+07	
24	-1.20000e+00	6.528789e+07	
25	-1.25000e+00	6.852784e+07	
26	-1.30000e+00	7.166893e+07	
27	-1.35000e+00	7.472131e+07	
28	-1.40000e+00	7.769343e+07	
29	-1.45000e+00	8.059239e+07	
30	-1.50000e+00	8.342414e+07	
31	-1.55000e+00	8.619377e+07	
32	-1.60000e+00	8.890560e+07	
33	-1.65000e+00	9.156336e+07	
34	-1.70000e+00	9.417030e+07	
35	-1.75000e+00	9.672922e+07	
36	-1.80000e+00	9.924260e+07	
37	-1.85000e+00	1.017126e+08	
38	-1.90000e+00	1.041410e+08	
39	-1.95000e+00	1.065296e+08	
40	-2.00000e+00	1.088795e+08	
41	-2.05000e+00	1.111918e+08	
42	-2.10000e+00	1.134671e+08	
43	-2.15000e+00	1.157056e+08	
44	-2.20000e+00	1.179068e+08	
45	-2.25000e+00	1.200696e+08	
46	-2.30000e+00	1.221918e+08	
47	-2.35000e+00	1.242701e+08	
48	-2.40000e+00	1.262999e+08	
49	-2.45000e+00	1.282747e+08	
50	-2.50000e+00	1.301860e+08	
51	-2.55000e+00	1.320229e+08	
52	-2.60000e+00	1.337716e+08	
53	-2.65000e+00	1.354154e+08	
54	-2.70000e+00	1.369341e+08	

Index   v-sweep         rds             
--------------------------------------------------------------------------------
55	-2.75000e+00	1.383040e+08	
56	-2.80000e+00	1.394979e+08	
57	-2.85000e+00	1.404851e+08	
58	-2.90000e+00	1.412316e+08	
59	-2.95000e+00	1.417012e+08	
60	-3.00000e+00	1.418563e+08	
61	-3.05000e+00	1.416592e+08	
62	-3.10000e+00	1.410737e+08	
63	-3.15000e+00	1.400675e+08	
64	-3.20000e+00	1.386140e+08	
65	-3.25000e+00	1.366943e+08	
66	-3.30000e+00	1.343001e+08	
Reset re-loads circuit ***************************

Circuit: ***************************

Doing analysis at TEMP = 25.000000 and TNOM = 25.000000


No. of Data Rows : 67
                          ***************************
                          DC transfer characteristic  Mon Jan  9 13:57:30  2023
--------------------------------------------------------------------------------
Index   v-sweep         rds             
--------------------------------------------------------------------------------
0	0.000000e+00	2.853372e+04	
1	-5.00000e-02	3.065962e+04	
2	-1.00000e-01	3.312467e+04	
3	-1.50000e-01	3.601680e+04	
4	-2.00000e-01	3.945699e+04	
5	-2.50000e-01	4.361631e+04	
6	-3.00000e-01	4.874444e+04	
7	-3.50000e-01	5.521969e+04	
8	-4.00000e-01	6.364152e+04	
9	-4.50000e-01	7.501203e+04	
10	-5.00000e-01	9.111627e+04	
11	-5.50000e-01	1.153752e+05	
12	-6.00000e-01	1.548671e+05	
13	-6.50000e-01	2.251471e+05	
14	-7.00000e-01	3.603462e+05	
15	-7.50000e-01	6.263012e+05	
16	-8.00000e-01	1.116433e+06	
17	-8.50000e-01	1.907605e+06	
18	-9.00000e-01	3.006647e+06	
19	-9.50000e-01	4.345356e+06	
20	-1.00000e+00	5.822670e+06	
21	-1.05000e+00	7.348204e+06	
22	-1.10000e+00	8.861020e+06	
23	-1.15000e+00	1.032829e+07	
24	-1.20000e+00	1.173663e+07	
25	-1.25000e+00	1.308386e+07	
26	-1.30000e+00	1.437329e+07	
27	-1.35000e+00	1.561044e+07	
28	-1.40000e+00	1.680130e+07	
29	-1.45000e+00	1.795156e+07	
30	-1.50000e+00	1.906628e+07	
31	-1.55000e+00	2.014980e+07	
32	-1.60000e+00	2.120580e+07	
33	-1.65000e+00	2.223739e+07	
34	-1.70000e+00	2.324714e+07	
35	-1.75000e+00	2.423723e+07	
36	-1.80000e+00	2.520948e+07	
37	-1.85000e+00	2.616543e+07	
38	-1.90000e+00	2.710637e+07	
39	-1.95000e+00	2.803342e+07	
40	-2.00000e+00	2.894751e+07	
41	-2.05000e+00	2.984947e+07	
42	-2.10000e+00	3.074000e+07	
43	-2.15000e+00	3.161970e+07	
44	-2.20000e+00	3.248910e+07	
45	-2.25000e+00	3.334862e+07	
46	-2.30000e+00	3.419864e+07	
47	-2.35000e+00	3.503942e+07	
48	-2.40000e+00	3.587111e+07	
49	-2.45000e+00	3.669377e+07	
50	-2.50000e+00	3.750724e+07	
51	-2.55000e+00	3.831118e+07	
52	-2.60000e+00	3.910496e+07	
53	-2.65000e+00	3.988759e+07	
54	-2.70000e+00	4.065762e+07	

Index   v-sweep         rds             
--------------------------------------------------------------------------------
55	-2.75000e+00	4.141304e+07	
56	-2.80000e+00	4.215114e+07	
57	-2.85000e+00	4.286840e+07	
58	-2.90000e+00	4.356029e+07	
59	-2.95000e+00	4.422119e+07	
60	-3.00000e+00	4.484420e+07	
61	-3.05000e+00	4.542105e+07	
62	-3.10000e+00	4.594203e+07	
63	-3.15000e+00	4.639599e+07	
64	-3.20000e+00	4.677036e+07	
65	-3.25000e+00	4.705143e+07	
66	-3.30000e+00	4.722460e+07	
Reset re-loads circuit ***************************

Circuit: ***************************

Doing analysis at TEMP = 25.000000 and TNOM = 25.000000


No. of Data Rows : 67
                          ***************************
                          DC transfer characteristic  Mon Jan  9 13:57:30  2023
--------------------------------------------------------------------------------
Index   v-sweep         rds             
--------------------------------------------------------------------------------
0	0.000000e+00	2.032776e+04	
1	-5.00000e-02	2.130815e+04	
2	-1.00000e-01	2.238679e+04	
3	-1.50000e-01	2.357923e+04	
4	-2.00000e-01	2.490443e+04	
5	-2.50000e-01	2.638585e+04	
6	-3.00000e-01	2.805277e+04	
7	-3.50000e-01	2.994226e+04	
8	-4.00000e-01	3.210193e+04	
9	-4.50000e-01	3.459390e+04	
10	-5.00000e-01	3.750079e+04	
11	-5.50000e-01	4.093477e+04	
12	-6.00000e-01	4.505184e+04	
13	-6.50000e-01	5.007510e+04	
14	-7.00000e-01	5.633387e+04	
15	-7.50000e-01	6.433260e+04	
16	-8.00000e-01	7.487721e+04	
17	-8.50000e-01	8.931719e+04	
18	-9.00000e-01	1.100273e+05	
19	-9.50000e-01	1.413807e+05	
20	-1.00000e+00	1.916459e+05	
21	-1.05000e+00	2.761417e+05	
22	-1.10000e+00	4.204188e+05	
23	-1.15000e+00	6.583431e+05	
24	-1.20000e+00	1.019436e+06	
25	-1.25000e+00	1.511393e+06	
26	-1.30000e+00	2.114097e+06	
27	-1.35000e+00	2.790390e+06	
28	-1.40000e+00	3.502136e+06	
29	-1.45000e+00	4.220203e+06	
30	-1.50000e+00	4.926566e+06	
31	-1.55000e+00	5.612122e+06	
32	-1.60000e+00	6.273573e+06	
33	-1.65000e+00	6.910881e+06	
34	-1.70000e+00	7.525601e+06	
35	-1.75000e+00	8.119907e+06	
36	-1.80000e+00	8.696085e+06	
37	-1.85000e+00	9.256287e+06	
38	-1.90000e+00	9.802433e+06	
39	-1.95000e+00	1.033619e+07	
40	-2.00000e+00	1.085898e+07	
41	-2.05000e+00	1.137202e+07	
42	-2.10000e+00	1.187631e+07	
43	-2.15000e+00	1.237272e+07	
44	-2.20000e+00	1.286197e+07	
45	-2.25000e+00	1.334469e+07	
46	-2.30000e+00	1.382140e+07	
47	-2.35000e+00	1.429254e+07	
48	-2.40000e+00	1.475850e+07	
49	-2.45000e+00	1.521961e+07	
50	-2.50000e+00	1.567615e+07	
51	-2.55000e+00	1.612837e+07	
52	-2.60000e+00	1.657647e+07	
53	-2.65000e+00	1.702061e+07	
54	-2.70000e+00	1.746091e+07	

Index   v-sweep         rds             
--------------------------------------------------------------------------------
55	-2.75000e+00	1.789746e+07	
56	-2.80000e+00	1.833025e+07	
57	-2.85000e+00	1.875922e+07	
58	-2.90000e+00	1.918419e+07	
59	-2.95000e+00	1.960484e+07	
60	-3.00000e+00	2.002068e+07	
61	-3.05000e+00	2.043099e+07	
62	-3.10000e+00	2.083475e+07	
63	-3.15000e+00	2.123060e+07	
64	-3.20000e+00	2.161674e+07	
65	-3.25000e+00	2.199086e+07	
66	-3.30000e+00	2.235005e+07	
Reset re-loads circuit ***************************

Circuit: ***************************

Doing analysis at TEMP = 25.000000 and TNOM = 25.000000


No. of Data Rows : 67
                          ***************************
                          DC transfer characteristic  Mon Jan  9 13:57:30  2023
--------------------------------------------------------------------------------
Index   v-sweep         rds             
--------------------------------------------------------------------------------
0	0.000000e+00	1.628832e+04	
1	-5.00000e-02	1.686085e+04	
2	-1.00000e-01	1.747453e+04	
3	-1.50000e-01	1.813397e+04	
4	-2.00000e-01	1.884446e+04	
5	-2.50000e-01	1.961217e+04	
6	-3.00000e-01	2.044430e+04	
7	-3.50000e-01	2.134931e+04	
8	-4.00000e-01	2.233719e+04	
9	-4.50000e-01	2.341986e+04	
10	-5.00000e-01	2.461161e+04	
11	-5.50000e-01	2.592978e+04	
12	-6.00000e-01	2.739556e+04	
13	-6.50000e-01	2.903511e+04	
14	-7.00000e-01	3.088117e+04	
15	-7.50000e-01	3.297518e+04	
16	-8.00000e-01	3.537035e+04	
17	-8.50000e-01	3.813614e+04	
18	-9.00000e-01	4.136485e+04	
19	-9.50000e-01	4.518161e+04	
20	-1.00000e+00	4.976003e+04	
21	-1.05000e+00	5.534721e+04	
22	-1.10000e+00	6.230523e+04	
23	-1.15000e+00	7.118194e+04	
24	-1.20000e+00	8.283542e+04	
25	-1.25000e+00	9.865786e+04	
26	-1.30000e+00	1.209801e+05	
27	-1.35000e+00	1.537781e+05	
28	-1.40000e+00	2.037725e+05	
29	-1.45000e+00	2.816561e+05	
30	-1.50000e+00	4.022104e+05	
31	-1.55000e+00	5.811728e+05	
32	-1.60000e+00	8.285179e+05	
33	-1.65000e+00	1.142490e+06	
34	-1.70000e+00	1.509724e+06	
35	-1.75000e+00	1.911125e+06	
36	-1.80000e+00	2.328489e+06	
37	-1.85000e+00	2.748178e+06	
38	-1.90000e+00	3.161690e+06	
39	-1.95000e+00	3.564617e+06	
40	-2.00000e+00	3.955270e+06	
41	-2.05000e+00	4.333532e+06	
42	-2.10000e+00	4.700096e+06	
43	-2.15000e+00	5.055997e+06	
44	-2.20000e+00	5.402360e+06	
45	-2.25000e+00	5.740265e+06	
46	-2.30000e+00	6.070694e+06	
47	-2.35000e+00	6.394513e+06	
48	-2.40000e+00	6.712467e+06	
49	-2.45000e+00	7.025196e+06	
50	-2.50000e+00	7.333245e+06	
51	-2.55000e+00	7.637076e+06	
52	-2.60000e+00	7.937084e+06	
53	-2.65000e+00	8.233604e+06	
54	-2.70000e+00	8.526923e+06	

Index   v-sweep         rds             
--------------------------------------------------------------------------------
55	-2.75000e+00	8.817287e+06	
56	-2.80000e+00	9.104907e+06	
57	-2.85000e+00	9.389964e+06	
58	-2.90000e+00	9.672613e+06	
59	-2.95000e+00	9.952986e+06	
60	-3.00000e+00	1.023119e+07	
61	-3.05000e+00	1.050732e+07	
62	-3.10000e+00	1.078142e+07	
63	-3.15000e+00	1.105352e+07	
64	-3.20000e+00	1.132361e+07	
65	-3.25000e+00	1.159162e+07	
66	-3.30000e+00	1.185741e+07	
Reset re-loads circuit ***************************

Circuit: ***************************

Doing analysis at TEMP = 25.000000 and TNOM = 25.000000


No. of Data Rows : 67
                          ***************************
                          DC transfer characteristic  Mon Jan  9 13:57:30  2023
--------------------------------------------------------------------------------
Index   v-sweep         rds             
--------------------------------------------------------------------------------
0	0.000000e+00	1.392410e+04	
1	-5.00000e-02	1.430444e+04	
2	-1.00000e-01	1.470580e+04	
3	-1.50000e-01	1.512997e+04	
4	-2.00000e-01	1.557895e+04	
5	-2.50000e-01	1.605498e+04	
6	-3.00000e-01	1.656058e+04	
7	-3.50000e-01	1.709859e+04	
8	-4.00000e-01	1.767224e+04	
9	-4.50000e-01	1.828517e+04	
10	-5.00000e-01	1.894157e+04	
11	-5.50000e-01	1.964622e+04	
12	-6.00000e-01	2.040465e+04	
13	-6.50000e-01	2.122325e+04	
14	-7.00000e-01	2.210945e+04	
15	-7.50000e-01	2.307199e+04	
16	-8.00000e-01	2.412114e+04	
17	-8.50000e-01	2.526914e+04	
18	-9.00000e-01	2.653059e+04	
19	-9.50000e-01	2.792314e+04	
20	-1.00000e+00	2.946825e+04	
21	-1.05000e+00	3.119235e+04	
22	-1.10000e+00	3.312824e+04	
23	-1.15000e+00	3.531723e+04	
24	-1.20000e+00	3.781196e+04	
25	-1.25000e+00	4.068054e+04	
26	-1.30000e+00	4.401254e+04	
27	-1.35000e+00	4.792792e+04	
28	-1.40000e+00	5.259058e+04	
29	-1.45000e+00	5.822955e+04	
30	-1.50000e+00	6.517271e+04	
31	-1.55000e+00	7.390182e+04	
32	-1.60000e+00	8.514388e+04	
33	-1.65000e+00	1.000237e+05	
34	-1.70000e+00	1.203157e+05	
35	-1.75000e+00	1.488349e+05	
36	-1.80000e+00	1.899609e+05	
37	-1.85000e+00	2.500957e+05	
38	-1.90000e+00	3.374685e+05	
39	-1.95000e+00	4.604665e+05	
40	-2.00000e+00	6.244571e+05	
41	-2.05000e+00	8.288751e+05	
42	-2.10000e+00	1.066922e+06	
43	-2.15000e+00	1.328141e+06	
44	-2.20000e+00	1.601842e+06	
45	-2.25000e+00	1.879409e+06	
46	-2.30000e+00	2.155020e+06	
47	-2.35000e+00	2.425322e+06	
48	-2.40000e+00	2.688740e+06	
49	-2.45000e+00	2.944824e+06	
50	-2.50000e+00	3.193752e+06	
51	-2.55000e+00	3.436018e+06	
52	-2.60000e+00	3.672236e+06	
53	-2.65000e+00	3.903041e+06	
54	-2.70000e+00	4.129032e+06	

Index   v-sweep         rds             
--------------------------------------------------------------------------------
55	-2.75000e+00	4.350749e+06	
56	-2.80000e+00	4.568669e+06	
57	-2.85000e+00	4.783206e+06	
58	-2.90000e+00	4.994716e+06	
59	-2.95000e+00	5.203505e+06	
60	-3.00000e+00	5.409834e+06	
61	-3.05000e+00	5.613926e+06	
62	-3.10000e+00	5.815974e+06	
63	-3.15000e+00	6.016141e+06	
64	-3.20000e+00	6.214571e+06	
65	-3.25000e+00	6.411384e+06	
66	-3.30000e+00	6.606685e+06	
Reset re-loads circuit ***************************

Circuit: ***************************

Note: No ".plot", ".print", or ".fourier" lines; no simulations run
