
Note: Compatibility modes selected: hs

Warning: m=xx on .subckt line will override multiplier m hierarchy!


Circuit: ***************************

Doing analysis at TEMP = -40.000000 and TNOM = -40.000000


No. of Data Rows : 133
                          ***************************
                          DC transfer characteristic  Mon Jan  9 13:58:38  2023
--------------------------------------------------------------------------------
Index   v-sweep         rds             
--------------------------------------------------------------------------------
0	0.000000e+00	7.026096e-05	
1	5.000000e-02	5.133980e-05	
2	1.000000e-01	3.297242e-05	
3	1.500000e-01	1.658744e-05	
4	2.000000e-01	5.923081e-06	
5	2.500000e-01	1.958006e-06	
6	3.000000e-01	8.407439e-07	
7	3.500000e-01	4.806344e-07	
8	4.000000e-01	3.357190e-07	
9	4.500000e-01	2.656881e-07	
10	5.000000e-01	2.268915e-07	
11	5.500000e-01	2.031015e-07	
12	6.000000e-01	1.873512e-07	
13	6.500000e-01	1.762901e-07	
14	7.000000e-01	1.681546e-07	
15	7.500000e-01	1.619465e-07	
16	8.000000e-01	1.570658e-07	
17	8.500000e-01	1.531338e-07	
18	9.000000e-01	1.499011e-07	
19	9.500000e-01	1.471976e-07	
20	1.000000e+00	1.449036e-07	
21	1.050000e+00	1.429327e-07	
22	1.100000e+00	1.412212e-07	
23	1.150000e+00	1.397208e-07	
24	1.200000e+00	1.383946e-07	
25	1.250000e+00	1.372140e-07	
26	1.300000e+00	1.361559e-07	
27	1.350000e+00	1.352022e-07	
28	1.400000e+00	1.343382e-07	
29	1.450000e+00	1.335516e-07	
30	1.500000e+00	1.328324e-07	
31	1.550000e+00	1.321723e-07	
32	1.600000e+00	1.315643e-07	
33	1.650000e+00	1.310023e-07	
34	1.700000e+00	1.304814e-07	
35	1.750000e+00	1.299972e-07	
36	1.800000e+00	1.295459e-07	
37	1.850000e+00	1.291243e-07	
38	1.900000e+00	1.287295e-07	
39	1.950000e+00	1.283591e-07	
40	2.000000e+00	1.280108e-07	
41	2.050000e+00	1.276827e-07	
42	2.100000e+00	1.273731e-07	
43	2.150000e+00	1.270806e-07	
44	2.200000e+00	1.268036e-07	
45	2.250000e+00	1.265411e-07	
46	2.300000e+00	1.262919e-07	
47	2.350000e+00	1.260550e-07	
48	2.400000e+00	1.258295e-07	
49	2.450000e+00	1.256147e-07	
50	2.500000e+00	1.254098e-07	
51	2.550000e+00	1.252141e-07	
52	2.600000e+00	1.250271e-07	
53	2.650000e+00	1.248481e-07	
54	2.700000e+00	1.246767e-07	

Index   v-sweep         rds             
--------------------------------------------------------------------------------
55	2.750000e+00	1.245124e-07	
56	2.800000e+00	1.243547e-07	
57	2.850000e+00	1.242033e-07	
58	2.900000e+00	1.240579e-07	
59	2.950000e+00	1.239180e-07	
60	3.000000e+00	1.237833e-07	
61	3.050000e+00	1.236537e-07	
62	3.100000e+00	1.235287e-07	
63	3.150000e+00	1.234082e-07	
64	3.200000e+00	1.232919e-07	
65	3.250000e+00	1.231796e-07	
66	3.300000e+00	1.230712e-07	
67	3.350000e+00	1.229663e-07	
68	3.400000e+00	1.228649e-07	
69	3.450000e+00	1.227668e-07	
70	3.500000e+00	1.226718e-07	
71	3.550000e+00	1.225797e-07	
72	3.600000e+00	1.224905e-07	
73	3.650000e+00	1.224041e-07	
74	3.700000e+00	1.223202e-07	
75	3.750000e+00	1.222388e-07	
76	3.800000e+00	1.221597e-07	
77	3.850000e+00	1.220830e-07	
78	3.900000e+00	1.220084e-07	
79	3.950000e+00	1.219359e-07	
80	4.000000e+00	1.218654e-07	
81	4.050000e+00	1.217968e-07	
82	4.100000e+00	1.217301e-07	
83	4.150000e+00	1.216652e-07	
84	4.200000e+00	1.216019e-07	
85	4.250000e+00	1.215403e-07	
86	4.300000e+00	1.214803e-07	
87	4.350000e+00	1.214218e-07	
88	4.400000e+00	1.213648e-07	
89	4.450000e+00	1.213091e-07	
90	4.500000e+00	1.212549e-07	
91	4.550000e+00	1.212019e-07	
92	4.600000e+00	1.211502e-07	
93	4.650000e+00	1.210997e-07	
94	4.700000e+00	1.210504e-07	
95	4.750000e+00	1.210023e-07	
96	4.800000e+00	1.209552e-07	
97	4.850000e+00	1.209093e-07	
98	4.900000e+00	1.208643e-07	
99	4.950000e+00	1.208203e-07	
100	5.000000e+00	1.207773e-07	
101	5.050000e+00	1.207353e-07	
102	5.100000e+00	1.206941e-07	
103	5.150000e+00	1.206538e-07	
104	5.200000e+00	1.206144e-07	
105	5.250000e+00	1.205758e-07	
106	5.300000e+00	1.205380e-07	
107	5.350000e+00	1.205010e-07	
108	5.400000e+00	1.204647e-07	
109	5.450000e+00	1.204291e-07	
110	5.500000e+00	1.203943e-07	
111	5.550000e+00	1.203601e-07	
112	5.600000e+00	1.203266e-07	

Index   v-sweep         rds             
--------------------------------------------------------------------------------
113	5.650000e+00	1.202938e-07	
114	5.700000e+00	1.202616e-07	
115	5.750000e+00	1.202300e-07	
116	5.800000e+00	1.201990e-07	
117	5.850000e+00	1.201686e-07	
118	5.900000e+00	1.201387e-07	
119	5.950000e+00	1.201094e-07	
120	6.000000e+00	1.200807e-07	
121	6.050000e+00	1.200524e-07	
122	6.100000e+00	1.200247e-07	
123	6.150000e+00	1.199975e-07	
124	6.200000e+00	1.199707e-07	
125	6.250000e+00	1.199444e-07	
126	6.300000e+00	1.199186e-07	
127	6.350000e+00	1.198932e-07	
128	6.400000e+00	1.198682e-07	
129	6.450000e+00	1.198437e-07	
130	6.500000e+00	1.198196e-07	
131	6.550000e+00	1.197959e-07	
132	6.600000e+00	1.197726e-07	
Reset re-loads circuit ***************************

Circuit: ***************************

Doing analysis at TEMP = -40.000000 and TNOM = -40.000000


No. of Data Rows : 133
                          ***************************
                          DC transfer characteristic  Mon Jan  9 13:58:38  2023
--------------------------------------------------------------------------------
Index   v-sweep         rds             
--------------------------------------------------------------------------------
0	0.000000e+00	3.677568e-04	
1	5.000000e-02	3.469878e-04	
2	1.000000e-01	3.263298e-04	
3	1.500000e-01	3.057825e-04	
4	2.000000e-01	2.853456e-04	
5	2.500000e-01	2.650191e-04	
6	3.000000e-01	2.448031e-04	
7	3.500000e-01	2.246988e-04	
8	4.000000e-01	2.047078e-04	
9	4.500000e-01	1.848339e-04	
10	5.000000e-01	1.650841e-04	
11	5.500000e-01	1.454717e-04	
12	6.000000e-01	1.260234e-04	
13	6.500000e-01	1.067934e-04	
14	7.000000e-01	8.789636e-05	
15	7.500000e-01	6.957711e-05	
16	8.000000e-01	5.233631e-05	
17	8.500000e-01	3.705177e-05	
18	9.000000e-01	2.480059e-05	
19	9.500000e-01	1.615081e-05	
20	1.000000e+00	1.066613e-05	
21	1.050000e+00	7.364167e-06	
22	1.100000e+00	5.372937e-06	
23	1.150000e+00	4.132396e-06	
24	1.200000e+00	3.324911e-06	
25	1.250000e+00	2.775425e-06	
26	1.300000e+00	2.385984e-06	
27	1.350000e+00	2.099953e-06	
28	1.400000e+00	1.883324e-06	
29	1.450000e+00	1.714882e-06	
30	1.500000e+00	1.580923e-06	
31	1.550000e+00	1.472303e-06	
32	1.600000e+00	1.382739e-06	
33	1.650000e+00	1.307806e-06	
34	1.700000e+00	1.244310e-06	
35	1.750000e+00	1.189900e-06	
36	1.800000e+00	1.142812e-06	
37	1.850000e+00	1.101699e-06	
38	1.900000e+00	1.065521e-06	
39	1.950000e+00	1.033460e-06	
40	2.000000e+00	1.004865e-06	
41	2.050000e+00	9.792147e-07	
42	2.100000e+00	9.560846e-07	
43	2.150000e+00	9.351270e-07	
44	2.200000e+00	9.160546e-07	
45	2.250000e+00	8.986279e-07	
46	2.300000e+00	8.826456e-07	
47	2.350000e+00	8.679378e-07	
48	2.400000e+00	8.543597e-07	
49	2.450000e+00	8.417877e-07	
50	2.500000e+00	8.301152e-07	
51	2.550000e+00	8.192499e-07	
52	2.600000e+00	8.091119e-07	
53	2.650000e+00	7.996312e-07	
54	2.700000e+00	7.907465e-07	

Index   v-sweep         rds             
--------------------------------------------------------------------------------
55	2.750000e+00	7.824039e-07	
56	2.800000e+00	7.745555e-07	
57	2.850000e+00	7.671591e-07	
58	2.900000e+00	7.601771e-07	
59	2.950000e+00	7.535759e-07	
60	3.000000e+00	7.473253e-07	
61	3.050000e+00	7.413984e-07	
62	3.100000e+00	7.357709e-07	
63	3.150000e+00	7.304207e-07	
64	3.200000e+00	7.253280e-07	
65	3.250000e+00	7.204747e-07	
66	3.300000e+00	7.158445e-07	
67	3.350000e+00	7.114225e-07	
68	3.400000e+00	7.071949e-07	
69	3.450000e+00	7.031493e-07	
70	3.500000e+00	6.992744e-07	
71	3.550000e+00	6.955594e-07	
72	3.600000e+00	6.919949e-07	
73	3.650000e+00	6.885719e-07	
74	3.700000e+00	6.852822e-07	
75	3.750000e+00	6.821181e-07	
76	3.800000e+00	6.790728e-07	
77	3.850000e+00	6.761395e-07	
78	3.900000e+00	6.733124e-07	
79	3.950000e+00	6.705857e-07	
80	4.000000e+00	6.679543e-07	
81	4.050000e+00	6.654132e-07	
82	4.100000e+00	6.629580e-07	
83	4.150000e+00	6.605843e-07	
84	4.200000e+00	6.582881e-07	
85	4.250000e+00	6.560659e-07	
86	4.300000e+00	6.539140e-07	
87	4.350000e+00	6.518291e-07	
88	4.400000e+00	6.498084e-07	
89	4.450000e+00	6.478487e-07	
90	4.500000e+00	6.459474e-07	
91	4.550000e+00	6.441020e-07	
92	4.600000e+00	6.423101e-07	
93	4.650000e+00	6.405693e-07	
94	4.700000e+00	6.388775e-07	
95	4.750000e+00	6.372327e-07	
96	4.800000e+00	6.356329e-07	
97	4.850000e+00	6.340765e-07	
98	4.900000e+00	6.325615e-07	
99	4.950000e+00	6.310864e-07	
100	5.000000e+00	6.296497e-07	
101	5.050000e+00	6.282499e-07	
102	5.100000e+00	6.268855e-07	
103	5.150000e+00	6.255553e-07	
104	5.200000e+00	6.242580e-07	
105	5.250000e+00	6.229924e-07	
106	5.300000e+00	6.217574e-07	
107	5.350000e+00	6.205518e-07	
108	5.400000e+00	6.193747e-07	
109	5.450000e+00	6.182250e-07	
110	5.500000e+00	6.171019e-07	
111	5.550000e+00	6.160043e-07	
112	5.600000e+00	6.149315e-07	

Index   v-sweep         rds             
--------------------------------------------------------------------------------
113	5.650000e+00	6.138826e-07	
114	5.700000e+00	6.128569e-07	
115	5.750000e+00	6.118535e-07	
116	5.800000e+00	6.108718e-07	
117	5.850000e+00	6.099111e-07	
118	5.900000e+00	6.089706e-07	
119	5.950000e+00	6.080499e-07	
120	6.000000e+00	6.071483e-07	
121	6.050000e+00	6.062651e-07	
122	6.100000e+00	6.053998e-07	
123	6.150000e+00	6.045520e-07	
124	6.200000e+00	6.037211e-07	
125	6.250000e+00	6.029065e-07	
126	6.300000e+00	6.021078e-07	
127	6.350000e+00	6.013246e-07	
128	6.400000e+00	6.005564e-07	
129	6.450000e+00	5.998028e-07	
130	6.500000e+00	5.990633e-07	
131	6.550000e+00	5.983377e-07	
132	6.600000e+00	5.976254e-07	
Reset re-loads circuit ***************************

Circuit: ***************************

Doing analysis at TEMP = -40.000000 and TNOM = -40.000000


No. of Data Rows : 133
                          ***************************
                          DC transfer characteristic  Mon Jan  9 13:58:38  2023
--------------------------------------------------------------------------------
Index   v-sweep         rds             
--------------------------------------------------------------------------------
0	0.000000e+00	6.189545e-04	
1	5.000000e-02	5.989564e-04	
2	1.000000e-01	5.790715e-04	
3	1.500000e-01	5.592989e-04	
4	2.000000e-01	5.396380e-04	
5	2.500000e-01	5.200879e-04	
6	3.000000e-01	5.006478e-04	
7	3.500000e-01	4.813168e-04	
8	4.000000e-01	4.620942e-04	
9	4.500000e-01	4.429791e-04	
10	5.000000e-01	4.239707e-04	
11	5.500000e-01	4.050682e-04	
12	6.000000e-01	3.862706e-04	
13	6.500000e-01	3.675772e-04	
14	7.000000e-01	3.489870e-04	
15	7.500000e-01	3.304991e-04	
16	8.000000e-01	3.121125e-04	
17	8.500000e-01	2.938261e-04	
18	9.000000e-01	2.756389e-04	
19	9.500000e-01	2.575498e-04	
20	1.000000e+00	2.395577e-04	
21	1.050000e+00	2.216617e-04	
22	1.100000e+00	2.038614e-04	
23	1.150000e+00	1.861574e-04	
24	1.200000e+00	1.685530e-04	
25	1.250000e+00	1.510567e-04	
26	1.300000e+00	1.336889e-04	
27	1.350000e+00	1.164948e-04	
28	1.400000e+00	9.956930e-05	
29	1.450000e+00	8.310120e-05	
30	1.500000e+00	6.743185e-05	
31	1.550000e+00	5.308516e-05	
32	1.600000e+00	4.067446e-05	
33	1.650000e+00	3.064781e-05	
34	1.700000e+00	2.305292e-05	
35	1.750000e+00	1.755672e-05	
36	1.800000e+00	1.366343e-05	
37	1.850000e+00	1.090806e-05	
38	1.900000e+00	8.933846e-06	
39	1.950000e+00	7.492015e-06	
40	2.000000e+00	6.415990e-06	
41	2.050000e+00	5.595364e-06	
42	2.100000e+00	4.956540e-06	
43	2.150000e+00	4.449773e-06	
44	2.200000e+00	4.040845e-06	
45	2.250000e+00	3.705772e-06	
46	2.300000e+00	3.427423e-06	
47	2.350000e+00	3.193340e-06	
48	2.400000e+00	2.994307e-06	
49	2.450000e+00	2.823398e-06	
50	2.500000e+00	2.675329e-06	
51	2.550000e+00	2.546014e-06	
52	2.600000e+00	2.432256e-06	
53	2.650000e+00	2.331519e-06	
54	2.700000e+00	2.241776e-06	

Index   v-sweep         rds             
--------------------------------------------------------------------------------
55	2.750000e+00	2.161386e-06	
56	2.800000e+00	2.089011e-06	
57	2.850000e+00	2.023548e-06	
58	2.900000e+00	1.964085e-06	
59	2.950000e+00	1.909858e-06	
60	3.000000e+00	1.860225e-06	
61	3.050000e+00	1.814641e-06	
62	3.100000e+00	1.772646e-06	
63	3.150000e+00	1.733841e-06	
64	3.200000e+00	1.697885e-06	
65	3.250000e+00	1.664484e-06	
66	3.300000e+00	1.633381e-06	
67	3.350000e+00	1.604352e-06	
68	3.400000e+00	1.577200e-06	
69	3.450000e+00	1.551753e-06	
70	3.500000e+00	1.527859e-06	
71	3.550000e+00	1.505382e-06	
72	3.600000e+00	1.484202e-06	
73	3.650000e+00	1.464212e-06	
74	3.700000e+00	1.445317e-06	
75	3.750000e+00	1.427430e-06	
76	3.800000e+00	1.410474e-06	
77	3.850000e+00	1.394380e-06	
78	3.900000e+00	1.379084e-06	
79	3.950000e+00	1.364530e-06	
80	4.000000e+00	1.350665e-06	
81	4.050000e+00	1.337442e-06	
82	4.100000e+00	1.324819e-06	
83	4.150000e+00	1.312756e-06	
84	4.200000e+00	1.301217e-06	
85	4.250000e+00	1.290169e-06	
86	4.300000e+00	1.279582e-06	
87	4.350000e+00	1.269428e-06	
88	4.400000e+00	1.259681e-06	
89	4.450000e+00	1.250318e-06	
90	4.500000e+00	1.241317e-06	
91	4.550000e+00	1.232656e-06	
92	4.600000e+00	1.224319e-06	
93	4.650000e+00	1.216286e-06	
94	4.700000e+00	1.208542e-06	
95	4.750000e+00	1.201071e-06	
96	4.800000e+00	1.193860e-06	
97	4.850000e+00	1.186895e-06	
98	4.900000e+00	1.180165e-06	
99	4.950000e+00	1.173657e-06	
100	5.000000e+00	1.167360e-06	
101	5.050000e+00	1.161266e-06	
102	5.100000e+00	1.155364e-06	
103	5.150000e+00	1.149645e-06	
104	5.200000e+00	1.144102e-06	
105	5.250000e+00	1.138725e-06	
106	5.300000e+00	1.133509e-06	
107	5.350000e+00	1.128445e-06	
108	5.400000e+00	1.123528e-06	
109	5.450000e+00	1.118751e-06	
110	5.500000e+00	1.114108e-06	
111	5.550000e+00	1.109594e-06	
112	5.600000e+00	1.105204e-06	

Index   v-sweep         rds             
--------------------------------------------------------------------------------
113	5.650000e+00	1.100932e-06	
114	5.700000e+00	1.096774e-06	
115	5.750000e+00	1.092726e-06	
116	5.800000e+00	1.088782e-06	
117	5.850000e+00	1.084940e-06	
118	5.900000e+00	1.081195e-06	
119	5.950000e+00	1.077544e-06	
120	6.000000e+00	1.073984e-06	
121	6.050000e+00	1.070510e-06	
122	6.100000e+00	1.067120e-06	
123	6.150000e+00	1.063812e-06	
124	6.200000e+00	1.060581e-06	
125	6.250000e+00	1.057426e-06	
126	6.300000e+00	1.054343e-06	
127	6.350000e+00	1.051331e-06	
128	6.400000e+00	1.048387e-06	
129	6.450000e+00	1.045509e-06	
130	6.500000e+00	1.042694e-06	
131	6.550000e+00	1.039941e-06	
132	6.600000e+00	1.037247e-06	
Reset re-loads circuit ***************************

Circuit: ***************************

Doing analysis at TEMP = -40.000000 and TNOM = -40.000000


No. of Data Rows : 133
                          ***************************
                          DC transfer characteristic  Mon Jan  9 13:58:38  2023
--------------------------------------------------------------------------------
Index   v-sweep         rds             
--------------------------------------------------------------------------------
0	0.000000e+00	8.196583e-04	
1	5.000000e-02	8.009689e-04	
2	1.000000e-01	7.823827e-04	
3	1.500000e-01	7.638991e-04	
4	2.000000e-01	7.455173e-04	
5	2.500000e-01	7.272367e-04	
6	3.000000e-01	7.090564e-04	
7	3.500000e-01	6.909759e-04	
8	4.000000e-01	6.729943e-04	
9	4.500000e-01	6.551111e-04	
10	5.000000e-01	6.373254e-04	
11	5.500000e-01	6.196366e-04	
12	6.000000e-01	6.020440e-04	
13	6.500000e-01	5.845469e-04	
14	7.000000e-01	5.671446e-04	
15	7.500000e-01	5.498362e-04	
16	8.000000e-01	5.326212e-04	
17	8.500000e-01	5.154987e-04	
18	9.000000e-01	4.984681e-04	
19	9.500000e-01	4.815285e-04	
20	1.000000e+00	4.646791e-04	
21	1.050000e+00	4.479191e-04	
22	1.100000e+00	4.312476e-04	
23	1.150000e+00	4.146638e-04	
24	1.200000e+00	3.981665e-04	
25	1.250000e+00	3.817547e-04	
26	1.300000e+00	3.654273e-04	
27	1.350000e+00	3.491828e-04	
28	1.400000e+00	3.330199e-04	
29	1.450000e+00	3.169366e-04	
30	1.500000e+00	3.009311e-04	
31	1.550000e+00	2.850010e-04	
32	1.600000e+00	2.691433e-04	
33	1.650000e+00	2.533546e-04	
34	1.700000e+00	2.376308e-04	
35	1.750000e+00	2.219669e-04	
36	1.800000e+00	2.063572e-04	
37	1.850000e+00	1.907951e-04	
38	1.900000e+00	1.752744e-04	
39	1.950000e+00	1.597908e-04	
40	2.000000e+00	1.443465e-04	
41	2.050000e+00	1.289596e-04	
42	2.100000e+00	1.136813e-04	
43	2.150000e+00	9.862461e-05	
44	2.200000e+00	8.400126e-05	
45	2.250000e+00	7.014593e-05	
46	2.300000e+00	5.748719e-05	
47	2.350000e+00	4.643576e-05	
48	2.400000e+00	3.723561e-05	
49	2.450000e+00	2.988485e-05	
50	2.500000e+00	2.417776e-05	
51	2.550000e+00	1.981251e-05	
52	2.600000e+00	1.648462e-05	
53	2.650000e+00	1.393509e-05	
54	2.700000e+00	1.196238e-05	

Index   v-sweep         rds             
--------------------------------------------------------------------------------
55	2.750000e+00	1.041673e-05	
56	2.800000e+00	9.189156e-06	
57	2.850000e+00	8.200861e-06	
58	2.900000e+00	7.394704e-06	
59	2.950000e+00	6.728952e-06	
60	3.000000e+00	6.172815e-06	
61	3.050000e+00	5.703316e-06	
62	3.100000e+00	5.303099e-06	
63	3.150000e+00	4.958904e-06	
64	3.200000e+00	4.660477e-06	
65	3.250000e+00	4.399806e-06	
66	3.300000e+00	4.170559e-06	
67	3.350000e+00	3.967685e-06	
68	3.400000e+00	3.787117e-06	
69	3.450000e+00	3.625551e-06	
70	3.500000e+00	3.480279e-06	
71	3.550000e+00	3.349068e-06	
72	3.600000e+00	3.230060e-06	
73	3.650000e+00	3.121701e-06	
74	3.700000e+00	3.022680e-06	
75	3.750000e+00	2.931888e-06	
76	3.800000e+00	2.848378e-06	
77	3.850000e+00	2.771340e-06	
78	3.900000e+00	2.700077e-06	
79	3.950000e+00	2.633985e-06	
80	4.000000e+00	2.572539e-06	
81	4.050000e+00	2.515282e-06	
82	4.100000e+00	2.461813e-06	
83	4.150000e+00	2.411779e-06	
84	4.200000e+00	2.364869e-06	
85	4.250000e+00	2.320808e-06	
86	4.300000e+00	2.279351e-06	
87	4.350000e+00	2.240280e-06	
88	4.400000e+00	2.203400e-06	
89	4.450000e+00	2.168537e-06	
90	4.500000e+00	2.135533e-06	
91	4.550000e+00	2.104248e-06	
92	4.600000e+00	2.074553e-06	
93	4.650000e+00	2.046333e-06	
94	4.700000e+00	2.019483e-06	
95	4.750000e+00	1.993909e-06	
96	4.800000e+00	1.969522e-06	
97	4.850000e+00	1.946245e-06	
98	4.900000e+00	1.924004e-06	
99	4.950000e+00	1.902733e-06	
100	5.000000e+00	1.882372e-06	
101	5.050000e+00	1.862864e-06	
102	5.100000e+00	1.844157e-06	
103	5.150000e+00	1.826205e-06	
104	5.200000e+00	1.808964e-06	
105	5.250000e+00	1.792392e-06	
106	5.300000e+00	1.776452e-06	
107	5.350000e+00	1.761109e-06	
108	5.400000e+00	1.746331e-06	
109	5.450000e+00	1.732088e-06	
110	5.500000e+00	1.718351e-06	
111	5.550000e+00	1.705095e-06	
112	5.600000e+00	1.692295e-06	

Index   v-sweep         rds             
--------------------------------------------------------------------------------
113	5.650000e+00	1.679929e-06	
114	5.700000e+00	1.667974e-06	
115	5.750000e+00	1.656412e-06	
116	5.800000e+00	1.645223e-06	
117	5.850000e+00	1.634390e-06	
118	5.900000e+00	1.623897e-06	
119	5.950000e+00	1.613727e-06	
120	6.000000e+00	1.603867e-06	
121	6.050000e+00	1.594302e-06	
122	6.100000e+00	1.585020e-06	
123	6.150000e+00	1.576009e-06	
124	6.200000e+00	1.567256e-06	
125	6.250000e+00	1.558752e-06	
126	6.300000e+00	1.550486e-06	
127	6.350000e+00	1.542449e-06	
128	6.400000e+00	1.534630e-06	
129	6.450000e+00	1.527021e-06	
130	6.500000e+00	1.519615e-06	
131	6.550000e+00	1.512403e-06	
132	6.600000e+00	1.505378e-06	
Reset re-loads circuit ***************************

Circuit: ***************************

Doing analysis at TEMP = -40.000000 and TNOM = -40.000000


No. of Data Rows : 133
                          ***************************
                          DC transfer characteristic  Mon Jan  9 13:58:38  2023
--------------------------------------------------------------------------------
Index   v-sweep         rds             
--------------------------------------------------------------------------------
0	0.000000e+00	9.678978e-04	
1	5.000000e-02	9.508504e-04	
2	1.000000e-01	9.338914e-04	
3	1.500000e-01	9.170200e-04	
4	2.000000e-01	9.002359e-04	
5	2.500000e-01	8.835383e-04	
6	3.000000e-01	8.669268e-04	
7	3.500000e-01	8.504008e-04	
8	4.000000e-01	8.339597e-04	
9	4.500000e-01	8.176030e-04	
10	5.000000e-01	8.013301e-04	
11	5.500000e-01	7.851405e-04	
12	6.000000e-01	7.690336e-04	
13	6.500000e-01	7.530089e-04	
14	7.000000e-01	7.370659e-04	
15	7.500000e-01	7.212040e-04	
16	8.000000e-01	7.054226e-04	
17	8.500000e-01	6.897213e-04	
18	9.000000e-01	6.740994e-04	
19	9.500000e-01	6.585565e-04	
20	1.000000e+00	6.430919e-04	
21	1.050000e+00	6.277053e-04	
22	1.100000e+00	6.123959e-04	
23	1.150000e+00	5.971632e-04	
24	1.200000e+00	5.820068e-04	
25	1.250000e+00	5.669260e-04	
26	1.300000e+00	5.519202e-04	
27	1.350000e+00	5.369889e-04	
28	1.400000e+00	5.221314e-04	
29	1.450000e+00	5.073471e-04	
30	1.500000e+00	4.926354e-04	
31	1.550000e+00	4.779956e-04	
32	1.600000e+00	4.634270e-04	
33	1.650000e+00	4.489289e-04	
34	1.700000e+00	4.345003e-04	
35	1.750000e+00	4.201405e-04	
36	1.800000e+00	4.058485e-04	
37	1.850000e+00	3.916233e-04	
38	1.900000e+00	3.774636e-04	
39	1.950000e+00	3.633681e-04	
40	2.000000e+00	3.493352e-04	
41	2.050000e+00	3.353632e-04	
42	2.100000e+00	3.214500e-04	
43	2.150000e+00	3.075931e-04	
44	2.200000e+00	2.937895e-04	
45	2.250000e+00	2.800355e-04	
46	2.300000e+00	2.663268e-04	
47	2.350000e+00	2.526579e-04	
48	2.400000e+00	2.390222e-04	
49	2.450000e+00	2.254114e-04	
50	2.500000e+00	2.118156e-04	
51	2.550000e+00	1.982230e-04	
52	2.600000e+00	1.846198e-04	
53	2.650000e+00	1.709917e-04	
54	2.700000e+00	1.573258e-04	

Index   v-sweep         rds             
--------------------------------------------------------------------------------
55	2.750000e+00	1.436162e-04	
56	2.800000e+00	1.298744e-04	
57	2.850000e+00	1.161466e-04	
58	2.900000e+00	1.025382e-04	
59	2.950000e+00	8.923856e-05	
60	3.000000e+00	7.652882e-05	
61	3.050000e+00	6.474844e-05	
62	3.100000e+00	5.421636e-05	
63	3.150000e+00	4.513993e-05	
64	3.200000e+00	3.756574e-05	
65	3.250000e+00	3.139554e-05	
66	3.300000e+00	2.644328e-05	
67	3.350000e+00	2.249446e-05	
68	3.400000e+00	1.934595e-05	
69	3.450000e+00	1.682435e-05	
70	3.500000e+00	1.479010e-05	
71	3.550000e+00	1.313443e-05	
72	3.600000e+00	1.177393e-05	
73	3.650000e+00	1.064507e-05	
74	3.700000e+00	9.699463e-06	
75	3.750000e+00	8.900094e-06	
76	3.800000e+00	8.218490e-06	
77	3.850000e+00	7.632580e-06	
78	3.900000e+00	7.125113e-06	
79	3.950000e+00	6.682493e-06	
80	4.000000e+00	6.293912e-06	
81	4.050000e+00	5.950707e-06	
82	4.100000e+00	5.645876e-06	
83	4.150000e+00	5.373719e-06	
84	4.200000e+00	5.129558e-06	
85	4.250000e+00	4.909528e-06	
86	4.300000e+00	4.710414e-06	
87	4.350000e+00	4.529525e-06	
88	4.400000e+00	4.364593e-06	
89	4.450000e+00	4.213700e-06	
90	4.500000e+00	4.075210e-06	
91	4.550000e+00	3.947723e-06	
92	4.600000e+00	3.830037e-06	
93	4.650000e+00	3.721110e-06	
94	4.700000e+00	3.620041e-06	
95	4.750000e+00	3.526042e-06	
96	4.800000e+00	3.438426e-06	
97	4.850000e+00	3.356588e-06	
98	4.900000e+00	3.279996e-06	
99	4.950000e+00	3.208179e-06	
100	5.000000e+00	3.140720e-06	
101	5.050000e+00	3.077247e-06	
102	5.100000e+00	3.017428e-06	
103	5.150000e+00	2.960968e-06	
104	5.200000e+00	2.907598e-06	
105	5.250000e+00	2.857081e-06	
106	5.300000e+00	2.809201e-06	
107	5.350000e+00	2.763761e-06	
108	5.400000e+00	2.720586e-06	
109	5.450000e+00	2.679514e-06	
110	5.500000e+00	2.640401e-06	
111	5.550000e+00	2.603112e-06	
112	5.600000e+00	2.567527e-06	

Index   v-sweep         rds             
--------------------------------------------------------------------------------
113	5.650000e+00	2.533534e-06	
114	5.700000e+00	2.501031e-06	
115	5.750000e+00	2.469925e-06	
116	5.800000e+00	2.440130e-06	
117	5.850000e+00	2.411567e-06	
118	5.900000e+00	2.384161e-06	
119	5.950000e+00	2.357847e-06	
120	6.000000e+00	2.332562e-06	
121	6.050000e+00	2.308247e-06	
122	6.100000e+00	2.284849e-06	
123	6.150000e+00	2.262319e-06	
124	6.200000e+00	2.240609e-06	
125	6.250000e+00	2.219677e-06	
126	6.300000e+00	2.199482e-06	
127	6.350000e+00	2.179988e-06	
128	6.400000e+00	2.161158e-06	
129	6.450000e+00	2.142961e-06	
130	6.500000e+00	2.125365e-06	
131	6.550000e+00	2.108342e-06	
132	6.600000e+00	2.091864e-06	
Reset re-loads circuit ***************************

Circuit: ***************************

Doing analysis at TEMP = -40.000000 and TNOM = -40.000000


No. of Data Rows : 133
                          ***************************
                          DC transfer characteristic  Mon Jan  9 13:58:38  2023
--------------------------------------------------------------------------------
Index   v-sweep         rds             
--------------------------------------------------------------------------------
0	0.000000e+00	1.072557e-03	
1	5.000000e-02	1.057275e-03	
2	1.000000e-01	1.042066e-03	
3	1.500000e-01	1.026929e-03	
4	2.000000e-01	1.011863e-03	
5	2.500000e-01	9.968698e-04	
6	3.000000e-01	9.819472e-04	
7	3.500000e-01	9.670951e-04	
8	4.000000e-01	9.523133e-04	
9	4.500000e-01	9.376012e-04	
10	5.000000e-01	9.229585e-04	
11	5.500000e-01	9.083848e-04	
12	6.000000e-01	8.938796e-04	
13	6.500000e-01	8.794426e-04	
14	7.000000e-01	8.650733e-04	
15	7.500000e-01	8.507713e-04	
16	8.000000e-01	8.365363e-04	
17	8.500000e-01	8.223678e-04	
18	9.000000e-01	8.082654e-04	
19	9.500000e-01	7.942288e-04	
20	1.000000e+00	7.802575e-04	
21	1.050000e+00	7.663512e-04	
22	1.100000e+00	7.525094e-04	
23	1.150000e+00	7.387317e-04	
24	1.200000e+00	7.250179e-04	
25	1.250000e+00	7.113674e-04	
26	1.300000e+00	6.977799e-04	
27	1.350000e+00	6.842550e-04	
28	1.400000e+00	6.707923e-04	
29	1.450000e+00	6.573914e-04	
30	1.500000e+00	6.440519e-04	
31	1.550000e+00	6.307735e-04	
32	1.600000e+00	6.175556e-04	
33	1.650000e+00	6.043980e-04	
34	1.700000e+00	5.913001e-04	
35	1.750000e+00	5.782617e-04	
36	1.800000e+00	5.652822e-04	
37	1.850000e+00	5.523612e-04	
38	1.900000e+00	5.394983e-04	
39	1.950000e+00	5.266931e-04	
40	2.000000e+00	5.139450e-04	
41	2.050000e+00	5.012536e-04	
42	2.100000e+00	4.886184e-04	
43	2.150000e+00	4.760388e-04	
44	2.200000e+00	4.635143e-04	
45	2.250000e+00	4.510442e-04	
46	2.300000e+00	4.386279e-04	
47	2.350000e+00	4.262648e-04	
48	2.400000e+00	4.139539e-04	
49	2.450000e+00	4.016946e-04	
50	2.500000e+00	3.894857e-04	
51	2.550000e+00	3.773264e-04	
52	2.600000e+00	3.652152e-04	
53	2.650000e+00	3.531509e-04	
54	2.700000e+00	3.411318e-04	

Index   v-sweep         rds             
--------------------------------------------------------------------------------
55	2.750000e+00	3.291560e-04	
56	2.800000e+00	3.172214e-04	
57	2.850000e+00	3.053252e-04	
58	2.900000e+00	2.934642e-04	
59	2.950000e+00	2.816347e-04	
60	3.000000e+00	2.698320e-04	
61	3.050000e+00	2.580504e-04	
62	3.100000e+00	2.462831e-04	
63	3.150000e+00	2.345213e-04	
64	3.200000e+00	2.227549e-04	
65	3.250000e+00	2.109713e-04	
66	3.300000e+00	1.991552e-04	
67	3.350000e+00	1.872894e-04	
68	3.400000e+00	1.753543e-04	
69	3.450000e+00	1.633304e-04	
70	3.500000e+00	1.512016e-04	
71	3.550000e+00	1.389625e-04	
72	3.600000e+00	1.266306e-04	
73	3.650000e+00	1.142625e-04	
74	3.700000e+00	1.019735e-04	
75	3.750000e+00	8.995007e-05	
76	3.800000e+00	7.844182e-05	
77	3.850000e+00	6.772479e-05	
78	3.900000e+00	5.804198e-05	
79	3.950000e+00	4.954790e-05	
80	4.000000e+00	4.228402e-05	
81	4.050000e+00	3.619153e-05	
82	4.100000e+00	3.114625e-05	
83	4.150000e+00	2.699594e-05	
84	4.200000e+00	2.358775e-05	
85	4.250000e+00	2.078363e-05	
86	4.300000e+00	1.846630e-05	
87	4.350000e+00	1.653977e-05	
88	4.400000e+00	1.492707e-05	
89	4.450000e+00	1.356719e-05	
90	4.500000e+00	1.241198e-05	
91	4.550000e+00	1.142347e-05	
92	4.600000e+00	1.057161e-05	
93	4.650000e+00	9.832568e-06	
94	4.700000e+00	9.187293e-06	
95	4.750000e+00	8.620491e-06	
96	4.800000e+00	8.119799e-06	
97	4.850000e+00	7.675156e-06	
98	4.900000e+00	7.278325e-06	
99	4.950000e+00	6.922516e-06	
100	5.000000e+00	6.602099e-06	
101	5.050000e+00	6.312377e-06	
102	5.100000e+00	6.049410e-06	
103	5.150000e+00	5.809871e-06	
104	5.200000e+00	5.590940e-06	
105	5.250000e+00	5.390212e-06	
106	5.300000e+00	5.205627e-06	
107	5.350000e+00	5.035413e-06	
108	5.400000e+00	4.878038e-06	
109	5.450000e+00	4.732170e-06	
110	5.500000e+00	4.596651e-06	
111	5.550000e+00	4.470468e-06	
112	5.600000e+00	4.352729e-06	

Index   v-sweep         rds             
--------------------------------------------------------------------------------
113	5.650000e+00	4.242652e-06	
114	5.700000e+00	4.139542e-06	
115	5.750000e+00	4.042785e-06	
116	5.800000e+00	3.951835e-06	
117	5.850000e+00	3.866204e-06	
118	5.900000e+00	3.785456e-06	
119	5.950000e+00	3.709201e-06	
120	6.000000e+00	3.637086e-06	
121	6.050000e+00	3.568796e-06	
122	6.100000e+00	3.504043e-06	
123	6.150000e+00	3.442570e-06	
124	6.200000e+00	3.384142e-06	
125	6.250000e+00	3.328544e-06	
126	6.300000e+00	3.275582e-06	
127	6.350000e+00	3.225080e-06	
128	6.400000e+00	3.176873e-06	
129	6.450000e+00	3.130815e-06	
130	6.500000e+00	3.086768e-06	
131	6.550000e+00	3.044608e-06	
132	6.600000e+00	3.004219e-06	
Reset re-loads circuit ***************************

Circuit: ***************************

Note: No ".plot", ".print", or ".fourier" lines; no simulations run
