
Note: Compatibility modes selected: hs

Warning: m=xx on .subckt line will override multiplier m hierarchy!


Circuit: ***************************

Doing analysis at TEMP = 125.000000 and TNOM = 125.000000


No. of Data Rows : 133
                          ***************************
                          DC transfer characteristic  Mon Jan  9 13:58:40  2023
--------------------------------------------------------------------------------
Index   v-sweep         rds             
--------------------------------------------------------------------------------
0	0.000000e+00	6.324005e-06	
1	5.000000e-02	5.472170e-06	
2	1.000000e-01	4.626205e-06	
3	1.500000e-01	3.787685e-06	
4	2.000000e-01	2.960546e-06	
5	2.500000e-01	2.155513e-06	
6	3.000000e-01	1.402916e-06	
7	3.500000e-01	7.761972e-07	
8	4.000000e-01	3.692695e-07	
9	4.500000e-01	1.738925e-07	
10	5.000000e-01	9.305377e-08	
11	5.500000e-01	5.835423e-08	
12	6.000000e-01	4.169691e-08	
13	6.500000e-01	3.272202e-08	
14	7.000000e-01	2.738813e-08	
15	7.500000e-01	2.395793e-08	
16	8.000000e-01	2.160926e-08	
17	8.500000e-01	1.991872e-08	
18	9.000000e-01	1.865202e-08	
19	9.500000e-01	1.767143e-08	
20	1.000000e+00	1.689171e-08	
21	1.050000e+00	1.625776e-08	
22	1.100000e+00	1.573263e-08	
23	1.150000e+00	1.529070e-08	
24	1.200000e+00	1.491373e-08	
25	1.250000e+00	1.458839e-08	
26	1.300000e+00	1.430475e-08	
27	1.350000e+00	1.405525e-08	
28	1.400000e+00	1.383406e-08	
29	1.450000e+00	1.363660e-08	
30	1.500000e+00	1.345922e-08	
31	1.550000e+00	1.329899e-08	
32	1.600000e+00	1.315353e-08	
33	1.650000e+00	1.302086e-08	
34	1.700000e+00	1.289937e-08	
35	1.750000e+00	1.278768e-08	
36	1.800000e+00	1.268464e-08	
37	1.850000e+00	1.258929e-08	
38	1.900000e+00	1.250079e-08	
39	1.950000e+00	1.241842e-08	
40	2.000000e+00	1.234157e-08	
41	2.050000e+00	1.226969e-08	
42	2.100000e+00	1.220231e-08	
43	2.150000e+00	1.213902e-08	
44	2.200000e+00	1.207946e-08	
45	2.250000e+00	1.202331e-08	
46	2.300000e+00	1.197028e-08	
47	2.350000e+00	1.192011e-08	
48	2.400000e+00	1.187259e-08	
49	2.450000e+00	1.182750e-08	
50	2.500000e+00	1.178467e-08	
51	2.550000e+00	1.174392e-08	
52	2.600000e+00	1.170511e-08	
53	2.650000e+00	1.166811e-08	
54	2.700000e+00	1.163278e-08	

Index   v-sweep         rds             
--------------------------------------------------------------------------------
55	2.750000e+00	1.159903e-08	
56	2.800000e+00	1.156674e-08	
57	2.850000e+00	1.153582e-08	
58	2.900000e+00	1.150619e-08	
59	2.950000e+00	1.147777e-08	
60	3.000000e+00	1.145048e-08	
61	3.050000e+00	1.142426e-08	
62	3.100000e+00	1.139905e-08	
63	3.150000e+00	1.137479e-08	
64	3.200000e+00	1.135143e-08	
65	3.250000e+00	1.132892e-08	
66	3.300000e+00	1.130721e-08	
67	3.350000e+00	1.128626e-08	
68	3.400000e+00	1.126604e-08	
69	3.450000e+00	1.124650e-08	
70	3.500000e+00	1.122761e-08	
71	3.550000e+00	1.120934e-08	
72	3.600000e+00	1.119167e-08	
73	3.650000e+00	1.117455e-08	
74	3.700000e+00	1.115797e-08	
75	3.750000e+00	1.114190e-08	
76	3.800000e+00	1.112631e-08	
77	3.850000e+00	1.111120e-08	
78	3.900000e+00	1.109653e-08	
79	3.950000e+00	1.108228e-08	
80	4.000000e+00	1.106844e-08	
81	4.050000e+00	1.105500e-08	
82	4.100000e+00	1.104192e-08	
83	4.150000e+00	1.102921e-08	
84	4.200000e+00	1.101684e-08	
85	4.250000e+00	1.100480e-08	
86	4.300000e+00	1.099309e-08	
87	4.350000e+00	1.098167e-08	
88	4.400000e+00	1.097055e-08	
89	4.450000e+00	1.095971e-08	
90	4.500000e+00	1.094915e-08	
91	4.550000e+00	1.093885e-08	
92	4.600000e+00	1.092880e-08	
93	4.650000e+00	1.091899e-08	
94	4.700000e+00	1.090942e-08	
95	4.750000e+00	1.090007e-08	
96	4.800000e+00	1.089095e-08	
97	4.850000e+00	1.088203e-08	
98	4.900000e+00	1.087332e-08	
99	4.950000e+00	1.086480e-08	
100	5.000000e+00	1.085648e-08	
101	5.050000e+00	1.084834e-08	
102	5.100000e+00	1.084038e-08	
103	5.150000e+00	1.083259e-08	
104	5.200000e+00	1.082497e-08	
105	5.250000e+00	1.081751e-08	
106	5.300000e+00	1.081021e-08	
107	5.350000e+00	1.080305e-08	
108	5.400000e+00	1.079605e-08	
109	5.450000e+00	1.078919e-08	
110	5.500000e+00	1.078247e-08	
111	5.550000e+00	1.077588e-08	
112	5.600000e+00	1.076942e-08	

Index   v-sweep         rds             
--------------------------------------------------------------------------------
113	5.650000e+00	1.076309e-08	
114	5.700000e+00	1.075688e-08	
115	5.750000e+00	1.075079e-08	
116	5.800000e+00	1.074482e-08	
117	5.850000e+00	1.073896e-08	
118	5.900000e+00	1.073321e-08	
119	5.950000e+00	1.072757e-08	
120	6.000000e+00	1.072203e-08	
121	6.050000e+00	1.071660e-08	
122	6.100000e+00	1.071126e-08	
123	6.150000e+00	1.070601e-08	
124	6.200000e+00	1.070086e-08	
125	6.250000e+00	1.069580e-08	
126	6.300000e+00	1.069083e-08	
127	6.350000e+00	1.068595e-08	
128	6.400000e+00	1.068115e-08	
129	6.450000e+00	1.067643e-08	
130	6.500000e+00	1.067179e-08	
131	6.550000e+00	1.066723e-08	
132	6.600000e+00	1.066274e-08	
Reset re-loads circuit ***************************

Circuit: ***************************

Doing analysis at TEMP = 125.000000 and TNOM = 125.000000


No. of Data Rows : 133
                          ***************************
                          DC transfer characteristic  Mon Jan  9 13:58:40  2023
--------------------------------------------------------------------------------
Index   v-sweep         rds             
--------------------------------------------------------------------------------
0	0.000000e+00	1.918672e-05	
1	5.000000e-02	1.829371e-05	
2	1.000000e-01	1.740551e-05	
3	1.500000e-01	1.652207e-05	
4	2.000000e-01	1.564338e-05	
5	2.500000e-01	1.476943e-05	
6	3.000000e-01	1.390019e-05	
7	3.500000e-01	1.303566e-05	
8	4.000000e-01	1.217584e-05	
9	4.500000e-01	1.132075e-05	
10	5.000000e-01	1.047043e-05	
11	5.500000e-01	9.624966e-06	
12	6.000000e-01	8.784497e-06	
13	6.500000e-01	7.949278e-06	
14	7.000000e-01	7.119756e-06	
15	7.500000e-01	6.296727e-06	
16	8.000000e-01	5.481660e-06	
17	8.500000e-01	4.677330e-06	
18	9.000000e-01	3.889102e-06	
19	9.500000e-01	3.127342e-06	
20	1.000000e+00	2.411155e-06	
21	1.050000e+00	1.771193e-06	
22	1.100000e+00	1.243906e-06	
23	1.150000e+00	8.517326e-07	
24	1.200000e+00	5.862208e-07	
25	1.250000e+00	4.163369e-07	
26	1.300000e+00	3.090315e-07	
27	1.350000e+00	2.400279e-07	
28	1.400000e+00	1.941657e-07	
29	1.450000e+00	1.625219e-07	
30	1.500000e+00	1.398803e-07	
31	1.550000e+00	1.231360e-07	
32	1.600000e+00	1.103870e-07	
33	1.650000e+00	1.004313e-07	
34	1.700000e+00	9.248459e-08	
35	1.750000e+00	8.602010e-08	
36	1.800000e+00	8.067406e-08	
37	1.850000e+00	7.618912e-08	
38	1.900000e+00	7.237900e-08	
39	1.950000e+00	6.910620e-08	
40	2.000000e+00	6.626731e-08	
41	2.050000e+00	6.378331e-08	
42	2.100000e+00	6.159290e-08	
43	2.150000e+00	5.964786e-08	
44	2.200000e+00	5.790982e-08	
45	2.250000e+00	5.634790e-08	
46	2.300000e+00	5.493699e-08	
47	2.350000e+00	5.365645e-08	
48	2.400000e+00	5.248923e-08	
49	2.450000e+00	5.142108e-08	
50	2.500000e+00	5.044002e-08	
51	2.550000e+00	4.953590e-08	
52	2.600000e+00	4.870010e-08	
53	2.650000e+00	4.792520e-08	
54	2.700000e+00	4.720484e-08	

Index   v-sweep         rds             
--------------------------------------------------------------------------------
55	2.750000e+00	4.653348e-08	
56	2.800000e+00	4.590633e-08	
57	2.850000e+00	4.531918e-08	
58	2.900000e+00	4.476834e-08	
59	2.950000e+00	4.425057e-08	
60	3.000000e+00	4.376298e-08	
61	3.050000e+00	4.330303e-08	
62	3.100000e+00	4.286843e-08	
63	3.150000e+00	4.245717e-08	
64	3.200000e+00	4.206741e-08	
65	3.250000e+00	4.169752e-08	
66	3.300000e+00	4.134602e-08	
67	3.350000e+00	4.101158e-08	
68	3.400000e+00	4.069299e-08	
69	3.450000e+00	4.038915e-08	
70	3.500000e+00	4.009907e-08	
71	3.550000e+00	3.982183e-08	
72	3.600000e+00	3.955661e-08	
73	3.650000e+00	3.930264e-08	
74	3.700000e+00	3.905922e-08	
75	3.750000e+00	3.882571e-08	
76	3.800000e+00	3.860152e-08	
77	3.850000e+00	3.838610e-08	
78	3.900000e+00	3.817895e-08	
79	3.950000e+00	3.797961e-08	
80	4.000000e+00	3.778764e-08	
81	4.050000e+00	3.760264e-08	
82	4.100000e+00	3.742424e-08	
83	4.150000e+00	3.725209e-08	
84	4.200000e+00	3.708588e-08	
85	4.250000e+00	3.692529e-08	
86	4.300000e+00	3.677006e-08	
87	4.350000e+00	3.661991e-08	
88	4.400000e+00	3.647461e-08	
89	4.450000e+00	3.633392e-08	
90	4.500000e+00	3.619763e-08	
91	4.550000e+00	3.606553e-08	
92	4.600000e+00	3.593744e-08	
93	4.650000e+00	3.581317e-08	
94	4.700000e+00	3.569256e-08	
95	4.750000e+00	3.557545e-08	
96	4.800000e+00	3.546169e-08	
97	4.850000e+00	3.535114e-08	
98	4.900000e+00	3.524366e-08	
99	4.950000e+00	3.513913e-08	
100	5.000000e+00	3.503744e-08	
101	5.050000e+00	3.493845e-08	
102	5.100000e+00	3.484208e-08	
103	5.150000e+00	3.474821e-08	
104	5.200000e+00	3.465676e-08	
105	5.250000e+00	3.456762e-08	
106	5.300000e+00	3.448072e-08	
107	5.350000e+00	3.439597e-08	
108	5.400000e+00	3.431329e-08	
109	5.450000e+00	3.423261e-08	
110	5.500000e+00	3.415386e-08	
111	5.550000e+00	3.407696e-08	
112	5.600000e+00	3.400186e-08	

Index   v-sweep         rds             
--------------------------------------------------------------------------------
113	5.650000e+00	3.392849e-08	
114	5.700000e+00	3.385679e-08	
115	5.750000e+00	3.378671e-08	
116	5.800000e+00	3.371819e-08	
117	5.850000e+00	3.365118e-08	
118	5.900000e+00	3.358564e-08	
119	5.950000e+00	3.352150e-08	
120	6.000000e+00	3.345874e-08	
121	6.050000e+00	3.339731e-08	
122	6.100000e+00	3.333716e-08	
123	6.150000e+00	3.327825e-08	
124	6.200000e+00	3.322056e-08	
125	6.250000e+00	3.316403e-08	
126	6.300000e+00	3.310864e-08	
127	6.350000e+00	3.305435e-08	
128	6.400000e+00	3.300113e-08	
129	6.450000e+00	3.294895e-08	
130	6.500000e+00	3.289778e-08	
131	6.550000e+00	3.284759e-08	
132	6.600000e+00	3.279835e-08	
Reset re-loads circuit ***************************

Circuit: ***************************

Doing analysis at TEMP = 125.000000 and TNOM = 125.000000


No. of Data Rows : 133
                          ***************************
                          DC transfer characteristic  Mon Jan  9 13:58:40  2023
--------------------------------------------------------------------------------
Index   v-sweep         rds             
--------------------------------------------------------------------------------
0	0.000000e+00	2.973357e-05	
1	5.000000e-02	2.888213e-05	
2	1.000000e-01	2.803509e-05	
3	1.500000e-01	2.719243e-05	
4	2.000000e-01	2.635413e-05	
5	2.500000e-01	2.552015e-05	
6	3.000000e-01	2.469046e-05	
7	3.500000e-01	2.386503e-05	
8	4.000000e-01	2.304385e-05	
9	4.500000e-01	2.222688e-05	
10	5.000000e-01	2.141409e-05	
11	5.500000e-01	2.060545e-05	
12	6.000000e-01	1.980095e-05	
13	6.500000e-01	1.900055e-05	
14	7.000000e-01	1.820424e-05	
15	7.500000e-01	1.741197e-05	
16	8.000000e-01	1.662374e-05	
17	8.500000e-01	1.583951e-05	
18	9.000000e-01	1.505926e-05	
19	9.500000e-01	1.428298e-05	
20	1.000000e+00	1.351064e-05	
21	1.050000e+00	1.274224e-05	
22	1.100000e+00	1.197776e-05	
23	1.150000e+00	1.121721e-05	
24	1.200000e+00	1.046061e-05	
25	1.250000e+00	9.708007e-06	
26	1.300000e+00	8.959489e-06	
27	1.350000e+00	8.215232e-06	
28	1.400000e+00	7.475555e-06	
29	1.450000e+00	6.741034e-06	
30	1.500000e+00	6.012722e-06	
31	1.550000e+00	5.292548e-06	
32	1.600000e+00	4.584036e-06	
33	1.650000e+00	3.893488e-06	
34	1.700000e+00	3.231596e-06	
35	1.750000e+00	2.614704e-06	
36	1.800000e+00	2.063622e-06	
37	1.850000e+00	1.597795e-06	
38	1.900000e+00	1.226773e-06	
39	1.950000e+00	9.459547e-07	
40	2.000000e+00	7.403201e-07	
41	2.050000e+00	5.917248e-07	
42	2.100000e+00	4.840748e-07	
43	2.150000e+00	4.051000e-07	
44	2.200000e+00	3.461247e-07	
45	2.250000e+00	3.012110e-07	
46	2.300000e+00	2.663289e-07	
47	2.350000e+00	2.387295e-07	
48	2.400000e+00	2.165145e-07	
49	2.450000e+00	1.983528e-07	
50	2.500000e+00	1.832948e-07	
51	2.550000e+00	1.706515e-07	
52	2.600000e+00	1.599149e-07	
53	2.650000e+00	1.507043e-07	
54	2.700000e+00	1.427300e-07	

Index   v-sweep         rds             
--------------------------------------------------------------------------------
55	2.750000e+00	1.357689e-07	
56	2.800000e+00	1.296468e-07	
57	2.850000e+00	1.242259e-07	
58	2.900000e+00	1.193963e-07	
59	2.950000e+00	1.150692e-07	
60	3.000000e+00	1.111724e-07	
61	3.050000e+00	1.076465e-07	
62	3.100000e+00	1.044423e-07	
63	3.150000e+00	1.015188e-07	
64	3.200000e+00	9.884143e-08	
65	3.250000e+00	9.638114e-08	
66	3.300000e+00	9.411307e-08	
67	3.350000e+00	9.201598e-08	
68	3.400000e+00	9.007161e-08	
69	3.450000e+00	8.826415e-08	
70	3.500000e+00	8.657989e-08	
71	3.550000e+00	8.500685e-08	
72	3.600000e+00	8.353453e-08	
73	3.650000e+00	8.215371e-08	
74	3.700000e+00	8.085623e-08	
75	3.750000e+00	7.963488e-08	
76	3.800000e+00	7.848323e-08	
77	3.850000e+00	7.739556e-08	
78	3.900000e+00	7.636675e-08	
79	3.950000e+00	7.539220e-08	
80	4.000000e+00	7.446777e-08	
81	4.050000e+00	7.358974e-08	
82	4.100000e+00	7.275474e-08	
83	4.150000e+00	7.195972e-08	
84	4.200000e+00	7.120189e-08	
85	4.250000e+00	7.047873e-08	
86	4.300000e+00	6.978794e-08	
87	4.350000e+00	6.912741e-08	
88	4.400000e+00	6.849522e-08	
89	4.450000e+00	6.788959e-08	
90	4.500000e+00	6.730890e-08	
91	4.550000e+00	6.675165e-08	
92	4.600000e+00	6.621647e-08	
93	4.650000e+00	6.570206e-08	
94	4.700000e+00	6.520727e-08	
95	4.750000e+00	6.473100e-08	
96	4.800000e+00	6.427222e-08	
97	4.850000e+00	6.383001e-08	
98	4.900000e+00	6.340349e-08	
99	4.950000e+00	6.299184e-08	
100	5.000000e+00	6.259431e-08	
101	5.050000e+00	6.221018e-08	
102	5.100000e+00	6.183879e-08	
103	5.150000e+00	6.147953e-08	
104	5.200000e+00	6.113180e-08	
105	5.250000e+00	6.079508e-08	
106	5.300000e+00	6.046885e-08	
107	5.350000e+00	6.015262e-08	
108	5.400000e+00	5.984595e-08	
109	5.450000e+00	5.954842e-08	
110	5.500000e+00	5.925962e-08	
111	5.550000e+00	5.897917e-08	
112	5.600000e+00	5.870673e-08	

Index   v-sweep         rds             
--------------------------------------------------------------------------------
113	5.650000e+00	5.844196e-08	
114	5.700000e+00	5.818453e-08	
115	5.750000e+00	5.793415e-08	
116	5.800000e+00	5.769054e-08	
117	5.850000e+00	5.745343e-08	
118	5.900000e+00	5.722255e-08	
119	5.950000e+00	5.699768e-08	
120	6.000000e+00	5.677857e-08	
121	6.050000e+00	5.656502e-08	
122	6.100000e+00	5.635681e-08	
123	6.150000e+00	5.615375e-08	
124	6.200000e+00	5.595565e-08	
125	6.250000e+00	5.576234e-08	
126	6.300000e+00	5.557363e-08	
127	6.350000e+00	5.538938e-08	
128	6.400000e+00	5.520942e-08	
129	6.450000e+00	5.503361e-08	
130	6.500000e+00	5.486180e-08	
131	6.550000e+00	5.469387e-08	
132	6.600000e+00	5.452968e-08	
Reset re-loads circuit ***************************

Circuit: ***************************

Doing analysis at TEMP = 125.000000 and TNOM = 125.000000


No. of Data Rows : 133
                          ***************************
                          DC transfer characteristic  Mon Jan  9 13:58:40  2023
--------------------------------------------------------------------------------
Index   v-sweep         rds             
--------------------------------------------------------------------------------
0	0.000000e+00	3.810978e-05	
1	5.000000e-02	3.732096e-05	
2	1.000000e-01	3.653597e-05	
3	1.500000e-01	3.575477e-05	
4	2.000000e-01	3.497735e-05	
5	2.500000e-01	3.420368e-05	
6	3.000000e-01	3.343374e-05	
7	3.500000e-01	3.266750e-05	
8	4.000000e-01	3.190494e-05	
9	4.500000e-01	3.114605e-05	
10	5.000000e-01	3.039079e-05	
11	5.500000e-01	2.963914e-05	
12	6.000000e-01	2.889108e-05	
13	6.500000e-01	2.814659e-05	
14	7.000000e-01	2.740565e-05	
15	7.500000e-01	2.666823e-05	
16	8.000000e-01	2.593431e-05	
17	8.500000e-01	2.520388e-05	
18	9.000000e-01	2.447689e-05	
19	9.500000e-01	2.375335e-05	
20	1.000000e+00	2.303321e-05	
21	1.050000e+00	2.231647e-05	
22	1.100000e+00	2.160309e-05	
23	1.150000e+00	2.089306e-05	
24	1.200000e+00	2.018635e-05	
25	1.250000e+00	1.948294e-05	
26	1.300000e+00	1.878280e-05	
27	1.350000e+00	1.808592e-05	
28	1.400000e+00	1.739225e-05	
29	1.450000e+00	1.670178e-05	
30	1.500000e+00	1.601449e-05	
31	1.550000e+00	1.533033e-05	
32	1.600000e+00	1.464928e-05	
33	1.650000e+00	1.397130e-05	
34	1.700000e+00	1.329636e-05	
35	1.750000e+00	1.262442e-05	
36	1.800000e+00	1.195543e-05	
37	1.850000e+00	1.128934e-05	
38	1.900000e+00	1.062610e-05	
39	1.950000e+00	9.965670e-06	
40	2.000000e+00	9.307991e-06	
41	2.050000e+00	8.653041e-06	
42	2.100000e+00	8.000842e-06	
43	2.150000e+00	7.351512e-06	
44	2.200000e+00	6.705374e-06	
45	2.250000e+00	6.063143e-06	
46	2.300000e+00	5.426272e-06	
47	2.350000e+00	4.797522e-06	
48	2.400000e+00	4.181815e-06	
49	2.450000e+00	3.587215e-06	
50	2.500000e+00	3.025474e-06	
51	2.550000e+00	2.511065e-06	
52	2.600000e+00	2.057949e-06	
53	2.650000e+00	1.675089e-06	
54	2.700000e+00	1.363552e-06	

Index   v-sweep         rds             
--------------------------------------------------------------------------------
55	2.750000e+00	1.117117e-06	
56	2.800000e+00	9.253987e-07	
57	2.850000e+00	7.771314e-07	
58	2.900000e+00	6.622078e-07	
59	2.950000e+00	5.724431e-07	
60	3.000000e+00	5.015692e-07	
61	3.050000e+00	4.449207e-07	
62	3.100000e+00	3.990655e-07	
63	3.150000e+00	3.614829e-07	
64	3.200000e+00	3.303134e-07	
65	3.250000e+00	3.041742e-07	
66	3.300000e+00	2.820269e-07	
67	3.350000e+00	2.630832e-07	
68	3.400000e+00	2.467384e-07	
69	3.450000e+00	2.325231e-07	
70	3.500000e+00	2.200693e-07	
71	3.550000e+00	2.090853e-07	
72	3.600000e+00	1.993380e-07	
73	3.650000e+00	1.906392e-07	
74	3.700000e+00	1.828356e-07	
75	3.750000e+00	1.758014e-07	
76	3.800000e+00	1.694326e-07	
77	3.850000e+00	1.636424e-07	
78	3.900000e+00	1.583582e-07	
79	3.950000e+00	1.535187e-07	
80	4.000000e+00	1.490718e-07	
81	4.050000e+00	1.449730e-07	
82	4.100000e+00	1.411842e-07	
83	4.150000e+00	1.376724e-07	
84	4.200000e+00	1.344092e-07	
85	4.250000e+00	1.313698e-07	
86	4.300000e+00	1.285325e-07	
87	4.350000e+00	1.258781e-07	
88	4.400000e+00	1.233901e-07	
89	4.450000e+00	1.210536e-07	
90	4.500000e+00	1.188554e-07	
91	4.550000e+00	1.167839e-07	
92	4.600000e+00	1.148286e-07	
93	4.650000e+00	1.129802e-07	
94	4.700000e+00	1.112304e-07	
95	4.750000e+00	1.095715e-07	
96	4.800000e+00	1.079969e-07	
97	4.850000e+00	1.065003e-07	
98	4.900000e+00	1.050762e-07	
99	4.950000e+00	1.037196e-07	
100	5.000000e+00	1.024257e-07	
101	5.050000e+00	1.011905e-07	
102	5.100000e+00	1.000101e-07	
103	5.150000e+00	9.888097e-08	
104	5.200000e+00	9.779987e-08	
105	5.250000e+00	9.676386e-08	
106	5.300000e+00	9.577021e-08	
107	5.350000e+00	9.481641e-08	
108	5.400000e+00	9.390013e-08	
109	5.450000e+00	9.301923e-08	
110	5.500000e+00	9.217173e-08	
111	5.550000e+00	9.135579e-08	
112	5.600000e+00	9.056968e-08	

Index   v-sweep         rds             
--------------------------------------------------------------------------------
113	5.650000e+00	8.981183e-08	
114	5.700000e+00	8.908076e-08	
115	5.750000e+00	8.837508e-08	
116	5.800000e+00	8.769350e-08	
117	5.850000e+00	8.703484e-08	
118	5.900000e+00	8.639795e-08	
119	5.950000e+00	8.578180e-08	
120	6.000000e+00	8.518539e-08	
121	6.050000e+00	8.460780e-08	
122	6.100000e+00	8.404816e-08	
123	6.150000e+00	8.350566e-08	
124	6.200000e+00	8.297952e-08	
125	6.250000e+00	8.246903e-08	
126	6.300000e+00	8.197350e-08	
127	6.350000e+00	8.149229e-08	
128	6.400000e+00	8.102480e-08	
129	6.450000e+00	8.057045e-08	
130	6.500000e+00	8.012870e-08	
131	6.550000e+00	7.969904e-08	
132	6.600000e+00	7.928098e-08	
Reset re-loads circuit ***************************

Circuit: ***************************

Doing analysis at TEMP = 125.000000 and TNOM = 125.000000


No. of Data Rows : 133
                          ***************************
                          DC transfer characteristic  Mon Jan  9 13:58:40  2023
--------------------------------------------------------------------------------
Index   v-sweep         rds             
--------------------------------------------------------------------------------
0	0.000000e+00	4.451991e-05	
1	5.000000e-02	4.380238e-05	
2	1.000000e-01	4.308804e-05	
3	1.500000e-01	4.237688e-05	
4	2.000000e-01	4.166889e-05	
5	2.500000e-01	4.096404e-05	
6	3.000000e-01	4.026232e-05	
7	3.500000e-01	3.956371e-05	
8	4.000000e-01	3.886819e-05	
9	4.500000e-01	3.817574e-05	
10	5.000000e-01	3.748635e-05	
11	5.500000e-01	3.680000e-05	
12	6.000000e-01	3.611667e-05	
13	6.500000e-01	3.543634e-05	
14	7.000000e-01	3.475900e-05	
15	7.500000e-01	3.408463e-05	
16	8.000000e-01	3.341322e-05	
17	8.500000e-01	3.274474e-05	
18	9.000000e-01	3.207918e-05	
19	9.500000e-01	3.141652e-05	
20	1.000000e+00	3.075674e-05	
21	1.050000e+00	3.009984e-05	
22	1.100000e+00	2.944579e-05	
23	1.150000e+00	2.879457e-05	
24	1.200000e+00	2.814618e-05	
25	1.250000e+00	2.750058e-05	
26	1.300000e+00	2.685777e-05	
27	1.350000e+00	2.621774e-05	
28	1.400000e+00	2.558045e-05	
29	1.450000e+00	2.494590e-05	
30	1.500000e+00	2.431407e-05	
31	1.550000e+00	2.368493e-05	
32	1.600000e+00	2.305849e-05	
33	1.650000e+00	2.243471e-05	
34	1.700000e+00	2.181357e-05	
35	1.750000e+00	2.119507e-05	
36	1.800000e+00	2.057918e-05	
37	1.850000e+00	1.996587e-05	
38	1.900000e+00	1.935514e-05	
39	1.950000e+00	1.874695e-05	
40	2.000000e+00	1.814129e-05	
41	2.050000e+00	1.753813e-05	
42	2.100000e+00	1.693745e-05	
43	2.150000e+00	1.633921e-05	
44	2.200000e+00	1.574338e-05	
45	2.250000e+00	1.514993e-05	
46	2.300000e+00	1.455881e-05	
47	2.350000e+00	1.396999e-05	
48	2.400000e+00	1.338340e-05	
49	2.450000e+00	1.279899e-05	
50	2.500000e+00	1.221668e-05	
51	2.550000e+00	1.163639e-05	
52	2.600000e+00	1.105801e-05	
53	2.650000e+00	1.048144e-05	
54	2.700000e+00	9.906516e-06	

Index   v-sweep         rds             
--------------------------------------------------------------------------------
55	2.750000e+00	9.333088e-06	
56	2.800000e+00	8.760973e-06	
57	2.850000e+00	8.189981e-06	
58	2.900000e+00	7.619942e-06	
59	2.950000e+00	7.050764e-06	
60	3.000000e+00	6.482549e-06	
61	3.050000e+00	5.915800e-06	
62	3.100000e+00	5.351773e-06	
63	3.150000e+00	4.793018e-06	
64	3.200000e+00	4.244052e-06	
65	3.250000e+00	3.711968e-06	
66	3.300000e+00	3.206474e-06	
67	3.350000e+00	2.738793e-06	
68	3.400000e+00	2.319316e-06	
69	3.450000e+00	1.954905e-06	
70	3.500000e+00	1.647299e-06	
71	3.550000e+00	1.393382e-06	
72	3.600000e+00	1.186830e-06	
73	3.650000e+00	1.020026e-06	
74	3.700000e+00	8.854884e-07	
75	3.750000e+00	7.766312e-07	
76	3.800000e+00	6.880161e-07	
77	3.850000e+00	6.153134e-07	
78	3.900000e+00	5.551451e-07	
79	3.950000e+00	5.049001e-07	
80	4.000000e+00	4.625652e-07	
81	4.050000e+00	4.265854e-07	
82	4.100000e+00	3.957538e-07	
83	4.150000e+00	3.691279e-07	
84	4.200000e+00	3.459664e-07	
85	4.250000e+00	3.256817e-07	
86	4.300000e+00	3.078041e-07	
87	4.350000e+00	2.919557e-07	
88	4.400000e+00	2.778295e-07	
89	4.450000e+00	2.651749e-07	
90	4.500000e+00	2.537852e-07	
91	4.550000e+00	2.434892e-07	
92	4.600000e+00	2.341440e-07	
93	4.650000e+00	2.256298e-07	
94	4.700000e+00	2.178451e-07	
95	4.750000e+00	2.107039e-07	
96	4.800000e+00	2.041328e-07	
97	4.850000e+00	1.980686e-07	
98	4.900000e+00	1.924570e-07	
99	4.950000e+00	1.872510e-07	
100	5.000000e+00	1.824095e-07	
101	5.050000e+00	1.778969e-07	
102	5.100000e+00	1.736817e-07	
103	5.150000e+00	1.697364e-07	
104	5.200000e+00	1.660367e-07	
105	5.250000e+00	1.625608e-07	
106	5.300000e+00	1.592897e-07	
107	5.350000e+00	1.562062e-07	
108	5.400000e+00	1.532951e-07	
109	5.450000e+00	1.505427e-07	
110	5.500000e+00	1.479365e-07	
111	5.550000e+00	1.454656e-07	
112	5.600000e+00	1.431200e-07	

Index   v-sweep         rds             
--------------------------------------------------------------------------------
113	5.650000e+00	1.408904e-07	
114	5.700000e+00	1.387688e-07	
115	5.750000e+00	1.367476e-07	
116	5.800000e+00	1.348200e-07	
117	5.850000e+00	1.329797e-07	
118	5.900000e+00	1.312211e-07	
119	5.950000e+00	1.295390e-07	
120	6.000000e+00	1.279285e-07	
121	6.050000e+00	1.263853e-07	
122	6.100000e+00	1.249053e-07	
123	6.150000e+00	1.234847e-07	
124	6.200000e+00	1.221202e-07	
125	6.250000e+00	1.208085e-07	
126	6.300000e+00	1.195466e-07	
127	6.350000e+00	1.183318e-07	
128	6.400000e+00	1.171616e-07	
129	6.450000e+00	1.160336e-07	
130	6.500000e+00	1.149456e-07	
131	6.550000e+00	1.138954e-07	
132	6.600000e+00	1.128813e-07	
Reset re-loads circuit ***************************

Circuit: ***************************

Doing analysis at TEMP = 125.000000 and TNOM = 125.000000


No. of Data Rows : 133
                          ***************************
                          DC transfer characteristic  Mon Jan  9 13:58:40  2023
--------------------------------------------------------------------------------
Index   v-sweep         rds             
--------------------------------------------------------------------------------
0	0.000000e+00	4.911383e-05	
1	5.000000e-02	4.847017e-05	
2	1.000000e-01	4.782912e-05	
3	1.500000e-01	4.719067e-05	
4	2.000000e-01	4.655481e-05	
5	2.500000e-01	4.592153e-05	
6	3.000000e-01	4.529080e-05	
7	3.500000e-01	4.466262e-05	
8	4.000000e-01	4.403698e-05	
9	4.500000e-01	4.341385e-05	
10	5.000000e-01	4.279324e-05	
11	5.500000e-01	4.217512e-05	
12	6.000000e-01	4.155948e-05	
13	6.500000e-01	4.094631e-05	
14	7.000000e-01	4.033560e-05	
15	7.500000e-01	3.972733e-05	
16	8.000000e-01	3.912150e-05	
17	8.500000e-01	3.851808e-05	
18	9.000000e-01	3.791707e-05	
19	9.500000e-01	3.731845e-05	
20	1.000000e+00	3.672221e-05	
21	1.050000e+00	3.612835e-05	
22	1.100000e+00	3.553684e-05	
23	1.150000e+00	3.494767e-05	
24	1.200000e+00	3.436084e-05	
25	1.250000e+00	3.377632e-05	
26	1.300000e+00	3.319412e-05	
27	1.350000e+00	3.261421e-05	
28	1.400000e+00	3.203658e-05	
29	1.450000e+00	3.146123e-05	
30	1.500000e+00	3.088814e-05	
31	1.550000e+00	3.031729e-05	
32	1.600000e+00	2.974869e-05	
33	1.650000e+00	2.918230e-05	
34	1.700000e+00	2.861813e-05	
35	1.750000e+00	2.805616e-05	
36	1.800000e+00	2.749638e-05	
37	1.850000e+00	2.693877e-05	
38	1.900000e+00	2.638333e-05	
39	1.950000e+00	2.583004e-05	
40	2.000000e+00	2.527889e-05	
41	2.050000e+00	2.472987e-05	
42	2.100000e+00	2.418296e-05	
43	2.150000e+00	2.363815e-05	
44	2.200000e+00	2.309544e-05	
45	2.250000e+00	2.255479e-05	
46	2.300000e+00	2.201621e-05	
47	2.350000e+00	2.147968e-05	
48	2.400000e+00	2.094518e-05	
49	2.450000e+00	2.041270e-05	
50	2.500000e+00	1.988221e-05	
51	2.550000e+00	1.935372e-05	
52	2.600000e+00	1.882719e-05	
53	2.650000e+00	1.830261e-05	
54	2.700000e+00	1.777995e-05	

Index   v-sweep         rds             
--------------------------------------------------------------------------------
55	2.750000e+00	1.725920e-05	
56	2.800000e+00	1.674032e-05	
57	2.850000e+00	1.622330e-05	
58	2.900000e+00	1.570810e-05	
59	2.950000e+00	1.519469e-05	
60	3.000000e+00	1.468302e-05	
61	3.050000e+00	1.417305e-05	
62	3.100000e+00	1.366473e-05	
63	3.150000e+00	1.315800e-05	
64	3.200000e+00	1.265277e-05	
65	3.250000e+00	1.214898e-05	
66	3.300000e+00	1.164650e-05	
67	3.350000e+00	1.114522e-05	
68	3.400000e+00	1.064499e-05	
69	3.450000e+00	1.014563e-05	
70	3.500000e+00	9.646921e-06	
71	3.550000e+00	9.148617e-06	
72	3.600000e+00	8.650419e-06	
73	3.650000e+00	8.151999e-06	
74	3.700000e+00	7.653004e-06	
75	3.750000e+00	7.153106e-06	
76	3.800000e+00	6.652077e-06	
77	3.850000e+00	6.149945e-06	
78	3.900000e+00	5.647248e-06	
79	3.950000e+00	5.145407e-06	
80	4.000000e+00	4.647224e-06	
81	4.050000e+00	4.157363e-06	
82	4.100000e+00	3.682576e-06	
83	4.150000e+00	3.231316e-06	
84	4.200000e+00	2.812529e-06	
85	4.250000e+00	2.433887e-06	
86	4.300000e+00	2.100175e-06	
87	4.350000e+00	1.812563e-06	
88	4.400000e+00	1.568956e-06	
89	4.450000e+00	1.365039e-06	
90	4.500000e+00	1.195450e-06	
91	4.550000e+00	1.054702e-06	
92	4.600000e+00	9.377371e-07	
93	4.650000e+00	8.401760e-07	
94	4.700000e+00	7.583699e-07	
95	4.750000e+00	6.893474e-07	
96	4.800000e+00	6.307203e-07	
97	4.850000e+00	5.805807e-07	
98	4.900000e+00	5.374070e-07	
99	4.950000e+00	4.999847e-07	
100	5.000000e+00	4.673407e-07	
101	5.050000e+00	4.386921e-07	
102	5.100000e+00	4.134057e-07	
103	5.150000e+00	3.909664e-07	
104	5.200000e+00	3.709524e-07	
105	5.250000e+00	3.530168e-07	
106	5.300000e+00	3.368721e-07	
107	5.350000e+00	3.222787e-07	
108	5.400000e+00	3.090358e-07	
109	5.450000e+00	2.969746e-07	
110	5.500000e+00	2.859516e-07	
111	5.550000e+00	2.758450e-07	
112	5.600000e+00	2.665505e-07	

Index   v-sweep         rds             
--------------------------------------------------------------------------------
113	5.650000e+00	2.579784e-07	
114	5.700000e+00	2.500513e-07	
115	5.750000e+00	2.427021e-07	
116	5.800000e+00	2.358723e-07	
117	5.850000e+00	2.295110e-07	
118	5.900000e+00	2.235732e-07	
119	5.950000e+00	2.180197e-07	
120	6.000000e+00	2.128155e-07	
121	6.050000e+00	2.079299e-07	
122	6.100000e+00	2.033353e-07	
123	6.150000e+00	1.990075e-07	
124	6.200000e+00	1.949244e-07	
125	6.250000e+00	1.910666e-07	
126	6.300000e+00	1.874164e-07	
127	6.350000e+00	1.839579e-07	
128	6.400000e+00	1.806769e-07	
129	6.450000e+00	1.775604e-07	
130	6.500000e+00	1.745967e-07	
131	6.550000e+00	1.717750e-07	
132	6.600000e+00	1.690857e-07	
Reset re-loads circuit ***************************

Circuit: ***************************

Note: No ".plot", ".print", or ".fourier" lines; no simulations run
