
Note: Compatibility modes selected: hs

Warning: m=xx on .subckt line will override multiplier m hierarchy!


Circuit: ***************************

Doing analysis at TEMP = -40.000000 and TNOM = -40.000000


No. of Data Rows : 133
                          ***************************
                          DC transfer characteristic  Mon Jan  9 13:58:38  2023
--------------------------------------------------------------------------------
Index   v-sweep         rds             
--------------------------------------------------------------------------------
0	0.000000e+00	2.646017e-04	
1	5.000000e-02	1.722906e-04	
2	1.000000e-01	9.144897e-05	
3	1.500000e-01	3.981538e-05	
4	2.000000e-01	2.123132e-05	
5	2.500000e-01	1.500386e-05	
6	3.000000e-01	1.210301e-05	
7	3.500000e-01	1.039714e-05	
8	4.000000e-01	9.258350e-06	
9	4.500000e-01	8.438936e-06	
10	5.000000e-01	7.819453e-06	
11	5.500000e-01	7.334280e-06	
12	6.000000e-01	6.944004e-06	
13	6.500000e-01	6.623387e-06	
14	7.000000e-01	6.355462e-06	
15	7.500000e-01	6.128375e-06	
16	8.000000e-01	5.933588e-06	
17	8.500000e-01	5.764787e-06	
18	9.000000e-01	5.617202e-06	
19	9.500000e-01	5.487160e-06	
20	1.000000e+00	5.371785e-06	
21	1.050000e+00	5.268798e-06	
22	1.100000e+00	5.176365e-06	
23	1.150000e+00	5.092993e-06	
24	1.200000e+00	5.017459e-06	
25	1.250000e+00	4.948747e-06	
26	1.300000e+00	4.886010e-06	
27	1.350000e+00	4.828532e-06	
28	1.400000e+00	4.775707e-06	
29	1.450000e+00	4.727019e-06	
30	1.500000e+00	4.682023e-06	
31	1.550000e+00	4.640336e-06	
32	1.600000e+00	4.601625e-06	
33	1.650000e+00	4.565599e-06	
34	1.700000e+00	4.532006e-06	
35	1.750000e+00	4.500621e-06	
36	1.800000e+00	4.471247e-06	
37	1.850000e+00	4.443710e-06	
38	1.900000e+00	4.417853e-06	
39	1.950000e+00	4.393539e-06	
40	2.000000e+00	4.370643e-06	
41	2.050000e+00	4.349055e-06	
42	2.100000e+00	4.328672e-06	
43	2.150000e+00	4.309407e-06	
44	2.200000e+00	4.291176e-06	
45	2.250000e+00	4.273906e-06	
46	2.300000e+00	4.257529e-06	
47	2.350000e+00	4.241984e-06	
48	2.400000e+00	4.227215e-06	
49	2.450000e+00	4.213171e-06	
50	2.500000e+00	4.199805e-06	
51	2.550000e+00	4.187074e-06	
52	2.600000e+00	4.174938e-06	
53	2.650000e+00	4.163362e-06	
54	2.700000e+00	4.152311e-06	

Index   v-sweep         rds             
--------------------------------------------------------------------------------
55	2.750000e+00	4.141755e-06	
56	2.800000e+00	4.131665e-06	
57	2.850000e+00	4.122014e-06	
58	2.900000e+00	4.112778e-06	
59	2.950000e+00	4.103933e-06	
60	3.000000e+00	4.095460e-06	
61	3.050000e+00	4.087337e-06	
62	3.100000e+00	4.079546e-06	
63	3.150000e+00	4.072071e-06	
64	3.200000e+00	4.064894e-06	
65	3.250000e+00	4.058002e-06	
66	3.300000e+00	4.051379e-06	
67	3.350000e+00	4.045013e-06	
68	3.400000e+00	4.038892e-06	
69	3.450000e+00	4.033003e-06	
70	3.500000e+00	4.027335e-06	
71	3.550000e+00	4.021880e-06	
72	3.600000e+00	4.016625e-06	
73	3.650000e+00	4.011564e-06	
74	3.700000e+00	4.006686e-06	
75	3.750000e+00	4.001985e-06	
76	3.800000e+00	3.997452e-06	
77	3.850000e+00	3.993079e-06	
78	3.900000e+00	3.988861e-06	
79	3.950000e+00	3.984791e-06	
80	4.000000e+00	3.980862e-06	
81	4.050000e+00	3.977068e-06	
82	4.100000e+00	3.973405e-06	
83	4.150000e+00	3.969867e-06	
84	4.200000e+00	3.966449e-06	
85	4.250000e+00	3.963146e-06	
86	4.300000e+00	3.959953e-06	
87	4.350000e+00	3.956868e-06	
88	4.400000e+00	3.953884e-06	
89	4.450000e+00	3.950999e-06	
90	4.500000e+00	3.948209e-06	
91	4.550000e+00	3.945510e-06	
92	4.600000e+00	3.942899e-06	
93	4.650000e+00	3.940373e-06	
94	4.700000e+00	3.937928e-06	
95	4.750000e+00	3.935562e-06	
96	4.800000e+00	3.933272e-06	
97	4.850000e+00	3.931056e-06	
98	4.900000e+00	3.928910e-06	
99	4.950000e+00	3.926832e-06	
100	5.000000e+00	3.924820e-06	
101	5.050000e+00	3.922872e-06	
102	5.100000e+00	3.920986e-06	
103	5.150000e+00	3.919158e-06	
104	5.200000e+00	3.917389e-06	
105	5.250000e+00	3.915675e-06	
106	5.300000e+00	3.914015e-06	
107	5.350000e+00	3.912406e-06	
108	5.400000e+00	3.910848e-06	
109	5.450000e+00	3.909339e-06	
110	5.500000e+00	3.907877e-06	
111	5.550000e+00	3.906461e-06	
112	5.600000e+00	3.905089e-06	

Index   v-sweep         rds             
--------------------------------------------------------------------------------
113	5.650000e+00	3.903760e-06	
114	5.700000e+00	3.902473e-06	
115	5.750000e+00	3.901225e-06	
116	5.800000e+00	3.900017e-06	
117	5.850000e+00	3.898847e-06	
118	5.900000e+00	3.897713e-06	
119	5.950000e+00	3.896615e-06	
120	6.000000e+00	3.895552e-06	
121	6.050000e+00	3.894522e-06	
122	6.100000e+00	3.893524e-06	
123	6.150000e+00	3.892559e-06	
124	6.200000e+00	3.891624e-06	
125	6.250000e+00	3.890718e-06	
126	6.300000e+00	3.889842e-06	
127	6.350000e+00	3.888994e-06	
128	6.400000e+00	3.888172e-06	
129	6.450000e+00	3.887378e-06	
130	6.500000e+00	3.886609e-06	
131	6.550000e+00	3.885866e-06	
132	6.600000e+00	3.885146e-06	
Reset re-loads circuit ***************************

Circuit: ***************************

Doing analysis at TEMP = -40.000000 and TNOM = -40.000000


No. of Data Rows : 133
                          ***************************
                          DC transfer characteristic  Mon Jan  9 13:58:39  2023
--------------------------------------------------------------------------------
Index   v-sweep         rds             
--------------------------------------------------------------------------------
0	0.000000e+00	1.290481e-03	
1	5.000000e-02	1.175891e-03	
2	1.000000e-01	1.066357e-03	
3	1.500000e-01	9.616051e-04	
4	2.000000e-01	8.613722e-04	
5	2.500000e-01	7.653975e-04	
6	3.000000e-01	6.734161e-04	
7	3.500000e-01	5.851372e-04	
8	4.000000e-01	5.002039e-04	
9	4.500000e-01	4.181764e-04	
10	5.000000e-01	3.388275e-04	
11	5.500000e-01	2.636246e-04	
12	6.000000e-01	1.978379e-04	
13	6.500000e-01	1.473685e-04	
14	7.000000e-01	1.124226e-04	
15	7.500000e-01	8.896562e-05	
16	8.000000e-01	7.294681e-05	
17	8.500000e-01	6.162021e-05	
18	9.000000e-01	5.331207e-05	
19	9.500000e-01	4.701243e-05	
20	1.000000e+00	4.209762e-05	
21	1.050000e+00	3.816963e-05	
22	1.100000e+00	3.496567e-05	
23	1.150000e+00	3.230667e-05	
24	1.200000e+00	3.006705e-05	
25	1.250000e+00	2.815647e-05	
26	1.300000e+00	2.650842e-05	
27	1.350000e+00	2.507300e-05	
28	1.400000e+00	2.381204e-05	
29	1.450000e+00	2.269593e-05	
30	1.500000e+00	2.170132e-05	
31	1.550000e+00	2.080959e-05	
32	1.600000e+00	2.000572e-05	
33	1.650000e+00	1.927744e-05	
34	1.700000e+00	1.861467e-05	
35	1.750000e+00	1.800902e-05	
36	1.800000e+00	1.745346e-05	
37	1.850000e+00	1.694209e-05	
38	1.900000e+00	1.646987e-05	
39	1.950000e+00	1.603250e-05	
40	2.000000e+00	1.562630e-05	
41	2.050000e+00	1.524807e-05	
42	2.100000e+00	1.489504e-05	
43	2.150000e+00	1.456479e-05	
44	2.200000e+00	1.425519e-05	
45	2.250000e+00	1.396440e-05	
46	2.300000e+00	1.369075e-05	
47	2.350000e+00	1.343278e-05	
48	2.400000e+00	1.318919e-05	
49	2.450000e+00	1.295883e-05	
50	2.500000e+00	1.274065e-05	
51	2.550000e+00	1.253371e-05	
52	2.600000e+00	1.233718e-05	
53	2.650000e+00	1.215030e-05	
54	2.700000e+00	1.197237e-05	

Index   v-sweep         rds             
--------------------------------------------------------------------------------
55	2.750000e+00	1.180278e-05	
56	2.800000e+00	1.164096e-05	
57	2.850000e+00	1.148638e-05	
58	2.900000e+00	1.133858e-05	
59	2.950000e+00	1.119712e-05	
60	3.000000e+00	1.106161e-05	
61	3.050000e+00	1.093169e-05	
62	3.100000e+00	1.080701e-05	
63	3.150000e+00	1.068727e-05	
64	3.200000e+00	1.057218e-05	
65	3.250000e+00	1.046148e-05	
66	3.300000e+00	1.035493e-05	
67	3.350000e+00	1.025230e-05	
68	3.400000e+00	1.015337e-05	
69	3.450000e+00	1.005796e-05	
70	3.500000e+00	9.965878e-06	
71	3.550000e+00	9.876956e-06	
72	3.600000e+00	9.791037e-06	
73	3.650000e+00	9.707973e-06	
74	3.700000e+00	9.627623e-06	
75	3.750000e+00	9.549860e-06	
76	3.800000e+00	9.474561e-06	
77	3.850000e+00	9.401613e-06	
78	3.900000e+00	9.330907e-06	
79	3.950000e+00	9.262344e-06	
80	4.000000e+00	9.195827e-06	
81	4.050000e+00	9.131269e-06	
82	4.100000e+00	9.068585e-06	
83	4.150000e+00	9.007695e-06	
84	4.200000e+00	8.948524e-06	
85	4.250000e+00	8.891001e-06	
86	4.300000e+00	8.835059e-06	
87	4.350000e+00	8.780636e-06	
88	4.400000e+00	8.727669e-06	
89	4.450000e+00	8.676103e-06	
90	4.500000e+00	8.625884e-06	
91	4.550000e+00	8.576960e-06	
92	4.600000e+00	8.529282e-06	
93	4.650000e+00	8.482803e-06	
94	4.700000e+00	8.437481e-06	
95	4.750000e+00	8.393273e-06	
96	4.800000e+00	8.350138e-06	
97	4.850000e+00	8.308040e-06	
98	4.900000e+00	8.266941e-06	
99	4.950000e+00	8.226807e-06	
100	5.000000e+00	8.187605e-06	
101	5.050000e+00	8.149304e-06	
102	5.100000e+00	8.111872e-06	
103	5.150000e+00	8.075283e-06	
104	5.200000e+00	8.039507e-06	
105	5.250000e+00	8.004518e-06	
106	5.300000e+00	7.970292e-06	
107	5.350000e+00	7.936805e-06	
108	5.400000e+00	7.904032e-06	
109	5.450000e+00	7.871952e-06	
110	5.500000e+00	7.840543e-06	
111	5.550000e+00	7.809786e-06	
112	5.600000e+00	7.779660e-06	

Index   v-sweep         rds             
--------------------------------------------------------------------------------
113	5.650000e+00	7.750147e-06	
114	5.700000e+00	7.721228e-06	
115	5.750000e+00	7.692886e-06	
116	5.800000e+00	7.665105e-06	
117	5.850000e+00	7.637868e-06	
118	5.900000e+00	7.611160e-06	
119	5.950000e+00	7.584966e-06	
120	6.000000e+00	7.559272e-06	
121	6.050000e+00	7.534064e-06	
122	6.100000e+00	7.509328e-06	
123	6.150000e+00	7.485052e-06	
124	6.200000e+00	7.461223e-06	
125	6.250000e+00	7.437829e-06	
126	6.300000e+00	7.414860e-06	
127	6.350000e+00	7.392303e-06	
128	6.400000e+00	7.370149e-06	
129	6.450000e+00	7.348386e-06	
130	6.500000e+00	7.327005e-06	
131	6.550000e+00	7.305996e-06	
132	6.600000e+00	7.285349e-06	
Reset re-loads circuit ***************************

Circuit: ***************************

Doing analysis at TEMP = -40.000000 and TNOM = -40.000000


No. of Data Rows : 133
                          ***************************
                          DC transfer characteristic  Mon Jan  9 13:58:39  2023
--------------------------------------------------------------------------------
Index   v-sweep         rds             
--------------------------------------------------------------------------------
0	0.000000e+00	2.036560e-03	
1	5.000000e-02	1.912650e-03	
2	1.000000e-01	1.793828e-03	
3	1.500000e-01	1.679841e-03	
4	2.000000e-01	1.570444e-03	
5	2.500000e-01	1.465395e-03	
6	3.000000e-01	1.364461e-03	
7	3.500000e-01	1.267409e-03	
8	4.000000e-01	1.174012e-03	
9	4.500000e-01	1.084039e-03	
10	5.000000e-01	9.972410e-04	
11	5.500000e-01	9.133280e-04	
12	6.000000e-01	8.319198e-04	
13	6.500000e-01	7.524658e-04	
14	7.000000e-01	6.741181e-04	
15	7.500000e-01	5.956043e-04	
16	8.000000e-01	5.153769e-04	
17	8.500000e-01	4.328103e-04	
18	9.000000e-01	3.508053e-04	
19	9.500000e-01	2.764810e-04	
20	1.000000e+00	2.161983e-04	
21	1.050000e+00	1.710611e-04	
22	1.100000e+00	1.383649e-04	
23	1.150000e+00	1.146677e-04	
24	1.200000e+00	9.719435e-05	
25	1.250000e+00	8.400938e-05	
26	1.300000e+00	7.382201e-05	
27	1.350000e+00	6.577492e-05	
28	1.400000e+00	5.929124e-05	
29	1.450000e+00	5.397506e-05	
30	1.500000e+00	4.954877e-05	
31	1.550000e+00	4.581349e-05	
32	1.600000e+00	4.262385e-05	
33	1.650000e+00	3.987156e-05	
34	1.700000e+00	3.747457e-05	
35	1.750000e+00	3.536977e-05	
36	1.800000e+00	3.350785e-05	
37	1.850000e+00	3.184985e-05	
38	1.900000e+00	3.036457e-05	
39	1.950000e+00	2.902679e-05	
40	2.000000e+00	2.781591e-05	
41	2.050000e+00	2.671493e-05	
42	2.100000e+00	2.570975e-05	
43	2.150000e+00	2.478854e-05	
44	2.200000e+00	2.394132e-05	
45	2.250000e+00	2.315961e-05	
46	2.300000e+00	2.243620e-05	
47	2.350000e+00	2.176485e-05	
48	2.400000e+00	2.114019e-05	
49	2.450000e+00	2.055757e-05	
50	2.500000e+00	2.001291e-05	
51	2.550000e+00	1.950266e-05	
52	2.600000e+00	1.902369e-05	
53	2.650000e+00	1.857321e-05	
54	2.700000e+00	1.814880e-05	

Index   v-sweep         rds             
--------------------------------------------------------------------------------
55	2.750000e+00	1.774826e-05	
56	2.800000e+00	1.736965e-05	
57	2.850000e+00	1.701123e-05	
58	2.900000e+00	1.667144e-05	
59	2.950000e+00	1.634887e-05	
60	3.000000e+00	1.604226e-05	
61	3.050000e+00	1.575046e-05	
62	3.100000e+00	1.547242e-05	
63	3.150000e+00	1.520721e-05	
64	3.200000e+00	1.495395e-05	
65	3.250000e+00	1.471187e-05	
66	3.300000e+00	1.448025e-05	
67	3.350000e+00	1.425842e-05	
68	3.400000e+00	1.404578e-05	
69	3.450000e+00	1.384178e-05	
70	3.500000e+00	1.364590e-05	
71	3.550000e+00	1.345767e-05	
72	3.600000e+00	1.327665e-05	
73	3.650000e+00	1.310244e-05	
74	3.700000e+00	1.293467e-05	
75	3.750000e+00	1.277298e-05	
76	3.800000e+00	1.261705e-05	
77	3.850000e+00	1.246659e-05	
78	3.900000e+00	1.232130e-05	
79	3.950000e+00	1.218094e-05	
80	4.000000e+00	1.204525e-05	
81	4.050000e+00	1.191401e-05	
82	4.100000e+00	1.178700e-05	
83	4.150000e+00	1.166403e-05	
84	4.200000e+00	1.154490e-05	
85	4.250000e+00	1.142944e-05	
86	4.300000e+00	1.131748e-05	
87	4.350000e+00	1.120888e-05	
88	4.400000e+00	1.110347e-05	
89	4.450000e+00	1.100112e-05	
90	4.500000e+00	1.090171e-05	
91	4.550000e+00	1.080510e-05	
92	4.600000e+00	1.071119e-05	
93	4.650000e+00	1.061986e-05	
94	4.700000e+00	1.053101e-05	
95	4.750000e+00	1.044454e-05	
96	4.800000e+00	1.036035e-05	
97	4.850000e+00	1.027837e-05	
98	4.900000e+00	1.019849e-05	
99	4.950000e+00	1.012065e-05	
100	5.000000e+00	1.004477e-05	
101	5.050000e+00	9.970775e-06	
102	5.100000e+00	9.898597e-06	
103	5.150000e+00	9.828172e-06	
104	5.200000e+00	9.759437e-06	
105	5.250000e+00	9.692333e-06	
106	5.300000e+00	9.626803e-06	
107	5.350000e+00	9.562794e-06	
108	5.400000e+00	9.500254e-06	
109	5.450000e+00	9.439135e-06	
110	5.500000e+00	9.379388e-06	
111	5.550000e+00	9.320969e-06	
112	5.600000e+00	9.263836e-06	

Index   v-sweep         rds             
--------------------------------------------------------------------------------
113	5.650000e+00	9.207947e-06	
114	5.700000e+00	9.153262e-06	
115	5.750000e+00	9.099744e-06	
116	5.800000e+00	9.047357e-06	
117	5.850000e+00	8.996066e-06	
118	5.900000e+00	8.945838e-06	
119	5.950000e+00	8.896641e-06	
120	6.000000e+00	8.848445e-06	
121	6.050000e+00	8.801219e-06	
122	6.100000e+00	8.754936e-06	
123	6.150000e+00	8.709568e-06	
124	6.200000e+00	8.665089e-06	
125	6.250000e+00	8.621474e-06	
126	6.300000e+00	8.578699e-06	
127	6.350000e+00	8.536741e-06	
128	6.400000e+00	8.495576e-06	
129	6.450000e+00	8.455184e-06	
130	6.500000e+00	8.415543e-06	
131	6.550000e+00	8.376634e-06	
132	6.600000e+00	8.338437e-06	
Reset re-loads circuit ***************************

Circuit: ***************************

Doing analysis at TEMP = -40.000000 and TNOM = -40.000000


No. of Data Rows : 133
                          ***************************
                          DC transfer characteristic  Mon Jan  9 13:58:39  2023
--------------------------------------------------------------------------------
Index   v-sweep         rds             
--------------------------------------------------------------------------------
0	0.000000e+00	2.619907e-03	
1	5.000000e-02	2.493596e-03	
2	1.000000e-01	2.371974e-03	
3	1.500000e-01	2.254835e-03	
4	2.000000e-01	2.141978e-03	
5	2.500000e-01	2.033209e-03	
6	3.000000e-01	1.928335e-03	
7	3.500000e-01	1.827167e-03	
8	4.000000e-01	1.729521e-03	
9	4.500000e-01	1.635221e-03	
10	5.000000e-01	1.544092e-03	
11	5.500000e-01	1.455969e-03	
12	6.000000e-01	1.370684e-03	
13	6.500000e-01	1.288067e-03	
14	7.000000e-01	1.207934e-03	
15	7.500000e-01	1.130068e-03	
16	8.000000e-01	1.054195e-03	
17	8.500000e-01	9.799349e-04	
18	9.000000e-01	9.067325e-04	
19	9.500000e-01	8.337464e-04	
20	1.000000e+00	7.597245e-04	
21	1.050000e+00	6.829793e-04	
22	1.100000e+00	6.018373e-04	
23	1.150000e+00	5.161446e-04	
24	1.200000e+00	4.294210e-04	
25	1.250000e+00	3.487002e-04	
26	1.300000e+00	2.803588e-04	
27	1.350000e+00	2.265290e-04	
28	1.400000e+00	1.856938e-04	
29	1.450000e+00	1.550102e-04	
30	1.500000e+00	1.317897e-04	
31	1.550000e+00	1.139503e-04	
32	1.600000e+00	9.999847e-05	
33	1.650000e+00	8.888878e-05	
34	1.700000e+00	7.989065e-05	
35	1.750000e+00	7.248864e-05	
36	1.800000e+00	6.631383e-05	
37	1.850000e+00	6.109787e-05	
38	1.900000e+00	5.664236e-05	
39	1.950000e+00	5.279824e-05	
40	2.000000e+00	4.945185e-05	
41	2.050000e+00	4.651528e-05	
42	2.100000e+00	4.391965e-05	
43	2.150000e+00	4.161036e-05	
44	2.200000e+00	3.954362e-05	
45	2.250000e+00	3.768396e-05	
46	2.300000e+00	3.600239e-05	
47	2.350000e+00	3.447497e-05	
48	2.400000e+00	3.308184e-05	
49	2.450000e+00	3.180633e-05	
50	2.500000e+00	3.063438e-05	
51	2.550000e+00	2.955407e-05	
52	2.600000e+00	2.855522e-05	
53	2.650000e+00	2.762907e-05	
54	2.700000e+00	2.676807e-05	

Index   v-sweep         rds             
--------------------------------------------------------------------------------
55	2.750000e+00	2.596566e-05	
56	2.800000e+00	2.521613e-05	
57	2.850000e+00	2.451449e-05	
58	2.900000e+00	2.385634e-05	
59	2.950000e+00	2.323779e-05	
60	3.000000e+00	2.265542e-05	
61	3.050000e+00	2.210617e-05	
62	3.100000e+00	2.158732e-05	
63	3.150000e+00	2.109644e-05	
64	3.200000e+00	2.063135e-05	
65	3.250000e+00	2.019008e-05	
66	3.300000e+00	1.977087e-05	
67	3.350000e+00	1.937211e-05	
68	3.400000e+00	1.899236e-05	
69	3.450000e+00	1.863030e-05	
70	3.500000e+00	1.828473e-05	
71	3.550000e+00	1.795455e-05	
72	3.600000e+00	1.763878e-05	
73	3.650000e+00	1.733649e-05	
74	3.700000e+00	1.704684e-05	
75	3.750000e+00	1.676906e-05	
76	3.800000e+00	1.650245e-05	
77	3.850000e+00	1.624634e-05	
78	3.900000e+00	1.600013e-05	
79	3.950000e+00	1.576327e-05	
80	4.000000e+00	1.553523e-05	
81	4.050000e+00	1.531553e-05	
82	4.100000e+00	1.510373e-05	
83	4.150000e+00	1.489941e-05	
84	4.200000e+00	1.470218e-05	
85	4.250000e+00	1.451169e-05	
86	4.300000e+00	1.432759e-05	
87	4.350000e+00	1.414958e-05	
88	4.400000e+00	1.397735e-05	
89	4.450000e+00	1.381063e-05	
90	4.500000e+00	1.364917e-05	
91	4.550000e+00	1.349272e-05	
92	4.600000e+00	1.334105e-05	
93	4.650000e+00	1.319395e-05	
94	4.700000e+00	1.305122e-05	
95	4.750000e+00	1.291267e-05	
96	4.800000e+00	1.277811e-05	
97	4.850000e+00	1.264739e-05	
98	4.900000e+00	1.252033e-05	
99	4.950000e+00	1.239679e-05	
100	5.000000e+00	1.227663e-05	
101	5.050000e+00	1.215972e-05	
102	5.100000e+00	1.204591e-05	
103	5.150000e+00	1.193510e-05	
104	5.200000e+00	1.182717e-05	
105	5.250000e+00	1.172200e-05	
106	5.300000e+00	1.161951e-05	
107	5.350000e+00	1.151957e-05	
108	5.400000e+00	1.142212e-05	
109	5.450000e+00	1.132704e-05	
110	5.500000e+00	1.123427e-05	
111	5.550000e+00	1.114371e-05	
112	5.600000e+00	1.105530e-05	

Index   v-sweep         rds             
--------------------------------------------------------------------------------
113	5.650000e+00	1.096895e-05	
114	5.700000e+00	1.088461e-05	
115	5.750000e+00	1.080219e-05	
116	5.800000e+00	1.072164e-05	
117	5.850000e+00	1.064290e-05	
118	5.900000e+00	1.056590e-05	
119	5.950000e+00	1.049060e-05	
120	6.000000e+00	1.041693e-05	
121	6.050000e+00	1.034485e-05	
122	6.100000e+00	1.027431e-05	
123	6.150000e+00	1.020526e-05	
124	6.200000e+00	1.013765e-05	
125	6.250000e+00	1.007144e-05	
126	6.300000e+00	1.000660e-05	
127	6.350000e+00	9.943071e-06	
128	6.400000e+00	9.880827e-06	
129	6.450000e+00	9.819827e-06	
130	6.500000e+00	9.760036e-06	
131	6.550000e+00	9.701420e-06	
132	6.600000e+00	9.643946e-06	
Reset re-loads circuit ***************************

Circuit: ***************************

Doing analysis at TEMP = -40.000000 and TNOM = -40.000000


No. of Data Rows : 133
                          ***************************
                          DC transfer characteristic  Mon Jan  9 13:58:39  2023
--------------------------------------------------------------------------------
Index   v-sweep         rds             
--------------------------------------------------------------------------------
0	0.000000e+00	3.032052e-03	
1	5.000000e-02	2.909813e-03	
2	1.000000e-01	2.791624e-03	
3	1.500000e-01	2.677330e-03	
4	2.000000e-01	2.566778e-03	
5	2.500000e-01	2.459820e-03	
6	3.000000e-01	2.356309e-03	
7	3.500000e-01	2.256100e-03	
8	4.000000e-01	2.159052e-03	
9	4.500000e-01	2.065026e-03	
10	5.000000e-01	1.973888e-03	
11	5.500000e-01	1.885507e-03	
12	6.000000e-01	1.799760e-03	
13	6.500000e-01	1.716525e-03	
14	7.000000e-01	1.635689e-03	
15	7.500000e-01	1.557137e-03	
16	8.000000e-01	1.480758e-03	
17	8.500000e-01	1.406432e-03	
18	9.000000e-01	1.334033e-03	
19	9.500000e-01	1.263410e-03	
20	1.000000e+00	1.194376e-03	
21	1.050000e+00	1.126682e-03	
22	1.100000e+00	1.059979e-03	
23	1.150000e+00	9.937570e-04	
24	1.200000e+00	9.272654e-04	
25	1.250000e+00	8.594096e-04	
26	1.300000e+00	7.887000e-04	
27	1.350000e+00	7.134395e-04	
28	1.400000e+00	6.325187e-04	
29	1.450000e+00	5.469806e-04	
30	1.500000e+00	4.612503e-04	
31	1.550000e+00	3.818464e-04	
32	1.600000e+00	3.139017e-04	
33	1.650000e+00	2.590611e-04	
34	1.700000e+00	2.161804e-04	
35	1.750000e+00	1.829918e-04	
36	1.800000e+00	1.572170e-04	
37	1.850000e+00	1.369865e-04	
38	1.900000e+00	1.208880e-04	
39	1.950000e+00	1.078894e-04	
40	2.000000e+00	9.724319e-05	
41	2.050000e+00	8.840624e-05	
42	2.100000e+00	8.098029e-05	
43	2.150000e+00	7.466985e-05	
44	2.200000e+00	6.925278e-05	
45	2.250000e+00	6.455985e-05	
46	2.300000e+00	6.046053e-05	
47	2.350000e+00	5.685282e-05	
48	2.400000e+00	5.365615e-05	
49	2.450000e+00	5.080617e-05	
50	2.500000e+00	4.825093e-05	
51	2.550000e+00	4.594816e-05	
52	2.600000e+00	4.386311e-05	
53	2.650000e+00	4.196699e-05	
54	2.700000e+00	4.023579e-05	

Index   v-sweep         rds             
--------------------------------------------------------------------------------
55	2.750000e+00	3.864933e-05	
56	2.800000e+00	3.719052e-05	
57	2.850000e+00	3.584485e-05	
58	2.900000e+00	3.459986e-05	
59	2.950000e+00	3.344485e-05	
60	3.000000e+00	3.237055e-05	
61	3.050000e+00	3.136892e-05	
62	3.100000e+00	3.043294e-05	
63	3.150000e+00	2.955643e-05	
64	3.200000e+00	2.873398e-05	
65	3.250000e+00	2.796080e-05	
66	3.300000e+00	2.723265e-05	
67	3.350000e+00	2.654575e-05	
68	3.400000e+00	2.589672e-05	
69	3.450000e+00	2.528256e-05	
70	3.500000e+00	2.470056e-05	
71	3.550000e+00	2.414828e-05	
72	3.600000e+00	2.362353e-05	
73	3.650000e+00	2.312431e-05	
74	3.700000e+00	2.264882e-05	
75	3.750000e+00	2.219543e-05	
76	3.800000e+00	2.176265e-05	
77	3.850000e+00	2.134910e-05	
78	3.900000e+00	2.095356e-05	
79	3.950000e+00	2.057487e-05	
80	4.000000e+00	2.021199e-05	
81	4.050000e+00	1.986396e-05	
82	4.100000e+00	1.952989e-05	
83	4.150000e+00	1.920897e-05	
84	4.200000e+00	1.890043e-05	
85	4.250000e+00	1.860359e-05	
86	4.300000e+00	1.831779e-05	
87	4.350000e+00	1.804244e-05	
88	4.400000e+00	1.777697e-05	
89	4.450000e+00	1.752087e-05	
90	4.500000e+00	1.727365e-05	
91	4.550000e+00	1.703487e-05	
92	4.600000e+00	1.680409e-05	
93	4.650000e+00	1.658094e-05	
94	4.700000e+00	1.636503e-05	
95	4.750000e+00	1.615604e-05	
96	4.800000e+00	1.595362e-05	
97	4.850000e+00	1.575748e-05	
98	4.900000e+00	1.556734e-05	
99	4.950000e+00	1.538293e-05	
100	5.000000e+00	1.520399e-05	
101	5.050000e+00	1.503028e-05	
102	5.100000e+00	1.486159e-05	
103	5.150000e+00	1.469770e-05	
104	5.200000e+00	1.453842e-05	
105	5.250000e+00	1.438355e-05	
106	5.300000e+00	1.423291e-05	
107	5.350000e+00	1.408634e-05	
108	5.400000e+00	1.394368e-05	
109	5.450000e+00	1.380477e-05	
110	5.500000e+00	1.366948e-05	
111	5.550000e+00	1.353766e-05	
112	5.600000e+00	1.340918e-05	

Index   v-sweep         rds             
--------------------------------------------------------------------------------
113	5.650000e+00	1.328393e-05	
114	5.700000e+00	1.316179e-05	
115	5.750000e+00	1.304264e-05	
116	5.800000e+00	1.292638e-05	
117	5.850000e+00	1.281290e-05	
118	5.900000e+00	1.270212e-05	
119	5.950000e+00	1.259393e-05	
120	6.000000e+00	1.248826e-05	
121	6.050000e+00	1.238501e-05	
122	6.100000e+00	1.228411e-05	
123	6.150000e+00	1.218548e-05	
124	6.200000e+00	1.208905e-05	
125	6.250000e+00	1.199474e-05	
126	6.300000e+00	1.190250e-05	
127	6.350000e+00	1.181225e-05	
128	6.400000e+00	1.172394e-05	
129	6.450000e+00	1.163750e-05	
130	6.500000e+00	1.155288e-05	
131	6.550000e+00	1.147002e-05	
132	6.600000e+00	1.138888e-05	
Reset re-loads circuit ***************************

Circuit: ***************************

Doing analysis at TEMP = -40.000000 and TNOM = -40.000000


No. of Data Rows : 133
                          ***************************
                          DC transfer characteristic  Mon Jan  9 13:58:39  2023
--------------------------------------------------------------------------------
Index   v-sweep         rds             
--------------------------------------------------------------------------------
0	0.000000e+00	3.302341e-03	
1	5.000000e-02	3.188189e-03	
2	1.000000e-01	3.077397e-03	
3	1.500000e-01	2.969854e-03	
4	2.000000e-01	2.865447e-03	
5	2.500000e-01	2.764068e-03	
6	3.000000e-01	2.665610e-03	
7	3.500000e-01	2.569966e-03	
8	4.000000e-01	2.477033e-03	
9	4.500000e-01	2.386707e-03	
10	5.000000e-01	2.298887e-03	
11	5.500000e-01	2.213475e-03	
12	6.000000e-01	2.130377e-03	
13	6.500000e-01	2.049499e-03	
14	7.000000e-01	1.970753e-03	
15	7.500000e-01	1.894056e-03	
16	8.000000e-01	1.819327e-03	
17	8.500000e-01	1.746488e-03	
18	9.000000e-01	1.675464e-03	
19	9.500000e-01	1.606181e-03	
20	1.000000e+00	1.538565e-03	
21	1.050000e+00	1.472537e-03	
22	1.100000e+00	1.408012e-03	
23	1.150000e+00	1.344892e-03	
24	1.200000e+00	1.283056e-03	
25	1.250000e+00	1.222351e-03	
26	1.300000e+00	1.162568e-03	
27	1.350000e+00	1.103416e-03	
28	1.400000e+00	1.044480e-03	
29	1.450000e+00	9.851586e-04	
30	1.500000e+00	9.245904e-04	
31	1.550000e+00	8.615931e-04	
32	1.600000e+00	7.947069e-04	
33	1.650000e+00	7.225388e-04	
34	1.700000e+00	6.446385e-04	
35	1.750000e+00	5.627339e-04	
36	1.800000e+00	4.812020e-04	
37	1.850000e+00	4.055702e-04	
38	1.900000e+00	3.399581e-04	
39	1.950000e+00	2.857822e-04	
40	2.000000e+00	2.422990e-04	
41	2.050000e+00	2.077802e-04	
42	2.100000e+00	1.803625e-04	
43	2.150000e+00	1.584272e-04	
44	2.200000e+00	1.406922e-04	
45	2.250000e+00	1.261829e-04	
46	2.300000e+00	1.141696e-04	
47	2.350000e+00	1.041074e-04	
48	2.400000e+00	9.558799e-05	
49	2.450000e+00	8.830228e-05	
50	2.500000e+00	8.201430e-05	
51	2.550000e+00	7.654184e-05	
52	2.600000e+00	7.174266e-05	
53	2.650000e+00	6.750457e-05	
54	2.700000e+00	6.373814e-05	

Index   v-sweep         rds             
--------------------------------------------------------------------------------
55	2.750000e+00	6.037139e-05	
56	2.800000e+00	5.734587e-05	
57	2.850000e+00	5.461370e-05	
58	2.900000e+00	5.213533e-05	
59	2.950000e+00	4.987786e-05	
60	3.000000e+00	4.781372e-05	
61	3.050000e+00	4.591964e-05	
62	3.100000e+00	4.417589e-05	
63	3.150000e+00	4.256560e-05	
64	3.200000e+00	4.107432e-05	
65	3.250000e+00	3.968955e-05	
66	3.300000e+00	3.840047e-05	
67	3.350000e+00	3.719767e-05	
68	3.400000e+00	3.607289e-05	
69	3.450000e+00	3.501889e-05	
70	3.500000e+00	3.402930e-05	
71	3.550000e+00	3.309846e-05	
72	3.600000e+00	3.222136e-05	
73	3.650000e+00	3.139354e-05	
74	3.700000e+00	3.061101e-05	
75	3.750000e+00	2.987020e-05	
76	3.800000e+00	2.916789e-05	
77	3.850000e+00	2.850119e-05	
78	3.900000e+00	2.786749e-05	
79	3.950000e+00	2.726442e-05	
80	4.000000e+00	2.668984e-05	
81	4.050000e+00	2.614180e-05	
82	4.100000e+00	2.561851e-05	
83	4.150000e+00	2.511835e-05	
84	4.200000e+00	2.463983e-05	
85	4.250000e+00	2.418159e-05	
86	4.300000e+00	2.374239e-05	
87	4.350000e+00	2.332106e-05	
88	4.400000e+00	2.291655e-05	
89	4.450000e+00	2.252788e-05	
90	4.500000e+00	2.215414e-05	
91	4.550000e+00	2.179449e-05	
92	4.600000e+00	2.144817e-05	
93	4.650000e+00	2.111445e-05	
94	4.700000e+00	2.079265e-05	
95	4.750000e+00	2.048217e-05	
96	4.800000e+00	2.018241e-05	
97	4.850000e+00	1.989283e-05	
98	4.900000e+00	1.961294e-05	
99	4.950000e+00	1.934225e-05	
100	5.000000e+00	1.908032e-05	
101	5.050000e+00	1.882674e-05	
102	5.100000e+00	1.858112e-05	
103	5.150000e+00	1.834310e-05	
104	5.200000e+00	1.811233e-05	
105	5.250000e+00	1.788849e-05	
106	5.300000e+00	1.767128e-05	
107	5.350000e+00	1.746041e-05	
108	5.400000e+00	1.725560e-05	
109	5.450000e+00	1.705662e-05	
110	5.500000e+00	1.686321e-05	
111	5.550000e+00	1.667514e-05	
112	5.600000e+00	1.649222e-05	

Index   v-sweep         rds             
--------------------------------------------------------------------------------
113	5.650000e+00	1.631422e-05	
114	5.700000e+00	1.614096e-05	
115	5.750000e+00	1.597225e-05	
116	5.800000e+00	1.580792e-05	
117	5.850000e+00	1.564782e-05	
118	5.900000e+00	1.549177e-05	
119	5.950000e+00	1.533963e-05	
120	6.000000e+00	1.519127e-05	
121	6.050000e+00	1.504654e-05	
122	6.100000e+00	1.490532e-05	
123	6.150000e+00	1.476748e-05	
124	6.200000e+00	1.463292e-05	
125	6.250000e+00	1.450151e-05	
126	6.300000e+00	1.437316e-05	
127	6.350000e+00	1.424776e-05	
128	6.400000e+00	1.412522e-05	
129	6.450000e+00	1.400543e-05	
130	6.500000e+00	1.388832e-05	
131	6.550000e+00	1.377380e-05	
132	6.600000e+00	1.366179e-05	
Reset re-loads circuit ***************************

Circuit: ***************************

Note: No ".plot", ".print", or ".fourier" lines; no simulations run
