
Note: Compatibility modes selected: hs

Warning: m=xx on .subckt line will override multiplier m hierarchy!


Circuit: ***************************

Doing analysis at TEMP = -40.000000 and TNOM = -40.000000


No. of Data Rows : 133
                          ***************************
                          DC transfer characteristic  Mon Jan  9 13:58:39  2023
--------------------------------------------------------------------------------
Index   v-sweep         rds             
--------------------------------------------------------------------------------
0	0.000000e+00	7.117781e-05	
1	5.000000e-02	4.875950e-05	
2	1.000000e-01	2.851967e-05	
3	1.500000e-01	1.403398e-05	
4	2.000000e-01	7.906779e-06	
5	2.500000e-01	5.794996e-06	
6	3.000000e-01	4.819389e-06	
7	3.500000e-01	4.242427e-06	
8	4.000000e-01	3.853887e-06	
9	4.500000e-01	3.572336e-06	
10	5.000000e-01	3.358473e-06	
11	5.500000e-01	3.190515e-06	
12	6.000000e-01	3.055245e-06	
13	6.500000e-01	2.944115e-06	
14	7.000000e-01	2.851330e-06	
15	7.500000e-01	2.772816e-06	
16	8.000000e-01	2.705617e-06	
17	8.500000e-01	2.647539e-06	
18	9.000000e-01	2.596919e-06	
19	9.500000e-01	2.552469e-06	
20	1.000000e+00	2.513181e-06	
21	1.050000e+00	2.478252e-06	
22	1.100000e+00	2.447037e-06	
23	1.150000e+00	2.419008e-06	
24	1.200000e+00	2.393734e-06	
25	1.250000e+00	2.370856e-06	
26	1.300000e+00	2.350072e-06	
27	1.350000e+00	2.331131e-06	
28	1.400000e+00	2.313819e-06	
29	1.450000e+00	2.297950e-06	
30	1.500000e+00	2.283370e-06	
31	1.550000e+00	2.269941e-06	
32	1.600000e+00	2.257546e-06	
33	1.650000e+00	2.246083e-06	
34	1.700000e+00	2.235461e-06	
35	1.750000e+00	2.225602e-06	
36	1.800000e+00	2.216436e-06	
37	1.850000e+00	2.207901e-06	
38	1.900000e+00	2.199942e-06	
39	1.950000e+00	2.192511e-06	
40	2.000000e+00	2.185564e-06	
41	2.050000e+00	2.179061e-06	
42	2.100000e+00	2.172968e-06	
43	2.150000e+00	2.167252e-06	
44	2.200000e+00	2.161886e-06	
45	2.250000e+00	2.156842e-06	
46	2.300000e+00	2.152098e-06	
47	2.350000e+00	2.147631e-06	
48	2.400000e+00	2.143423e-06	
49	2.450000e+00	2.139455e-06	
50	2.500000e+00	2.135711e-06	
51	2.550000e+00	2.132176e-06	
52	2.600000e+00	2.128837e-06	
53	2.650000e+00	2.125679e-06	
54	2.700000e+00	2.122693e-06	

Index   v-sweep         rds             
--------------------------------------------------------------------------------
55	2.750000e+00	2.119867e-06	
56	2.800000e+00	2.117191e-06	
57	2.850000e+00	2.114655e-06	
58	2.900000e+00	2.112252e-06	
59	2.950000e+00	2.109974e-06	
60	3.000000e+00	2.107812e-06	
61	3.050000e+00	2.105760e-06	
62	3.100000e+00	2.103812e-06	
63	3.150000e+00	2.101962e-06	
64	3.200000e+00	2.100204e-06	
65	3.250000e+00	2.098533e-06	
66	3.300000e+00	2.096943e-06	
67	3.350000e+00	2.095431e-06	
68	3.400000e+00	2.093992e-06	
69	3.450000e+00	2.092623e-06	
70	3.500000e+00	2.091318e-06	
71	3.550000e+00	2.090075e-06	
72	3.600000e+00	2.088891e-06	
73	3.650000e+00	2.087761e-06	
74	3.700000e+00	2.086684e-06	
75	3.750000e+00	2.085656e-06	
76	3.800000e+00	2.084674e-06	
77	3.850000e+00	2.083737e-06	
78	3.900000e+00	2.082841e-06	
79	3.950000e+00	2.081984e-06	
80	4.000000e+00	2.081165e-06	
81	4.050000e+00	2.080380e-06	
82	4.100000e+00	2.079629e-06	
83	4.150000e+00	2.078909e-06	
84	4.200000e+00	2.078218e-06	
85	4.250000e+00	2.077555e-06	
86	4.300000e+00	2.076918e-06	
87	4.350000e+00	2.076306e-06	
88	4.400000e+00	2.075716e-06	
89	4.450000e+00	2.075148e-06	
90	4.500000e+00	2.074601e-06	
91	4.550000e+00	2.074072e-06	
92	4.600000e+00	2.073561e-06	
93	4.650000e+00	2.073066e-06	
94	4.700000e+00	2.072586e-06	
95	4.750000e+00	2.072120e-06	
96	4.800000e+00	2.071668e-06	
97	4.850000e+00	2.071227e-06	
98	4.900000e+00	2.070797e-06	
99	4.950000e+00	2.070377e-06	
100	5.000000e+00	2.069966e-06	
101	5.050000e+00	2.069563e-06	
102	5.100000e+00	2.069167e-06	
103	5.150000e+00	2.068777e-06	
104	5.200000e+00	2.068393e-06	
105	5.250000e+00	2.068013e-06	
106	5.300000e+00	2.067637e-06	
107	5.350000e+00	2.067264e-06	
108	5.400000e+00	2.066893e-06	
109	5.450000e+00	2.066524e-06	
110	5.500000e+00	2.066156e-06	
111	5.550000e+00	2.065787e-06	
112	5.600000e+00	2.065418e-06	

Index   v-sweep         rds             
--------------------------------------------------------------------------------
113	5.650000e+00	2.065047e-06	
114	5.700000e+00	2.064675e-06	
115	5.750000e+00	2.064300e-06	
116	5.800000e+00	2.063921e-06	
117	5.850000e+00	2.063538e-06	
118	5.900000e+00	2.063151e-06	
119	5.950000e+00	2.062759e-06	
120	6.000000e+00	2.062361e-06	
121	6.050000e+00	2.061956e-06	
122	6.100000e+00	2.061545e-06	
123	6.150000e+00	2.061125e-06	
124	6.200000e+00	2.060698e-06	
125	6.250000e+00	2.060262e-06	
126	6.300000e+00	2.059816e-06	
127	6.350000e+00	2.059361e-06	
128	6.400000e+00	2.058895e-06	
129	6.450000e+00	2.058418e-06	
130	6.500000e+00	2.057930e-06	
131	6.550000e+00	2.057430e-06	
132	6.600000e+00	2.056917e-06	
Reset re-loads circuit ***************************

Circuit: ***************************

Doing analysis at TEMP = -40.000000 and TNOM = -40.000000


No. of Data Rows : 133
                          ***************************
                          DC transfer characteristic  Mon Jan  9 13:58:39  2023
--------------------------------------------------------------------------------
Index   v-sweep         rds             
--------------------------------------------------------------------------------
0	0.000000e+00	3.047114e-04	
1	5.000000e-02	2.790526e-04	
2	1.000000e-01	2.543919e-04	
3	1.500000e-01	2.306826e-04	
4	2.000000e-01	2.078782e-04	
5	2.500000e-01	1.859334e-04	
6	3.000000e-01	1.648053e-04	
7	3.500000e-01	1.444531e-04	
8	4.000000e-01	1.248340e-04	
9	4.500000e-01	1.059003e-04	
10	5.000000e-01	8.763344e-05	
11	5.500000e-01	7.025052e-05	
12	6.000000e-01	5.462961e-05	
13	6.500000e-01	4.205616e-05	
14	7.000000e-01	3.293221e-05	
15	7.500000e-01	2.659561e-05	
16	8.000000e-01	2.216677e-05	
17	8.500000e-01	1.898333e-05	
18	9.000000e-01	1.661927e-05	
19	9.500000e-01	1.480931e-05	
20	1.000000e+00	1.338612e-05	
21	1.050000e+00	1.224129e-05	
22	1.100000e+00	1.130238e-05	
23	1.150000e+00	1.051955e-05	
24	1.200000e+00	9.857545e-06	
25	1.250000e+00	9.290840e-06	
26	1.300000e+00	8.800527e-06	
27	1.350000e+00	8.372332e-06	
28	1.400000e+00	7.995296e-06	
29	1.450000e+00	7.660870e-06	
30	1.500000e+00	7.362292e-06	
31	1.550000e+00	7.094151e-06	
32	1.600000e+00	6.852063e-06	
33	1.650000e+00	6.632443e-06	
34	1.700000e+00	6.432330e-06	
35	1.750000e+00	6.249259e-06	
36	1.800000e+00	6.081161e-06	
37	1.850000e+00	5.926287e-06	
38	1.900000e+00	5.783150e-06	
39	1.950000e+00	5.650474e-06	
40	2.000000e+00	5.527163e-06	
41	2.050000e+00	5.412267e-06	
42	2.100000e+00	5.304961e-06	
43	2.150000e+00	5.204523e-06	
44	2.200000e+00	5.110319e-06	
45	2.250000e+00	5.021791e-06	
46	2.300000e+00	4.938445e-06	
47	2.350000e+00	4.859843e-06	
48	2.400000e+00	4.785594e-06	
49	2.450000e+00	4.715349e-06	
50	2.500000e+00	4.648796e-06	
51	2.550000e+00	4.585652e-06	
52	2.600000e+00	4.525666e-06	
53	2.650000e+00	4.468606e-06	
54	2.700000e+00	4.414267e-06	

Index   v-sweep         rds             
--------------------------------------------------------------------------------
55	2.750000e+00	4.362460e-06	
56	2.800000e+00	4.313012e-06	
57	2.850000e+00	4.265768e-06	
58	2.900000e+00	4.220584e-06	
59	2.950000e+00	4.177330e-06	
60	3.000000e+00	4.135886e-06	
61	3.050000e+00	4.096140e-06	
62	3.100000e+00	4.057992e-06	
63	3.150000e+00	4.021347e-06	
64	3.200000e+00	3.986120e-06	
65	3.250000e+00	3.952230e-06	
66	3.300000e+00	3.919602e-06	
67	3.350000e+00	3.888168e-06	
68	3.400000e+00	3.857864e-06	
69	3.450000e+00	3.828631e-06	
70	3.500000e+00	3.800412e-06	
71	3.550000e+00	3.773157e-06	
72	3.600000e+00	3.746817e-06	
73	3.650000e+00	3.721347e-06	
74	3.700000e+00	3.696705e-06	
75	3.750000e+00	3.672851e-06	
76	3.800000e+00	3.649749e-06	
77	3.850000e+00	3.627363e-06	
78	3.900000e+00	3.605660e-06	
79	3.950000e+00	3.584611e-06	
80	4.000000e+00	3.564186e-06	
81	4.050000e+00	3.544357e-06	
82	4.100000e+00	3.525100e-06	
83	4.150000e+00	3.506389e-06	
84	4.200000e+00	3.488202e-06	
85	4.250000e+00	3.470518e-06	
86	4.300000e+00	3.453315e-06	
87	4.350000e+00	3.436575e-06	
88	4.400000e+00	3.420278e-06	
89	4.450000e+00	3.404408e-06	
90	4.500000e+00	3.388949e-06	
91	4.550000e+00	3.373883e-06	
92	4.600000e+00	3.359197e-06	
93	4.650000e+00	3.344876e-06	
94	4.700000e+00	3.330907e-06	
95	4.750000e+00	3.317278e-06	
96	4.800000e+00	3.303974e-06	
97	4.850000e+00	3.290986e-06	
98	4.900000e+00	3.278302e-06	
99	4.950000e+00	3.265911e-06	
100	5.000000e+00	3.253804e-06	
101	5.050000e+00	3.241970e-06	
102	5.100000e+00	3.230401e-06	
103	5.150000e+00	3.219087e-06	
104	5.200000e+00	3.208021e-06	
105	5.250000e+00	3.197194e-06	
106	5.300000e+00	3.186598e-06	
107	5.350000e+00	3.176226e-06	
108	5.400000e+00	3.166071e-06	
109	5.450000e+00	3.156127e-06	
110	5.500000e+00	3.146386e-06	
111	5.550000e+00	3.136842e-06	
112	5.600000e+00	3.127490e-06	

Index   v-sweep         rds             
--------------------------------------------------------------------------------
113	5.650000e+00	3.118323e-06	
114	5.700000e+00	3.109336e-06	
115	5.750000e+00	3.100524e-06	
116	5.800000e+00	3.091882e-06	
117	5.850000e+00	3.083405e-06	
118	5.900000e+00	3.075087e-06	
119	5.950000e+00	3.066925e-06	
120	6.000000e+00	3.058914e-06	
121	6.050000e+00	3.051050e-06	
122	6.100000e+00	3.043328e-06	
123	6.150000e+00	3.035745e-06	
124	6.200000e+00	3.028298e-06	
125	6.250000e+00	3.020981e-06	
126	6.300000e+00	3.013793e-06	
127	6.350000e+00	3.006729e-06	
128	6.400000e+00	2.999786e-06	
129	6.450000e+00	2.992961e-06	
130	6.500000e+00	2.986251e-06	
131	6.550000e+00	2.979653e-06	
132	6.600000e+00	2.973164e-06	
Reset re-loads circuit ***************************

Circuit: ***************************

Doing analysis at TEMP = -40.000000 and TNOM = -40.000000


No. of Data Rows : 133
                          ***************************
                          DC transfer characteristic  Mon Jan  9 13:58:39  2023
--------------------------------------------------------------------------------
Index   v-sweep         rds             
--------------------------------------------------------------------------------
0	0.000000e+00	4.779288e-04	
1	5.000000e-02	4.504459e-04	
2	1.000000e-01	4.239799e-04	
3	1.500000e-01	3.984854e-04	
4	2.000000e-01	3.739159e-04	
5	2.500000e-01	3.502237e-04	
6	3.000000e-01	3.273605e-04	
7	3.500000e-01	3.052789e-04	
8	4.000000e-01	2.839334e-04	
9	4.500000e-01	2.632808e-04	
10	5.000000e-01	2.432793e-04	
11	5.500000e-01	2.238849e-04	
12	6.000000e-01	2.050437e-04	
13	6.500000e-01	1.866788e-04	
14	7.000000e-01	1.686675e-04	
15	7.500000e-01	1.508106e-04	
16	8.000000e-01	1.328181e-04	
17	8.500000e-01	1.144185e-04	
18	9.000000e-01	9.576764e-05	
19	9.500000e-01	7.793594e-05	
20	1.000000e+00	6.248843e-05	
21	1.050000e+00	5.028183e-05	
22	1.100000e+00	4.112777e-05	
23	1.150000e+00	3.435915e-05	
24	1.200000e+00	2.931121e-05	
25	1.250000e+00	2.547632e-05	
26	1.300000e+00	2.250037e-05	
27	1.350000e+00	2.014241e-05	
28	1.400000e+00	1.823806e-05	
29	1.450000e+00	1.667360e-05	
30	1.500000e+00	1.536884e-05	
31	1.550000e+00	1.426614e-05	
32	1.600000e+00	1.332325e-05	
33	1.650000e+00	1.250864e-05	
34	1.700000e+00	1.179838e-05	
35	1.750000e+00	1.117404e-05	
36	1.800000e+00	1.062120e-05	
37	1.850000e+00	1.012845e-05	
38	1.900000e+00	9.686646e-06	
39	1.950000e+00	9.288396e-06	
40	2.000000e+00	8.927645e-06	
41	2.050000e+00	8.599403e-06	
42	2.100000e+00	8.299515e-06	
43	2.150000e+00	8.024502e-06	
44	2.200000e+00	7.771424e-06	
45	2.250000e+00	7.537784e-06	
46	2.300000e+00	7.321445e-06	
47	2.350000e+00	7.120573e-06	
48	2.400000e+00	6.933580e-06	
49	2.450000e+00	6.759088e-06	
50	2.500000e+00	6.595893e-06	
51	2.550000e+00	6.442942e-06	
52	2.600000e+00	6.299305e-06	
53	2.650000e+00	6.164164e-06	
54	2.700000e+00	6.036790e-06	

Index   v-sweep         rds             
--------------------------------------------------------------------------------
55	2.750000e+00	5.916539e-06	
56	2.800000e+00	5.802831e-06	
57	2.850000e+00	5.695151e-06	
58	2.900000e+00	5.593034e-06	
59	2.950000e+00	5.496062e-06	
60	3.000000e+00	5.403858e-06	
61	3.050000e+00	5.316081e-06	
62	3.100000e+00	5.232422e-06	
63	3.150000e+00	5.152597e-06	
64	3.200000e+00	5.076351e-06	
65	3.250000e+00	5.003450e-06	
66	3.300000e+00	4.933679e-06	
67	3.350000e+00	4.866841e-06	
68	3.400000e+00	4.802756e-06	
69	3.450000e+00	4.741258e-06	
70	3.500000e+00	4.682195e-06	
71	3.550000e+00	4.625424e-06	
72	3.600000e+00	4.570815e-06	
73	3.650000e+00	4.518249e-06	
74	3.700000e+00	4.467611e-06	
75	3.750000e+00	4.418799e-06	
76	3.800000e+00	4.371716e-06	
77	3.850000e+00	4.326272e-06	
78	3.900000e+00	4.282382e-06	
79	3.950000e+00	4.239970e-06	
80	4.000000e+00	4.198960e-06	
81	4.050000e+00	4.159287e-06	
82	4.100000e+00	4.120884e-06	
83	4.150000e+00	4.083693e-06	
84	4.200000e+00	4.047656e-06	
85	4.250000e+00	4.012722e-06	
86	4.300000e+00	3.978840e-06	
87	4.350000e+00	3.945964e-06	
88	4.400000e+00	3.914050e-06	
89	4.450000e+00	3.883056e-06	
90	4.500000e+00	3.852943e-06	
91	4.550000e+00	3.823674e-06	
92	4.600000e+00	3.795215e-06	
93	4.650000e+00	3.767532e-06	
94	4.700000e+00	3.740594e-06	
95	4.750000e+00	3.714372e-06	
96	4.800000e+00	3.688837e-06	
97	4.850000e+00	3.663963e-06	
98	4.900000e+00	3.639724e-06	
99	4.950000e+00	3.616098e-06	
100	5.000000e+00	3.593060e-06	
101	5.050000e+00	3.570590e-06	
102	5.100000e+00	3.548666e-06	
103	5.150000e+00	3.527270e-06	
104	5.200000e+00	3.506382e-06	
105	5.250000e+00	3.485985e-06	
106	5.300000e+00	3.466062e-06	
107	5.350000e+00	3.446596e-06	
108	5.400000e+00	3.427573e-06	
109	5.450000e+00	3.408976e-06	
110	5.500000e+00	3.390793e-06	
111	5.550000e+00	3.373010e-06	
112	5.600000e+00	3.355614e-06	

Index   v-sweep         rds             
--------------------------------------------------------------------------------
113	5.650000e+00	3.338592e-06	
114	5.700000e+00	3.321932e-06	
115	5.750000e+00	3.305624e-06	
116	5.800000e+00	3.289657e-06	
117	5.850000e+00	3.274019e-06	
118	5.900000e+00	3.258701e-06	
119	5.950000e+00	3.243694e-06	
120	6.000000e+00	3.228988e-06	
121	6.050000e+00	3.214575e-06	
122	6.100000e+00	3.200445e-06	
123	6.150000e+00	3.186591e-06	
124	6.200000e+00	3.173005e-06	
125	6.250000e+00	3.159678e-06	
126	6.300000e+00	3.146605e-06	
127	6.350000e+00	3.133778e-06	
128	6.400000e+00	3.121190e-06	
129	6.450000e+00	3.108835e-06	
130	6.500000e+00	3.096706e-06	
131	6.550000e+00	3.084797e-06	
132	6.600000e+00	3.073103e-06	
Reset re-loads circuit ***************************

Circuit: ***************************

Doing analysis at TEMP = -40.000000 and TNOM = -40.000000


No. of Data Rows : 133
                          ***************************
                          DC transfer characteristic  Mon Jan  9 13:58:39  2023
--------------------------------------------------------------------------------
Index   v-sweep         rds             
--------------------------------------------------------------------------------
0	0.000000e+00	6.069217e-04	
1	5.000000e-02	5.791402e-04	
2	1.000000e-01	5.522962e-04	
3	1.500000e-01	5.263525e-04	
4	2.000000e-01	5.012714e-04	
5	2.500000e-01	4.770139e-04	
6	3.000000e-01	4.535402e-04	
7	3.500000e-01	4.308094e-04	
8	4.000000e-01	4.087810e-04	
9	4.500000e-01	3.874158e-04	
10	5.000000e-01	3.666769e-04	
11	5.500000e-01	3.465302e-04	
12	6.000000e-01	3.269445e-04	
13	6.500000e-01	3.078912e-04	
14	7.000000e-01	2.893428e-04	
15	7.500000e-01	2.712701e-04	
16	8.000000e-01	2.536374e-04	
17	8.500000e-01	2.363959e-04	
18	9.000000e-01	2.194706e-04	
19	9.500000e-01	2.027423e-04	
20	1.000000e+00	1.860213e-04	
21	1.050000e+00	1.690230e-04	
22	1.100000e+00	1.513896e-04	
23	1.150000e+00	1.328609e-04	
24	1.200000e+00	1.136772e-04	
25	1.250000e+00	9.490830e-05	
26	1.300000e+00	7.804815e-05	
27	1.350000e+00	6.408093e-05	
28	1.400000e+00	5.310720e-05	
29	1.450000e+00	4.467893e-05	
30	1.500000e+00	3.821576e-05	
31	1.550000e+00	3.320996e-05	
32	1.600000e+00	2.927446e-05	
33	1.650000e+00	2.612924e-05	
34	1.700000e+00	2.357483e-05	
35	1.750000e+00	2.146888e-05	
36	1.800000e+00	1.970877e-05	
37	1.850000e+00	1.821949e-05	
38	1.900000e+00	1.694539e-05	
39	1.950000e+00	1.584458e-05	
40	2.000000e+00	1.488503e-05	
41	2.050000e+00	1.404194e-05	
42	2.100000e+00	1.329587e-05	
43	2.150000e+00	1.263136e-05	
44	2.200000e+00	1.203601e-05	
45	2.250000e+00	1.149978e-05	
46	2.300000e+00	1.101443e-05	
47	2.350000e+00	1.057318e-05	
48	2.400000e+00	1.017037e-05	
49	2.450000e+00	9.801266e-06	
50	2.500000e+00	9.461865e-06	
51	2.550000e+00	9.148768e-06	
52	2.600000e+00	8.859070e-06	
53	2.650000e+00	8.590274e-06	
54	2.700000e+00	8.340221e-06	

Index   v-sweep         rds             
--------------------------------------------------------------------------------
55	2.750000e+00	8.107040e-06	
56	2.800000e+00	7.889094e-06	
57	2.850000e+00	7.684954e-06	
58	2.900000e+00	7.493359e-06	
59	2.950000e+00	7.313199e-06	
60	3.000000e+00	7.143488e-06	
61	3.050000e+00	6.983350e-06	
62	3.100000e+00	6.832004e-06	
63	3.150000e+00	6.688751e-06	
64	3.200000e+00	6.552962e-06	
65	3.250000e+00	6.424074e-06	
66	3.300000e+00	6.301578e-06	
67	3.350000e+00	6.185011e-06	
68	3.400000e+00	6.073957e-06	
69	3.450000e+00	5.968036e-06	
70	3.500000e+00	5.866903e-06	
71	3.550000e+00	5.770240e-06	
72	3.600000e+00	5.677761e-06	
73	3.650000e+00	5.589201e-06	
74	3.700000e+00	5.504316e-06	
75	3.750000e+00	5.422884e-06	
76	3.800000e+00	5.344700e-06	
77	3.850000e+00	5.269574e-06	
78	3.900000e+00	5.197331e-06	
79	3.950000e+00	5.127808e-06	
80	4.000000e+00	5.060855e-06	
81	4.050000e+00	4.996334e-06	
82	4.100000e+00	4.934115e-06	
83	4.150000e+00	4.874076e-06	
84	4.200000e+00	4.816107e-06	
85	4.250000e+00	4.760101e-06	
86	4.300000e+00	4.705962e-06	
87	4.350000e+00	4.653599e-06	
88	4.400000e+00	4.602925e-06	
89	4.450000e+00	4.553860e-06	
90	4.500000e+00	4.506330e-06	
91	4.550000e+00	4.460263e-06	
92	4.600000e+00	4.415595e-06	
93	4.650000e+00	4.372261e-06	
94	4.700000e+00	4.330204e-06	
95	4.750000e+00	4.289369e-06	
96	4.800000e+00	4.249703e-06	
97	4.850000e+00	4.211157e-06	
98	4.900000e+00	4.173684e-06	
99	4.950000e+00	4.137242e-06	
100	5.000000e+00	4.101787e-06	
101	5.050000e+00	4.067282e-06	
102	5.100000e+00	4.033688e-06	
103	5.150000e+00	4.000970e-06	
104	5.200000e+00	3.969096e-06	
105	5.250000e+00	3.938032e-06	
106	5.300000e+00	3.907750e-06	
107	5.350000e+00	3.878219e-06	
108	5.400000e+00	3.849414e-06	
109	5.450000e+00	3.821307e-06	
110	5.500000e+00	3.793874e-06	
111	5.550000e+00	3.767092e-06	
112	5.600000e+00	3.740938e-06	

Index   v-sweep         rds             
--------------------------------------------------------------------------------
113	5.650000e+00	3.715391e-06	
114	5.700000e+00	3.690430e-06	
115	5.750000e+00	3.666035e-06	
116	5.800000e+00	3.642188e-06	
117	5.850000e+00	3.618871e-06	
118	5.900000e+00	3.596067e-06	
119	5.950000e+00	3.573760e-06	
120	6.000000e+00	3.551934e-06	
121	6.050000e+00	3.530573e-06	
122	6.100000e+00	3.509665e-06	
123	6.150000e+00	3.489194e-06	
124	6.200000e+00	3.469147e-06	
125	6.250000e+00	3.449513e-06	
126	6.300000e+00	3.430278e-06	
127	6.350000e+00	3.411431e-06	
128	6.400000e+00	3.392960e-06	
129	6.450000e+00	3.374856e-06	
130	6.500000e+00	3.357107e-06	
131	6.550000e+00	3.339704e-06	
132	6.600000e+00	3.322637e-06	
Reset re-loads circuit ***************************

Circuit: ***************************

Doing analysis at TEMP = -40.000000 and TNOM = -40.000000


No. of Data Rows : 133
                          ***************************
                          DC transfer characteristic  Mon Jan  9 13:58:39  2023
--------------------------------------------------------------------------------
Index   v-sweep         rds             
--------------------------------------------------------------------------------
0	0.000000e+00	6.953010e-04	
1	5.000000e-02	6.685810e-04	
2	1.000000e-01	6.426699e-04	
3	1.500000e-01	6.175395e-04	
4	2.000000e-01	5.931614e-04	
5	2.500000e-01	5.695065e-04	
6	3.000000e-01	5.465449e-04	
7	3.500000e-01	5.242458e-04	
8	4.000000e-01	5.025776e-04	
9	4.500000e-01	4.815091e-04	
10	5.000000e-01	4.610094e-04	
11	5.500000e-01	4.410489e-04	
12	6.000000e-01	4.215999e-04	
13	6.500000e-01	4.026369e-04	
14	7.000000e-01	3.841371e-04	
15	7.500000e-01	3.660799e-04	
16	8.000000e-01	3.484472e-04	
17	8.500000e-01	3.312222e-04	
18	9.000000e-01	3.143888e-04	
19	9.500000e-01	2.979294e-04	
20	1.000000e+00	2.818225e-04	
21	1.050000e+00	2.660386e-04	
22	1.100000e+00	2.505340e-04	
23	1.150000e+00	2.352414e-04	
24	1.200000e+00	2.200553e-04	
25	1.250000e+00	2.048130e-04	
26	1.300000e+00	1.892745e-04	
27	1.350000e+00	1.731226e-04	
28	1.400000e+00	1.560390e-04	
29	1.450000e+00	1.379301e-04	
30	1.500000e+00	1.192584e-04	
31	1.550000e+00	1.011270e-04	
32	1.600000e+00	8.479616e-05	
33	1.650000e+00	7.103221e-05	
34	1.700000e+00	5.992674e-05	
35	1.750000e+00	5.114796e-05	
36	1.800000e+00	4.423462e-05	
37	1.850000e+00	3.875727e-05	
38	1.900000e+00	3.436978e-05	
39	1.950000e+00	3.080966e-05	
40	2.000000e+00	2.788247e-05	
41	2.050000e+00	2.544489e-05	
42	2.100000e+00	2.339081e-05	
43	2.150000e+00	2.164098e-05	
44	2.200000e+00	2.013550e-05	
45	2.250000e+00	1.882858e-05	
46	2.300000e+00	1.768479e-05	
47	2.350000e+00	1.667638e-05	
48	2.400000e+00	1.578136e-05	
49	2.450000e+00	1.498215e-05	
50	2.500000e+00	1.426454e-05	
51	2.550000e+00	1.361691e-05	
52	2.600000e+00	1.302974e-05	
53	2.650000e+00	1.249509e-05	
54	2.700000e+00	1.200637e-05	

Index   v-sweep         rds             
--------------------------------------------------------------------------------
55	2.750000e+00	1.155799e-05	
56	2.800000e+00	1.114525e-05	
57	2.850000e+00	1.076413e-05	
58	2.900000e+00	1.041117e-05	
59	2.950000e+00	1.008342e-05	
60	3.000000e+00	9.778297e-06	
61	3.050000e+00	9.493571e-06	
62	3.100000e+00	9.227287e-06	
63	3.150000e+00	8.977729e-06	
64	3.200000e+00	8.743387e-06	
65	3.250000e+00	8.522926e-06	
66	3.300000e+00	8.315160e-06	
67	3.350000e+00	8.119033e-06	
68	3.400000e+00	7.933604e-06	
69	3.450000e+00	7.758028e-06	
70	3.500000e+00	7.591548e-06	
71	3.550000e+00	7.433479e-06	
72	3.600000e+00	7.283206e-06	
73	3.650000e+00	7.140169e-06	
74	3.700000e+00	7.003863e-06	
75	3.750000e+00	6.873827e-06	
76	3.800000e+00	6.749640e-06	
77	3.850000e+00	6.630920e-06	
78	3.900000e+00	6.517316e-06	
79	3.950000e+00	6.408505e-06	
80	4.000000e+00	6.304194e-06	
81	4.050000e+00	6.204109e-06	
82	4.100000e+00	6.108001e-06	
83	4.150000e+00	6.015640e-06	
84	4.200000e+00	5.926810e-06	
85	4.250000e+00	5.841315e-06	
86	4.300000e+00	5.758971e-06	
87	4.350000e+00	5.679608e-06	
88	4.400000e+00	5.603069e-06	
89	4.450000e+00	5.529205e-06	
90	4.500000e+00	5.457881e-06	
91	4.550000e+00	5.388967e-06	
92	4.600000e+00	5.322345e-06	
93	4.650000e+00	5.257902e-06	
94	4.700000e+00	5.195535e-06	
95	4.750000e+00	5.135144e-06	
96	4.800000e+00	5.076639e-06	
97	4.850000e+00	5.019933e-06	
98	4.900000e+00	4.964945e-06	
99	4.950000e+00	4.911599e-06	
100	5.000000e+00	4.859823e-06	
101	5.050000e+00	4.809548e-06	
102	5.100000e+00	4.760713e-06	
103	5.150000e+00	4.713255e-06	
104	5.200000e+00	4.667119e-06	
105	5.250000e+00	4.622250e-06	
106	5.300000e+00	4.578598e-06	
107	5.350000e+00	4.536114e-06	
108	5.400000e+00	4.494753e-06	
109	5.450000e+00	4.454472e-06	
110	5.500000e+00	4.415229e-06	
111	5.550000e+00	4.376986e-06	
112	5.600000e+00	4.339706e-06	

Index   v-sweep         rds             
--------------------------------------------------------------------------------
113	5.650000e+00	4.303353e-06	
114	5.700000e+00	4.267894e-06	
115	5.750000e+00	4.233297e-06	
116	5.800000e+00	4.199532e-06	
117	5.850000e+00	4.166569e-06	
118	5.900000e+00	4.134382e-06	
119	5.950000e+00	4.102943e-06	
120	6.000000e+00	4.072229e-06	
121	6.050000e+00	4.042214e-06	
122	6.100000e+00	4.012876e-06	
123	6.150000e+00	3.984193e-06	
124	6.200000e+00	3.956144e-06	
125	6.250000e+00	3.928709e-06	
126	6.300000e+00	3.901869e-06	
127	6.350000e+00	3.875605e-06	
128	6.400000e+00	3.849899e-06	
129	6.450000e+00	3.824736e-06	
130	6.500000e+00	3.800098e-06	
131	6.550000e+00	3.775970e-06	
132	6.600000e+00	3.752336e-06	
Reset re-loads circuit ***************************

Circuit: ***************************

Doing analysis at TEMP = -40.000000 and TNOM = -40.000000


No. of Data Rows : 133
                          ***************************
                          DC transfer characteristic  Mon Jan  9 13:58:39  2023
--------------------------------------------------------------------------------
Index   v-sweep         rds             
--------------------------------------------------------------------------------
0	0.000000e+00	7.578969e-04	
1	5.000000e-02	7.328663e-04	
2	1.000000e-01	7.085126e-04	
3	1.500000e-01	6.848149e-04	
4	2.000000e-01	6.617525e-04	
5	2.500000e-01	6.393042e-04	
6	3.000000e-01	6.174484e-04	
7	3.500000e-01	5.961629e-04	
8	4.000000e-01	5.754246e-04	
9	4.500000e-01	5.552103e-04	
10	5.000000e-01	5.354965e-04	
11	5.500000e-01	5.162602e-04	
12	6.000000e-01	4.974786e-04	
13	6.500000e-01	4.791303e-04	
14	7.000000e-01	4.611950e-04	
15	7.500000e-01	4.436540e-04	
16	8.000000e-01	4.264905e-04	
17	8.500000e-01	4.096893e-04	
18	9.000000e-01	3.932372e-04	
19	9.500000e-01	3.771227e-04	
20	1.000000e+00	3.613355e-04	
21	1.050000e+00	3.458664e-04	
22	1.100000e+00	3.307062e-04	
23	1.150000e+00	3.158450e-04	
24	1.200000e+00	3.012705e-04	
25	1.250000e+00	2.869663e-04	
26	1.300000e+00	2.729085e-04	
27	1.350000e+00	2.590616e-04	
28	1.400000e+00	2.453714e-04	
29	1.450000e+00	2.317555e-04	
30	1.500000e+00	2.180896e-04	
31	1.550000e+00	2.041918e-04	
32	1.600000e+00	1.898136e-04	
33	1.650000e+00	1.746616e-04	
34	1.700000e+00	1.584964e-04	
35	1.750000e+00	1.413414e-04	
36	1.800000e+00	1.237079e-04	
37	1.850000e+00	1.065711e-04	
38	1.900000e+00	9.096795e-05	
39	1.950000e+00	7.754556e-05	
40	2.000000e+00	6.643756e-05	
41	2.050000e+00	5.742903e-05	
42	2.100000e+00	5.016834e-05	
43	2.150000e+00	4.430053e-05	
44	2.200000e+00	3.952199e-05	
45	2.250000e+00	3.559143e-05	
46	2.300000e+00	3.232326e-05	
47	2.350000e+00	2.957641e-05	
48	2.400000e+00	2.724384e-05	
49	2.450000e+00	2.524389e-05	
50	2.500000e+00	2.351382e-05	
51	2.550000e+00	2.200494e-05	
52	2.600000e+00	2.067912e-05	
53	2.650000e+00	1.950618e-05	
54	2.700000e+00	1.846201e-05	

Index   v-sweep         rds             
--------------------------------------------------------------------------------
55	2.750000e+00	1.752716e-05	
56	2.800000e+00	1.668579e-05	
57	2.850000e+00	1.592492e-05	
58	2.900000e+00	1.523380e-05	
59	2.950000e+00	1.460348e-05	
60	3.000000e+00	1.402644e-05	
61	3.050000e+00	1.349634e-05	
62	3.100000e+00	1.300777e-05	
63	3.150000e+00	1.255613e-05	
64	3.200000e+00	1.213745e-05	
65	3.250000e+00	1.174830e-05	
66	3.300000e+00	1.138572e-05	
67	3.350000e+00	1.104711e-05	
68	3.400000e+00	1.073020e-05	
69	3.450000e+00	1.043300e-05	
70	3.500000e+00	1.015375e-05	
71	3.550000e+00	9.890885e-06	
72	3.600000e+00	9.643024e-06	
73	3.650000e+00	9.408932e-06	
74	3.700000e+00	9.187505e-06	
75	3.750000e+00	8.977751e-06	
76	3.800000e+00	8.778780e-06	
77	3.850000e+00	8.589790e-06	
78	3.900000e+00	8.410054e-06	
79	3.950000e+00	8.238915e-06	
80	4.000000e+00	8.075776e-06	
81	4.050000e+00	7.920093e-06	
82	4.100000e+00	7.771370e-06	
83	4.150000e+00	7.629155e-06	
84	4.200000e+00	7.493033e-06	
85	4.250000e+00	7.362623e-06	
86	4.300000e+00	7.237576e-06	
87	4.350000e+00	7.117569e-06	
88	4.400000e+00	7.002307e-06	
89	4.450000e+00	6.891514e-06	
90	4.500000e+00	6.784939e-06	
91	4.550000e+00	6.682346e-06	
92	4.600000e+00	6.583517e-06	
93	4.650000e+00	6.488251e-06	
94	4.700000e+00	6.396360e-06	
95	4.750000e+00	6.307669e-06	
96	4.800000e+00	6.222014e-06	
97	4.850000e+00	6.139243e-06	
98	4.900000e+00	6.059215e-06	
99	4.950000e+00	5.981796e-06	
100	5.000000e+00	5.906862e-06	
101	5.050000e+00	5.834295e-06	
102	5.100000e+00	5.763988e-06	
103	5.150000e+00	5.695836e-06	
104	5.200000e+00	5.629743e-06	
105	5.250000e+00	5.565618e-06	
106	5.300000e+00	5.503376e-06	
107	5.350000e+00	5.442936e-06	
108	5.400000e+00	5.384221e-06	
109	5.450000e+00	5.327160e-06	
110	5.500000e+00	5.271685e-06	
111	5.550000e+00	5.217732e-06	
112	5.600000e+00	5.165240e-06	

Index   v-sweep         rds             
--------------------------------------------------------------------------------
113	5.650000e+00	5.114152e-06	
114	5.700000e+00	5.064413e-06	
115	5.750000e+00	5.015971e-06	
116	5.800000e+00	4.968778e-06	
117	5.850000e+00	4.922786e-06	
118	5.900000e+00	4.877952e-06	
119	5.950000e+00	4.834234e-06	
120	6.000000e+00	4.791591e-06	
121	6.050000e+00	4.749986e-06	
122	6.100000e+00	4.709382e-06	
123	6.150000e+00	4.669744e-06	
124	6.200000e+00	4.631041e-06	
125	6.250000e+00	4.593239e-06	
126	6.300000e+00	4.556310e-06	
127	6.350000e+00	4.520224e-06	
128	6.400000e+00	4.484954e-06	
129	6.450000e+00	4.450474e-06	
130	6.500000e+00	4.416759e-06	
131	6.550000e+00	4.383785e-06	
132	6.600000e+00	4.351528e-06	
Reset re-loads circuit ***************************

Circuit: ***************************

Note: No ".plot", ".print", or ".fourier" lines; no simulations run
