
Note: Compatibility modes selected: hs

Warning: m=xx on .subckt line will override multiplier m hierarchy!


Circuit: ***************************

Doing analysis at TEMP = 25.000000 and TNOM = 25.000000


No. of Data Rows : 133
                          ***************************
                          DC transfer characteristic  Mon Jan  9 13:58:37  2023
--------------------------------------------------------------------------------
Index   v-sweep         rds             
--------------------------------------------------------------------------------
0	0.000000e+00	1.661968e-04	
1	5.000000e-02	1.250045e-04	
2	1.000000e-01	8.549445e-05	
3	1.500000e-01	4.965081e-05	
4	2.000000e-01	2.346953e-05	
5	2.500000e-01	1.130131e-05	
6	3.000000e-01	6.968630e-06	
7	3.500000e-01	5.153173e-06	
8	4.000000e-01	4.180986e-06	
9	4.500000e-01	3.566336e-06	
10	5.000000e-01	3.136594e-06	
11	5.500000e-01	2.816396e-06	
12	6.000000e-01	2.567297e-06	
13	6.500000e-01	2.367374e-06	
14	7.000000e-01	2.203071e-06	
15	7.500000e-01	2.065494e-06	
16	8.000000e-01	1.948532e-06	
17	8.500000e-01	1.847829e-06	
18	9.000000e-01	1.760193e-06	
19	9.500000e-01	1.683223e-06	
20	1.000000e+00	1.615077e-06	
21	1.050000e+00	1.554317e-06	
22	1.100000e+00	1.499804e-06	
23	1.150000e+00	1.450622e-06	
24	1.200000e+00	1.406027e-06	
25	1.250000e+00	1.365407e-06	
26	1.300000e+00	1.328255e-06	
27	1.350000e+00	1.294147e-06	
28	1.400000e+00	1.262725e-06	
29	1.450000e+00	1.233686e-06	
30	1.500000e+00	1.206770e-06	
31	1.550000e+00	1.181755e-06	
32	1.600000e+00	1.158446e-06	
33	1.650000e+00	1.136677e-06	
34	1.700000e+00	1.116301e-06	
35	1.750000e+00	1.097189e-06	
36	1.800000e+00	1.079230e-06	
37	1.850000e+00	1.062321e-06	
38	1.900000e+00	1.046375e-06	
39	1.950000e+00	1.031313e-06	
40	2.000000e+00	1.017064e-06	
41	2.050000e+00	1.003564e-06	
42	2.100000e+00	9.907573e-07	
43	2.150000e+00	9.785916e-07	
44	2.200000e+00	9.670209e-07	
45	2.250000e+00	9.560031e-07	
46	2.300000e+00	9.455000e-07	
47	2.350000e+00	9.354769e-07	
48	2.400000e+00	9.259021e-07	
49	2.450000e+00	9.167466e-07	
50	2.500000e+00	9.079838e-07	
51	2.550000e+00	8.995895e-07	
52	2.600000e+00	8.915412e-07	
53	2.650000e+00	8.838183e-07	
54	2.700000e+00	8.764018e-07	

Index   v-sweep         rds             
--------------------------------------------------------------------------------
55	2.750000e+00	8.692741e-07	
56	2.800000e+00	8.624190e-07	
57	2.850000e+00	8.558214e-07	
58	2.900000e+00	8.494674e-07	
59	2.950000e+00	8.433439e-07	
60	3.000000e+00	8.374388e-07	
61	3.050000e+00	8.317410e-07	
62	3.100000e+00	8.262398e-07	
63	3.150000e+00	8.209256e-07	
64	3.200000e+00	8.157891e-07	
65	3.250000e+00	8.108217e-07	
66	3.300000e+00	8.060154e-07	
67	3.350000e+00	8.013627e-07	
68	3.400000e+00	7.968565e-07	
69	3.450000e+00	7.924901e-07	
70	3.500000e+00	7.882573e-07	
71	3.550000e+00	7.841522e-07	
72	3.600000e+00	7.801692e-07	
73	3.650000e+00	7.763031e-07	
74	3.700000e+00	7.725489e-07	
75	3.750000e+00	7.689020e-07	
76	3.800000e+00	7.653580e-07	
77	3.850000e+00	7.619126e-07	
78	3.900000e+00	7.585620e-07	
79	3.950000e+00	7.553023e-07	
80	4.000000e+00	7.521300e-07	
81	4.050000e+00	7.490418e-07	
82	4.100000e+00	7.460345e-07	
83	4.150000e+00	7.431049e-07	
84	4.200000e+00	7.402503e-07	
85	4.250000e+00	7.374678e-07	
86	4.300000e+00	7.347548e-07	
87	4.350000e+00	7.321089e-07	
88	4.400000e+00	7.295276e-07	
89	4.450000e+00	7.270088e-07	
90	4.500000e+00	7.245501e-07	
91	4.550000e+00	7.221496e-07	
92	4.600000e+00	7.198053e-07	
93	4.650000e+00	7.175153e-07	
94	4.700000e+00	7.152778e-07	
95	4.750000e+00	7.130911e-07	
96	4.800000e+00	7.109535e-07	
97	4.850000e+00	7.088634e-07	
98	4.900000e+00	7.068194e-07	
99	4.950000e+00	7.048199e-07	
100	5.000000e+00	7.028636e-07	
101	5.050000e+00	7.009492e-07	
102	5.100000e+00	6.990754e-07	
103	5.150000e+00	6.972409e-07	
104	5.200000e+00	6.954446e-07	
105	5.250000e+00	6.936853e-07	
106	5.300000e+00	6.919619e-07	
107	5.350000e+00	6.902735e-07	
108	5.400000e+00	6.886189e-07	
109	5.450000e+00	6.869972e-07	
110	5.500000e+00	6.854075e-07	
111	5.550000e+00	6.838489e-07	
112	5.600000e+00	6.823206e-07	

Index   v-sweep         rds             
--------------------------------------------------------------------------------
113	5.650000e+00	6.808216e-07	
114	5.700000e+00	6.793512e-07	
115	5.750000e+00	6.779086e-07	
116	5.800000e+00	6.764930e-07	
117	5.850000e+00	6.751038e-07	
118	5.900000e+00	6.737402e-07	
119	5.950000e+00	6.724016e-07	
120	6.000000e+00	6.710873e-07	
121	6.050000e+00	6.697967e-07	
122	6.100000e+00	6.685292e-07	
123	6.150000e+00	6.672842e-07	
124	6.200000e+00	6.660611e-07	
125	6.250000e+00	6.648594e-07	
126	6.300000e+00	6.636786e-07	
127	6.350000e+00	6.625181e-07	
128	6.400000e+00	6.613774e-07	
129	6.450000e+00	6.602562e-07	
130	6.500000e+00	6.591538e-07	
131	6.550000e+00	6.580698e-07	
132	6.600000e+00	6.570039e-07	
Reset re-loads circuit ***************************

Circuit: ***************************

Doing analysis at TEMP = 25.000000 and TNOM = 25.000000


No. of Data Rows : 133
                          ***************************
                          DC transfer characteristic  Mon Jan  9 13:58:37  2023
--------------------------------------------------------------------------------
Index   v-sweep         rds             
--------------------------------------------------------------------------------
0	0.000000e+00	6.988291e-04	
1	5.000000e-02	6.500466e-04	
2	1.000000e-01	6.024426e-04	
3	1.500000e-01	5.559841e-04	
4	2.000000e-01	5.106399e-04	
5	2.500000e-01	4.663804e-04	
6	3.000000e-01	4.231787e-04	
7	3.500000e-01	3.810117e-04	
8	4.000000e-01	3.398622e-04	
9	4.500000e-01	2.997235e-04	
10	5.000000e-01	2.606112e-04	
11	5.500000e-01	2.225910e-04	
12	6.000000e-01	1.858515e-04	
13	6.500000e-01	1.508803e-04	
14	7.000000e-01	1.187741e-04	
15	7.500000e-01	9.131223e-05	
16	8.000000e-01	6.997085e-05	
17	8.500000e-01	5.463453e-05	
18	9.000000e-01	4.393995e-05	
19	9.500000e-01	3.640969e-05	
20	1.000000e+00	3.095808e-05	
21	1.050000e+00	2.688409e-05	
22	1.100000e+00	2.374773e-05	
23	1.150000e+00	2.126952e-05	
24	1.200000e+00	1.926729e-05	
25	1.250000e+00	1.761871e-05	
26	1.300000e+00	1.623923e-05	
27	1.350000e+00	1.506883e-05	
28	1.400000e+00	1.406387e-05	
29	1.450000e+00	1.319193e-05	
30	1.500000e+00	1.242848e-05	
31	1.550000e+00	1.175460e-05	
32	1.600000e+00	1.115550e-05	
33	1.650000e+00	1.061948e-05	
34	1.700000e+00	1.013713e-05	
35	1.750000e+00	9.700802e-06	
36	1.800000e+00	9.304250e-06	
37	1.850000e+00	8.942294e-06	
38	1.900000e+00	8.610616e-06	
39	1.950000e+00	8.305584e-06	
40	2.000000e+00	8.024124e-06	
41	2.050000e+00	7.763614e-06	
42	2.100000e+00	7.521809e-06	
43	2.150000e+00	7.296770e-06	
44	2.200000e+00	7.086817e-06	
45	2.250000e+00	6.890489e-06	
46	2.300000e+00	6.706504e-06	
47	2.350000e+00	6.533738e-06	
48	2.400000e+00	6.371198e-06	
49	2.450000e+00	6.218006e-06	
50	2.500000e+00	6.073380e-06	
51	2.550000e+00	5.936622e-06	
52	2.600000e+00	5.807111e-06	
53	2.650000e+00	5.684286e-06	
54	2.700000e+00	5.567645e-06	

Index   v-sweep         rds             
--------------------------------------------------------------------------------
55	2.750000e+00	5.456733e-06	
56	2.800000e+00	5.351140e-06	
57	2.850000e+00	5.250493e-06	
58	2.900000e+00	5.154454e-06	
59	2.950000e+00	5.062715e-06	
60	3.000000e+00	4.974993e-06	
61	3.050000e+00	4.891031e-06	
62	3.100000e+00	4.810594e-06	
63	3.150000e+00	4.733465e-06	
64	3.200000e+00	4.659444e-06	
65	3.250000e+00	4.588349e-06	
66	3.300000e+00	4.520009e-06	
67	3.350000e+00	4.454267e-06	
68	3.400000e+00	4.390980e-06	
69	3.450000e+00	4.330012e-06	
70	3.500000e+00	4.271239e-06	
71	3.550000e+00	4.214545e-06	
72	3.600000e+00	4.159821e-06	
73	3.650000e+00	4.106968e-06	
74	3.700000e+00	4.055891e-06	
75	3.750000e+00	4.006502e-06	
76	3.800000e+00	3.958720e-06	
77	3.850000e+00	3.912468e-06	
78	3.900000e+00	3.867673e-06	
79	3.950000e+00	3.824269e-06	
80	4.000000e+00	3.782191e-06	
81	4.050000e+00	3.741380e-06	
82	4.100000e+00	3.701780e-06	
83	4.150000e+00	3.663338e-06	
84	4.200000e+00	3.626005e-06	
85	4.250000e+00	3.589732e-06	
86	4.300000e+00	3.554477e-06	
87	4.350000e+00	3.520196e-06	
88	4.400000e+00	3.486850e-06	
89	4.450000e+00	3.454403e-06	
90	4.500000e+00	3.422817e-06	
91	4.550000e+00	3.392060e-06	
92	4.600000e+00	3.362099e-06	
93	4.650000e+00	3.332904e-06	
94	4.700000e+00	3.304447e-06	
95	4.750000e+00	3.276699e-06	
96	4.800000e+00	3.249635e-06	
97	4.850000e+00	3.223230e-06	
98	4.900000e+00	3.197461e-06	
99	4.950000e+00	3.172304e-06	
100	5.000000e+00	3.147739e-06	
101	5.050000e+00	3.123745e-06	
102	5.100000e+00	3.100303e-06	
103	5.150000e+00	3.077393e-06	
104	5.200000e+00	3.054999e-06	
105	5.250000e+00	3.033102e-06	
106	5.300000e+00	3.011687e-06	
107	5.350000e+00	2.990739e-06	
108	5.400000e+00	2.970241e-06	
109	5.450000e+00	2.950181e-06	
110	5.500000e+00	2.930544e-06	
111	5.550000e+00	2.911317e-06	
112	5.600000e+00	2.892488e-06	

Index   v-sweep         rds             
--------------------------------------------------------------------------------
113	5.650000e+00	2.874044e-06	
114	5.700000e+00	2.855974e-06	
115	5.750000e+00	2.838267e-06	
116	5.800000e+00	2.820913e-06	
117	5.850000e+00	2.803900e-06	
118	5.900000e+00	2.787219e-06	
119	5.950000e+00	2.770860e-06	
120	6.000000e+00	2.754815e-06	
121	6.050000e+00	2.739074e-06	
122	6.100000e+00	2.723630e-06	
123	6.150000e+00	2.708473e-06	
124	6.200000e+00	2.693597e-06	
125	6.250000e+00	2.678993e-06	
126	6.300000e+00	2.664654e-06	
127	6.350000e+00	2.650573e-06	
128	6.400000e+00	2.636744e-06	
129	6.450000e+00	2.623159e-06	
130	6.500000e+00	2.609813e-06	
131	6.550000e+00	2.596699e-06	
132	6.600000e+00	2.583811e-06	
Reset re-loads circuit ***************************

Circuit: ***************************

Doing analysis at TEMP = 25.000000 and TNOM = 25.000000


No. of Data Rows : 133
                          ***************************
                          DC transfer characteristic  Mon Jan  9 13:58:37  2023
--------------------------------------------------------------------------------
Index   v-sweep         rds             
--------------------------------------------------------------------------------
0	0.000000e+00	1.112990e-03	
1	5.000000e-02	1.062090e-03	
2	1.000000e-01	1.012374e-03	
3	1.500000e-01	9.638107e-04	
4	2.000000e-01	9.163662e-04	
5	2.500000e-01	8.700095e-04	
6	3.000000e-01	8.247096e-04	
7	3.500000e-01	7.804367e-04	
8	4.000000e-01	7.371612e-04	
9	4.500000e-01	6.948546e-04	
10	5.000000e-01	6.534886e-04	
11	5.500000e-01	6.130352e-04	
12	6.000000e-01	5.734666e-04	
13	6.500000e-01	5.347536e-04	
14	7.000000e-01	4.968656e-04	
15	7.500000e-01	4.597681e-04	
16	8.000000e-01	4.234199e-04	
17	8.500000e-01	3.877684e-04	
18	9.000000e-01	3.527425e-04	
19	9.500000e-01	3.182439e-04	
20	1.000000e+00	2.841437e-04	
21	1.050000e+00	2.503117e-04	
22	1.100000e+00	2.167483e-04	
23	1.150000e+00	1.838935e-04	
24	1.200000e+00	1.529472e-04	
25	1.250000e+00	1.255957e-04	
26	1.300000e+00	1.030237e-04	
27	1.350000e+00	8.530193e-05	
28	1.400000e+00	7.170394e-05	
29	1.450000e+00	6.128894e-05	
30	1.500000e+00	5.322926e-05	
31	1.550000e+00	4.689396e-05	
32	1.600000e+00	4.182823e-05	
33	1.650000e+00	3.770958e-05	
34	1.700000e+00	3.430882e-05	
35	1.750000e+00	3.146132e-05	
36	1.800000e+00	2.904708e-05	
37	1.850000e+00	2.697727e-05	
38	1.900000e+00	2.518504e-05	
39	1.950000e+00	2.361937e-05	
40	2.000000e+00	2.224075e-05	
41	2.050000e+00	2.101815e-05	
42	2.100000e+00	1.992696e-05	
43	2.150000e+00	1.894737e-05	
44	2.200000e+00	1.806334e-05	
45	2.250000e+00	1.726170e-05	
46	2.300000e+00	1.653158e-05	
47	2.350000e+00	1.586392e-05	
48	2.400000e+00	1.525111e-05	
49	2.450000e+00	1.468672e-05	
50	2.500000e+00	1.416528e-05	
51	2.550000e+00	1.368210e-05	
52	2.600000e+00	1.323315e-05	
53	2.650000e+00	1.281494e-05	
54	2.700000e+00	1.242445e-05	

Index   v-sweep         rds             
--------------------------------------------------------------------------------
55	2.750000e+00	1.205902e-05	
56	2.800000e+00	1.171633e-05	
57	2.850000e+00	1.139433e-05	
58	2.900000e+00	1.109121e-05	
59	2.950000e+00	1.080538e-05	
60	3.000000e+00	1.053539e-05	
61	3.050000e+00	1.027998e-05	
62	3.100000e+00	1.003800e-05	
63	3.150000e+00	9.808418e-06	
64	3.200000e+00	9.590314e-06	
65	3.250000e+00	9.382852e-06	
66	3.300000e+00	9.185273e-06	
67	3.350000e+00	8.996891e-06	
68	3.400000e+00	8.817081e-06	
69	3.450000e+00	8.645273e-06	
70	3.500000e+00	8.480946e-06	
71	3.550000e+00	8.323625e-06	
72	3.600000e+00	8.172871e-06	
73	3.650000e+00	8.028283e-06	
74	3.700000e+00	7.889493e-06	
75	3.750000e+00	7.756159e-06	
76	3.800000e+00	7.627967e-06	
77	3.850000e+00	7.504627e-06	
78	3.900000e+00	7.385868e-06	
79	3.950000e+00	7.271441e-06	
80	4.000000e+00	7.161114e-06	
81	4.050000e+00	7.054672e-06	
82	4.100000e+00	6.951913e-06	
83	4.150000e+00	6.852650e-06	
84	4.200000e+00	6.756708e-06	
85	4.250000e+00	6.663925e-06	
86	4.300000e+00	6.574146e-06	
87	4.350000e+00	6.487230e-06	
88	4.400000e+00	6.403041e-06	
89	4.450000e+00	6.321454e-06	
90	4.500000e+00	6.242351e-06	
91	4.550000e+00	6.165621e-06	
92	4.600000e+00	6.091158e-06	
93	4.650000e+00	6.018864e-06	
94	4.700000e+00	5.948647e-06	
95	4.750000e+00	5.880417e-06	
96	4.800000e+00	5.814094e-06	
97	4.850000e+00	5.749598e-06	
98	4.900000e+00	5.686854e-06	
99	4.950000e+00	5.625795e-06	
100	5.000000e+00	5.566352e-06	
101	5.050000e+00	5.508462e-06	
102	5.100000e+00	5.452067e-06	
103	5.150000e+00	5.397109e-06	
104	5.200000e+00	5.343535e-06	
105	5.250000e+00	5.291293e-06	
106	5.300000e+00	5.240335e-06	
107	5.350000e+00	5.190614e-06	
108	5.400000e+00	5.142087e-06	
109	5.450000e+00	5.094711e-06	
110	5.500000e+00	5.048446e-06	
111	5.550000e+00	5.003254e-06	
112	5.600000e+00	4.959098e-06	

Index   v-sweep         rds             
--------------------------------------------------------------------------------
113	5.650000e+00	4.915944e-06	
114	5.700000e+00	4.873759e-06	
115	5.750000e+00	4.832510e-06	
116	5.800000e+00	4.792167e-06	
117	5.850000e+00	4.752701e-06	
118	5.900000e+00	4.714084e-06	
119	5.950000e+00	4.676289e-06	
120	6.000000e+00	4.639292e-06	
121	6.050000e+00	4.603066e-06	
122	6.100000e+00	4.567589e-06	
123	6.150000e+00	4.532839e-06	
124	6.200000e+00	4.498793e-06	
125	6.250000e+00	4.465430e-06	
126	6.300000e+00	4.432731e-06	
127	6.350000e+00	4.400677e-06	
128	6.400000e+00	4.369248e-06	
129	6.450000e+00	4.338427e-06	
130	6.500000e+00	4.308198e-06	
131	6.550000e+00	4.278543e-06	
132	6.600000e+00	4.249446e-06	
Reset re-loads circuit ***************************

Circuit: ***************************

Doing analysis at TEMP = 25.000000 and TNOM = 25.000000


No. of Data Rows : 133
                          ***************************
                          DC transfer characteristic  Mon Jan  9 13:58:37  2023
--------------------------------------------------------------------------------
Index   v-sweep         rds             
--------------------------------------------------------------------------------
0	0.000000e+00	1.419682e-03	
1	5.000000e-02	1.369536e-03	
2	1.000000e-01	1.320464e-03	
3	1.500000e-01	1.272437e-03	
4	2.000000e-01	1.225430e-03	
5	2.500000e-01	1.179416e-03	
6	3.000000e-01	1.134369e-03	
7	3.500000e-01	1.090265e-03	
8	4.000000e-01	1.047079e-03	
9	4.500000e-01	1.004786e-03	
10	5.000000e-01	9.633637e-04	
11	5.500000e-01	9.227888e-04	
12	6.000000e-01	8.830389e-04	
13	6.500000e-01	8.440922e-04	
14	7.000000e-01	8.059270e-04	
15	7.500000e-01	7.685222e-04	
16	8.000000e-01	7.318563e-04	
17	8.500000e-01	6.959080e-04	
18	9.000000e-01	6.606550e-04	
19	9.500000e-01	6.260735e-04	
20	1.000000e+00	5.921374e-04	
21	1.050000e+00	5.588164e-04	
22	1.100000e+00	5.260738e-04	
23	1.150000e+00	4.938624e-04	
24	1.200000e+00	4.621185e-04	
25	1.250000e+00	4.307535e-04	
26	1.300000e+00	3.996400e-04	
27	1.350000e+00	3.685970e-04	
28	1.400000e+00	3.373795e-04	
29	1.450000e+00	3.057008e-04	
30	1.500000e+00	2.733470e-04	
31	1.550000e+00	2.404467e-04	
32	1.600000e+00	2.078112e-04	
33	1.650000e+00	1.769512e-04	
34	1.700000e+00	1.494664e-04	
35	1.750000e+00	1.262787e-04	
36	1.800000e+00	1.074209e-04	
37	1.850000e+00	9.235446e-05	
38	1.900000e+00	8.035768e-05	
39	1.950000e+00	7.075297e-05	
40	2.000000e+00	6.298590e-05	
41	2.050000e+00	5.662954e-05	
42	2.100000e+00	5.136322e-05	
43	2.150000e+00	4.694769e-05	
44	2.200000e+00	4.320393e-05	
45	2.250000e+00	3.999694e-05	
46	2.300000e+00	3.722386e-05	
47	2.350000e+00	3.480547e-05	
48	2.400000e+00	3.268003e-05	
49	2.450000e+00	3.079890e-05	
50	2.500000e+00	2.912336e-05	
51	2.550000e+00	2.762223e-05	
52	2.600000e+00	2.627023e-05	
53	2.650000e+00	2.504662e-05	
54	2.700000e+00	2.393426e-05	

Index   v-sweep         rds             
--------------------------------------------------------------------------------
55	2.750000e+00	2.291890e-05	
56	2.800000e+00	2.198858e-05	
57	2.850000e+00	2.113318e-05	
58	2.900000e+00	2.034414e-05	
59	2.950000e+00	1.961411e-05	
60	3.000000e+00	1.893680e-05	
61	3.050000e+00	1.830674e-05	
62	3.100000e+00	1.771922e-05	
63	3.150000e+00	1.717010e-05	
64	3.200000e+00	1.665578e-05	
65	3.250000e+00	1.617308e-05	
66	3.300000e+00	1.571919e-05	
67	3.350000e+00	1.529163e-05	
68	3.400000e+00	1.488820e-05	
69	3.450000e+00	1.450691e-05	
70	3.500000e+00	1.414600e-05	
71	3.550000e+00	1.380391e-05	
72	3.600000e+00	1.347919e-05	
73	3.650000e+00	1.317057e-05	
74	3.700000e+00	1.287689e-05	
75	3.750000e+00	1.259709e-05	
76	3.800000e+00	1.233022e-05	
77	3.850000e+00	1.207540e-05	
78	3.900000e+00	1.183185e-05	
79	3.950000e+00	1.159883e-05	
80	4.000000e+00	1.137569e-05	
81	4.050000e+00	1.116180e-05	
82	4.100000e+00	1.095660e-05	
83	4.150000e+00	1.075959e-05	
84	4.200000e+00	1.057027e-05	
85	4.250000e+00	1.038822e-05	
86	4.300000e+00	1.021302e-05	
87	4.350000e+00	1.004429e-05	
88	4.400000e+00	9.881691e-06	
89	4.450000e+00	9.724887e-06	
90	4.500000e+00	9.573576e-06	
91	4.550000e+00	9.427478e-06	
92	4.600000e+00	9.286328e-06	
93	4.650000e+00	9.149879e-06	
94	4.700000e+00	9.017903e-06	
95	4.750000e+00	8.890184e-06	
96	4.800000e+00	8.766520e-06	
97	4.850000e+00	8.646722e-06	
98	4.900000e+00	8.530612e-06	
99	4.950000e+00	8.418024e-06	
100	5.000000e+00	8.308800e-06	
101	5.050000e+00	8.202794e-06	
102	5.100000e+00	8.099865e-06	
103	5.150000e+00	7.999883e-06	
104	5.200000e+00	7.902723e-06	
105	5.250000e+00	7.808269e-06	
106	5.300000e+00	7.716410e-06	
107	5.350000e+00	7.627041e-06	
108	5.400000e+00	7.540064e-06	
109	5.450000e+00	7.455384e-06	
110	5.500000e+00	7.372913e-06	
111	5.550000e+00	7.292565e-06	
112	5.600000e+00	7.214262e-06	

Index   v-sweep         rds             
--------------------------------------------------------------------------------
113	5.650000e+00	7.137927e-06	
114	5.700000e+00	7.063487e-06	
115	5.750000e+00	6.990873e-06	
116	5.800000e+00	6.920021e-06	
117	5.850000e+00	6.850867e-06	
118	5.900000e+00	6.783352e-06	
119	5.950000e+00	6.717419e-06	
120	6.000000e+00	6.653015e-06	
121	6.050000e+00	6.590088e-06	
122	6.100000e+00	6.528588e-06	
123	6.150000e+00	6.468468e-06	
124	6.200000e+00	6.409683e-06	
125	6.250000e+00	6.352190e-06	
126	6.300000e+00	6.295948e-06	
127	6.350000e+00	6.240918e-06	
128	6.400000e+00	6.187060e-06	
129	6.450000e+00	6.134340e-06	
130	6.500000e+00	6.082722e-06	
131	6.550000e+00	6.032173e-06	
132	6.600000e+00	5.982661e-06	
Reset re-loads circuit ***************************

Circuit: ***************************

Doing analysis at TEMP = 25.000000 and TNOM = 25.000000


No. of Data Rows : 133
                          ***************************
                          DC transfer characteristic  Mon Jan  9 13:58:37  2023
--------------------------------------------------------------------------------
Index   v-sweep         rds             
--------------------------------------------------------------------------------
0	0.000000e+00	1.640653e-03	
1	5.000000e-02	1.593130e-03	
2	1.000000e-01	1.546525e-03	
3	1.500000e-01	1.500817e-03	
4	2.000000e-01	1.455986e-03	
5	2.500000e-01	1.412011e-03	
6	3.000000e-01	1.368873e-03	
7	3.500000e-01	1.326551e-03	
8	4.000000e-01	1.285028e-03	
9	4.500000e-01	1.244284e-03	
10	5.000000e-01	1.204301e-03	
11	5.500000e-01	1.165062e-03	
12	6.000000e-01	1.126548e-03	
13	6.500000e-01	1.088742e-03	
14	7.000000e-01	1.051629e-03	
15	7.500000e-01	1.015191e-03	
16	8.000000e-01	9.794119e-04	
17	8.500000e-01	9.442770e-04	
18	9.000000e-01	9.097706e-04	
19	9.500000e-01	8.758776e-04	
20	1.000000e+00	8.425833e-04	
21	1.050000e+00	8.098725e-04	
22	1.100000e+00	7.777304e-04	
23	1.150000e+00	7.461415e-04	
24	1.200000e+00	7.150896e-04	
25	1.250000e+00	6.845572e-04	
26	1.300000e+00	6.545250e-04	
27	1.350000e+00	6.249708e-04	
28	1.400000e+00	5.958678e-04	
29	1.450000e+00	5.671828e-04	
30	1.500000e+00	5.388725e-04	
31	1.550000e+00	5.108790e-04	
32	1.600000e+00	4.831223e-04	
33	1.650000e+00	4.554903e-04	
34	1.700000e+00	4.278250e-04	
35	1.750000e+00	3.999079e-04	
36	1.800000e+00	3.714535e-04	
37	1.850000e+00	3.421341e-04	
38	1.900000e+00	3.116813e-04	
39	1.950000e+00	2.801033e-04	
40	2.000000e+00	2.479634e-04	
41	2.050000e+00	2.164702e-04	
42	2.100000e+00	1.871335e-04	
43	2.150000e+00	1.611561e-04	
44	2.200000e+00	1.390569e-04	
45	2.250000e+00	1.207267e-04	
46	2.300000e+00	1.057024e-04	
47	2.350000e+00	9.341385e-05	
48	2.400000e+00	8.332239e-05	
49	2.450000e+00	7.497343e-05	
50	2.500000e+00	6.800334e-05	
51	2.550000e+00	6.212844e-05	
52	2.600000e+00	5.712943e-05	
53	2.650000e+00	5.283694e-05	
54	2.700000e+00	4.911959e-05	

Index   v-sweep         rds             
--------------------------------------------------------------------------------
55	2.750000e+00	4.587477e-05	
56	2.800000e+00	4.302172e-05	
57	2.850000e+00	4.049629e-05	
58	2.900000e+00	3.824709e-05	
59	2.950000e+00	3.623257e-05	
60	3.000000e+00	3.441888e-05	
61	3.050000e+00	3.277819e-05	
62	3.100000e+00	3.128748e-05	
63	3.150000e+00	2.992752e-05	
64	3.200000e+00	2.868219e-05	
65	3.250000e+00	2.753786e-05	
66	3.300000e+00	2.648293e-05	
67	3.350000e+00	2.550750e-05	
68	3.400000e+00	2.460303e-05	
69	3.450000e+00	2.376218e-05	
70	3.500000e+00	2.297854e-05	
71	3.550000e+00	2.224654e-05	
72	3.600000e+00	2.156131e-05	
73	3.650000e+00	2.091855e-05	
74	3.700000e+00	2.031447e-05	
75	3.750000e+00	1.974572e-05	
76	3.800000e+00	1.920931e-05	
77	3.850000e+00	1.870260e-05	
78	3.900000e+00	1.822321e-05	
79	3.950000e+00	1.776899e-05	
80	4.000000e+00	1.733804e-05	
81	4.050000e+00	1.692862e-05	
82	4.100000e+00	1.653918e-05	
83	4.150000e+00	1.616829e-05	
84	4.200000e+00	1.581468e-05	
85	4.250000e+00	1.547716e-05	
86	4.300000e+00	1.515467e-05	
87	4.350000e+00	1.484624e-05	
88	4.400000e+00	1.455098e-05	
89	4.450000e+00	1.426805e-05	
90	4.500000e+00	1.399671e-05	
91	4.550000e+00	1.373627e-05	
92	4.600000e+00	1.348608e-05	
93	4.650000e+00	1.324555e-05	
94	4.700000e+00	1.301415e-05	
95	4.750000e+00	1.279135e-05	
96	4.800000e+00	1.257670e-05	
97	4.850000e+00	1.236975e-05	
98	4.900000e+00	1.217011e-05	
99	4.950000e+00	1.197739e-05	
100	5.000000e+00	1.179123e-05	
101	5.050000e+00	1.161133e-05	
102	5.100000e+00	1.143735e-05	
103	5.150000e+00	1.126903e-05	
104	5.200000e+00	1.110608e-05	
105	5.250000e+00	1.094826e-05	
106	5.300000e+00	1.079534e-05	
107	5.350000e+00	1.064708e-05	
108	5.400000e+00	1.050327e-05	
109	5.450000e+00	1.036373e-05	
110	5.500000e+00	1.022827e-05	
111	5.550000e+00	1.009671e-05	
112	5.600000e+00	9.968891e-06	

Index   v-sweep         rds             
--------------------------------------------------------------------------------
113	5.650000e+00	9.844651e-06	
114	5.700000e+00	9.723847e-06	
115	5.750000e+00	9.606338e-06	
116	5.800000e+00	9.491993e-06	
117	5.850000e+00	9.380688e-06	
118	5.900000e+00	9.272305e-06	
119	5.950000e+00	9.166732e-06	
120	6.000000e+00	9.063861e-06	
121	6.050000e+00	8.963593e-06	
122	6.100000e+00	8.865831e-06	
123	6.150000e+00	8.770484e-06	
124	6.200000e+00	8.677466e-06	
125	6.250000e+00	8.586692e-06	
126	6.300000e+00	8.498085e-06	
127	6.350000e+00	8.411570e-06	
128	6.400000e+00	8.327075e-06	
129	6.450000e+00	8.244531e-06	
130	6.500000e+00	8.163874e-06	
131	6.550000e+00	8.085040e-06	
132	6.600000e+00	8.007971e-06	
Reset re-loads circuit ***************************

Circuit: ***************************

Doing analysis at TEMP = 25.000000 and TNOM = 25.000000


No. of Data Rows : 133
                          ***************************
                          DC transfer characteristic  Mon Jan  9 13:58:37  2023
--------------------------------------------------------------------------------
Index   v-sweep         rds             
--------------------------------------------------------------------------------
0	0.000000e+00	1.782365e-03	
1	5.000000e-02	1.738687e-03	
2	1.000000e-01	1.695763e-03	
3	1.500000e-01	1.653578e-03	
4	2.000000e-01	1.612117e-03	
5	2.500000e-01	1.571365e-03	
6	3.000000e-01	1.531308e-03	
7	3.500000e-01	1.491930e-03	
8	4.000000e-01	1.453219e-03	
9	4.500000e-01	1.415160e-03	
10	5.000000e-01	1.377740e-03	
11	5.500000e-01	1.340945e-03	
12	6.000000e-01	1.304762e-03	
13	6.500000e-01	1.269178e-03	
14	7.000000e-01	1.234182e-03	
15	7.500000e-01	1.199759e-03	
16	8.000000e-01	1.165899e-03	
17	8.500000e-01	1.132590e-03	
18	9.000000e-01	1.099819e-03	
19	9.500000e-01	1.067576e-03	
20	1.000000e+00	1.035850e-03	
21	1.050000e+00	1.004630e-03	
22	1.100000e+00	9.739050e-04	
23	1.150000e+00	9.436652e-04	
24	1.200000e+00	9.139002e-04	
25	1.250000e+00	8.846001e-04	
26	1.300000e+00	8.557547e-04	
27	1.350000e+00	8.273539e-04	
28	1.400000e+00	7.993876e-04	
29	1.450000e+00	7.718450e-04	
30	1.500000e+00	7.447150e-04	
31	1.550000e+00	7.179858e-04	
32	1.600000e+00	6.916440e-04	
33	1.650000e+00	6.656747e-04	
34	1.700000e+00	6.400605e-04	
35	1.750000e+00	6.147801e-04	
36	1.800000e+00	5.898073e-04	
37	1.850000e+00	5.651080e-04	
38	1.900000e+00	5.406376e-04	
39	1.950000e+00	5.163359e-04	
40	2.000000e+00	4.921200e-04	
41	2.050000e+00	4.678760e-04	
42	2.100000e+00	4.434466e-04	
43	2.150000e+00	4.186201e-04	
44	2.200000e+00	3.931259e-04	
45	2.250000e+00	3.666532e-04	
46	2.300000e+00	3.389235e-04	
47	2.350000e+00	3.098430e-04	
48	2.400000e+00	2.797121e-04	
49	2.450000e+00	2.493593e-04	
50	2.500000e+00	2.200117e-04	
51	2.550000e+00	1.928972e-04	
52	2.600000e+00	1.688470e-04	
53	2.650000e+00	1.481538e-04	
54	2.700000e+00	1.306811e-04	

Index   v-sweep         rds             
--------------------------------------------------------------------------------
55	2.750000e+00	1.160593e-04	
56	2.800000e+00	1.038452e-04	
57	2.850000e+00	9.361308e-05	
58	2.900000e+00	8.499309e-05	
59	2.950000e+00	7.768003e-05	
60	3.000000e+00	7.142821e-05	
61	3.050000e+00	6.604217e-05	
62	3.100000e+00	6.136696e-05	
63	3.150000e+00	5.727951e-05	
64	3.200000e+00	5.368173e-05	
65	3.250000e+00	5.049494e-05	
66	3.300000e+00	4.765561e-05	
67	3.350000e+00	4.511211e-05	
68	3.400000e+00	4.282214e-05	
69	3.450000e+00	4.075082e-05	
70	3.500000e+00	3.886920e-05	
71	3.550000e+00	3.715306e-05	
72	3.600000e+00	3.558205e-05	
73	3.650000e+00	3.413892e-05	
74	3.700000e+00	3.280901e-05	
75	3.750000e+00	3.157976e-05	
76	3.800000e+00	3.044038e-05	
77	3.850000e+00	2.938153e-05	
78	3.900000e+00	2.839510e-05	
79	3.950000e+00	2.747403e-05	
80	4.000000e+00	2.661212e-05	
81	4.050000e+00	2.580392e-05	
82	4.100000e+00	2.504464e-05	
83	4.150000e+00	2.433002e-05	
84	4.200000e+00	2.365627e-05	
85	4.250000e+00	2.302003e-05	
86	4.300000e+00	2.241828e-05	
87	4.350000e+00	2.184832e-05	
88	4.400000e+00	2.130771e-05	
89	4.450000e+00	2.079428e-05	
90	4.500000e+00	2.030603e-05	
91	4.550000e+00	1.984118e-05	
92	4.600000e+00	1.939810e-05	
93	4.650000e+00	1.897530e-05	
94	4.700000e+00	1.857144e-05	
95	4.750000e+00	1.818527e-05	
96	4.800000e+00	1.781567e-05	
97	4.850000e+00	1.746161e-05	
98	4.900000e+00	1.712212e-05	
99	4.950000e+00	1.679634e-05	
100	5.000000e+00	1.648345e-05	
101	5.050000e+00	1.618272e-05	
102	5.100000e+00	1.589344e-05	
103	5.150000e+00	1.561498e-05	
104	5.200000e+00	1.534675e-05	
105	5.250000e+00	1.508820e-05	
106	5.300000e+00	1.483882e-05	
107	5.350000e+00	1.459813e-05	
108	5.400000e+00	1.436568e-05	
109	5.450000e+00	1.414107e-05	
110	5.500000e+00	1.392390e-05	
111	5.550000e+00	1.371382e-05	
112	5.600000e+00	1.351049e-05	

Index   v-sweep         rds             
--------------------------------------------------------------------------------
113	5.650000e+00	1.331358e-05	
114	5.700000e+00	1.312280e-05	
115	5.750000e+00	1.293788e-05	
116	5.800000e+00	1.275854e-05	
117	5.850000e+00	1.258455e-05	
118	5.900000e+00	1.241566e-05	
119	5.950000e+00	1.225166e-05	
120	6.000000e+00	1.209234e-05	
121	6.050000e+00	1.193751e-05	
122	6.100000e+00	1.178698e-05	
123	6.150000e+00	1.164057e-05	
124	6.200000e+00	1.149813e-05	
125	6.250000e+00	1.135949e-05	
126	6.300000e+00	1.122451e-05	
127	6.350000e+00	1.109305e-05	
128	6.400000e+00	1.096497e-05	
129	6.450000e+00	1.084014e-05	
130	6.500000e+00	1.071846e-05	
131	6.550000e+00	1.059979e-05	
132	6.600000e+00	1.048404e-05	
Reset re-loads circuit ***************************

Circuit: ***************************

Note: No ".plot", ".print", or ".fourier" lines; no simulations run
