
Note: Compatibility modes selected: hs

Warning: m=xx on .subckt line will override multiplier m hierarchy!


Circuit: ***************************

Doing analysis at TEMP = 25.000000 and TNOM = 25.000000


No. of Data Rows : 133
                          ***************************
                          DC transfer characteristic  Mon Jan  9 13:58:37  2023
--------------------------------------------------------------------------------
Index   v-sweep         rds             
--------------------------------------------------------------------------------
0	0.000000e+00	3.628810e-05	
1	5.000000e-02	2.803718e-05	
2	1.000000e-01	2.007012e-05	
3	1.500000e-01	1.263856e-05	
4	2.000000e-01	6.597154e-06	
5	2.500000e-01	3.176412e-06	
6	3.000000e-01	1.837240e-06	
7	3.500000e-01	1.300424e-06	
8	4.000000e-01	1.030016e-06	
9	4.500000e-01	8.660372e-07	
10	5.000000e-01	7.543556e-07	
11	5.500000e-01	6.725577e-07	
12	6.000000e-01	6.096775e-07	
13	6.500000e-01	5.596506e-07	
14	7.000000e-01	5.188125e-07	
15	7.500000e-01	4.847992e-07	
16	8.000000e-01	4.560080e-07	
17	8.500000e-01	4.313091e-07	
18	9.000000e-01	4.098807e-07	
19	9.500000e-01	3.911098e-07	
20	1.000000e+00	3.745289e-07	
21	1.050000e+00	3.597747e-07	
22	1.100000e+00	3.465608e-07	
23	1.150000e+00	3.346580e-07	
24	1.200000e+00	3.238804e-07	
25	1.250000e+00	3.140759e-07	
26	1.300000e+00	3.051189e-07	
27	1.350000e+00	2.969042e-07	
28	1.400000e+00	2.893437e-07	
29	1.450000e+00	2.823625e-07	
30	1.500000e+00	2.758969e-07	
31	1.550000e+00	2.698921e-07	
32	1.600000e+00	2.643008e-07	
33	1.650000e+00	2.590820e-07	
34	1.700000e+00	2.542000e-07	
35	1.750000e+00	2.496234e-07	
36	1.800000e+00	2.453247e-07	
37	1.850000e+00	2.412794e-07	
38	1.900000e+00	2.374661e-07	
39	1.950000e+00	2.338655e-07	
40	2.000000e+00	2.304606e-07	
41	2.050000e+00	2.272358e-07	
42	2.100000e+00	2.241775e-07	
43	2.150000e+00	2.212731e-07	
44	2.200000e+00	2.185116e-07	
45	2.250000e+00	2.158827e-07	
46	2.300000e+00	2.133773e-07	
47	2.350000e+00	2.109869e-07	
48	2.400000e+00	2.087039e-07	
49	2.450000e+00	2.065213e-07	
50	2.500000e+00	2.044327e-07	
51	2.550000e+00	2.024323e-07	
52	2.600000e+00	2.005146e-07	
53	2.650000e+00	1.986748e-07	
54	2.700000e+00	1.969082e-07	

Index   v-sweep         rds             
--------------------------------------------------------------------------------
55	2.750000e+00	1.952106e-07	
56	2.800000e+00	1.935782e-07	
57	2.850000e+00	1.920072e-07	
58	2.900000e+00	1.904944e-07	
59	2.950000e+00	1.890366e-07	
60	3.000000e+00	1.876310e-07	
61	3.050000e+00	1.862748e-07	
62	3.100000e+00	1.849655e-07	
63	3.150000e+00	1.837008e-07	
64	3.200000e+00	1.824785e-07	
65	3.250000e+00	1.812965e-07	
66	3.300000e+00	1.801529e-07	
67	3.350000e+00	1.790459e-07	
68	3.400000e+00	1.779738e-07	
69	3.450000e+00	1.769350e-07	
70	3.500000e+00	1.759280e-07	
71	3.550000e+00	1.749514e-07	
72	3.600000e+00	1.740039e-07	
73	3.650000e+00	1.730842e-07	
74	3.700000e+00	1.721911e-07	
75	3.750000e+00	1.713236e-07	
76	3.800000e+00	1.704806e-07	
77	3.850000e+00	1.696611e-07	
78	3.900000e+00	1.688640e-07	
79	3.950000e+00	1.680887e-07	
80	4.000000e+00	1.673341e-07	
81	4.050000e+00	1.665995e-07	
82	4.100000e+00	1.658841e-07	
83	4.150000e+00	1.651873e-07	
84	4.200000e+00	1.645082e-07	
85	4.250000e+00	1.638463e-07	
86	4.300000e+00	1.632009e-07	
87	4.350000e+00	1.625715e-07	
88	4.400000e+00	1.619574e-07	
89	4.450000e+00	1.613582e-07	
90	4.500000e+00	1.607732e-07	
91	4.550000e+00	1.602021e-07	
92	4.600000e+00	1.596444e-07	
93	4.650000e+00	1.590995e-07	
94	4.700000e+00	1.585671e-07	
95	4.750000e+00	1.580468e-07	
96	4.800000e+00	1.575381e-07	
97	4.850000e+00	1.570408e-07	
98	4.900000e+00	1.565543e-07	
99	4.950000e+00	1.560785e-07	
100	5.000000e+00	1.556129e-07	
101	5.050000e+00	1.551573e-07	
102	5.100000e+00	1.547112e-07	
103	5.150000e+00	1.542746e-07	
104	5.200000e+00	1.538470e-07	
105	5.250000e+00	1.534282e-07	
106	5.300000e+00	1.530179e-07	
107	5.350000e+00	1.526159e-07	
108	5.400000e+00	1.522219e-07	
109	5.450000e+00	1.518358e-07	
110	5.500000e+00	1.514572e-07	
111	5.550000e+00	1.510861e-07	
112	5.600000e+00	1.507221e-07	

Index   v-sweep         rds             
--------------------------------------------------------------------------------
113	5.650000e+00	1.503651e-07	
114	5.700000e+00	1.500148e-07	
115	5.750000e+00	1.496712e-07	
116	5.800000e+00	1.493340e-07	
117	5.850000e+00	1.490030e-07	
118	5.900000e+00	1.486782e-07	
119	5.950000e+00	1.483592e-07	
120	6.000000e+00	1.480460e-07	
121	6.050000e+00	1.477385e-07	
122	6.100000e+00	1.474364e-07	
123	6.150000e+00	1.471397e-07	
124	6.200000e+00	1.468482e-07	
125	6.250000e+00	1.465617e-07	
126	6.300000e+00	1.462802e-07	
127	6.350000e+00	1.460035e-07	
128	6.400000e+00	1.457316e-07	
129	6.450000e+00	1.454642e-07	
130	6.500000e+00	1.452013e-07	
131	6.550000e+00	1.449428e-07	
132	6.600000e+00	1.446886e-07	
Reset re-loads circuit ***************************

Circuit: ***************************

Doing analysis at TEMP = 25.000000 and TNOM = 25.000000


No. of Data Rows : 133
                          ***************************
                          DC transfer characteristic  Mon Jan  9 13:58:37  2023
--------------------------------------------------------------------------------
Index   v-sweep         rds             
--------------------------------------------------------------------------------
0	0.000000e+00	1.388778e-04	
1	5.000000e-02	1.293446e-04	
2	1.000000e-01	1.200326e-04	
3	1.500000e-01	1.109357e-04	
4	2.000000e-01	1.020484e-04	
5	2.500000e-01	9.336539e-05	
6	3.000000e-01	8.488178e-05	
7	3.500000e-01	7.659351e-05	
8	4.000000e-01	6.849761e-05	
9	4.500000e-01	6.059315e-05	
10	5.000000e-01	5.288327e-05	
11	5.500000e-01	4.538005e-05	
12	6.000000e-01	3.811670e-05	
13	6.500000e-01	3.117692e-05	
14	7.000000e-01	2.474946e-05	
15	7.500000e-01	1.915939e-05	
16	8.000000e-01	1.472367e-05	
17	8.500000e-01	1.148598e-05	
18	9.000000e-01	9.213842e-06	
19	9.500000e-01	7.613916e-06	
20	1.000000e+00	6.458597e-06	
21	1.050000e+00	5.597947e-06	
22	1.100000e+00	4.937341e-06	
23	1.150000e+00	4.416705e-06	
24	1.200000e+00	3.996977e-06	
25	1.250000e+00	3.652011e-06	
26	1.300000e+00	3.363793e-06	
27	1.350000e+00	3.119572e-06	
28	1.400000e+00	2.910103e-06	
29	1.450000e+00	2.728530e-06	
30	1.500000e+00	2.569677e-06	
31	1.550000e+00	2.429560e-06	
32	1.600000e+00	2.305071e-06	
33	1.650000e+00	2.193749e-06	
34	1.700000e+00	2.093621e-06	
35	1.750000e+00	2.003088e-06	
36	1.800000e+00	1.920839e-06	
37	1.850000e+00	1.845793e-06	
38	1.900000e+00	1.777047e-06	
39	1.950000e+00	1.713842e-06	
40	2.000000e+00	1.655537e-06	
41	2.050000e+00	1.601586e-06	
42	2.100000e+00	1.551519e-06	
43	2.150000e+00	1.504934e-06	
44	2.200000e+00	1.461481e-06	
45	2.250000e+00	1.420854e-06	
46	2.300000e+00	1.382789e-06	
47	2.350000e+00	1.347050e-06	
48	2.400000e+00	1.313431e-06	
49	2.450000e+00	1.281751e-06	
50	2.500000e+00	1.251845e-06	
51	2.550000e+00	1.223571e-06	
52	2.600000e+00	1.196797e-06	
53	2.650000e+00	1.171409e-06	
54	2.700000e+00	1.147301e-06	

Index   v-sweep         rds             
--------------------------------------------------------------------------------
55	2.750000e+00	1.124380e-06	
56	2.800000e+00	1.102560e-06	
57	2.850000e+00	1.081764e-06	
58	2.900000e+00	1.061922e-06	
59	2.950000e+00	1.042969e-06	
60	3.000000e+00	1.024848e-06	
61	3.050000e+00	1.007505e-06	
62	3.100000e+00	9.908915e-07	
63	3.150000e+00	9.749620e-07	
64	3.200000e+00	9.596756e-07	
65	3.250000e+00	9.449940e-07	
66	3.300000e+00	9.308824e-07	
67	3.350000e+00	9.173082e-07	
68	3.400000e+00	9.042414e-07	
69	3.450000e+00	8.916542e-07	
70	3.500000e+00	8.795207e-07	
71	3.550000e+00	8.678169e-07	
72	3.600000e+00	8.565205e-07	
73	3.650000e+00	8.456107e-07	
74	3.700000e+00	8.350680e-07	
75	3.750000e+00	8.248742e-07	
76	3.800000e+00	8.150125e-07	
77	3.850000e+00	8.054668e-07	
78	3.900000e+00	7.962223e-07	
79	3.950000e+00	7.872651e-07	
80	4.000000e+00	7.785820e-07	
81	4.050000e+00	7.701606e-07	
82	4.100000e+00	7.619893e-07	
83	4.150000e+00	7.540573e-07	
84	4.200000e+00	7.463542e-07	
85	4.250000e+00	7.388703e-07	
86	4.300000e+00	7.315964e-07	
87	4.350000e+00	7.245239e-07	
88	4.400000e+00	7.176445e-07	
89	4.450000e+00	7.109505e-07	
90	4.500000e+00	7.044345e-07	
91	4.550000e+00	6.980896e-07	
92	4.600000e+00	6.919091e-07	
93	4.650000e+00	6.858868e-07	
94	4.700000e+00	6.800167e-07	
95	4.750000e+00	6.742932e-07	
96	4.800000e+00	6.687109e-07	
97	4.850000e+00	6.632646e-07	
98	4.900000e+00	6.579494e-07	
99	4.950000e+00	6.527608e-07	
100	5.000000e+00	6.476943e-07	
101	5.050000e+00	6.427457e-07	
102	5.100000e+00	6.379109e-07	
103	5.150000e+00	6.331860e-07	
104	5.200000e+00	6.285675e-07	
105	5.250000e+00	6.240518e-07	
106	5.300000e+00	6.196355e-07	
107	5.350000e+00	6.153154e-07	
108	5.400000e+00	6.110884e-07	
109	5.450000e+00	6.069516e-07	
110	5.500000e+00	6.029021e-07	
111	5.550000e+00	5.989373e-07	
112	5.600000e+00	5.950545e-07	

Index   v-sweep         rds             
--------------------------------------------------------------------------------
113	5.650000e+00	5.912513e-07	
114	5.700000e+00	5.875252e-07	
115	5.750000e+00	5.838740e-07	
116	5.800000e+00	5.802955e-07	
117	5.850000e+00	5.767874e-07	
118	5.900000e+00	5.733479e-07	
119	5.950000e+00	5.699749e-07	
120	6.000000e+00	5.666665e-07	
121	6.050000e+00	5.634210e-07	
122	6.100000e+00	5.602365e-07	
123	6.150000e+00	5.571114e-07	
124	6.200000e+00	5.540441e-07	
125	6.250000e+00	5.510330e-07	
126	6.300000e+00	5.480766e-07	
127	6.350000e+00	5.451734e-07	
128	6.400000e+00	5.423221e-07	
129	6.450000e+00	5.395212e-07	
130	6.500000e+00	5.367695e-07	
131	6.550000e+00	5.340657e-07	
132	6.600000e+00	5.314086e-07	
Reset re-loads circuit ***************************

Circuit: ***************************

Doing analysis at TEMP = 25.000000 and TNOM = 25.000000


No. of Data Rows : 133
                          ***************************
                          DC transfer characteristic  Mon Jan  9 13:58:37  2023
--------------------------------------------------------------------------------
Index   v-sweep         rds             
--------------------------------------------------------------------------------
0	0.000000e+00	2.214646e-04	
1	5.000000e-02	2.115350e-04	
2	1.000000e-01	2.018284e-04	
3	1.500000e-01	1.923390e-04	
4	2.000000e-01	1.830607e-04	
5	2.500000e-01	1.739877e-04	
6	3.000000e-01	1.651144e-04	
7	3.500000e-01	1.564354e-04	
8	4.000000e-01	1.479452e-04	
9	4.500000e-01	1.396386e-04	
10	5.000000e-01	1.315104e-04	
11	5.500000e-01	1.235556e-04	
12	6.000000e-01	1.157691e-04	
13	6.500000e-01	1.081458e-04	
14	7.000000e-01	1.006804e-04	
15	7.500000e-01	9.336698e-05	
16	8.000000e-01	8.619880e-05	
17	8.500000e-01	7.916745e-05	
18	9.000000e-01	7.226193e-05	
19	9.500000e-01	6.546719e-05	
20	1.000000e+00	5.876310e-05	
21	1.050000e+00	5.212689e-05	
22	1.100000e+00	4.554793e-05	
23	1.150000e+00	3.907045e-05	
24	1.200000e+00	3.285943e-05	
25	1.250000e+00	2.720858e-05	
26	1.300000e+00	2.240098e-05	
27	1.350000e+00	1.854054e-05	
28	1.400000e+00	1.554251e-05	
29	1.450000e+00	1.323687e-05	
30	1.500000e+00	1.145368e-05	
31	1.550000e+00	1.005600e-05	
32	1.600000e+00	8.942578e-06	
33	1.650000e+00	8.040858e-06	
34	1.700000e+00	7.299109e-06	
35	1.750000e+00	6.680189e-06	
36	1.800000e+00	6.157094e-06	
37	1.850000e+00	5.709893e-06	
38	1.900000e+00	5.323646e-06	
39	1.950000e+00	4.986990e-06	
40	2.000000e+00	4.691154e-06	
41	2.050000e+00	4.429278e-06	
42	2.100000e+00	4.195931e-06	
43	2.150000e+00	3.986762e-06	
44	2.200000e+00	3.798251e-06	
45	2.250000e+00	3.627518e-06	
46	2.300000e+00	3.472191e-06	
47	2.350000e+00	3.330297e-06	
48	2.400000e+00	3.200183e-06	
49	2.450000e+00	3.080452e-06	
50	2.500000e+00	2.969921e-06	
51	2.550000e+00	2.867576e-06	
52	2.600000e+00	2.772548e-06	
53	2.650000e+00	2.684083e-06	
54	2.700000e+00	2.601530e-06	

Index   v-sweep         rds             
--------------------------------------------------------------------------------
55	2.750000e+00	2.524318e-06	
56	2.800000e+00	2.451949e-06	
57	2.850000e+00	2.383983e-06	
58	2.900000e+00	2.320032e-06	
59	2.950000e+00	2.259753e-06	
60	3.000000e+00	2.202840e-06	
61	3.050000e+00	2.149020e-06	
62	3.100000e+00	2.098048e-06	
63	3.150000e+00	2.049705e-06	
64	3.200000e+00	2.003794e-06	
65	3.250000e+00	1.960137e-06	
66	3.300000e+00	1.918572e-06	
67	3.350000e+00	1.878953e-06	
68	3.400000e+00	1.841147e-06	
69	3.450000e+00	1.805032e-06	
70	3.500000e+00	1.770499e-06	
71	3.550000e+00	1.737446e-06	
72	3.600000e+00	1.705779e-06	
73	3.650000e+00	1.675415e-06	
74	3.700000e+00	1.646274e-06	
75	3.750000e+00	1.618284e-06	
76	3.800000e+00	1.591378e-06	
77	3.850000e+00	1.565496e-06	
78	3.900000e+00	1.540579e-06	
79	3.950000e+00	1.516576e-06	
80	4.000000e+00	1.493436e-06	
81	4.050000e+00	1.471114e-06	
82	4.100000e+00	1.449568e-06	
83	4.150000e+00	1.428758e-06	
84	4.200000e+00	1.408648e-06	
85	4.250000e+00	1.389202e-06	
86	4.300000e+00	1.370388e-06	
87	4.350000e+00	1.352176e-06	
88	4.400000e+00	1.334538e-06	
89	4.450000e+00	1.317447e-06	
90	4.500000e+00	1.300879e-06	
91	4.550000e+00	1.284809e-06	
92	4.600000e+00	1.269215e-06	
93	4.650000e+00	1.254078e-06	
94	4.700000e+00	1.239376e-06	
95	4.750000e+00	1.225093e-06	
96	4.800000e+00	1.211210e-06	
97	4.850000e+00	1.197710e-06	
98	4.900000e+00	1.184578e-06	
99	4.950000e+00	1.171800e-06	
100	5.000000e+00	1.159362e-06	
101	5.050000e+00	1.147249e-06	
102	5.100000e+00	1.135450e-06	
103	5.150000e+00	1.123952e-06	
104	5.200000e+00	1.112745e-06	
105	5.250000e+00	1.101818e-06	
106	5.300000e+00	1.091159e-06	
107	5.350000e+00	1.080760e-06	
108	5.400000e+00	1.070612e-06	
109	5.450000e+00	1.060704e-06	
110	5.500000e+00	1.051030e-06	
111	5.550000e+00	1.041581e-06	
112	5.600000e+00	1.032349e-06	

Index   v-sweep         rds             
--------------------------------------------------------------------------------
113	5.650000e+00	1.023326e-06	
114	5.700000e+00	1.014507e-06	
115	5.750000e+00	1.005884e-06	
116	5.800000e+00	9.974509e-07	
117	5.850000e+00	9.892014e-07	
118	5.900000e+00	9.811298e-07	
119	5.950000e+00	9.732304e-07	
120	6.000000e+00	9.654979e-07	
121	6.050000e+00	9.579272e-07	
122	6.100000e+00	9.505132e-07	
123	6.150000e+00	9.432512e-07	
124	6.200000e+00	9.361367e-07	
125	6.250000e+00	9.291654e-07	
126	6.300000e+00	9.223329e-07	
127	6.350000e+00	9.156353e-07	
128	6.400000e+00	9.090687e-07	
129	6.450000e+00	9.026294e-07	
130	6.500000e+00	8.963137e-07	
131	6.550000e+00	8.901183e-07	
132	6.600000e+00	8.840397e-07	
Reset re-loads circuit ***************************

Circuit: ***************************

Doing analysis at TEMP = 25.000000 and TNOM = 25.000000


No. of Data Rows : 133
                          ***************************
                          DC transfer characteristic  Mon Jan  9 13:58:38  2023
--------------------------------------------------------------------------------
Index   v-sweep         rds             
--------------------------------------------------------------------------------
0	0.000000e+00	2.852464e-04	
1	5.000000e-02	2.754051e-04	
2	1.000000e-01	2.657683e-04	
3	1.500000e-01	2.563311e-04	
4	2.000000e-01	2.470883e-04	
5	2.500000e-01	2.380351e-04	
6	3.000000e-01	2.291666e-04	
7	3.500000e-01	2.204783e-04	
8	4.000000e-01	2.119654e-04	
9	4.500000e-01	2.036236e-04	
10	5.000000e-01	1.954484e-04	
11	5.500000e-01	1.874355e-04	
12	6.000000e-01	1.795807e-04	
13	6.500000e-01	1.718799e-04	
14	7.000000e-01	1.643292e-04	
15	7.500000e-01	1.569246e-04	
16	8.000000e-01	1.496622e-04	
17	8.500000e-01	1.425381e-04	
18	9.000000e-01	1.355483e-04	
19	9.500000e-01	1.286887e-04	
20	1.000000e+00	1.219547e-04	
21	1.050000e+00	1.153414e-04	
22	1.100000e+00	1.088428e-04	
23	1.150000e+00	1.024514e-04	
24	1.200000e+00	9.615776e-05	
25	1.250000e+00	8.994856e-05	
26	1.300000e+00	8.380521e-05	
27	1.350000e+00	7.770107e-05	
28	1.400000e+00	7.159867e-05	
29	1.450000e+00	6.544895e-05	
30	1.500000e+00	5.919914e-05	
31	1.550000e+00	5.282165e-05	
32	1.600000e+00	4.637149e-05	
33	1.650000e+00	4.004185e-05	
34	1.700000e+00	3.413728e-05	
35	1.750000e+00	2.893945e-05	
36	1.800000e+00	2.458217e-05	
37	1.850000e+00	2.104130e-05	
38	1.900000e+00	1.820301e-05	
39	1.950000e+00	1.593047e-05	
40	2.000000e+00	1.409933e-05	
41	2.050000e+00	1.260884e-05	
42	2.100000e+00	1.138145e-05	
43	2.150000e+00	1.035868e-05	
44	2.200000e+00	9.496651e-06	
45	2.250000e+00	8.762329e-06	
46	2.300000e+00	8.130630e-06	
47	2.350000e+00	7.582326e-06	
48	2.400000e+00	7.102517e-06	
49	2.450000e+00	6.679532e-06	
50	2.500000e+00	6.304125e-06	
51	2.550000e+00	5.968900e-06	
52	2.600000e+00	5.667881e-06	
53	2.650000e+00	5.396197e-06	
54	2.700000e+00	5.149840e-06	

Index   v-sweep         rds             
--------------------------------------------------------------------------------
55	2.750000e+00	4.925488e-06	
56	2.800000e+00	4.720367e-06	
57	2.850000e+00	4.532141e-06	
58	2.900000e+00	4.358835e-06	
59	2.950000e+00	4.198766e-06	
60	3.000000e+00	4.050491e-06	
61	3.050000e+00	3.912767e-06	
62	3.100000e+00	3.784519e-06	
63	3.150000e+00	3.664811e-06	
64	3.200000e+00	3.552825e-06	
65	3.250000e+00	3.447845e-06	
66	3.300000e+00	3.349238e-06	
67	3.350000e+00	3.256445e-06	
68	3.400000e+00	3.168972e-06	
69	3.450000e+00	3.086376e-06	
70	3.500000e+00	3.008264e-06	
71	3.550000e+00	2.934283e-06	
72	3.600000e+00	2.864115e-06	
73	3.650000e+00	2.797475e-06	
74	3.700000e+00	2.734104e-06	
75	3.750000e+00	2.673770e-06	
76	3.800000e+00	2.616261e-06	
77	3.850000e+00	2.561383e-06	
78	3.900000e+00	2.508961e-06	
79	3.950000e+00	2.458834e-06	
80	4.000000e+00	2.410857e-06	
81	4.050000e+00	2.364893e-06	
82	4.100000e+00	2.320820e-06	
83	4.150000e+00	2.278523e-06	
84	4.200000e+00	2.237898e-06	
85	4.250000e+00	2.198849e-06	
86	4.300000e+00	2.161285e-06	
87	4.350000e+00	2.125123e-06	
88	4.400000e+00	2.090288e-06	
89	4.450000e+00	2.056707e-06	
90	4.500000e+00	2.024315e-06	
91	4.550000e+00	1.993049e-06	
92	4.600000e+00	1.962853e-06	
93	4.650000e+00	1.933671e-06	
94	4.700000e+00	1.905455e-06	
95	4.750000e+00	1.878158e-06	
96	4.800000e+00	1.851735e-06	
97	4.850000e+00	1.826145e-06	
98	4.900000e+00	1.801350e-06	
99	4.950000e+00	1.777313e-06	
100	5.000000e+00	1.754000e-06	
101	5.050000e+00	1.731380e-06	
102	5.100000e+00	1.709422e-06	
103	5.150000e+00	1.688098e-06	
104	5.200000e+00	1.667380e-06	
105	5.250000e+00	1.647244e-06	
106	5.300000e+00	1.627665e-06	
107	5.350000e+00	1.608620e-06	
108	5.400000e+00	1.590089e-06	
109	5.450000e+00	1.572052e-06	
110	5.500000e+00	1.554487e-06	
111	5.550000e+00	1.537379e-06	
112	5.600000e+00	1.520708e-06	

Index   v-sweep         rds             
--------------------------------------------------------------------------------
113	5.650000e+00	1.504460e-06	
114	5.700000e+00	1.488617e-06	
115	5.750000e+00	1.473166e-06	
116	5.800000e+00	1.458092e-06	
117	5.850000e+00	1.443381e-06	
118	5.900000e+00	1.429021e-06	
119	5.950000e+00	1.415000e-06	
120	6.000000e+00	1.401306e-06	
121	6.050000e+00	1.387928e-06	
122	6.100000e+00	1.374855e-06	
123	6.150000e+00	1.362077e-06	
124	6.200000e+00	1.349584e-06	
125	6.250000e+00	1.337367e-06	
126	6.300000e+00	1.325418e-06	
127	6.350000e+00	1.313727e-06	
128	6.400000e+00	1.302287e-06	
129	6.450000e+00	1.291089e-06	
130	6.500000e+00	1.280127e-06	
131	6.550000e+00	1.269393e-06	
132	6.600000e+00	1.258880e-06	
Reset re-loads circuit ***************************

Circuit: ***************************

Doing analysis at TEMP = 25.000000 and TNOM = 25.000000


No. of Data Rows : 133
                          ***************************
                          DC transfer characteristic  Mon Jan  9 13:58:38  2023
--------------------------------------------------------------------------------
Index   v-sweep         rds             
--------------------------------------------------------------------------------
0	0.000000e+00	3.290178e-04	
1	5.000000e-02	3.196920e-04	
2	1.000000e-01	3.105415e-04	
3	1.500000e-01	3.015625e-04	
4	2.000000e-01	2.927511e-04	
5	2.500000e-01	2.841034e-04	
6	3.000000e-01	2.756158e-04	
7	3.500000e-01	2.672846e-04	
8	4.000000e-01	2.591062e-04	
9	4.500000e-01	2.510772e-04	
10	5.000000e-01	2.431940e-04	
11	5.500000e-01	2.354534e-04	
12	6.000000e-01	2.278519e-04	
13	6.500000e-01	2.203863e-04	
14	7.000000e-01	2.130535e-04	
15	7.500000e-01	2.058505e-04	
16	8.000000e-01	1.987741e-04	
17	8.500000e-01	1.918215e-04	
18	9.000000e-01	1.849898e-04	
19	9.500000e-01	1.782762e-04	
20	1.000000e+00	1.716779e-04	
21	1.050000e+00	1.651922e-04	
22	1.100000e+00	1.588164e-04	
23	1.150000e+00	1.525477e-04	
24	1.200000e+00	1.463833e-04	
25	1.250000e+00	1.403201e-04	
26	1.300000e+00	1.343549e-04	
27	1.350000e+00	1.284839e-04	
28	1.400000e+00	1.227029e-04	
29	1.450000e+00	1.170067e-04	
30	1.500000e+00	1.113887e-04	
31	1.550000e+00	1.058403e-04	
32	1.600000e+00	1.003498e-04	
33	1.650000e+00	9.490107e-05	
34	1.700000e+00	8.947150e-05	
35	1.750000e+00	8.402921e-05	
36	1.800000e+00	7.853061e-05	
37	1.850000e+00	7.291981e-05	
38	1.900000e+00	6.713527e-05	
39	1.950000e+00	6.113221e-05	
40	2.000000e+00	5.492662e-05	
41	2.050000e+00	4.864505e-05	
42	2.100000e+00	4.253057e-05	
43	2.150000e+00	3.686728e-05	
44	2.200000e+00	3.186825e-05	
45	2.250000e+00	2.761617e-05	
46	2.300000e+00	2.408129e-05	
47	2.350000e+00	2.117297e-05	
48	2.400000e+00	1.878350e-05	
49	2.450000e+00	1.681207e-05	
50	2.500000e+00	1.517361e-05	
51	2.550000e+00	1.379990e-05	
52	2.600000e+00	1.263749e-05	
53	2.650000e+00	1.164483e-05	
54	2.700000e+00	1.078970e-05	

Index   v-sweep         rds             
--------------------------------------------------------------------------------
55	2.750000e+00	1.004698e-05	
56	2.800000e+00	9.396945e-06	
57	2.850000e+00	8.824018e-06	
58	2.900000e+00	8.315774e-06	
59	2.950000e+00	7.862219e-06	
60	3.000000e+00	7.455252e-06	
61	3.050000e+00	7.088246e-06	
62	3.100000e+00	6.755741e-06	
63	3.150000e+00	6.453205e-06	
64	3.200000e+00	6.176849e-06	
65	3.250000e+00	5.923482e-06	
66	3.300000e+00	5.690404e-06	
67	3.350000e+00	5.475313e-06	
68	3.400000e+00	5.276238e-06	
69	3.450000e+00	5.091480e-06	
70	3.500000e+00	4.919571e-06	
71	3.550000e+00	4.759233e-06	
72	3.600000e+00	4.609350e-06	
73	3.650000e+00	4.468943e-06	
74	3.700000e+00	4.337152e-06	
75	3.750000e+00	4.213216e-06	
76	3.800000e+00	4.096459e-06	
77	3.850000e+00	3.986281e-06	
78	3.900000e+00	3.882146e-06	
79	3.950000e+00	3.783575e-06	
80	4.000000e+00	3.690137e-06	
81	4.050000e+00	3.601445e-06	
82	4.100000e+00	3.517148e-06	
83	4.150000e+00	3.436930e-06	
84	4.200000e+00	3.360504e-06	
85	4.250000e+00	3.287610e-06	
86	4.300000e+00	3.218009e-06	
87	4.350000e+00	3.151484e-06	
88	4.400000e+00	3.087838e-06	
89	4.450000e+00	3.026889e-06	
90	4.500000e+00	2.968469e-06	
91	4.550000e+00	2.912425e-06	
92	4.600000e+00	2.858617e-06	
93	4.650000e+00	2.806913e-06	
94	4.700000e+00	2.757193e-06	
95	4.750000e+00	2.709346e-06	
96	4.800000e+00	2.663269e-06	
97	4.850000e+00	2.618865e-06	
98	4.900000e+00	2.576045e-06	
99	4.950000e+00	2.534727e-06	
100	5.000000e+00	2.494833e-06	
101	5.050000e+00	2.456291e-06	
102	5.100000e+00	2.419035e-06	
103	5.150000e+00	2.383001e-06	
104	5.200000e+00	2.348130e-06	
105	5.250000e+00	2.314368e-06	
106	5.300000e+00	2.281662e-06	
107	5.350000e+00	2.249964e-06	
108	5.400000e+00	2.219228e-06	
109	5.450000e+00	2.189412e-06	
110	5.500000e+00	2.160476e-06	
111	5.550000e+00	2.132380e-06	
112	5.600000e+00	2.105090e-06	

Index   v-sweep         rds             
--------------------------------------------------------------------------------
113	5.650000e+00	2.078571e-06	
114	5.700000e+00	2.052792e-06	
115	5.750000e+00	2.027722e-06	
116	5.800000e+00	2.003333e-06	
117	5.850000e+00	1.979598e-06	
118	5.900000e+00	1.956490e-06	
119	5.950000e+00	1.933986e-06	
120	6.000000e+00	1.912063e-06	
121	6.050000e+00	1.890699e-06	
122	6.100000e+00	1.869873e-06	
123	6.150000e+00	1.849565e-06	
124	6.200000e+00	1.829756e-06	
125	6.250000e+00	1.810429e-06	
126	6.300000e+00	1.791566e-06	
127	6.350000e+00	1.773152e-06	
128	6.400000e+00	1.755171e-06	
129	6.450000e+00	1.737607e-06	
130	6.500000e+00	1.720447e-06	
131	6.550000e+00	1.703678e-06	
132	6.600000e+00	1.687287e-06	
Reset re-loads circuit ***************************

Circuit: ***************************

Doing analysis at TEMP = 25.000000 and TNOM = 25.000000


No. of Data Rows : 133
                          ***************************
                          DC transfer characteristic  Mon Jan  9 13:58:38  2023
--------------------------------------------------------------------------------
Index   v-sweep         rds             
--------------------------------------------------------------------------------
0	0.000000e+00	3.577967e-04	
1	5.000000e-02	3.492078e-04	
2	1.000000e-01	3.407636e-04	
3	1.500000e-01	3.324613e-04	
4	2.000000e-01	3.242979e-04	
5	2.500000e-01	3.162708e-04	
6	3.000000e-01	3.083771e-04	
7	3.500000e-01	3.006141e-04	
8	4.000000e-01	2.929792e-04	
9	4.500000e-01	2.854697e-04	
10	5.000000e-01	2.780831e-04	
11	5.500000e-01	2.708169e-04	
12	6.000000e-01	2.636685e-04	
13	6.500000e-01	2.566355e-04	
14	7.000000e-01	2.497154e-04	
15	7.500000e-01	2.429060e-04	
16	8.000000e-01	2.362049e-04	
17	8.500000e-01	2.296100e-04	
18	9.000000e-01	2.231188e-04	
19	9.500000e-01	2.167295e-04	
20	1.000000e+00	2.104398e-04	
21	1.050000e+00	2.042477e-04	
22	1.100000e+00	1.981512e-04	
23	1.150000e+00	1.921485e-04	
24	1.200000e+00	1.862375e-04	
25	1.250000e+00	1.804165e-04	
26	1.300000e+00	1.746836e-04	
27	1.350000e+00	1.690369e-04	
28	1.400000e+00	1.634745e-04	
29	1.450000e+00	1.579947e-04	
30	1.500000e+00	1.525954e-04	
31	1.550000e+00	1.472745e-04	
32	1.600000e+00	1.420299e-04	
33	1.650000e+00	1.368591e-04	
34	1.700000e+00	1.317592e-04	
35	1.750000e+00	1.267269e-04	
36	1.800000e+00	1.217581e-04	
37	1.850000e+00	1.168479e-04	
38	1.900000e+00	1.119896e-04	
39	1.950000e+00	1.071745e-04	
40	2.000000e+00	1.023910e-04	
41	2.050000e+00	9.762287e-05	
42	2.100000e+00	9.284805e-05	
43	2.150000e+00	8.803604e-05	
44	2.200000e+00	8.314597e-05	
45	2.250000e+00	7.812590e-05	
46	2.300000e+00	7.291682e-05	
47	2.350000e+00	6.746680e-05	
48	2.400000e+00	6.176013e-05	
49	2.450000e+00	5.585651e-05	
50	2.500000e+00	4.991493e-05	
51	2.550000e+00	4.416847e-05	
52	2.600000e+00	3.885010e-05	
53	2.650000e+00	3.411875e-05	
54	2.700000e+00	3.003251e-05	

Index   v-sweep         rds             
--------------------------------------------------------------------------------
55	2.750000e+00	2.656821e-05	
56	2.800000e+00	2.365748e-05	
57	2.850000e+00	2.121681e-05	
58	2.900000e+00	1.916511e-05	
59	2.950000e+00	1.743129e-05	
60	3.000000e+00	1.595625e-05	
61	3.050000e+00	1.469214e-05	
62	3.100000e+00	1.360068e-05	
63	3.150000e+00	1.265140e-05	
64	3.200000e+00	1.181999e-05	
65	3.250000e+00	1.108702e-05	
66	3.300000e+00	1.043685e-05	
67	3.350000e+00	9.856816e-06	
68	3.400000e+00	9.336596e-06	
69	3.450000e+00	8.867725e-06	
70	3.500000e+00	8.443202e-06	
71	3.550000e+00	8.057206e-06	
72	3.600000e+00	7.704861e-06	
73	3.650000e+00	7.382061e-06	
74	3.700000e+00	7.085324e-06	
75	3.750000e+00	6.811683e-06	
76	3.800000e+00	6.558596e-06	
77	3.850000e+00	6.323875e-06	
78	3.900000e+00	6.105624e-06	
79	3.950000e+00	5.902197e-06	
80	4.000000e+00	5.712156e-06	
81	4.050000e+00	5.534241e-06	
82	4.100000e+00	5.367342e-06	
83	4.150000e+00	5.210481e-06	
84	4.200000e+00	5.062789e-06	
85	4.250000e+00	4.923494e-06	
86	4.300000e+00	4.791908e-06	
87	4.350000e+00	4.667415e-06	
88	4.400000e+00	4.549461e-06	
89	4.450000e+00	4.437550e-06	
90	4.500000e+00	4.331234e-06	
91	4.550000e+00	4.230106e-06	
92	4.600000e+00	4.133799e-06	
93	4.650000e+00	4.041979e-06	
94	4.700000e+00	3.954341e-06	
95	4.750000e+00	3.870610e-06	
96	4.800000e+00	3.790530e-06	
97	4.850000e+00	3.713871e-06	
98	4.900000e+00	3.640418e-06	
99	4.950000e+00	3.569976e-06	
100	5.000000e+00	3.502365e-06	
101	5.050000e+00	3.437419e-06	
102	5.100000e+00	3.374984e-06	
103	5.150000e+00	3.314917e-06	
104	5.200000e+00	3.257089e-06	
105	5.250000e+00	3.201376e-06	
106	5.300000e+00	3.147665e-06	
107	5.350000e+00	3.095851e-06	
108	5.400000e+00	3.045836e-06	
109	5.450000e+00	2.997528e-06	
110	5.500000e+00	2.950842e-06	
111	5.550000e+00	2.905698e-06	
112	5.600000e+00	2.862021e-06	

Index   v-sweep         rds             
--------------------------------------------------------------------------------
113	5.650000e+00	2.819742e-06	
114	5.700000e+00	2.778794e-06	
115	5.750000e+00	2.739117e-06	
116	5.800000e+00	2.700653e-06	
117	5.850000e+00	2.663347e-06	
118	5.900000e+00	2.627148e-06	
119	5.950000e+00	2.592008e-06	
120	6.000000e+00	2.557882e-06	
121	6.050000e+00	2.524726e-06	
122	6.100000e+00	2.492502e-06	
123	6.150000e+00	2.461169e-06	
124	6.200000e+00	2.430693e-06	
125	6.250000e+00	2.401039e-06	
126	6.300000e+00	2.372174e-06	
127	6.350000e+00	2.344069e-06	
128	6.400000e+00	2.316693e-06	
129	6.450000e+00	2.290020e-06	
130	6.500000e+00	2.264023e-06	
131	6.550000e+00	2.238677e-06	
132	6.600000e+00	2.213958e-06	
Reset re-loads circuit ***************************

Circuit: ***************************

Note: No ".plot", ".print", or ".fourier" lines; no simulations run
