
Note: Compatibility modes selected: hs

Warning: m=xx on .subckt line will override multiplier m hierarchy!


Circuit: ***************************

Doing analysis at TEMP = -40.000000 and TNOM = -40.000000


No. of Data Rows : 133
                          ***************************
                          DC transfer characteristic  Mon Jan  9 13:58:39  2023
--------------------------------------------------------------------------------
Index   v-sweep         rds             
--------------------------------------------------------------------------------
0	0.000000e+00	1.389658e-05	
1	5.000000e-02	1.046309e-05	
2	1.000000e-01	7.163635e-06	
3	1.500000e-01	4.170687e-06	
4	2.000000e-01	1.996981e-06	
5	2.500000e-01	9.848287e-07	
6	3.000000e-01	6.118903e-07	
7	3.500000e-01	4.497915e-07	
8	4.000000e-01	3.616649e-07	
9	4.500000e-01	3.059417e-07	
10	5.000000e-01	2.672215e-07	
11	5.500000e-01	2.386019e-07	
12	6.000000e-01	2.165164e-07	
13	6.500000e-01	1.989231e-07	
14	7.000000e-01	1.845615e-07	
15	7.500000e-01	1.726077e-07	
16	8.000000e-01	1.624988e-07	
17	8.500000e-01	1.538360e-07	
18	9.000000e-01	1.463286e-07	
19	9.500000e-01	1.397594e-07	
20	1.000000e+00	1.339627e-07	
21	1.050000e+00	1.288099e-07	
22	1.100000e+00	1.241994e-07	
23	1.150000e+00	1.200501e-07	
24	1.200000e+00	1.162962e-07	
25	1.250000e+00	1.128840e-07	
26	1.300000e+00	1.097690e-07	
27	1.350000e+00	1.069142e-07	
28	1.400000e+00	1.042885e-07	
29	1.450000e+00	1.018656e-07	
30	1.500000e+00	9.962286e-08	
31	1.550000e+00	9.754118e-08	
32	1.600000e+00	9.560389e-08	
33	1.650000e+00	9.379661e-08	
34	1.700000e+00	9.210676e-08	
35	1.750000e+00	9.052338e-08	
36	1.800000e+00	8.903679e-08	
37	1.850000e+00	8.763847e-08	
38	1.900000e+00	8.632086e-08	
39	1.950000e+00	8.507725e-08	
40	2.000000e+00	8.390163e-08	
41	2.050000e+00	8.278865e-08	
42	2.100000e+00	8.173349e-08	
43	2.150000e+00	8.073180e-08	
44	2.200000e+00	7.977968e-08	
45	2.250000e+00	7.887359e-08	
46	2.300000e+00	7.801030e-08	
47	2.350000e+00	7.718691e-08	
48	2.400000e+00	7.640073e-08	
49	2.450000e+00	7.564936e-08	
50	2.500000e+00	7.493055e-08	
51	2.550000e+00	7.424226e-08	
52	2.600000e+00	7.358263e-08	
53	2.650000e+00	7.294994e-08	
54	2.700000e+00	7.234258e-08	

Index   v-sweep         rds             
--------------------------------------------------------------------------------
55	2.750000e+00	7.175910e-08	
56	2.800000e+00	7.119814e-08	
57	2.850000e+00	7.065844e-08	
58	2.900000e+00	7.013884e-08	
59	2.950000e+00	6.963825e-08	
60	3.000000e+00	6.915568e-08	
61	3.050000e+00	6.869018e-08	
62	3.100000e+00	6.824089e-08	
63	3.150000e+00	6.780698e-08	
64	3.200000e+00	6.738770e-08	
65	3.250000e+00	6.698234e-08	
66	3.300000e+00	6.659022e-08	
67	3.350000e+00	6.621073e-08	
68	3.400000e+00	6.584328e-08	
69	3.450000e+00	6.548731e-08	
70	3.500000e+00	6.514231e-08	
71	3.550000e+00	6.480779e-08	
72	3.600000e+00	6.448330e-08	
73	3.650000e+00	6.416839e-08	
74	3.700000e+00	6.386266e-08	
75	3.750000e+00	6.356573e-08	
76	3.800000e+00	6.327723e-08	
77	3.850000e+00	6.299681e-08	
78	3.900000e+00	6.272416e-08	
79	3.950000e+00	6.245895e-08	
80	4.000000e+00	6.220090e-08	
81	4.050000e+00	6.194973e-08	
82	4.100000e+00	6.170518e-08	
83	4.150000e+00	6.146699e-08	
84	4.200000e+00	6.123493e-08	
85	4.250000e+00	6.100876e-08	
86	4.300000e+00	6.078829e-08	
87	4.350000e+00	6.057329e-08	
88	4.400000e+00	6.036357e-08	
89	4.450000e+00	6.015895e-08	
90	4.500000e+00	5.995926e-08	
91	4.550000e+00	5.976431e-08	
92	4.600000e+00	5.957395e-08	
93	4.650000e+00	5.938802e-08	
94	4.700000e+00	5.920638e-08	
95	4.750000e+00	5.902888e-08	
96	4.800000e+00	5.885539e-08	
97	4.850000e+00	5.868577e-08	
98	4.900000e+00	5.851991e-08	
99	4.950000e+00	5.835769e-08	
100	5.000000e+00	5.819899e-08	
101	5.050000e+00	5.804370e-08	
102	5.100000e+00	5.789171e-08	
103	5.150000e+00	5.774294e-08	
104	5.200000e+00	5.759727e-08	
105	5.250000e+00	5.745462e-08	
106	5.300000e+00	5.731490e-08	
107	5.350000e+00	5.717802e-08	
108	5.400000e+00	5.704390e-08	
109	5.450000e+00	5.691246e-08	
110	5.500000e+00	5.678362e-08	
111	5.550000e+00	5.665731e-08	
112	5.600000e+00	5.653347e-08	

Index   v-sweep         rds             
--------------------------------------------------------------------------------
113	5.650000e+00	5.641201e-08	
114	5.700000e+00	5.629288e-08	
115	5.750000e+00	5.617601e-08	
116	5.800000e+00	5.606135e-08	
117	5.850000e+00	5.594882e-08	
118	5.900000e+00	5.583838e-08	
119	5.950000e+00	5.572997e-08	
120	6.000000e+00	5.562354e-08	
121	6.050000e+00	5.551903e-08	
122	6.100000e+00	5.541641e-08	
123	6.150000e+00	5.531561e-08	
124	6.200000e+00	5.521659e-08	
125	6.250000e+00	5.511931e-08	
126	6.300000e+00	5.502372e-08	
127	6.350000e+00	5.492979e-08	
128	6.400000e+00	5.483747e-08	
129	6.450000e+00	5.474673e-08	
130	6.500000e+00	5.465751e-08	
131	6.550000e+00	5.456980e-08	
132	6.600000e+00	5.448355e-08	
Reset re-loads circuit ***************************

Circuit: ***************************

Doing analysis at TEMP = -40.000000 and TNOM = -40.000000


No. of Data Rows : 133
                          ***************************
                          DC transfer characteristic  Mon Jan  9 13:58:39  2023
--------------------------------------------------------------------------------
Index   v-sweep         rds             
--------------------------------------------------------------------------------
0	0.000000e+00	5.676495e-05	
1	5.000000e-02	5.288536e-05	
2	1.000000e-01	4.910012e-05	
3	1.500000e-01	4.540644e-05	
4	2.000000e-01	4.180162e-05	
5	2.500000e-01	3.828302e-05	
6	3.000000e-01	3.484810e-05	
7	3.500000e-01	3.149444e-05	
8	4.000000e-01	2.821979e-05	
9	4.500000e-01	2.502206e-05	
10	5.000000e-01	2.189957e-05	
11	5.500000e-01	1.885189e-05	
12	6.000000e-01	1.588355e-05	
13	6.500000e-01	1.301641e-05	
14	7.000000e-01	1.032060e-05	
15	7.500000e-01	7.943447e-06	
16	8.000000e-01	6.045193e-06	
17	8.500000e-01	4.660914e-06	
18	9.000000e-01	3.694381e-06	
19	9.500000e-01	3.018902e-06	
20	1.000000e+00	2.535478e-06	
21	1.050000e+00	2.178748e-06	
22	1.100000e+00	1.907478e-06	
23	1.150000e+00	1.695562e-06	
24	1.200000e+00	1.526104e-06	
25	1.250000e+00	1.387860e-06	
26	1.300000e+00	1.273133e-06	
27	1.350000e+00	1.176508e-06	
28	1.400000e+00	1.094086e-06	
29	1.450000e+00	1.022996e-06	
30	1.500000e+00	9.610814e-07	
31	1.550000e+00	9.066936e-07	
32	1.600000e+00	8.585528e-07	
33	1.650000e+00	8.156511e-07	
34	1.700000e+00	7.771847e-07	
35	1.750000e+00	7.425049e-07	
36	1.800000e+00	7.110829e-07	
37	1.850000e+00	6.824833e-07	
38	1.900000e+00	6.563445e-07	
39	1.950000e+00	6.323639e-07	
40	2.000000e+00	6.102863e-07	
41	2.050000e+00	5.898950e-07	
42	2.100000e+00	5.710049e-07	
43	2.150000e+00	5.534569e-07	
44	2.200000e+00	5.371136e-07	
45	2.250000e+00	5.218555e-07	
46	2.300000e+00	5.075786e-07	
47	2.350000e+00	4.941914e-07	
48	2.400000e+00	4.816138e-07	
49	2.450000e+00	4.697748e-07	
50	2.500000e+00	4.586113e-07	
51	2.550000e+00	4.480674e-07	
52	2.600000e+00	4.380931e-07	
53	2.650000e+00	4.286436e-07	
54	2.700000e+00	4.196788e-07	

Index   v-sweep         rds             
--------------------------------------------------------------------------------
55	2.750000e+00	4.111624e-07	
56	2.800000e+00	4.030616e-07	
57	2.850000e+00	3.953470e-07	
58	2.900000e+00	3.879916e-07	
59	2.950000e+00	3.809711e-07	
60	3.000000e+00	3.742630e-07	
61	3.050000e+00	3.678472e-07	
62	3.100000e+00	3.617050e-07	
63	3.150000e+00	3.558192e-07	
64	3.200000e+00	3.501743e-07	
65	3.250000e+00	3.447558e-07	
66	3.300000e+00	3.395504e-07	
67	3.350000e+00	3.345457e-07	
68	3.400000e+00	3.297306e-07	
69	3.450000e+00	3.250943e-07	
70	3.500000e+00	3.206273e-07	
71	3.550000e+00	3.163203e-07	
72	3.600000e+00	3.121651e-07	
73	3.650000e+00	3.081537e-07	
74	3.700000e+00	3.042788e-07	
75	3.750000e+00	3.005337e-07	
76	3.800000e+00	2.969118e-07	
77	3.850000e+00	2.934074e-07	
78	3.900000e+00	2.900147e-07	
79	3.950000e+00	2.867285e-07	
80	4.000000e+00	2.835439e-07	
81	4.050000e+00	2.804563e-07	
82	4.100000e+00	2.774614e-07	
83	4.150000e+00	2.745550e-07	
84	4.200000e+00	2.717334e-07	
85	4.250000e+00	2.689927e-07	
86	4.300000e+00	2.663298e-07	
87	4.350000e+00	2.637412e-07	
88	4.400000e+00	2.612240e-07	
89	4.450000e+00	2.587753e-07	
90	4.500000e+00	2.563922e-07	
91	4.550000e+00	2.540723e-07	
92	4.600000e+00	2.518130e-07	
93	4.650000e+00	2.496121e-07	
94	4.700000e+00	2.474672e-07	
95	4.750000e+00	2.453764e-07	
96	4.800000e+00	2.433376e-07	
97	4.850000e+00	2.413488e-07	
98	4.900000e+00	2.394084e-07	
99	4.950000e+00	2.375145e-07	
100	5.000000e+00	2.356655e-07	
101	5.050000e+00	2.338599e-07	
102	5.100000e+00	2.320961e-07	
103	5.150000e+00	2.303728e-07	
104	5.200000e+00	2.286885e-07	
105	5.250000e+00	2.270420e-07	
106	5.300000e+00	2.254320e-07	
107	5.350000e+00	2.238573e-07	
108	5.400000e+00	2.223168e-07	
109	5.450000e+00	2.208094e-07	
110	5.500000e+00	2.193341e-07	
111	5.550000e+00	2.178898e-07	
112	5.600000e+00	2.164756e-07	

Index   v-sweep         rds             
--------------------------------------------------------------------------------
113	5.650000e+00	2.150906e-07	
114	5.700000e+00	2.137338e-07	
115	5.750000e+00	2.124045e-07	
116	5.800000e+00	2.111018e-07	
117	5.850000e+00	2.098250e-07	
118	5.900000e+00	2.085732e-07	
119	5.950000e+00	2.073458e-07	
120	6.000000e+00	2.061421e-07	
121	6.050000e+00	2.049614e-07	
122	6.100000e+00	2.038030e-07	
123	6.150000e+00	2.026664e-07	
124	6.200000e+00	2.015508e-07	
125	6.250000e+00	2.004559e-07	
126	6.300000e+00	1.993810e-07	
127	6.350000e+00	1.983255e-07	
128	6.400000e+00	1.972890e-07	
129	6.450000e+00	1.962709e-07	
130	6.500000e+00	1.952708e-07	
131	6.550000e+00	1.942882e-07	
132	6.600000e+00	1.933227e-07	
Reset re-loads circuit ***************************

Circuit: ***************************

Doing analysis at TEMP = -40.000000 and TNOM = -40.000000


No. of Data Rows : 133
                          ***************************
                          DC transfer characteristic  Mon Jan  9 13:58:39  2023
--------------------------------------------------------------------------------
Index   v-sweep         rds             
--------------------------------------------------------------------------------
0	0.000000e+00	8.807075e-05	
1	5.000000e-02	8.403584e-05	
2	1.000000e-01	8.009801e-05	
3	1.500000e-01	7.625440e-05	
4	2.000000e-01	7.250215e-05	
5	2.500000e-01	6.883845e-05	
6	3.000000e-01	6.526048e-05	
7	3.500000e-01	6.176548e-05	
8	4.000000e-01	5.835071e-05	
9	4.500000e-01	5.501352e-05	
10	5.000000e-01	5.175129e-05	
11	5.500000e-01	4.856147e-05	
12	6.000000e-01	4.544145e-05	
13	6.500000e-01	4.238852e-05	
14	7.000000e-01	3.939959e-05	
15	7.500000e-01	3.647095e-05	
16	8.000000e-01	3.359765e-05	
17	8.500000e-01	3.077272e-05	
18	9.000000e-01	2.798581e-05	
19	9.500000e-01	2.522170e-05	
20	1.000000e+00	2.245978e-05	
21	1.050000e+00	1.967935e-05	
22	1.100000e+00	1.688102e-05	
23	1.150000e+00	1.412802e-05	
24	1.200000e+00	1.156745e-05	
25	1.250000e+00	9.365109e-06	
26	1.300000e+00	7.600963e-06	
27	1.350000e+00	6.247883e-06	
28	1.400000e+00	5.225501e-06	
29	1.450000e+00	4.449835e-06	
30	1.500000e+00	3.853161e-06	
31	1.550000e+00	3.386050e-06	
32	1.600000e+00	3.013681e-06	
33	1.650000e+00	2.711683e-06	
34	1.700000e+00	2.462865e-06	
35	1.750000e+00	2.254936e-06	
36	1.800000e+00	2.078967e-06	
37	1.850000e+00	1.928359e-06	
38	1.900000e+00	1.798160e-06	
39	1.950000e+00	1.684593e-06	
40	2.000000e+00	1.584737e-06	
41	2.050000e+00	1.496304e-06	
42	2.100000e+00	1.417477e-06	
43	2.150000e+00	1.346799e-06	
44	2.200000e+00	1.283089e-06	
45	2.250000e+00	1.225381e-06	
46	2.300000e+00	1.172875e-06	
47	2.350000e+00	1.124909e-06	
48	2.400000e+00	1.080925e-06	
49	2.450000e+00	1.040453e-06	
50	2.500000e+00	1.003091e-06	
51	2.550000e+00	9.684995e-07	
52	2.600000e+00	9.363832e-07	
53	2.650000e+00	9.064881e-07	
54	2.700000e+00	8.785935e-07	

Index   v-sweep         rds             
--------------------------------------------------------------------------------
55	2.750000e+00	8.525066e-07	
56	2.800000e+00	8.280587e-07	
57	2.850000e+00	8.051010e-07	
58	2.900000e+00	7.835023e-07	
59	2.950000e+00	7.631462e-07	
60	3.000000e+00	7.439292e-07	
61	3.050000e+00	7.257587e-07	
62	3.100000e+00	7.085522e-07	
63	3.150000e+00	6.922353e-07	
64	3.200000e+00	6.767412e-07	
65	3.250000e+00	6.620095e-07	
66	3.300000e+00	6.479855e-07	
67	3.350000e+00	6.346197e-07	
68	3.400000e+00	6.218670e-07	
69	3.450000e+00	6.096865e-07	
70	3.500000e+00	5.980407e-07	
71	3.550000e+00	5.868951e-07	
72	3.600000e+00	5.762185e-07	
73	3.650000e+00	5.659820e-07	
74	3.700000e+00	5.561590e-07	
75	3.750000e+00	5.467251e-07	
76	3.800000e+00	5.376577e-07	
77	3.850000e+00	5.289359e-07	
78	3.900000e+00	5.205404e-07	
79	3.950000e+00	5.124534e-07	
80	4.000000e+00	5.046582e-07	
81	4.050000e+00	4.971393e-07	
82	4.100000e+00	4.898824e-07	
83	4.150000e+00	4.828740e-07	
84	4.200000e+00	4.761018e-07	
85	4.250000e+00	4.695539e-07	
86	4.300000e+00	4.632195e-07	
87	4.350000e+00	4.570883e-07	
88	4.400000e+00	4.511507e-07	
89	4.450000e+00	4.453978e-07	
90	4.500000e+00	4.398211e-07	
91	4.550000e+00	4.344127e-07	
92	4.600000e+00	4.291652e-07	
93	4.650000e+00	4.240713e-07	
94	4.700000e+00	4.191247e-07	
95	4.750000e+00	4.143189e-07	
96	4.800000e+00	4.096482e-07	
97	4.850000e+00	4.051068e-07	
98	4.900000e+00	4.006896e-07	
99	4.950000e+00	3.963916e-07	
100	5.000000e+00	3.922079e-07	
101	5.050000e+00	3.881343e-07	
102	5.100000e+00	3.841663e-07	
103	5.150000e+00	3.803000e-07	
104	5.200000e+00	3.765315e-07	
105	5.250000e+00	3.728573e-07	
106	5.300000e+00	3.692737e-07	
107	5.350000e+00	3.657777e-07	
108	5.400000e+00	3.623659e-07	
109	5.450000e+00	3.590355e-07	
110	5.500000e+00	3.557836e-07	
111	5.550000e+00	3.526074e-07	
112	5.600000e+00	3.495044e-07	

Index   v-sweep         rds             
--------------------------------------------------------------------------------
113	5.650000e+00	3.464722e-07	
114	5.700000e+00	3.435083e-07	
115	5.750000e+00	3.406104e-07	
116	5.800000e+00	3.377765e-07	
117	5.850000e+00	3.350045e-07	
118	5.900000e+00	3.322924e-07	
119	5.950000e+00	3.296382e-07	
120	6.000000e+00	3.270403e-07	
121	6.050000e+00	3.244967e-07	
122	6.100000e+00	3.220060e-07	
123	6.150000e+00	3.195664e-07	
124	6.200000e+00	3.171765e-07	
125	6.250000e+00	3.148347e-07	
126	6.300000e+00	3.125397e-07	
127	6.350000e+00	3.102901e-07	
128	6.400000e+00	3.080845e-07	
129	6.450000e+00	3.059218e-07	
130	6.500000e+00	3.038007e-07	
131	6.550000e+00	3.017200e-07	
132	6.600000e+00	2.996786e-07	
Reset re-loads circuit ***************************

Circuit: ***************************

Doing analysis at TEMP = -40.000000 and TNOM = -40.000000


No. of Data Rows : 133
                          ***************************
                          DC transfer characteristic  Mon Jan  9 13:58:39  2023
--------------------------------------------------------------------------------
Index   v-sweep         rds             
--------------------------------------------------------------------------------
0	0.000000e+00	1.134871e-04	
1	5.000000e-02	1.094436e-04	
2	1.000000e-01	1.054913e-04	
3	1.500000e-01	1.016279e-04	
4	2.000000e-01	9.785071e-05	
5	2.500000e-01	9.415738e-05	
6	3.000000e-01	9.054544e-05	
7	3.500000e-01	8.701244e-05	
8	4.000000e-01	8.355593e-05	
9	4.500000e-01	8.017352e-05	
10	5.000000e-01	7.686284e-05	
11	5.500000e-01	7.362161e-05	
12	6.000000e-01	7.044762e-05	
13	6.500000e-01	6.733875e-05	
14	7.000000e-01	6.429298e-05	
15	7.500000e-01	6.130836e-05	
16	8.000000e-01	5.838298e-05	
17	8.500000e-01	5.551496e-05	
18	9.000000e-01	5.270231e-05	
19	9.500000e-01	4.994287e-05	
20	1.000000e+00	4.723414e-05	
21	1.050000e+00	4.457299e-05	
22	1.100000e+00	4.195529e-05	
23	1.150000e+00	3.937533e-05	
24	1.200000e+00	3.682489e-05	
25	1.250000e+00	3.429194e-05	
26	1.300000e+00	3.175887e-05	
27	1.350000e+00	2.920079e-05	
28	1.400000e+00	2.658573e-05	
29	1.450000e+00	2.388190e-05	
30	1.500000e+00	2.107961e-05	
31	1.550000e+00	1.822779e-05	
32	1.600000e+00	1.545475e-05	
33	1.650000e+00	1.292779e-05	
34	1.700000e+00	1.076971e-05	
35	1.750000e+00	9.013406e-06	
36	1.800000e+00	7.621456e-06	
37	1.850000e+00	6.527624e-06	
38	1.900000e+00	5.665336e-06	
39	1.950000e+00	4.979066e-06	
40	2.000000e+00	4.426064e-06	
41	2.050000e+00	3.974501e-06	
42	2.100000e+00	3.600929e-06	
43	2.150000e+00	3.288050e-06	
44	2.200000e+00	3.023008e-06	
45	2.250000e+00	2.796144e-06	
46	2.300000e+00	2.600120e-06	
47	2.350000e+00	2.429290e-06	
48	2.400000e+00	2.279259e-06	
49	2.450000e+00	2.146565e-06	
50	2.500000e+00	2.028455e-06	
51	2.550000e+00	1.922712e-06	
52	2.600000e+00	1.827538e-06	
53	2.650000e+00	1.741458e-06	
54	2.700000e+00	1.663257e-06	

Index   v-sweep         rds             
--------------------------------------------------------------------------------
55	2.750000e+00	1.591921e-06	
56	2.800000e+00	1.526599e-06	
57	2.850000e+00	1.466576e-06	
58	2.900000e+00	1.411241e-06	
59	2.950000e+00	1.360075e-06	
60	3.000000e+00	1.312629e-06	
61	3.050000e+00	1.268519e-06	
62	3.100000e+00	1.227408e-06	
63	3.150000e+00	1.189004e-06	
64	3.200000e+00	1.153052e-06	
65	3.250000e+00	1.119326e-06	
66	3.300000e+00	1.087628e-06	
67	3.350000e+00	1.057783e-06	
68	3.400000e+00	1.029634e-06	
69	3.450000e+00	1.003041e-06	
70	3.500000e+00	9.778812e-07	
71	3.550000e+00	9.540415e-07	
72	3.600000e+00	9.314219e-07	
73	3.650000e+00	9.099318e-07	
74	3.700000e+00	8.894893e-07	
75	3.750000e+00	8.700202e-07	
76	3.800000e+00	8.514570e-07	
77	3.850000e+00	8.337383e-07	
78	3.900000e+00	8.168083e-07	
79	3.950000e+00	8.006157e-07	
80	4.000000e+00	7.851136e-07	
81	4.050000e+00	7.702592e-07	
82	4.100000e+00	7.560128e-07	
83	4.150000e+00	7.423382e-07	
84	4.200000e+00	7.292017e-07	
85	4.250000e+00	7.165724e-07	
86	4.300000e+00	7.044216e-07	
87	4.350000e+00	6.927228e-07	
88	4.400000e+00	6.814514e-07	
89	4.450000e+00	6.705845e-07	
90	4.500000e+00	6.601008e-07	
91	4.550000e+00	6.499805e-07	
92	4.600000e+00	6.402051e-07	
93	4.650000e+00	6.307574e-07	
94	4.700000e+00	6.216213e-07	
95	4.750000e+00	6.127817e-07	
96	4.800000e+00	6.042245e-07	
97	4.850000e+00	5.959364e-07	
98	4.900000e+00	5.879050e-07	
99	4.950000e+00	5.801187e-07	
100	5.000000e+00	5.725664e-07	
101	5.050000e+00	5.652379e-07	
102	5.100000e+00	5.581234e-07	
103	5.150000e+00	5.512137e-07	
104	5.200000e+00	5.445002e-07	
105	5.250000e+00	5.379747e-07	
106	5.300000e+00	5.316295e-07	
107	5.350000e+00	5.254572e-07	
108	5.400000e+00	5.194510e-07	
109	5.450000e+00	5.136044e-07	
110	5.500000e+00	5.079110e-07	
111	5.550000e+00	5.023650e-07	
112	5.600000e+00	4.969609e-07	

Index   v-sweep         rds             
--------------------------------------------------------------------------------
113	5.650000e+00	4.916933e-07	
114	5.700000e+00	4.865571e-07	
115	5.750000e+00	4.815476e-07	
116	5.800000e+00	4.766602e-07	
117	5.850000e+00	4.718905e-07	
118	5.900000e+00	4.672344e-07	
119	5.950000e+00	4.626880e-07	
120	6.000000e+00	4.582475e-07	
121	6.050000e+00	4.539092e-07	
122	6.100000e+00	4.496699e-07	
123	6.150000e+00	4.455260e-07	
124	6.200000e+00	4.414746e-07	
125	6.250000e+00	4.375127e-07	
126	6.300000e+00	4.336373e-07	
127	6.350000e+00	4.298457e-07	
128	6.400000e+00	4.261353e-07	
129	6.450000e+00	4.225035e-07	
130	6.500000e+00	4.189480e-07	
131	6.550000e+00	4.154664e-07	
132	6.600000e+00	4.120565e-07	
Reset re-loads circuit ***************************

Circuit: ***************************

Doing analysis at TEMP = -40.000000 and TNOM = -40.000000


No. of Data Rows : 133
                          ***************************
                          DC transfer characteristic  Mon Jan  9 13:58:39  2023
--------------------------------------------------------------------------------
Index   v-sweep         rds             
--------------------------------------------------------------------------------
0	0.000000e+00	1.337799e-04	
1	5.000000e-02	1.298475e-04	
2	1.000000e-01	1.259967e-04	
3	1.500000e-01	1.222254e-04	
4	2.000000e-01	1.185316e-04	
5	2.500000e-01	1.149133e-04	
6	3.000000e-01	1.113685e-04	
7	3.500000e-01	1.078951e-04	
8	4.000000e-01	1.044913e-04	
9	4.500000e-01	1.011550e-04	
10	5.000000e-01	9.788427e-05	
11	5.500000e-01	9.467705e-05	
12	6.000000e-01	9.153148e-05	
13	6.500000e-01	8.844567e-05	
14	7.000000e-01	8.541784e-05	
15	7.500000e-01	8.244625e-05	
16	8.000000e-01	7.952927e-05	
17	8.500000e-01	7.666535e-05	
18	9.000000e-01	7.385303e-05	
19	9.500000e-01	7.109093e-05	
20	1.000000e+00	6.837772e-05	
21	1.050000e+00	6.571215e-05	
22	1.100000e+00	6.309296e-05	
23	1.150000e+00	6.051887e-05	
24	1.200000e+00	5.798851e-05	
25	1.250000e+00	5.550036e-05	
26	1.300000e+00	5.305260e-05	
27	1.350000e+00	5.064297e-05	
28	1.400000e+00	4.826855e-05	
29	1.450000e+00	4.592537e-05	
30	1.500000e+00	4.360795e-05	
31	1.550000e+00	4.130853e-05	
32	1.600000e+00	3.901605e-05	
33	1.650000e+00	3.671470e-05	
34	1.700000e+00	3.438231e-05	
35	1.750000e+00	3.198932e-05	
36	1.800000e+00	2.950043e-05	
37	1.850000e+00	2.688324e-05	
38	1.900000e+00	2.412871e-05	
39	1.950000e+00	2.128042e-05	
40	2.000000e+00	1.844981e-05	
41	2.050000e+00	1.578828e-05	
42	2.100000e+00	1.342515e-05	
43	2.150000e+00	1.142259e-05	
44	2.200000e+00	9.776323e-06	
45	2.250000e+00	8.443071e-06	
46	2.300000e+00	7.367165e-06	
47	2.350000e+00	6.495710e-06	
48	2.400000e+00	5.784342e-06	
49	2.450000e+00	5.197965e-06	
50	2.500000e+00	4.709552e-06	
51	2.550000e+00	4.298492e-06	
52	2.600000e+00	3.949074e-06	
53	2.650000e+00	3.649269e-06	
54	2.700000e+00	3.389796e-06	

Index   v-sweep         rds             
--------------------------------------------------------------------------------
55	2.750000e+00	3.163432e-06	
56	2.800000e+00	2.964504e-06	
57	2.850000e+00	2.788511e-06	
58	2.900000e+00	2.631848e-06	
59	2.950000e+00	2.491605e-06	
60	3.000000e+00	2.365409e-06	
61	3.050000e+00	2.251312e-06	
62	3.100000e+00	2.147701e-06	
63	3.150000e+00	2.053228e-06	
64	3.200000e+00	1.966765e-06	
65	3.250000e+00	1.887357e-06	
66	3.300000e+00	1.814191e-06	
67	3.350000e+00	1.746575e-06	
68	3.400000e+00	1.683910e-06	
69	3.450000e+00	1.625682e-06	
70	3.500000e+00	1.571444e-06	
71	3.550000e+00	1.520805e-06	
72	3.600000e+00	1.473424e-06	
73	3.650000e+00	1.429001e-06	
74	3.700000e+00	1.387271e-06	
75	3.750000e+00	1.347999e-06	
76	3.800000e+00	1.310977e-06	
77	3.850000e+00	1.276020e-06	
78	3.900000e+00	1.242961e-06	
79	3.950000e+00	1.211651e-06	
80	4.000000e+00	1.181957e-06	
81	4.050000e+00	1.153758e-06	
82	4.100000e+00	1.126944e-06	
83	4.150000e+00	1.101418e-06	
84	4.200000e+00	1.077090e-06	
85	4.250000e+00	1.053877e-06	
86	4.300000e+00	1.031706e-06	
87	4.350000e+00	1.010508e-06	
88	4.400000e+00	9.902217e-07	
89	4.450000e+00	9.707895e-07	
90	4.500000e+00	9.521591e-07	
91	4.550000e+00	9.342822e-07	
92	4.600000e+00	9.171143e-07	
93	4.650000e+00	9.006145e-07	
94	4.700000e+00	8.847447e-07	
95	4.750000e+00	8.694697e-07	
96	4.800000e+00	8.547570e-07	
97	4.850000e+00	8.405762e-07	
98	4.900000e+00	8.268993e-07	
99	4.950000e+00	8.137001e-07	
100	5.000000e+00	8.009541e-07	
101	5.050000e+00	7.886385e-07	
102	5.100000e+00	7.767320e-07	
103	5.150000e+00	7.652148e-07	
104	5.200000e+00	7.540682e-07	
105	5.250000e+00	7.432747e-07	
106	5.300000e+00	7.328179e-07	
107	5.350000e+00	7.226825e-07	
108	5.400000e+00	7.128540e-07	
109	5.450000e+00	7.033187e-07	
110	5.500000e+00	6.940639e-07	
111	5.550000e+00	6.850774e-07	
112	5.600000e+00	6.763479e-07	

Index   v-sweep         rds             
--------------------------------------------------------------------------------
113	5.650000e+00	6.678647e-07	
114	5.700000e+00	6.596175e-07	
115	5.750000e+00	6.515968e-07	
116	5.800000e+00	6.437934e-07	
117	5.850000e+00	6.361988e-07	
118	5.900000e+00	6.288048e-07	
119	5.950000e+00	6.216037e-07	
120	6.000000e+00	6.145881e-07	
121	6.050000e+00	6.077510e-07	
122	6.100000e+00	6.010858e-07	
123	6.150000e+00	5.945863e-07	
124	6.200000e+00	5.882465e-07	
125	6.250000e+00	5.820606e-07	
126	6.300000e+00	5.760231e-07	
127	6.350000e+00	5.701291e-07	
128	6.400000e+00	5.643734e-07	
129	6.450000e+00	5.587514e-07	
130	6.500000e+00	5.532586e-07	
131	6.550000e+00	5.478906e-07	
132	6.600000e+00	5.426435e-07	
Reset re-loads circuit ***************************

Circuit: ***************************

Doing analysis at TEMP = -40.000000 and TNOM = -40.000000


No. of Data Rows : 133
                          ***************************
                          DC transfer characteristic  Mon Jan  9 13:58:39  2023
--------------------------------------------------------------------------------
Index   v-sweep         rds             
--------------------------------------------------------------------------------
0	0.000000e+00	1.477391e-04	
1	5.000000e-02	1.440372e-04	
2	1.000000e-01	1.404049e-04	
3	1.500000e-01	1.368406e-04	
4	2.000000e-01	1.333429e-04	
5	2.500000e-01	1.299102e-04	
6	3.000000e-01	1.265409e-04	
7	3.500000e-01	1.232335e-04	
8	4.000000e-01	1.199866e-04	
9	4.500000e-01	1.167984e-04	
10	5.000000e-01	1.136676e-04	
11	5.500000e-01	1.105925e-04	
12	6.000000e-01	1.075716e-04	
13	6.500000e-01	1.046035e-04	
14	7.000000e-01	1.016866e-04	
15	7.500000e-01	9.881947e-05	
16	8.000000e-01	9.600072e-05	
17	8.500000e-01	9.322902e-05	
18	9.000000e-01	9.050307e-05	
19	9.500000e-01	8.782165e-05	
20	1.000000e+00	8.518362e-05	
21	1.050000e+00	8.258790e-05	
22	1.100000e+00	8.003347e-05	
23	1.150000e+00	7.751940e-05	
24	1.200000e+00	7.504479e-05	
25	1.250000e+00	7.260881e-05	
26	1.300000e+00	7.021065e-05	
27	1.350000e+00	6.784953e-05	
28	1.400000e+00	6.552465e-05	
29	1.450000e+00	6.323519e-05	
30	1.500000e+00	6.098026e-05	
31	1.550000e+00	5.875881e-05	
32	1.600000e+00	5.656963e-05	
33	1.650000e+00	5.441120e-05	
34	1.700000e+00	5.228158e-05	
35	1.750000e+00	5.017823e-05	
36	1.800000e+00	4.809770e-05	
37	1.850000e+00	4.603532e-05	
38	1.900000e+00	4.398457e-05	
39	1.950000e+00	4.193641e-05	
40	2.000000e+00	3.987819e-05	
41	2.050000e+00	3.779245e-05	
42	2.100000e+00	3.565570e-05	
43	2.150000e+00	3.343818e-05	
44	2.200000e+00	3.110645e-05	
45	2.250000e+00	2.863199e-05	
46	2.300000e+00	2.600847e-05	
47	2.350000e+00	2.327381e-05	
48	2.400000e+00	2.052092e-05	
49	2.450000e+00	1.787866e-05	
50	2.500000e+00	1.546730e-05	
51	2.550000e+00	1.336031e-05	
52	2.600000e+00	1.157587e-05	
53	2.650000e+00	1.009220e-05	
54	2.700000e+00	8.868417e-06	

Index   v-sweep         rds             
--------------------------------------------------------------------------------
55	2.750000e+00	7.859612e-06	
56	2.800000e+00	7.024645e-06	
57	2.850000e+00	6.328909e-06	
58	2.900000e+00	5.744511e-06	
59	2.950000e+00	5.249432e-06	
60	3.000000e+00	4.826433e-06	
61	3.050000e+00	4.462033e-06	
62	3.100000e+00	4.145657e-06	
63	3.150000e+00	3.868961e-06	
64	3.200000e+00	3.625320e-06	
65	3.250000e+00	3.409431e-06	
66	3.300000e+00	3.217015e-06	
67	3.350000e+00	3.044597e-06	
68	3.400000e+00	2.889328e-06	
69	3.450000e+00	2.748860e-06	
70	3.500000e+00	2.621238e-06	
71	3.550000e+00	2.504831e-06	
72	3.600000e+00	2.398263e-06	
73	3.650000e+00	2.300370e-06	
74	3.700000e+00	2.210160e-06	
75	3.750000e+00	2.126783e-06	
76	3.800000e+00	2.049507e-06	
77	3.850000e+00	1.977702e-06	
78	3.900000e+00	1.910816e-06	
79	3.950000e+00	1.848370e-06	
80	4.000000e+00	1.789944e-06	
81	4.050000e+00	1.735169e-06	
82	4.100000e+00	1.683718e-06	
83	4.150000e+00	1.635302e-06	
84	4.200000e+00	1.589664e-06	
85	4.250000e+00	1.546575e-06	
86	4.300000e+00	1.505829e-06	
87	4.350000e+00	1.467245e-06	
88	4.400000e+00	1.430655e-06	
89	4.450000e+00	1.395911e-06	
90	4.500000e+00	1.362878e-06	
91	4.550000e+00	1.331435e-06	
92	4.600000e+00	1.301471e-06	
93	4.650000e+00	1.272884e-06	
94	4.700000e+00	1.245583e-06	
95	4.750000e+00	1.219483e-06	
96	4.800000e+00	1.194509e-06	
97	4.850000e+00	1.170589e-06	
98	4.900000e+00	1.147658e-06	
99	4.950000e+00	1.125658e-06	
100	5.000000e+00	1.104532e-06	
101	5.050000e+00	1.084230e-06	
102	5.100000e+00	1.064706e-06	
103	5.150000e+00	1.045916e-06	
104	5.200000e+00	1.027819e-06	
105	5.250000e+00	1.010379e-06	
106	5.300000e+00	9.935596e-07	
107	5.350000e+00	9.773295e-07	
108	5.400000e+00	9.616584e-07	
109	5.450000e+00	9.465180e-07	
110	5.500000e+00	9.318820e-07	
111	5.550000e+00	9.177259e-07	
112	5.600000e+00	9.040267e-07	

Index   v-sweep         rds             
--------------------------------------------------------------------------------
113	5.650000e+00	8.907628e-07	
114	5.700000e+00	8.779139e-07	
115	5.750000e+00	8.654611e-07	
116	5.800000e+00	8.533866e-07	
117	5.850000e+00	8.416734e-07	
118	5.900000e+00	8.303059e-07	
119	5.950000e+00	8.192690e-07	
120	6.000000e+00	8.085488e-07	
121	6.050000e+00	7.981320e-07	
122	6.100000e+00	7.880061e-07	
123	6.150000e+00	7.781592e-07	
124	6.200000e+00	7.685801e-07	
125	6.250000e+00	7.592582e-07	
126	6.300000e+00	7.501834e-07	
127	6.350000e+00	7.413463e-07	
128	6.400000e+00	7.327377e-07	
129	6.450000e+00	7.243491e-07	
130	6.500000e+00	7.161723e-07	
131	6.550000e+00	7.081996e-07	
132	6.600000e+00	7.004236e-07	
Reset re-loads circuit ***************************

Circuit: ***************************

Note: No ".plot", ".print", or ".fourier" lines; no simulations run
