
Note: Compatibility modes selected: hs

Warning: m=xx on .subckt line will override multiplier m hierarchy!


Circuit: ***************************

Doing analysis at TEMP = 125.000000 and TNOM = 125.000000


No. of Data Rows : 133
                          ***************************
                          DC transfer characteristic  Mon Jan  9 13:58:39  2023
--------------------------------------------------------------------------------
Index   v-sweep         rds             
--------------------------------------------------------------------------------
0	0.000000e+00	3.060436e-05	
1	5.000000e-02	2.650245e-05	
2	1.000000e-01	2.241826e-05	
3	1.500000e-01	1.835962e-05	
4	2.000000e-01	1.434595e-05	
5	2.500000e-01	1.042984e-05	
6	3.000000e-01	6.759647e-06	
7	3.500000e-01	3.695534e-06	
8	4.000000e-01	1.705495e-06	
9	4.500000e-01	7.600006e-07	
10	5.000000e-01	3.798285e-07	
11	5.500000e-01	2.237532e-07	
12	6.000000e-01	1.528292e-07	
13	6.500000e-01	1.168643e-07	
14	7.000000e-01	9.679950e-08	
15	7.500000e-01	8.468960e-08	
16	8.000000e-01	7.689722e-08	
17	8.500000e-01	7.161308e-08	
18	9.000000e-01	6.787123e-08	
19	9.500000e-01	6.512403e-08	
20	1.000000e+00	6.304475e-08	
21	1.050000e+00	6.142974e-08	
22	1.100000e+00	6.014721e-08	
23	1.150000e+00	5.910903e-08	
24	1.200000e+00	5.825452e-08	
25	1.250000e+00	5.754087e-08	
26	1.300000e+00	5.693719e-08	
27	1.350000e+00	5.642069e-08	
28	1.400000e+00	5.597432e-08	
29	1.450000e+00	5.558507e-08	
30	1.500000e+00	5.524288e-08	
31	1.550000e+00	5.493987e-08	
32	1.600000e+00	5.466980e-08	
33	1.650000e+00	5.442764e-08	
34	1.700000e+00	5.420932e-08	
35	1.750000e+00	5.401154e-08	
36	1.800000e+00	5.383154e-08	
37	1.850000e+00	5.366705e-08	
38	1.900000e+00	5.351615e-08	
39	1.950000e+00	5.337723e-08	
40	2.000000e+00	5.324892e-08	
41	2.050000e+00	5.313005e-08	
42	2.100000e+00	5.301962e-08	
43	2.150000e+00	5.291676e-08	
44	2.200000e+00	5.282071e-08	
45	2.250000e+00	5.273082e-08	
46	2.300000e+00	5.264652e-08	
47	2.350000e+00	5.256729e-08	
48	2.400000e+00	5.249268e-08	
49	2.450000e+00	5.242232e-08	
50	2.500000e+00	5.235583e-08	
51	2.550000e+00	5.229291e-08	
52	2.600000e+00	5.223328e-08	
53	2.650000e+00	5.217668e-08	
54	2.700000e+00	5.212290e-08	

Index   v-sweep         rds             
--------------------------------------------------------------------------------
55	2.750000e+00	5.207171e-08	
56	2.800000e+00	5.202294e-08	
57	2.850000e+00	5.197642e-08	
58	2.900000e+00	5.193200e-08	
59	2.950000e+00	5.188954e-08	
60	3.000000e+00	5.184890e-08	
61	3.050000e+00	5.180998e-08	
62	3.100000e+00	5.177267e-08	
63	3.150000e+00	5.173687e-08	
64	3.200000e+00	5.170248e-08	
65	3.250000e+00	5.166943e-08	
66	3.300000e+00	5.163764e-08	
67	3.350000e+00	5.160704e-08	
68	3.400000e+00	5.157757e-08	
69	3.450000e+00	5.154915e-08	
70	3.500000e+00	5.152174e-08	
71	3.550000e+00	5.149529e-08	
72	3.600000e+00	5.146973e-08	
73	3.650000e+00	5.144504e-08	
74	3.700000e+00	5.142116e-08	
75	3.750000e+00	5.139806e-08	
76	3.800000e+00	5.137570e-08	
77	3.850000e+00	5.135404e-08	
78	3.900000e+00	5.133305e-08	
79	3.950000e+00	5.131270e-08	
80	4.000000e+00	5.129297e-08	
81	4.050000e+00	5.127382e-08	
82	4.100000e+00	5.125522e-08	
83	4.150000e+00	5.123717e-08	
84	4.200000e+00	5.121962e-08	
85	4.250000e+00	5.120256e-08	
86	4.300000e+00	5.118598e-08	
87	4.350000e+00	5.116984e-08	
88	4.400000e+00	5.115414e-08	
89	4.450000e+00	5.113886e-08	
90	4.500000e+00	5.112397e-08	
91	4.550000e+00	5.110947e-08	
92	4.600000e+00	5.109534e-08	
93	4.650000e+00	5.108156e-08	
94	4.700000e+00	5.106813e-08	
95	4.750000e+00	5.105503e-08	
96	4.800000e+00	5.104224e-08	
97	4.850000e+00	5.102976e-08	
98	4.900000e+00	5.101758e-08	
99	4.950000e+00	5.100568e-08	
100	5.000000e+00	5.099406e-08	
101	5.050000e+00	5.098270e-08	
102	5.100000e+00	5.097160e-08	
103	5.150000e+00	5.096075e-08	
104	5.200000e+00	5.095014e-08	
105	5.250000e+00	5.093976e-08	
106	5.300000e+00	5.092961e-08	
107	5.350000e+00	5.091968e-08	
108	5.400000e+00	5.090995e-08	
109	5.450000e+00	5.090043e-08	
110	5.500000e+00	5.089111e-08	
111	5.550000e+00	5.088198e-08	
112	5.600000e+00	5.087303e-08	

Index   v-sweep         rds             
--------------------------------------------------------------------------------
113	5.650000e+00	5.086427e-08	
114	5.700000e+00	5.085568e-08	
115	5.750000e+00	5.084726e-08	
116	5.800000e+00	5.083901e-08	
117	5.850000e+00	5.083092e-08	
118	5.900000e+00	5.082298e-08	
119	5.950000e+00	5.081520e-08	
120	6.000000e+00	5.080756e-08	
121	6.050000e+00	5.080006e-08	
122	6.100000e+00	5.079270e-08	
123	6.150000e+00	5.078548e-08	
124	6.200000e+00	5.077839e-08	
125	6.250000e+00	5.077143e-08	
126	6.300000e+00	5.076459e-08	
127	6.350000e+00	5.075788e-08	
128	6.400000e+00	5.075128e-08	
129	6.450000e+00	5.074480e-08	
130	6.500000e+00	5.073843e-08	
131	6.550000e+00	5.073216e-08	
132	6.600000e+00	5.072601e-08	
Reset re-loads circuit ***************************

Circuit: ***************************

Doing analysis at TEMP = 125.000000 and TNOM = 125.000000


No. of Data Rows : 133
                          ***************************
                          DC transfer characteristic  Mon Jan  9 13:58:39  2023
--------------------------------------------------------------------------------
Index   v-sweep         rds             
--------------------------------------------------------------------------------
0	0.000000e+00	9.378395e-05	
1	5.000000e-02	8.957650e-05	
2	1.000000e-01	8.538036e-05	
3	1.500000e-01	8.119554e-05	
4	2.000000e-01	7.702205e-05	
5	2.500000e-01	7.285990e-05	
6	3.000000e-01	6.870915e-05	
7	3.500000e-01	6.456988e-05	
8	4.000000e-01	6.044223e-05	
9	4.500000e-01	5.632641e-05	
10	5.000000e-01	5.222274e-05	
11	5.500000e-01	4.813173e-05	
12	6.000000e-01	4.405419e-05	
13	6.500000e-01	3.999141e-05	
14	7.000000e-01	3.594557e-05	
15	7.500000e-01	3.192034e-05	
16	8.000000e-01	2.792222e-05	
17	8.500000e-01	2.396299e-05	
18	9.000000e-01	2.006462e-05	
19	9.500000e-01	1.626857e-05	
20	1.000000e+00	1.265128e-05	
21	1.050000e+00	9.341879e-06	
22	1.100000e+00	6.517467e-06	
23	1.150000e+00	4.335035e-06	
24	1.200000e+00	2.824006e-06	
25	1.250000e+00	1.864932e-06	
26	1.300000e+00	1.281859e-06	
27	1.350000e+00	9.281801e-07	
28	1.400000e+00	7.085762e-07	
29	1.450000e+00	5.673675e-07	
30	1.500000e+00	4.730559e-07	
31	1.550000e+00	4.077172e-07	
32	1.600000e+00	3.609079e-07	
33	1.650000e+00	3.263547e-07	
34	1.700000e+00	3.001661e-07	
35	1.750000e+00	2.798510e-07	
36	1.800000e+00	2.637676e-07	
37	1.850000e+00	2.508039e-07	
38	1.900000e+00	2.401879e-07	
39	1.950000e+00	2.313717e-07	
40	2.000000e+00	2.239584e-07	
41	2.050000e+00	2.176550e-07	
42	2.100000e+00	2.122417e-07	
43	2.150000e+00	2.075510e-07	
44	2.200000e+00	2.034534e-07	
45	2.250000e+00	1.998478e-07	
46	2.300000e+00	1.966537e-07	
47	2.350000e+00	1.938072e-07	
48	2.400000e+00	1.912562e-07	
49	2.450000e+00	1.889585e-07	
50	2.500000e+00	1.868793e-07	
51	2.550000e+00	1.849896e-07	
52	2.600000e+00	1.832653e-07	
53	2.650000e+00	1.816862e-07	
54	2.700000e+00	1.802350e-07	

Index   v-sweep         rds             
--------------------------------------------------------------------------------
55	2.750000e+00	1.788972e-07	
56	2.800000e+00	1.776603e-07	
57	2.850000e+00	1.765134e-07	
58	2.900000e+00	1.754473e-07	
59	2.950000e+00	1.744538e-07	
60	3.000000e+00	1.735259e-07	
61	3.050000e+00	1.726575e-07	
62	3.100000e+00	1.718430e-07	
63	3.150000e+00	1.710776e-07	
64	3.200000e+00	1.703571e-07	
65	3.250000e+00	1.696777e-07	
66	3.300000e+00	1.690360e-07	
67	3.350000e+00	1.684290e-07	
68	3.400000e+00	1.678540e-07	
69	3.450000e+00	1.673086e-07	
70	3.500000e+00	1.667905e-07	
71	3.550000e+00	1.662977e-07	
72	3.600000e+00	1.658285e-07	
73	3.650000e+00	1.653812e-07	
74	3.700000e+00	1.649543e-07	
75	3.750000e+00	1.645465e-07	
76	3.800000e+00	1.641566e-07	
77	3.850000e+00	1.637833e-07	
78	3.900000e+00	1.634257e-07	
79	3.950000e+00	1.630828e-07	
80	4.000000e+00	1.627537e-07	
81	4.050000e+00	1.624375e-07	
82	4.100000e+00	1.621337e-07	
83	4.150000e+00	1.618413e-07	
84	4.200000e+00	1.615599e-07	
85	4.250000e+00	1.612888e-07	
86	4.300000e+00	1.610275e-07	
87	4.350000e+00	1.607754e-07	
88	4.400000e+00	1.605321e-07	
89	4.450000e+00	1.602970e-07	
90	4.500000e+00	1.600699e-07	
91	4.550000e+00	1.598503e-07	
92	4.600000e+00	1.596378e-07	
93	4.650000e+00	1.594322e-07	
94	4.700000e+00	1.592330e-07	
95	4.750000e+00	1.590400e-07	
96	4.800000e+00	1.588529e-07	
97	4.850000e+00	1.586714e-07	
98	4.900000e+00	1.584954e-07	
99	4.950000e+00	1.583244e-07	
100	5.000000e+00	1.581584e-07	
101	5.050000e+00	1.579972e-07	
102	5.100000e+00	1.578404e-07	
103	5.150000e+00	1.576880e-07	
104	5.200000e+00	1.575397e-07	
105	5.250000e+00	1.573954e-07	
106	5.300000e+00	1.572550e-07	
107	5.350000e+00	1.571182e-07	
108	5.400000e+00	1.569850e-07	
109	5.450000e+00	1.568551e-07	
110	5.500000e+00	1.567286e-07	
111	5.550000e+00	1.566052e-07	
112	5.600000e+00	1.564848e-07	

Index   v-sweep         rds             
--------------------------------------------------------------------------------
113	5.650000e+00	1.563674e-07	
114	5.700000e+00	1.562528e-07	
115	5.750000e+00	1.561409e-07	
116	5.800000e+00	1.560317e-07	
117	5.850000e+00	1.559249e-07	
118	5.900000e+00	1.558207e-07	
119	5.950000e+00	1.557188e-07	
120	6.000000e+00	1.556191e-07	
121	6.050000e+00	1.555217e-07	
122	6.100000e+00	1.554265e-07	
123	6.150000e+00	1.553333e-07	
124	6.200000e+00	1.552421e-07	
125	6.250000e+00	1.551528e-07	
126	6.300000e+00	1.550654e-07	
127	6.350000e+00	1.549798e-07	
128	6.400000e+00	1.548960e-07	
129	6.450000e+00	1.548140e-07	
130	6.500000e+00	1.547335e-07	
131	6.550000e+00	1.546547e-07	
132	6.600000e+00	1.545774e-07	
Reset re-loads circuit ***************************

Circuit: ***************************

Doing analysis at TEMP = 125.000000 and TNOM = 125.000000


No. of Data Rows : 133
                          ***************************
                          DC transfer characteristic  Mon Jan  9 13:58:39  2023
--------------------------------------------------------------------------------
Index   v-sweep         rds             
--------------------------------------------------------------------------------
0	0.000000e+00	1.464712e-04	
1	5.000000e-02	1.425450e-04	
2	1.000000e-01	1.386291e-04	
3	1.500000e-01	1.347233e-04	
4	2.000000e-01	1.308276e-04	
5	2.500000e-01	1.269420e-04	
6	3.000000e-01	1.230665e-04	
7	3.500000e-01	1.192010e-04	
8	4.000000e-01	1.153455e-04	
9	4.500000e-01	1.115000e-04	
10	5.000000e-01	1.076644e-04	
11	5.500000e-01	1.038387e-04	
12	6.000000e-01	1.000230e-04	
13	6.500000e-01	9.621709e-05	
14	7.000000e-01	9.242106e-05	
15	7.500000e-01	8.863486e-05	
16	8.000000e-01	8.485849e-05	
17	8.500000e-01	8.109196e-05	
18	9.000000e-01	7.733525e-05	
19	9.500000e-01	7.358840e-05	
20	1.000000e+00	6.985145e-05	
21	1.050000e+00	6.612445e-05	
22	1.100000e+00	6.240753e-05	
23	1.150000e+00	5.870083e-05	
24	1.200000e+00	5.500462e-05	
25	1.250000e+00	5.131928e-05	
26	1.300000e+00	4.764538e-05	
27	1.350000e+00	4.398384e-05	
28	1.400000e+00	4.033609e-05	
29	1.450000e+00	3.670440e-05	
30	1.500000e+00	3.309249e-05	
31	1.550000e+00	2.950649e-05	
32	1.600000e+00	2.595667e-05	
33	1.650000e+00	2.246039e-05	
34	1.700000e+00	1.904669e-05	
35	1.750000e+00	1.576276e-05	
36	1.800000e+00	1.268007e-05	
37	1.850000e+00	9.893441e-06	
38	1.900000e+00	7.502656e-06	
39	1.950000e+00	5.575408e-06	
40	2.000000e+00	4.114705e-06	
41	2.050000e+00	3.060306e-06	
42	2.100000e+00	2.320836e-06	
43	2.150000e+00	1.806965e-06	
44	2.200000e+00	1.447825e-06	
45	2.250000e+00	1.193054e-06	
46	2.300000e+00	1.008748e-06	
47	2.350000e+00	8.725599e-07	
48	2.400000e+00	7.697802e-07	
49	2.450000e+00	6.906422e-07	
50	2.500000e+00	6.285639e-07	
51	2.550000e+00	5.790330e-07	
52	2.600000e+00	5.388988e-07	
53	2.650000e+00	5.059220e-07	
54	2.700000e+00	4.784828e-07	

Index   v-sweep         rds             
--------------------------------------------------------------------------------
55	2.750000e+00	4.553902e-07	
56	2.800000e+00	4.357547e-07	
57	2.850000e+00	4.189025e-07	
58	2.900000e+00	4.043162e-07	
59	2.950000e+00	3.915936e-07	
60	3.000000e+00	3.804184e-07	
61	3.050000e+00	3.705392e-07	
62	3.100000e+00	3.617540e-07	
63	3.150000e+00	3.538993e-07	
64	3.200000e+00	3.468415e-07	
65	3.250000e+00	3.404705e-07	
66	3.300000e+00	3.346948e-07	
67	3.350000e+00	3.294381e-07	
68	3.400000e+00	3.246361e-07	
69	3.450000e+00	3.202346e-07	
70	3.500000e+00	3.161871e-07	
71	3.550000e+00	3.124540e-07	
72	3.600000e+00	3.090014e-07	
73	3.650000e+00	3.057997e-07	
74	3.700000e+00	3.028234e-07	
75	3.750000e+00	3.000502e-07	
76	3.800000e+00	2.974606e-07	
77	3.850000e+00	2.950374e-07	
78	3.900000e+00	2.927655e-07	
79	3.950000e+00	2.906316e-07	
80	4.000000e+00	2.886237e-07	
81	4.050000e+00	2.867312e-07	
82	4.100000e+00	2.849448e-07	
83	4.150000e+00	2.832559e-07	
84	4.200000e+00	2.816570e-07	
85	4.250000e+00	2.801412e-07	
86	4.300000e+00	2.787022e-07	
87	4.350000e+00	2.773346e-07	
88	4.400000e+00	2.760332e-07	
89	4.450000e+00	2.747935e-07	
90	4.500000e+00	2.736112e-07	
91	4.550000e+00	2.724825e-07	
92	4.600000e+00	2.714039e-07	
93	4.650000e+00	2.703722e-07	
94	4.700000e+00	2.693844e-07	
95	4.750000e+00	2.684379e-07	
96	4.800000e+00	2.675301e-07	
97	4.850000e+00	2.666588e-07	
98	4.900000e+00	2.658219e-07	
99	4.950000e+00	2.650173e-07	
100	5.000000e+00	2.642432e-07	
101	5.050000e+00	2.634981e-07	
102	5.100000e+00	2.627802e-07	
103	5.150000e+00	2.620882e-07	
104	5.200000e+00	2.614207e-07	
105	5.250000e+00	2.607764e-07	
106	5.300000e+00	2.601542e-07	
107	5.350000e+00	2.595529e-07	
108	5.400000e+00	2.589716e-07	
109	5.450000e+00	2.584092e-07	
110	5.500000e+00	2.578649e-07	
111	5.550000e+00	2.573378e-07	
112	5.600000e+00	2.568272e-07	

Index   v-sweep         rds             
--------------------------------------------------------------------------------
113	5.650000e+00	2.563322e-07	
114	5.700000e+00	2.558521e-07	
115	5.750000e+00	2.553864e-07	
116	5.800000e+00	2.549344e-07	
117	5.850000e+00	2.544955e-07	
118	5.900000e+00	2.540691e-07	
119	5.950000e+00	2.536547e-07	
120	6.000000e+00	2.532518e-07	
121	6.050000e+00	2.528600e-07	
122	6.100000e+00	2.524788e-07	
123	6.150000e+00	2.521078e-07	
124	6.200000e+00	2.517466e-07	
125	6.250000e+00	2.513948e-07	
126	6.300000e+00	2.510520e-07	
127	6.350000e+00	2.507180e-07	
128	6.400000e+00	2.503923e-07	
129	6.450000e+00	2.500747e-07	
130	6.500000e+00	2.497649e-07	
131	6.550000e+00	2.494625e-07	
132	6.600000e+00	2.491674e-07	
Reset re-loads circuit ***************************

Circuit: ***************************

Doing analysis at TEMP = 125.000000 and TNOM = 125.000000


No. of Data Rows : 133
                          ***************************
                          DC transfer characteristic  Mon Jan  9 13:58:39  2023
--------------------------------------------------------------------------------
Index   v-sweep         rds             
--------------------------------------------------------------------------------
0	0.000000e+00	1.884706e-04	
1	5.000000e-02	1.849007e-04	
2	1.000000e-01	1.813395e-04	
3	1.500000e-01	1.777870e-04	
4	2.000000e-01	1.742432e-04	
5	2.500000e-01	1.707080e-04	
6	3.000000e-01	1.671813e-04	
7	3.500000e-01	1.636633e-04	
8	4.000000e-01	1.601538e-04	
9	4.500000e-01	1.566528e-04	
10	5.000000e-01	1.531603e-04	
11	5.500000e-01	1.496763e-04	
12	6.000000e-01	1.462007e-04	
13	6.500000e-01	1.427335e-04	
14	7.000000e-01	1.392747e-04	
15	7.500000e-01	1.358243e-04	
16	8.000000e-01	1.323822e-04	
17	8.500000e-01	1.289484e-04	
18	9.000000e-01	1.255229e-04	
19	9.500000e-01	1.221056e-04	
20	1.000000e+00	1.186966e-04	
21	1.050000e+00	1.152958e-04	
22	1.100000e+00	1.119031e-04	
23	1.150000e+00	1.085186e-04	
24	1.200000e+00	1.051422e-04	
25	1.250000e+00	1.017739e-04	
26	1.300000e+00	9.841361e-05	
27	1.350000e+00	9.506141e-05	
28	1.400000e+00	9.171721e-05	
29	1.450000e+00	8.838101e-05	
30	1.500000e+00	8.505276e-05	
31	1.550000e+00	8.173247e-05	
32	1.600000e+00	7.842009e-05	
33	1.650000e+00	7.511562e-05	
34	1.700000e+00	7.181905e-05	
35	1.750000e+00	6.853037e-05	
36	1.800000e+00	6.524960e-05	
37	1.850000e+00	6.197677e-05	
38	1.900000e+00	5.871194e-05	
39	1.950000e+00	5.545522e-05	
40	2.000000e+00	5.220678e-05	
41	2.050000e+00	4.896692e-05	
42	2.100000e+00	4.573610e-05	
43	2.150000e+00	4.251506e-05	
44	2.200000e+00	3.930498e-05	
45	2.250000e+00	3.610777e-05	
46	2.300000e+00	3.292649e-05	
47	2.350000e+00	2.976613e-05	
48	2.400000e+00	2.663477e-05	
49	2.450000e+00	2.354547e-05	
50	2.500000e+00	2.051892e-05	
51	2.550000e+00	1.758685e-05	
52	2.600000e+00	1.479488e-05	
53	2.650000e+00	1.220235e-05	
54	2.700000e+00	9.875030e-06	

Index   v-sweep         rds             
--------------------------------------------------------------------------------
55	2.750000e+00	7.869394e-06	
56	2.800000e+00	6.214296e-06	
57	2.850000e+00	4.901496e-06	
58	2.900000e+00	3.891434e-06	
59	2.950000e+00	3.128736e-06	
60	3.000000e+00	2.557138e-06	
61	3.050000e+00	2.128145e-06	
62	3.100000e+00	1.803721e-06	
63	3.150000e+00	1.555576e-06	
64	3.200000e+00	1.363241e-06	
65	3.250000e+00	1.212070e-06	
66	3.300000e+00	1.091592e-06	
67	3.350000e+00	9.942841e-07	
68	3.400000e+00	9.146944e-07	
69	3.450000e+00	8.488272e-07	
70	3.500000e+00	7.937206e-07	
71	3.550000e+00	7.471528e-07	
72	3.600000e+00	7.074365e-07	
73	3.650000e+00	6.732760e-07	
74	3.700000e+00	6.436649e-07	
75	3.750000e+00	6.178133e-07	
76	3.800000e+00	5.950949e-07	
77	3.850000e+00	5.750087e-07	
78	3.900000e+00	5.571501e-07	
79	3.950000e+00	5.411896e-07	
80	4.000000e+00	5.268570e-07	
81	4.050000e+00	5.139289e-07	
82	4.100000e+00	5.022193e-07	
83	4.150000e+00	4.915724e-07	
84	4.200000e+00	4.818570e-07	
85	4.250000e+00	4.729618e-07	
86	4.300000e+00	4.647918e-07	
87	4.350000e+00	4.572658e-07	
88	4.400000e+00	4.503139e-07	
89	4.450000e+00	4.438754e-07	
90	4.500000e+00	4.378979e-07	
91	4.550000e+00	4.323355e-07	
92	4.600000e+00	4.271480e-07	
93	4.650000e+00	4.223003e-07	
94	4.700000e+00	4.177611e-07	
95	4.750000e+00	4.135030e-07	
96	4.800000e+00	4.095015e-07	
97	4.850000e+00	4.057349e-07	
98	4.900000e+00	4.021838e-07	
99	4.950000e+00	3.988307e-07	
100	5.000000e+00	3.956601e-07	
101	5.050000e+00	3.926579e-07	
102	5.100000e+00	3.898113e-07	
103	5.150000e+00	3.871091e-07	
104	5.200000e+00	3.845407e-07	
105	5.250000e+00	3.820967e-07	
106	5.300000e+00	3.797686e-07	
107	5.350000e+00	3.775484e-07	
108	5.400000e+00	3.754291e-07	
109	5.450000e+00	3.734041e-07	
110	5.500000e+00	3.714674e-07	
111	5.550000e+00	3.696135e-07	
112	5.600000e+00	3.678373e-07	

Index   v-sweep         rds             
--------------------------------------------------------------------------------
113	5.650000e+00	3.661341e-07	
114	5.700000e+00	3.644996e-07	
115	5.750000e+00	3.629298e-07	
116	5.800000e+00	3.614211e-07	
117	5.850000e+00	3.599700e-07	
118	5.900000e+00	3.585733e-07	
119	5.950000e+00	3.572282e-07	
120	6.000000e+00	3.559318e-07	
121	6.050000e+00	3.546816e-07	
122	6.100000e+00	3.534752e-07	
123	6.150000e+00	3.523104e-07	
124	6.200000e+00	3.511852e-07	
125	6.250000e+00	3.500976e-07	
126	6.300000e+00	3.490457e-07	
127	6.350000e+00	3.480278e-07	
128	6.400000e+00	3.470425e-07	
129	6.450000e+00	3.460881e-07	
130	6.500000e+00	3.451632e-07	
131	6.550000e+00	3.442666e-07	
132	6.600000e+00	3.433969e-07	
Reset re-loads circuit ***************************

Circuit: ***************************

Doing analysis at TEMP = 125.000000 and TNOM = 125.000000


No. of Data Rows : 133
                          ***************************
                          DC transfer characteristic  Mon Jan  9 13:58:39  2023
--------------------------------------------------------------------------------
Index   v-sweep         rds             
--------------------------------------------------------------------------------
0	0.000000e+00	2.205169e-04	
1	5.000000e-02	2.173218e-04	
2	1.000000e-01	2.141339e-04	
3	1.500000e-01	2.109532e-04	
4	2.000000e-01	2.077796e-04	
5	2.500000e-01	2.046132e-04	
6	3.000000e-01	2.014539e-04	
7	3.500000e-01	1.983017e-04	
8	4.000000e-01	1.951565e-04	
9	4.500000e-01	1.920184e-04	
10	5.000000e-01	1.888874e-04	
11	5.500000e-01	1.857634e-04	
12	6.000000e-01	1.826463e-04	
13	6.500000e-01	1.795363e-04	
14	7.000000e-01	1.764331e-04	
15	7.500000e-01	1.733370e-04	
16	8.000000e-01	1.702477e-04	
17	8.500000e-01	1.671653e-04	
18	9.000000e-01	1.640898e-04	
19	9.500000e-01	1.610212e-04	
20	1.000000e+00	1.579593e-04	
21	1.050000e+00	1.549043e-04	
22	1.100000e+00	1.518561e-04	
23	1.150000e+00	1.488146e-04	
24	1.200000e+00	1.457799e-04	
25	1.250000e+00	1.427519e-04	
26	1.300000e+00	1.397306e-04	
27	1.350000e+00	1.367160e-04	
28	1.400000e+00	1.337081e-04	
29	1.450000e+00	1.307068e-04	
30	1.500000e+00	1.277121e-04	
31	1.550000e+00	1.247241e-04	
32	1.600000e+00	1.217426e-04	
33	1.650000e+00	1.187676e-04	
34	1.700000e+00	1.157992e-04	
35	1.750000e+00	1.128373e-04	
36	1.800000e+00	1.098819e-04	
37	1.850000e+00	1.069329e-04	
38	1.900000e+00	1.039904e-04	
39	1.950000e+00	1.010542e-04	
40	2.000000e+00	9.812446e-05	
41	2.050000e+00	9.520104e-05	
42	2.100000e+00	9.228395e-05	
43	2.150000e+00	8.937314e-05	
44	2.200000e+00	8.646858e-05	
45	2.250000e+00	8.357024e-05	
46	2.300000e+00	8.067808e-05	
47	2.350000e+00	7.779206e-05	
48	2.400000e+00	7.491213e-05	
49	2.450000e+00	7.203826e-05	
50	2.500000e+00	6.917040e-05	
51	2.550000e+00	6.630849e-05	
52	2.600000e+00	6.345250e-05	
53	2.650000e+00	6.060237e-05	
54	2.700000e+00	5.775806e-05	

Index   v-sweep         rds             
--------------------------------------------------------------------------------
55	2.750000e+00	5.491956e-05	
56	2.800000e+00	5.208685e-05	
57	2.850000e+00	4.925998e-05	
58	2.900000e+00	4.643906e-05	
59	2.950000e+00	4.362432e-05	
60	3.000000e+00	4.081620e-05	
61	3.050000e+00	3.801546e-05	
62	3.100000e+00	3.522339e-05	
63	3.150000e+00	3.244216e-05	
64	3.200000e+00	2.967532e-05	
65	3.250000e+00	2.692865e-05	
66	3.300000e+00	2.421132e-05	
67	3.350000e+00	2.153762e-05	
68	3.400000e+00	1.892886e-05	
69	3.450000e+00	1.641519e-05	
70	3.500000e+00	1.403584e-05	
71	3.550000e+00	1.183620e-05	
72	3.600000e+00	9.860536e-06	
73	3.650000e+00	8.141864e-06	
74	3.700000e+00	6.693380e-06	
75	3.750000e+00	5.506052e-06	
76	3.800000e+00	4.553217e-06	
77	3.850000e+00	3.798870e-06	
78	3.900000e+00	3.205433e-06	
79	3.950000e+00	2.738756e-06	
80	4.000000e+00	2.370283e-06	
81	4.050000e+00	2.077316e-06	
82	4.100000e+00	1.842337e-06	
83	4.150000e+00	1.652039e-06	
84	4.200000e+00	1.496381e-06	
85	4.250000e+00	1.367788e-06	
86	4.300000e+00	1.260528e-06	
87	4.350000e+00	1.170238e-06	
88	4.400000e+00	1.093571e-06	
89	4.450000e+00	1.027942e-06	
90	4.500000e+00	9.713336e-07	
91	4.550000e+00	9.221594e-07	
92	4.600000e+00	8.791616e-07	
93	4.650000e+00	8.413340e-07	
94	4.700000e+00	8.078652e-07	
95	4.750000e+00	7.780960e-07	
96	4.800000e+00	7.514871e-07	
97	4.850000e+00	7.275935e-07	
98	4.900000e+00	7.060462e-07	
99	4.950000e+00	6.865371e-07	
100	5.000000e+00	6.688073e-07	
101	5.050000e+00	6.526380e-07	
102	5.100000e+00	6.378435e-07	
103	5.150000e+00	6.242650e-07	
104	5.200000e+00	6.117664e-07	
105	5.250000e+00	6.002306e-07	
106	5.300000e+00	5.895559e-07	
107	5.350000e+00	5.796540e-07	
108	5.400000e+00	5.704479e-07	
109	5.450000e+00	5.618702e-07	
110	5.500000e+00	5.538614e-07	
111	5.550000e+00	5.463694e-07	
112	5.600000e+00	5.393477e-07	

Index   v-sweep         rds             
--------------------------------------------------------------------------------
113	5.650000e+00	5.327553e-07	
114	5.700000e+00	5.265555e-07	
115	5.750000e+00	5.207157e-07	
116	5.800000e+00	5.152066e-07	
117	5.850000e+00	5.100020e-07	
118	5.900000e+00	5.050782e-07	
119	5.950000e+00	5.004140e-07	
120	6.000000e+00	4.959900e-07	
121	6.050000e+00	4.917887e-07	
122	6.100000e+00	4.877944e-07	
123	6.150000e+00	4.839927e-07	
124	6.200000e+00	4.803703e-07	
125	6.250000e+00	4.769153e-07	
126	6.300000e+00	4.736167e-07	
127	6.350000e+00	4.704644e-07	
128	6.400000e+00	4.674492e-07	
129	6.450000e+00	4.645626e-07	
130	6.500000e+00	4.617968e-07	
131	6.550000e+00	4.591446e-07	
132	6.600000e+00	4.565993e-07	
Reset re-loads circuit ***************************

Circuit: ***************************

Doing analysis at TEMP = 125.000000 and TNOM = 125.000000


No. of Data Rows : 133
                          ***************************
                          DC transfer characteristic  Mon Jan  9 13:58:39  2023
--------------------------------------------------------------------------------
Index   v-sweep         rds             
--------------------------------------------------------------------------------
0	0.000000e+00	2.436146e-04	
1	5.000000e-02	2.407869e-04	
2	1.000000e-01	2.379650e-04	
3	1.500000e-01	2.351489e-04	
4	2.000000e-01	2.323387e-04	
5	2.500000e-01	2.295342e-04	
6	3.000000e-01	2.267354e-04	
7	3.500000e-01	2.239424e-04	
8	4.000000e-01	2.211552e-04	
9	4.500000e-01	2.183736e-04	
10	5.000000e-01	2.155978e-04	
11	5.500000e-01	2.128276e-04	
12	6.000000e-01	2.100631e-04	
13	6.500000e-01	2.073043e-04	
14	7.000000e-01	2.045511e-04	
15	7.500000e-01	2.018036e-04	
16	8.000000e-01	1.990616e-04	
17	8.500000e-01	1.963253e-04	
18	9.000000e-01	1.935945e-04	
19	9.500000e-01	1.908693e-04	
20	1.000000e+00	1.881497e-04	
21	1.050000e+00	1.854356e-04	
22	1.100000e+00	1.827270e-04	
23	1.150000e+00	1.800239e-04	
24	1.200000e+00	1.773263e-04	
25	1.250000e+00	1.746342e-04	
26	1.300000e+00	1.719476e-04	
27	1.350000e+00	1.692664e-04	
28	1.400000e+00	1.665906e-04	
29	1.450000e+00	1.639203e-04	
30	1.500000e+00	1.612554e-04	
31	1.550000e+00	1.585958e-04	
32	1.600000e+00	1.559416e-04	
33	1.650000e+00	1.532928e-04	
34	1.700000e+00	1.506493e-04	
35	1.750000e+00	1.480112e-04	
36	1.800000e+00	1.453784e-04	
37	1.850000e+00	1.427508e-04	
38	1.900000e+00	1.401286e-04	
39	1.950000e+00	1.375116e-04	
40	2.000000e+00	1.348998e-04	
41	2.050000e+00	1.322933e-04	
42	2.100000e+00	1.296920e-04	
43	2.150000e+00	1.270959e-04	
44	2.200000e+00	1.245050e-04	
45	2.250000e+00	1.219193e-04	
46	2.300000e+00	1.193387e-04	
47	2.350000e+00	1.167632e-04	
48	2.400000e+00	1.141928e-04	
49	2.450000e+00	1.116276e-04	
50	2.500000e+00	1.090674e-04	
51	2.550000e+00	1.065122e-04	
52	2.600000e+00	1.039621e-04	
53	2.650000e+00	1.014169e-04	
54	2.700000e+00	9.887680e-05	

Index   v-sweep         rds             
--------------------------------------------------------------------------------
55	2.750000e+00	9.634160e-05	
56	2.800000e+00	9.381133e-05	
57	2.850000e+00	9.128595e-05	
58	2.900000e+00	8.876543e-05	
59	2.950000e+00	8.624975e-05	
60	3.000000e+00	8.373885e-05	
61	3.050000e+00	8.123270e-05	
62	3.100000e+00	7.873126e-05	
63	3.150000e+00	7.623448e-05	
64	3.200000e+00	7.374230e-05	
65	3.250000e+00	7.125466e-05	
66	3.300000e+00	6.877149e-05	
67	3.350000e+00	6.629272e-05	
68	3.400000e+00	6.381828e-05	
69	3.450000e+00	6.134805e-05	
70	3.500000e+00	5.888195e-05	
71	3.550000e+00	5.641987e-05	
72	3.600000e+00	5.396168e-05	
73	3.650000e+00	5.150727e-05	
74	3.700000e+00	4.905650e-05	
75	3.750000e+00	4.660927e-05	
76	3.800000e+00	4.416551e-05	
77	3.850000e+00	4.172518e-05	
78	3.900000e+00	3.928841e-05	
79	3.950000e+00	3.685550e-05	
80	4.000000e+00	3.442710e-05	
81	4.050000e+00	3.200446e-05	
82	4.100000e+00	2.958976e-05	
83	4.150000e+00	2.718662e-05	
84	4.200000e+00	2.480095e-05	
85	4.250000e+00	2.244191e-05	
86	4.300000e+00	2.012324e-05	
87	4.350000e+00	1.786445e-05	
88	4.400000e+00	1.569142e-05	
89	4.450000e+00	1.363556e-05	
90	4.500000e+00	1.173068e-05	
91	4.550000e+00	1.000761e-05	
92	4.600000e+00	8.488109e-06	
93	4.650000e+00	7.180529e-06	
94	4.700000e+00	6.079020e-06	
95	4.750000e+00	5.166351e-06	
96	4.800000e+00	4.418597e-06	
97	4.850000e+00	3.809695e-06	
98	4.900000e+00	3.314727e-06	
99	4.950000e+00	2.911705e-06	
100	5.000000e+00	2.582191e-06	
101	5.050000e+00	2.311215e-06	
102	5.100000e+00	2.086857e-06	
103	5.150000e+00	1.899730e-06	
104	5.200000e+00	1.742474e-06	
105	5.250000e+00	1.609325e-06	
106	5.300000e+00	1.495759e-06	
107	5.350000e+00	1.398208e-06	
108	5.400000e+00	1.313849e-06	
109	5.450000e+00	1.240430e-06	
110	5.500000e+00	1.176148e-06	
111	5.550000e+00	1.119544e-06	
112	5.600000e+00	1.069437e-06	

Index   v-sweep         rds             
--------------------------------------------------------------------------------
113	5.650000e+00	1.024858e-06	
114	5.700000e+00	9.850111e-07	
115	5.750000e+00	9.492374e-07	
116	5.800000e+00	9.169879e-07	
117	5.850000e+00	8.878025e-07	
118	5.900000e+00	8.612940e-07	
119	5.950000e+00	8.371345e-07	
120	6.000000e+00	8.150448e-07	
121	6.050000e+00	7.947863e-07	
122	6.100000e+00	7.761542e-07	
123	6.150000e+00	7.589715e-07	
124	6.200000e+00	7.430852e-07	
125	6.250000e+00	7.283619e-07	
126	6.300000e+00	7.146854e-07	
127	6.350000e+00	7.019537e-07	
128	6.400000e+00	6.900772e-07	
129	6.450000e+00	6.789769e-07	
130	6.500000e+00	6.685828e-07	
131	6.550000e+00	6.588328e-07	
132	6.600000e+00	6.496717e-07	
Reset re-loads circuit ***************************

Circuit: ***************************

Note: No ".plot", ".print", or ".fourier" lines; no simulations run
