
Note: Compatibility modes selected: hs

Warning: m=xx on .subckt line will override multiplier m hierarchy!


Circuit: ***************************

Doing analysis at TEMP = 125.000000 and TNOM = 125.000000


No. of Data Rows : 133
                          ***************************
                          DC transfer characteristic  Mon Jan  9 13:58:40  2023
--------------------------------------------------------------------------------
Index   v-sweep         rds             
--------------------------------------------------------------------------------
0	0.000000e+00	2.124952e-06	
1	5.000000e-02	1.860750e-06	
2	1.000000e-01	1.598382e-06	
3	1.500000e-01	1.338161e-06	
4	2.000000e-01	1.080819e-06	
5	2.500000e-01	8.282142e-07	
6	3.000000e-01	5.853846e-07	
7	3.500000e-01	3.656530e-07	
8	4.000000e-01	1.952622e-07	
9	4.500000e-01	9.427226e-08	
10	5.000000e-01	4.753561e-08	
11	5.500000e-01	2.745199e-08	
12	6.000000e-01	1.824570e-08	
13	6.500000e-01	1.354535e-08	
14	7.000000e-01	1.088400e-08	
15	7.500000e-01	9.240551e-09	
16	8.000000e-01	8.152151e-09	
17	8.500000e-01	7.389853e-09	
18	9.000000e-01	6.831412e-09	
19	9.500000e-01	6.407149e-09	
20	1.000000e+00	6.075081e-09	
21	1.050000e+00	5.808693e-09	
22	1.100000e+00	5.590551e-09	
23	1.150000e+00	5.408788e-09	
24	1.200000e+00	5.255078e-09	
25	1.250000e+00	5.123427e-09	
26	1.300000e+00	5.009420e-09	
27	1.350000e+00	4.909737e-09	
28	1.400000e+00	4.821837e-09	
29	1.450000e+00	4.743745e-09	
30	1.500000e+00	4.673900e-09	
31	1.550000e+00	4.611059e-09	
32	1.600000e+00	4.554213e-09	
33	1.650000e+00	4.502541e-09	
34	1.700000e+00	4.455363e-09	
35	1.750000e+00	4.412115e-09	
36	1.800000e+00	4.372323e-09	
37	1.850000e+00	4.335587e-09	
38	1.900000e+00	4.301566e-09	
39	1.950000e+00	4.269968e-09	
40	2.000000e+00	4.240542e-09	
41	2.050000e+00	4.213071e-09	
42	2.100000e+00	4.187365e-09	
43	2.150000e+00	4.163259e-09	
44	2.200000e+00	4.140607e-09	
45	2.250000e+00	4.119282e-09	
46	2.300000e+00	4.099169e-09	
47	2.350000e+00	4.080168e-09	
48	2.400000e+00	4.062188e-09	
49	2.450000e+00	4.045150e-09	
50	2.500000e+00	4.028981e-09	
51	2.550000e+00	4.013617e-09	
52	2.600000e+00	3.998997e-09	
53	2.650000e+00	3.985071e-09	
54	2.700000e+00	3.971788e-09	

Index   v-sweep         rds             
--------------------------------------------------------------------------------
55	2.750000e+00	3.959106e-09	
56	2.800000e+00	3.946985e-09	
57	2.850000e+00	3.935388e-09	
58	2.900000e+00	3.924283e-09	
59	2.950000e+00	3.913637e-09	
60	3.000000e+00	3.903425e-09	
61	3.050000e+00	3.893618e-09	
62	3.100000e+00	3.884195e-09	
63	3.150000e+00	3.875133e-09	
64	3.200000e+00	3.866411e-09	
65	3.250000e+00	3.858011e-09	
66	3.300000e+00	3.849915e-09	
67	3.350000e+00	3.842108e-09	
68	3.400000e+00	3.834573e-09	
69	3.450000e+00	3.827297e-09	
70	3.500000e+00	3.820268e-09	
71	3.550000e+00	3.813472e-09	
72	3.600000e+00	3.806898e-09	
73	3.650000e+00	3.800536e-09	
74	3.700000e+00	3.794375e-09	
75	3.750000e+00	3.788407e-09	
76	3.800000e+00	3.782622e-09	
77	3.850000e+00	3.777012e-09	
78	3.900000e+00	3.771569e-09	
79	3.950000e+00	3.766286e-09	
80	4.000000e+00	3.761157e-09	
81	4.050000e+00	3.756173e-09	
82	4.100000e+00	3.751330e-09	
83	4.150000e+00	3.746622e-09	
84	4.200000e+00	3.742043e-09	
85	4.250000e+00	3.737587e-09	
86	4.300000e+00	3.733251e-09	
87	4.350000e+00	3.729028e-09	
88	4.400000e+00	3.724916e-09	
89	4.450000e+00	3.720909e-09	
90	4.500000e+00	3.717004e-09	
91	4.550000e+00	3.713196e-09	
92	4.600000e+00	3.709483e-09	
93	4.650000e+00	3.705861e-09	
94	4.700000e+00	3.702326e-09	
95	4.750000e+00	3.698875e-09	
96	4.800000e+00	3.695506e-09	
97	4.850000e+00	3.692216e-09	
98	4.900000e+00	3.689002e-09	
99	4.950000e+00	3.685861e-09	
100	5.000000e+00	3.682791e-09	
101	5.050000e+00	3.679789e-09	
102	5.100000e+00	3.676854e-09	
103	5.150000e+00	3.673983e-09	
104	5.200000e+00	3.671174e-09	
105	5.250000e+00	3.668425e-09	
106	5.300000e+00	3.665734e-09	
107	5.350000e+00	3.663100e-09	
108	5.400000e+00	3.660520e-09	
109	5.450000e+00	3.657993e-09	
110	5.500000e+00	3.655518e-09	
111	5.550000e+00	3.653093e-09	
112	5.600000e+00	3.650716e-09	

Index   v-sweep         rds             
--------------------------------------------------------------------------------
113	5.650000e+00	3.648386e-09	
114	5.700000e+00	3.646102e-09	
115	5.750000e+00	3.643862e-09	
116	5.800000e+00	3.641665e-09	
117	5.850000e+00	3.639509e-09	
118	5.900000e+00	3.637395e-09	
119	5.950000e+00	3.635320e-09	
120	6.000000e+00	3.633283e-09	
121	6.050000e+00	3.631284e-09	
122	6.100000e+00	3.629321e-09	
123	6.150000e+00	3.627394e-09	
124	6.200000e+00	3.625501e-09	
125	6.250000e+00	3.623642e-09	
126	6.300000e+00	3.621815e-09	
127	6.350000e+00	3.620020e-09	
128	6.400000e+00	3.618257e-09	
129	6.450000e+00	3.616523e-09	
130	6.500000e+00	3.614819e-09	
131	6.550000e+00	3.613144e-09	
132	6.600000e+00	3.611497e-09	
Reset re-loads circuit ***************************

Circuit: ***************************

Doing analysis at TEMP = 125.000000 and TNOM = 125.000000


No. of Data Rows : 133
                          ***************************
                          DC transfer characteristic  Mon Jan  9 13:58:40  2023
--------------------------------------------------------------------------------
Index   v-sweep         rds             
--------------------------------------------------------------------------------
0	0.000000e+00	6.133404e-06	
1	5.000000e-02	5.856758e-06	
2	1.000000e-01	5.581730e-06	
3	1.500000e-01	5.308309e-06	
4	2.000000e-01	5.036485e-06	
5	2.500000e-01	4.766250e-06	
6	3.000000e-01	4.497596e-06	
7	3.500000e-01	4.230515e-06	
8	4.000000e-01	3.965005e-06	
9	4.500000e-01	3.701062e-06	
10	5.000000e-01	3.438692e-06	
11	5.500000e-01	3.177906e-06	
12	6.000000e-01	2.918728e-06	
13	6.500000e-01	2.661202e-06	
14	7.000000e-01	2.405409e-06	
15	7.500000e-01	2.151494e-06	
16	8.000000e-01	1.899720e-06	
17	8.500000e-01	1.650580e-06	
18	9.000000e-01	1.405017e-06	
19	9.500000e-01	1.164861e-06	
20	1.000000e+00	9.336353e-07	
21	1.050000e+00	7.176909e-07	
22	1.100000e+00	5.267473e-07	
23	1.150000e+00	3.714007e-07	
24	1.200000e+00	2.569324e-07	
25	1.250000e+00	1.794666e-07	
26	1.300000e+00	1.294519e-07	
27	1.350000e+00	9.739485e-08	
28	1.400000e+00	7.644617e-08	
29	1.450000e+00	6.231226e-08	
30	1.500000e+00	5.243297e-08	
31	1.550000e+00	4.528773e-08	
32	1.600000e+00	3.995703e-08	
33	1.650000e+00	3.586950e-08	
34	1.700000e+00	3.265931e-08	
35	1.750000e+00	3.008519e-08	
36	1.800000e+00	2.798345e-08	
37	1.850000e+00	2.624018e-08	
38	1.900000e+00	2.477418e-08	
39	1.950000e+00	2.352635e-08	
40	2.000000e+00	2.245280e-08	
41	2.050000e+00	2.152039e-08	
42	2.100000e+00	2.070371e-08	
43	2.150000e+00	1.998294e-08	
44	2.200000e+00	1.934248e-08	
45	2.250000e+00	1.876988e-08	
46	2.300000e+00	1.825508e-08	
47	2.350000e+00	1.778989e-08	
48	2.400000e+00	1.736757e-08	
49	2.450000e+00	1.698255e-08	
50	2.500000e+00	1.663015e-08	
51	2.550000e+00	1.630646e-08	
52	2.600000e+00	1.600812e-08	
53	2.650000e+00	1.573232e-08	
54	2.700000e+00	1.547662e-08	

Index   v-sweep         rds             
--------------------------------------------------------------------------------
55	2.750000e+00	1.523891e-08	
56	2.800000e+00	1.501738e-08	
57	2.850000e+00	1.481044e-08	
58	2.900000e+00	1.461671e-08	
59	2.950000e+00	1.443498e-08	
60	3.000000e+00	1.426416e-08	
61	3.050000e+00	1.410332e-08	
62	3.100000e+00	1.395161e-08	
63	3.150000e+00	1.380827e-08	
64	3.200000e+00	1.367264e-08	
65	3.250000e+00	1.354411e-08	
66	3.300000e+00	1.342215e-08	
67	3.350000e+00	1.330627e-08	
68	3.400000e+00	1.319602e-08	
69	3.450000e+00	1.309100e-08	
70	3.500000e+00	1.299086e-08	
71	3.550000e+00	1.289526e-08	
72	3.600000e+00	1.280391e-08	
73	3.650000e+00	1.271652e-08	
74	3.700000e+00	1.263285e-08	
75	3.750000e+00	1.255266e-08	
76	3.800000e+00	1.247575e-08	
77	3.850000e+00	1.240191e-08	
78	3.900000e+00	1.233097e-08	
79	3.950000e+00	1.226275e-08	
80	4.000000e+00	1.219712e-08	
81	4.050000e+00	1.213392e-08	
82	4.100000e+00	1.207301e-08	
83	4.150000e+00	1.201429e-08	
84	4.200000e+00	1.195763e-08	
85	4.250000e+00	1.190293e-08	
86	4.300000e+00	1.185008e-08	
87	4.350000e+00	1.179900e-08	
88	4.400000e+00	1.174960e-08	
89	4.450000e+00	1.170180e-08	
90	4.500000e+00	1.165551e-08	
91	4.550000e+00	1.161068e-08	
92	4.600000e+00	1.156723e-08	
93	4.650000e+00	1.152510e-08	
94	4.700000e+00	1.148424e-08	
95	4.750000e+00	1.144457e-08	
96	4.800000e+00	1.140607e-08	
97	4.850000e+00	1.136866e-08	
98	4.900000e+00	1.133232e-08	
99	4.950000e+00	1.129698e-08	
100	5.000000e+00	1.126262e-08	
101	5.050000e+00	1.122919e-08	
102	5.100000e+00	1.119666e-08	
103	5.150000e+00	1.116498e-08	
104	5.200000e+00	1.113413e-08	
105	5.250000e+00	1.110408e-08	
106	5.300000e+00	1.107479e-08	
107	5.350000e+00	1.104624e-08	
108	5.400000e+00	1.101839e-08	
109	5.450000e+00	1.099123e-08	
110	5.500000e+00	1.096472e-08	
111	5.550000e+00	1.093885e-08	
112	5.600000e+00	1.091359e-08	

Index   v-sweep         rds             
--------------------------------------------------------------------------------
113	5.650000e+00	1.088892e-08	
114	5.700000e+00	1.086482e-08	
115	5.750000e+00	1.084127e-08	
116	5.800000e+00	1.081826e-08	
117	5.850000e+00	1.079576e-08	
118	5.900000e+00	1.077375e-08	
119	5.950000e+00	1.075223e-08	
120	6.000000e+00	1.073117e-08	
121	6.050000e+00	1.071056e-08	
122	6.100000e+00	1.069039e-08	
123	6.150000e+00	1.067065e-08	
124	6.200000e+00	1.065131e-08	
125	6.250000e+00	1.063237e-08	
126	6.300000e+00	1.061381e-08	
127	6.350000e+00	1.059563e-08	
128	6.400000e+00	1.057781e-08	
129	6.450000e+00	1.056034e-08	
130	6.500000e+00	1.054322e-08	
131	6.550000e+00	1.052642e-08	
132	6.600000e+00	1.050995e-08	
Reset re-loads circuit ***************************

Circuit: ***************************

Doing analysis at TEMP = 125.000000 and TNOM = 125.000000


No. of Data Rows : 133
                          ***************************
                          DC transfer characteristic  Mon Jan  9 13:58:40  2023
--------------------------------------------------------------------------------
Index   v-sweep         rds             
--------------------------------------------------------------------------------
0	0.000000e+00	9.430989e-06	
1	5.000000e-02	9.165526e-06	
2	1.000000e-01	8.901553e-06	
3	1.500000e-01	8.639061e-06	
4	2.000000e-01	8.378039e-06	
5	2.500000e-01	8.118475e-06	
6	3.000000e-01	7.860360e-06	
7	3.500000e-01	7.603682e-06	
8	4.000000e-01	7.348432e-06	
9	4.500000e-01	7.094600e-06	
10	5.000000e-01	6.842174e-06	
11	5.500000e-01	6.591145e-06	
12	6.000000e-01	6.341502e-06	
13	6.500000e-01	6.093236e-06	
14	7.000000e-01	5.846337e-06	
15	7.500000e-01	5.600794e-06	
16	8.000000e-01	5.356598e-06	
17	8.500000e-01	5.113740e-06	
18	9.000000e-01	4.872208e-06	
19	9.500000e-01	4.631995e-06	
20	1.000000e+00	4.393090e-06	
21	1.050000e+00	4.155484e-06	
22	1.100000e+00	3.919170e-06	
23	1.150000e+00	3.684140e-06	
24	1.200000e+00	3.450388e-06	
25	1.250000e+00	3.217915e-06	
26	1.300000e+00	2.986723e-06	
27	1.350000e+00	2.756832e-06	
28	1.400000e+00	2.528278e-06	
29	1.450000e+00	2.301143e-06	
30	1.500000e+00	2.075584e-06	
31	1.550000e+00	1.851904e-06	
32	1.600000e+00	1.630683e-06	
33	1.650000e+00	1.413012e-06	
34	1.700000e+00	1.200876e-06	
35	1.750000e+00	9.976671e-07	
36	1.800000e+00	8.085378e-07	
37	1.850000e+00	6.399199e-07	
38	1.900000e+00	4.976138e-07	
39	1.950000e+00	3.842379e-07	
40	2.000000e+00	2.981604e-07	
41	2.050000e+00	2.347701e-07	
42	2.100000e+00	1.886321e-07	
43	2.150000e+00	1.549523e-07	
44	2.200000e+00	1.300652e-07	
45	2.250000e+00	1.113610e-07	
46	2.300000e+00	9.703822e-08	
47	2.350000e+00	8.586362e-08	
48	2.400000e+00	7.698886e-08	
49	2.450000e+00	6.982376e-08	
50	2.500000e+00	6.395162e-08	
51	2.550000e+00	5.907345e-08	
52	2.600000e+00	5.497122e-08	
53	2.650000e+00	5.148336e-08	
54	2.700000e+00	4.848837e-08	

Index   v-sweep         rds             
--------------------------------------------------------------------------------
55	2.750000e+00	4.589352e-08	
56	2.800000e+00	4.362714e-08	
57	2.850000e+00	4.163311e-08	
58	2.900000e+00	3.986700e-08	
59	2.950000e+00	3.829325e-08	
60	3.000000e+00	3.688313e-08	
61	3.050000e+00	3.561318e-08	
62	3.100000e+00	3.446414e-08	
63	3.150000e+00	3.342002e-08	
64	3.200000e+00	3.246747e-08	
65	3.250000e+00	3.159526e-08	
66	3.300000e+00	3.079388e-08	
67	3.350000e+00	3.005525e-08	
68	3.400000e+00	2.937244e-08	
69	3.450000e+00	2.873949e-08	
70	3.500000e+00	2.815124e-08	
71	3.550000e+00	2.760321e-08	
72	3.600000e+00	2.709149e-08	
73	3.650000e+00	2.661265e-08	
74	3.700000e+00	2.616368e-08	
75	3.750000e+00	2.574190e-08	
76	3.800000e+00	2.534497e-08	
77	3.850000e+00	2.497079e-08	
78	3.900000e+00	2.461747e-08	
79	3.950000e+00	2.428336e-08	
80	4.000000e+00	2.396694e-08	
81	4.050000e+00	2.366687e-08	
82	4.100000e+00	2.338192e-08	
83	4.150000e+00	2.311100e-08	
84	4.200000e+00	2.285311e-08	
85	4.250000e+00	2.260734e-08	
86	4.300000e+00	2.237287e-08	
87	4.350000e+00	2.214894e-08	
88	4.400000e+00	2.193486e-08	
89	4.450000e+00	2.173001e-08	
90	4.500000e+00	2.153381e-08	
91	4.550000e+00	2.134573e-08	
92	4.600000e+00	2.116527e-08	
93	4.650000e+00	2.099199e-08	
94	4.700000e+00	2.082548e-08	
95	4.750000e+00	2.066534e-08	
96	4.800000e+00	2.051122e-08	
97	4.850000e+00	2.036279e-08	
98	4.900000e+00	2.021975e-08	
99	4.950000e+00	2.008181e-08	
100	5.000000e+00	1.994869e-08	
101	5.050000e+00	1.982017e-08	
102	5.100000e+00	1.969600e-08	
103	5.150000e+00	1.957596e-08	
104	5.200000e+00	1.945987e-08	
105	5.250000e+00	1.934752e-08	
106	5.300000e+00	1.923874e-08	
107	5.350000e+00	1.913336e-08	
108	5.400000e+00	1.903123e-08	
109	5.450000e+00	1.893221e-08	
110	5.500000e+00	1.883614e-08	
111	5.550000e+00	1.874291e-08	
112	5.600000e+00	1.865239e-08	

Index   v-sweep         rds             
--------------------------------------------------------------------------------
113	5.650000e+00	1.856447e-08	
114	5.700000e+00	1.847902e-08	
115	5.750000e+00	1.839597e-08	
116	5.800000e+00	1.831519e-08	
117	5.850000e+00	1.823661e-08	
118	5.900000e+00	1.816013e-08	
119	5.950000e+00	1.808568e-08	
120	6.000000e+00	1.801316e-08	
121	6.050000e+00	1.794252e-08	
122	6.100000e+00	1.787367e-08	
123	6.150000e+00	1.780656e-08	
124	6.200000e+00	1.774111e-08	
125	6.250000e+00	1.767727e-08	
126	6.300000e+00	1.761497e-08	
127	6.350000e+00	1.755417e-08	
128	6.400000e+00	1.749480e-08	
129	6.450000e+00	1.743683e-08	
130	6.500000e+00	1.738020e-08	
131	6.550000e+00	1.732486e-08	
132	6.600000e+00	1.727078e-08	
Reset re-loads circuit ***************************

Circuit: ***************************

Doing analysis at TEMP = 125.000000 and TNOM = 125.000000


No. of Data Rows : 133
                          ***************************
                          DC transfer characteristic  Mon Jan  9 13:58:40  2023
--------------------------------------------------------------------------------
Index   v-sweep         rds             
--------------------------------------------------------------------------------
0	0.000000e+00	1.206660e-05	
1	5.000000e-02	1.181902e-05	
2	1.000000e-01	1.157274e-05	
3	1.500000e-01	1.132775e-05	
4	2.000000e-01	1.108404e-05	
5	2.500000e-01	1.084160e-05	
6	3.000000e-01	1.060042e-05	
7	3.500000e-01	1.036051e-05	
8	4.000000e-01	1.012184e-05	
9	4.500000e-01	9.884403e-06	
10	5.000000e-01	9.648202e-06	
11	5.500000e-01	9.413222e-06	
12	6.000000e-01	9.179456e-06	
13	6.500000e-01	8.946894e-06	
14	7.000000e-01	8.715530e-06	
15	7.500000e-01	8.485355e-06	
16	8.000000e-01	8.256360e-06	
17	8.500000e-01	8.028537e-06	
18	9.000000e-01	7.801878e-06	
19	9.500000e-01	7.576375e-06	
20	1.000000e+00	7.352019e-06	
21	1.050000e+00	7.128803e-06	
22	1.100000e+00	6.906717e-06	
23	1.150000e+00	6.685754e-06	
24	1.200000e+00	6.465905e-06	
25	1.250000e+00	6.247161e-06	
26	1.300000e+00	6.029512e-06	
27	1.350000e+00	5.812951e-06	
28	1.400000e+00	5.597467e-06	
29	1.450000e+00	5.383049e-06	
30	1.500000e+00	5.169689e-06	
31	1.550000e+00	4.957373e-06	
32	1.600000e+00	4.746090e-06	
33	1.650000e+00	4.535827e-06	
34	1.700000e+00	4.326568e-06	
35	1.750000e+00	4.118297e-06	
36	1.800000e+00	3.910995e-06	
37	1.850000e+00	3.704641e-06	
38	1.900000e+00	3.499210e-06	
39	1.950000e+00	3.294676e-06	
40	2.000000e+00	3.091006e-06	
41	2.050000e+00	2.888168e-06	
42	2.100000e+00	2.686131e-06	
43	2.150000e+00	2.484870e-06	
44	2.200000e+00	2.284388e-06	
45	2.250000e+00	2.084742e-06	
46	2.300000e+00	1.886114e-06	
47	2.350000e+00	1.688919e-06	
48	2.400000e+00	1.494006e-06	
49	2.450000e+00	1.302942e-06	
50	2.500000e+00	1.118338e-06	
51	2.550000e+00	9.439909e-07	
52	2.600000e+00	7.845151e-07	
53	2.650000e+00	6.442412e-07	
54	2.700000e+00	5.258176e-07	

Index   v-sweep         rds             
--------------------------------------------------------------------------------
55	2.750000e+00	4.294088e-07	
56	2.800000e+00	3.529895e-07	
57	2.850000e+00	2.933380e-07	
58	2.900000e+00	2.470145e-07	
59	2.950000e+00	2.109504e-07	
60	3.000000e+00	1.826604e-07	
61	3.050000e+00	1.602356e-07	
62	3.100000e+00	1.422488e-07	
63	3.150000e+00	1.276448e-07	
64	3.200000e+00	1.156444e-07	
65	3.250000e+00	1.056701e-07	
66	3.300000e+00	9.729041e-08	
67	3.350000e+00	9.017982e-08	
68	3.400000e+00	8.409039e-08	
69	3.450000e+00	7.883115e-08	
70	3.500000e+00	7.425350e-08	
71	3.550000e+00	7.024057e-08	
72	3.600000e+00	6.669956e-08	
73	3.650000e+00	6.355610e-08	
74	3.700000e+00	6.075001e-08	
75	3.750000e+00	5.823224e-08	
76	3.800000e+00	5.596246e-08	
77	3.850000e+00	5.390726e-08	
78	3.900000e+00	5.203881e-08	
79	3.950000e+00	5.033370e-08	
80	4.000000e+00	4.877220e-08	
81	4.050000e+00	4.733752e-08	
82	4.100000e+00	4.601533e-08	
83	4.150000e+00	4.479331e-08	
84	4.200000e+00	4.366086e-08	
85	4.250000e+00	4.260875e-08	
86	4.300000e+00	4.162897e-08	
87	4.350000e+00	4.071451e-08	
88	4.400000e+00	3.985924e-08	
89	4.450000e+00	3.905771e-08	
90	4.500000e+00	3.830516e-08	
91	4.550000e+00	3.759732e-08	
92	4.600000e+00	3.693042e-08	
93	4.650000e+00	3.630108e-08	
94	4.700000e+00	3.570630e-08	
95	4.750000e+00	3.514335e-08	
96	4.800000e+00	3.460979e-08	
97	4.850000e+00	3.410344e-08	
98	4.900000e+00	3.362230e-08	
99	4.950000e+00	3.316456e-08	
100	5.000000e+00	3.272860e-08	
101	5.050000e+00	3.231292e-08	
102	5.100000e+00	3.191616e-08	
103	5.150000e+00	3.153708e-08	
104	5.200000e+00	3.117454e-08	
105	5.250000e+00	3.082751e-08	
106	5.300000e+00	3.049501e-08	
107	5.350000e+00	3.017618e-08	
108	5.400000e+00	2.987019e-08	
109	5.450000e+00	2.957630e-08	
110	5.500000e+00	2.929381e-08	
111	5.550000e+00	2.902209e-08	
112	5.600000e+00	2.876053e-08	

Index   v-sweep         rds             
--------------------------------------------------------------------------------
113	5.650000e+00	2.850859e-08	
114	5.700000e+00	2.826574e-08	
115	5.750000e+00	2.803152e-08	
116	5.800000e+00	2.780547e-08	
117	5.850000e+00	2.758719e-08	
118	5.900000e+00	2.737628e-08	
119	5.950000e+00	2.717237e-08	
120	6.000000e+00	2.697514e-08	
121	6.050000e+00	2.678426e-08	
122	6.100000e+00	2.659943e-08	
123	6.150000e+00	2.642038e-08	
124	6.200000e+00	2.624683e-08	
125	6.250000e+00	2.607854e-08	
126	6.300000e+00	2.591529e-08	
127	6.350000e+00	2.575684e-08	
128	6.400000e+00	2.560300e-08	
129	6.450000e+00	2.545356e-08	
130	6.500000e+00	2.530834e-08	
131	6.550000e+00	2.516717e-08	
132	6.600000e+00	2.502988e-08	
Reset re-loads circuit ***************************

Circuit: ***************************

Doing analysis at TEMP = 125.000000 and TNOM = 125.000000


No. of Data Rows : 133
                          ***************************
                          DC transfer characteristic  Mon Jan  9 13:58:40  2023
--------------------------------------------------------------------------------
Index   v-sweep         rds             
--------------------------------------------------------------------------------
0	0.000000e+00	1.411942e-05	
1	5.000000e-02	1.389261e-05	
2	1.000000e-01	1.366689e-05	
3	1.500000e-01	1.344227e-05	
4	2.000000e-01	1.321873e-05	
5	2.500000e-01	1.299626e-05	
6	3.000000e-01	1.277486e-05	
7	3.500000e-01	1.255452e-05	
8	4.000000e-01	1.233524e-05	
9	4.500000e-01	1.211700e-05	
10	5.000000e-01	1.189981e-05	
11	5.500000e-01	1.168365e-05	
12	6.000000e-01	1.146853e-05	
13	6.500000e-01	1.125442e-05	
14	7.000000e-01	1.104133e-05	
15	7.500000e-01	1.082925e-05	
16	8.000000e-01	1.061818e-05	
17	8.500000e-01	1.040810e-05	
18	9.000000e-01	1.019901e-05	
19	9.500000e-01	9.990906e-06	
20	1.000000e+00	9.783782e-06	
21	1.050000e+00	9.577630e-06	
22	1.100000e+00	9.372445e-06	
23	1.150000e+00	9.168219e-06	
24	1.200000e+00	8.964948e-06	
25	1.250000e+00	8.762625e-06	
26	1.300000e+00	8.561243e-06	
27	1.350000e+00	8.360797e-06	
28	1.400000e+00	8.161280e-06	
29	1.450000e+00	7.962687e-06	
30	1.500000e+00	7.765010e-06	
31	1.550000e+00	7.568244e-06	
32	1.600000e+00	7.372382e-06	
33	1.650000e+00	7.177418e-06	
34	1.700000e+00	6.983344e-06	
35	1.750000e+00	6.790155e-06	
36	1.800000e+00	6.597844e-06	
37	1.850000e+00	6.406402e-06	
38	1.900000e+00	6.215822e-06	
39	1.950000e+00	6.026097e-06	
40	2.000000e+00	5.837218e-06	
41	2.050000e+00	5.649176e-06	
42	2.100000e+00	5.461962e-06	
43	2.150000e+00	5.275564e-06	
44	2.200000e+00	5.089972e-06	
45	2.250000e+00	4.905172e-06	
46	2.300000e+00	4.721150e-06	
47	2.350000e+00	4.537890e-06	
48	2.400000e+00	4.355372e-06	
49	2.450000e+00	4.173574e-06	
50	2.500000e+00	3.992470e-06	
51	2.550000e+00	3.812029e-06	
52	2.600000e+00	3.632214e-06	
53	2.650000e+00	3.452981e-06	
54	2.700000e+00	3.274277e-06	

Index   v-sweep         rds             
--------------------------------------------------------------------------------
55	2.750000e+00	3.096037e-06	
56	2.800000e+00	2.918188e-06	
57	2.850000e+00	2.740641e-06	
58	2.900000e+00	2.563301e-06	
59	2.950000e+00	2.386071e-06	
60	3.000000e+00	2.208875e-06	
61	3.050000e+00	2.031693e-06	
62	3.100000e+00	1.854644e-06	
63	3.150000e+00	1.678103e-06	
64	3.200000e+00	1.502903e-06	
65	3.250000e+00	1.330561e-06	
66	3.300000e+00	1.163471e-06	
67	3.350000e+00	1.004878e-06	
68	3.400000e+00	8.584419e-07	
69	3.450000e+00	7.274328e-07	
70	3.500000e+00	6.138823e-07	
71	3.550000e+00	5.181622e-07	
72	3.600000e+00	4.391573e-07	
73	3.650000e+00	3.748195e-07	
74	3.700000e+00	3.227581e-07	
75	3.750000e+00	2.806591e-07	
76	3.800000e+00	2.464999e-07	
77	3.850000e+00	2.186135e-07	
78	3.900000e+00	1.956725e-07	
79	3.950000e+00	1.766394e-07	
80	4.000000e+00	1.607096e-07	
81	4.050000e+00	1.472611e-07	
82	4.100000e+00	1.358116e-07	
83	4.150000e+00	1.259859e-07	
84	4.200000e+00	1.174896e-07	
85	4.250000e+00	1.100909e-07	
86	4.300000e+00	1.036052e-07	
87	4.350000e+00	9.788483e-08	
88	4.400000e+00	9.281056e-08	
89	4.450000e+00	8.828539e-08	
90	4.500000e+00	8.422992e-08	
91	4.550000e+00	8.057862e-08	
92	4.600000e+00	7.727711e-08	
93	4.650000e+00	7.427993e-08	
94	4.700000e+00	7.154887e-08	
95	4.750000e+00	6.905160e-08	
96	4.800000e+00	6.676066e-08	
97	4.850000e+00	6.465258e-08	
98	4.900000e+00	6.270718e-08	
99	4.950000e+00	6.090707e-08	
100	5.000000e+00	5.923717e-08	
101	5.050000e+00	5.768435e-08	
102	5.100000e+00	5.623716e-08	
103	5.150000e+00	5.488553e-08	
104	5.200000e+00	5.362061e-08	
105	5.250000e+00	5.243458e-08	
106	5.300000e+00	5.132050e-08	
107	5.350000e+00	5.027222e-08	
108	5.400000e+00	4.928424e-08	
109	5.450000e+00	4.835165e-08	
110	5.500000e+00	4.747004e-08	
111	5.550000e+00	4.663545e-08	
112	5.600000e+00	4.584432e-08	

Index   v-sweep         rds             
--------------------------------------------------------------------------------
113	5.650000e+00	4.509342e-08	
114	5.700000e+00	4.437984e-08	
115	5.750000e+00	4.370091e-08	
116	5.800000e+00	4.305425e-08	
117	5.850000e+00	4.243764e-08	
118	5.900000e+00	4.184909e-08	
119	5.950000e+00	4.128677e-08	
120	6.000000e+00	4.074899e-08	
121	6.050000e+00	4.023422e-08	
122	6.100000e+00	3.974105e-08	
123	6.150000e+00	3.926815e-08	
124	6.200000e+00	3.881434e-08	
125	6.250000e+00	3.837850e-08	
126	6.300000e+00	3.795961e-08	
127	6.350000e+00	3.755671e-08	
128	6.400000e+00	3.716891e-08	
129	6.450000e+00	3.679541e-08	
130	6.500000e+00	3.643543e-08	
131	6.550000e+00	3.608827e-08	
132	6.600000e+00	3.575327e-08	
Reset re-loads circuit ***************************

Circuit: ***************************

Doing analysis at TEMP = 125.000000 and TNOM = 125.000000


No. of Data Rows : 133
                          ***************************
                          DC transfer characteristic  Mon Jan  9 13:58:40  2023
--------------------------------------------------------------------------------
Index   v-sweep         rds             
--------------------------------------------------------------------------------
0	0.000000e+00	1.560636e-05	
1	5.000000e-02	1.540157e-05	
2	1.000000e-01	1.519768e-05	
3	1.500000e-01	1.499468e-05	
4	2.000000e-01	1.479258e-05	
5	2.500000e-01	1.459137e-05	
6	3.000000e-01	1.439103e-05	
7	3.500000e-01	1.419157e-05	
8	4.000000e-01	1.399298e-05	
9	4.500000e-01	1.379526e-05	
10	5.000000e-01	1.359840e-05	
11	5.500000e-01	1.340240e-05	
12	6.000000e-01	1.320725e-05	
13	6.500000e-01	1.301294e-05	
14	7.000000e-01	1.281948e-05	
15	7.500000e-01	1.262685e-05	
16	8.000000e-01	1.243506e-05	
17	8.500000e-01	1.224410e-05	
18	9.000000e-01	1.205395e-05	
19	9.500000e-01	1.186463e-05	
20	1.000000e+00	1.167612e-05	
21	1.050000e+00	1.148842e-05	
22	1.100000e+00	1.130153e-05	
23	1.150000e+00	1.111543e-05	
24	1.200000e+00	1.093013e-05	
25	1.250000e+00	1.074562e-05	
26	1.300000e+00	1.056190e-05	
27	1.350000e+00	1.037896e-05	
28	1.400000e+00	1.019680e-05	
29	1.450000e+00	1.001541e-05	
30	1.500000e+00	9.834795e-06	
31	1.550000e+00	9.654941e-06	
32	1.600000e+00	9.475846e-06	
33	1.650000e+00	9.297507e-06	
34	1.700000e+00	9.119919e-06	
35	1.750000e+00	8.943078e-06	
36	1.800000e+00	8.766980e-06	
37	1.850000e+00	8.591619e-06	
38	1.900000e+00	8.416992e-06	
39	1.950000e+00	8.243093e-06	
40	2.000000e+00	8.069919e-06	
41	2.050000e+00	7.897465e-06	
42	2.100000e+00	7.725726e-06	
43	2.150000e+00	7.554697e-06	
44	2.200000e+00	7.384374e-06	
45	2.250000e+00	7.214752e-06	
46	2.300000e+00	7.045825e-06	
47	2.350000e+00	6.877589e-06	
48	2.400000e+00	6.710038e-06	
49	2.450000e+00	6.543167e-06	
50	2.500000e+00	6.376969e-06	
51	2.550000e+00	6.211439e-06	
52	2.600000e+00	6.046570e-06	
53	2.650000e+00	5.882355e-06	
54	2.700000e+00	5.718787e-06	

Index   v-sweep         rds             
--------------------------------------------------------------------------------
55	2.750000e+00	5.555857e-06	
56	2.800000e+00	5.393556e-06	
57	2.850000e+00	5.231876e-06	
58	2.900000e+00	5.070804e-06	
59	2.950000e+00	4.910329e-06	
60	3.000000e+00	4.750435e-06	
61	3.050000e+00	4.591108e-06	
62	3.100000e+00	4.432328e-06	
63	3.150000e+00	4.274074e-06	
64	3.200000e+00	4.116319e-06	
65	3.250000e+00	3.959034e-06	
66	3.300000e+00	3.802181e-06	
67	3.350000e+00	3.645718e-06	
68	3.400000e+00	3.489591e-06	
69	3.450000e+00	3.333738e-06	
70	3.500000e+00	3.178081e-06	
71	3.550000e+00	3.022529e-06	
72	3.600000e+00	2.866971e-06	
73	3.650000e+00	2.711280e-06	
74	3.700000e+00	2.555309e-06	
75	3.750000e+00	2.398900e-06	
76	3.800000e+00	2.241902e-06	
77	3.850000e+00	2.084199e-06	
78	3.900000e+00	1.925775e-06	
79	3.950000e+00	1.766812e-06	
80	4.000000e+00	1.607834e-06	
81	4.050000e+00	1.449883e-06	
82	4.100000e+00	1.294675e-06	
83	4.150000e+00	1.144623e-06	
84	4.200000e+00	1.002628e-06	
85	4.250000e+00	8.715999e-07	
86	4.300000e+00	7.538549e-07	
87	4.350000e+00	6.506577e-07	
88	4.400000e+00	5.620955e-07	
89	4.450000e+00	4.872806e-07	
90	4.500000e+00	4.247192e-07	
91	4.550000e+00	3.726732e-07	
92	4.600000e+00	3.294219e-07	
93	4.650000e+00	2.934085e-07	
94	4.700000e+00	2.632995e-07	
95	4.750000e+00	2.379899e-07	
96	4.800000e+00	2.165820e-07	
97	4.850000e+00	1.983543e-07	
98	4.900000e+00	1.827298e-07	
99	4.950000e+00	1.692477e-07	
100	5.000000e+00	1.575389e-07	
101	5.050000e+00	1.473073e-07	
102	5.100000e+00	1.383137e-07	
103	5.150000e+00	1.303644e-07	
104	5.200000e+00	1.233013e-07	
105	5.250000e+00	1.169945e-07	
106	5.300000e+00	1.113369e-07	
107	5.350000e+00	1.062398e-07	
108	5.400000e+00	1.016289e-07	
109	5.450000e+00	9.744186e-08	
110	5.500000e+00	9.362608e-08	
111	5.550000e+00	9.013695e-08	
112	5.600000e+00	8.693640e-08	

Index   v-sweep         rds             
--------------------------------------------------------------------------------
113	5.650000e+00	8.399184e-08	
114	5.700000e+00	8.127519e-08	
115	5.750000e+00	7.876220e-08	
116	5.800000e+00	7.643181e-08	
117	5.850000e+00	7.426566e-08	
118	5.900000e+00	7.224769e-08	
119	5.950000e+00	7.036382e-08	
120	6.000000e+00	6.860162e-08	
121	6.050000e+00	6.695010e-08	
122	6.100000e+00	6.539955e-08	
123	6.150000e+00	6.394129e-08	
124	6.200000e+00	6.256762e-08	
125	6.250000e+00	6.127161e-08	
126	6.300000e+00	6.004707e-08	
127	6.350000e+00	5.888844e-08	
128	6.400000e+00	5.779069e-08	
129	6.450000e+00	5.674929e-08	
130	6.500000e+00	5.576014e-08	
131	6.550000e+00	5.481950e-08	
132	6.600000e+00	5.392400e-08	
Reset re-loads circuit ***************************

Circuit: ***************************

Note: No ".plot", ".print", or ".fourier" lines; no simulations run
