
Note: Compatibility modes selected: hs

Warning: m=xx on .subckt line will override multiplier m hierarchy!


Circuit: ***************************

Doing analysis at TEMP = -40.000000 and TNOM = -40.000000


No. of Data Rows : 133
                          ***************************
                          DC transfer characteristic  Mon Jan  9 13:58:38  2023
--------------------------------------------------------------------------------
Index   v-sweep         rds             
--------------------------------------------------------------------------------
0	0.000000e+00	6.775890e-04	
1	5.000000e-02	4.494799e-04	
2	1.000000e-01	2.486442e-04	
3	1.500000e-01	1.175385e-04	
4	2.000000e-01	6.858126e-05	
5	2.500000e-01	5.159537e-05	
6	3.000000e-01	4.338588e-05	
7	3.500000e-01	3.841834e-05	
8	4.000000e-01	3.503933e-05	
9	4.500000e-01	3.257911e-05	
10	5.000000e-01	3.070576e-05	
11	5.500000e-01	2.923253e-05	
12	6.000000e-01	2.804514e-05	
13	6.500000e-01	2.706927e-05	
14	7.000000e-01	2.625439e-05	
15	7.500000e-01	2.556486e-05	
16	8.000000e-01	2.497479e-05	
17	8.500000e-01	2.446495e-05	
18	9.000000e-01	2.402072e-05	
19	9.500000e-01	2.363079e-05	
20	1.000000e+00	2.328631e-05	
21	1.050000e+00	2.298020e-05	
22	1.100000e+00	2.270679e-05	
23	1.150000e+00	2.246144e-05	
24	1.200000e+00	2.224035e-05	
25	1.250000e+00	2.204034e-05	
26	1.300000e+00	2.185879e-05	
27	1.350000e+00	2.169345e-05	
28	1.400000e+00	2.154245e-05	
29	1.450000e+00	2.140416e-05	
30	1.500000e+00	2.127721e-05	
31	1.550000e+00	2.116039e-05	
32	1.600000e+00	2.105267e-05	
33	1.650000e+00	2.095314e-05	
34	1.700000e+00	2.086102e-05	
35	1.750000e+00	2.077559e-05	
36	1.800000e+00	2.069627e-05	
37	1.850000e+00	2.062249e-05	
38	1.900000e+00	2.055377e-05	
39	1.950000e+00	2.048969e-05	
40	2.000000e+00	2.042986e-05	
41	2.050000e+00	2.037394e-05	
42	2.100000e+00	2.032161e-05	
43	2.150000e+00	2.027259e-05	
44	2.200000e+00	2.022664e-05	
45	2.250000e+00	2.018352e-05	
46	2.300000e+00	2.014302e-05	
47	2.350000e+00	2.010496e-05	
48	2.400000e+00	2.006917e-05	
49	2.450000e+00	2.003548e-05	
50	2.500000e+00	2.000376e-05	
51	2.550000e+00	1.997387e-05	
52	2.600000e+00	1.994569e-05	
53	2.650000e+00	1.991910e-05	
54	2.700000e+00	1.989401e-05	

Index   v-sweep         rds             
--------------------------------------------------------------------------------
55	2.750000e+00	1.987033e-05	
56	2.800000e+00	1.984795e-05	
57	2.850000e+00	1.982681e-05	
58	2.900000e+00	1.980683e-05	
59	2.950000e+00	1.978793e-05	
60	3.000000e+00	1.977006e-05	
61	3.050000e+00	1.975315e-05	
62	3.100000e+00	1.973715e-05	
63	3.150000e+00	1.972199e-05	
64	3.200000e+00	1.970765e-05	
65	3.250000e+00	1.969406e-05	
66	3.300000e+00	1.968119e-05	
67	3.350000e+00	1.966900e-05	
68	3.400000e+00	1.965745e-05	
69	3.450000e+00	1.964650e-05	
70	3.500000e+00	1.963612e-05	
71	3.550000e+00	1.962627e-05	
72	3.600000e+00	1.961694e-05	
73	3.650000e+00	1.960809e-05	
74	3.700000e+00	1.959970e-05	
75	3.750000e+00	1.959173e-05	
76	3.800000e+00	1.958417e-05	
77	3.850000e+00	1.957700e-05	
78	3.900000e+00	1.957019e-05	
79	3.950000e+00	1.956373e-05	
80	4.000000e+00	1.955759e-05	
81	4.050000e+00	1.955176e-05	
82	4.100000e+00	1.954622e-05	
83	4.150000e+00	1.954095e-05	
84	4.200000e+00	1.953594e-05	
85	4.250000e+00	1.953117e-05	
86	4.300000e+00	1.952664e-05	
87	4.350000e+00	1.952232e-05	
88	4.400000e+00	1.951820e-05	
89	4.450000e+00	1.951427e-05	
90	4.500000e+00	1.951052e-05	
91	4.550000e+00	1.950694e-05	
92	4.600000e+00	1.950352e-05	
93	4.650000e+00	1.950024e-05	
94	4.700000e+00	1.949709e-05	
95	4.750000e+00	1.949407e-05	
96	4.800000e+00	1.949117e-05	
97	4.850000e+00	1.948838e-05	
98	4.900000e+00	1.948568e-05	
99	4.950000e+00	1.948307e-05	
100	5.000000e+00	1.948055e-05	
101	5.050000e+00	1.947810e-05	
102	5.100000e+00	1.947572e-05	
103	5.150000e+00	1.947339e-05	
104	5.200000e+00	1.947112e-05	
105	5.250000e+00	1.946889e-05	
106	5.300000e+00	1.946670e-05	
107	5.350000e+00	1.946454e-05	
108	5.400000e+00	1.946241e-05	
109	5.450000e+00	1.946030e-05	
110	5.500000e+00	1.945819e-05	
111	5.550000e+00	1.945610e-05	
112	5.600000e+00	1.945400e-05	

Index   v-sweep         rds             
--------------------------------------------------------------------------------
113	5.650000e+00	1.945190e-05	
114	5.700000e+00	1.944979e-05	
115	5.750000e+00	1.944766e-05	
116	5.800000e+00	1.944551e-05	
117	5.850000e+00	1.944333e-05	
118	5.900000e+00	1.944112e-05	
119	5.950000e+00	1.943887e-05	
120	6.000000e+00	1.943658e-05	
121	6.050000e+00	1.943424e-05	
122	6.100000e+00	1.943184e-05	
123	6.150000e+00	1.942939e-05	
124	6.200000e+00	1.942688e-05	
125	6.250000e+00	1.942429e-05	
126	6.300000e+00	1.942164e-05	
127	6.350000e+00	1.941891e-05	
128	6.400000e+00	1.941609e-05	
129	6.450000e+00	1.941319e-05	
130	6.500000e+00	1.941020e-05	
131	6.550000e+00	1.940712e-05	
132	6.600000e+00	1.940393e-05	
Reset re-loads circuit ***************************

Circuit: ***************************

Doing analysis at TEMP = -40.000000 and TNOM = -40.000000


No. of Data Rows : 133
                          ***************************
                          DC transfer characteristic  Mon Jan  9 13:58:39  2023
--------------------------------------------------------------------------------
Index   v-sweep         rds             
--------------------------------------------------------------------------------
0	0.000000e+00	3.043649e-03	
1	5.000000e-02	2.775102e-03	
2	1.000000e-01	2.518050e-03	
3	1.500000e-01	2.271905e-03	
4	2.000000e-01	2.036085e-03	
5	2.500000e-01	1.810015e-03	
6	3.000000e-01	1.593130e-03	
7	3.500000e-01	1.384829e-03	
8	4.000000e-01	1.184384e-03	
9	4.500000e-01	9.909249e-04	
10	5.000000e-01	8.043272e-04	
11	5.500000e-01	6.291953e-04	
12	6.000000e-01	4.788578e-04	
13	6.500000e-01	3.652076e-04	
14	7.000000e-01	2.862832e-04	
15	7.500000e-01	2.324163e-04	
16	8.000000e-01	1.948434e-04	
17	8.500000e-01	1.677271e-04	
18	9.000000e-01	1.474759e-04	
19	9.500000e-01	1.318835e-04	
20	1.000000e+00	1.195606e-04	
21	1.050000e+00	1.096038e-04	
22	1.100000e+00	1.014069e-04	
23	1.150000e+00	9.455014e-05	
24	1.200000e+00	8.873535e-05	
25	1.250000e+00	8.374545e-05	
26	1.300000e+00	7.941898e-05	
27	1.350000e+00	7.563359e-05	
28	1.400000e+00	7.229496e-05	
29	1.450000e+00	6.932930e-05	
30	1.500000e+00	6.667810e-05	
31	1.550000e+00	6.429438e-05	
32	1.600000e+00	6.214000e-05	
33	1.650000e+00	6.018371e-05	
34	1.700000e+00	5.839965e-05	
35	1.750000e+00	5.676624e-05	
36	1.800000e+00	5.526534e-05	
37	1.850000e+00	5.388162e-05	
38	1.900000e+00	5.260198e-05	
39	1.950000e+00	5.141521e-05	
40	2.000000e+00	5.031164e-05	
41	2.050000e+00	4.928290e-05	
42	2.100000e+00	4.832170e-05	
43	2.150000e+00	4.742165e-05	
44	2.200000e+00	4.657716e-05	
45	2.250000e+00	4.578326e-05	
46	2.300000e+00	4.503560e-05	
47	2.350000e+00	4.433028e-05	
48	2.400000e+00	4.366384e-05	
49	2.450000e+00	4.303317e-05	
50	2.500000e+00	4.243551e-05	
51	2.550000e+00	4.186833e-05	
52	2.600000e+00	4.132940e-05	
53	2.650000e+00	4.081668e-05	
54	2.700000e+00	4.032831e-05	

Index   v-sweep         rds             
--------------------------------------------------------------------------------
55	2.750000e+00	3.986261e-05	
56	2.800000e+00	3.941806e-05	
57	2.850000e+00	3.899326e-05	
58	2.900000e+00	3.858693e-05	
59	2.950000e+00	3.819791e-05	
60	3.000000e+00	3.782513e-05	
61	3.050000e+00	3.746759e-05	
62	3.100000e+00	3.712439e-05	
63	3.150000e+00	3.679470e-05	
64	3.200000e+00	3.647773e-05	
65	3.250000e+00	3.617277e-05	
66	3.300000e+00	3.587916e-05	
67	3.350000e+00	3.559628e-05	
68	3.400000e+00	3.532356e-05	
69	3.450000e+00	3.506046e-05	
70	3.500000e+00	3.480650e-05	
71	3.550000e+00	3.456120e-05	
72	3.600000e+00	3.432413e-05	
73	3.650000e+00	3.409490e-05	
74	3.700000e+00	3.387312e-05	
75	3.750000e+00	3.365843e-05	
76	3.800000e+00	3.345051e-05	
77	3.850000e+00	3.324904e-05	
78	3.900000e+00	3.305374e-05	
79	3.950000e+00	3.286431e-05	
80	4.000000e+00	3.268051e-05	
81	4.050000e+00	3.250209e-05	
82	4.100000e+00	3.232882e-05	
83	4.150000e+00	3.216048e-05	
84	4.200000e+00	3.199687e-05	
85	4.250000e+00	3.183778e-05	
86	4.300000e+00	3.168304e-05	
87	4.350000e+00	3.153247e-05	
88	4.400000e+00	3.138591e-05	
89	4.450000e+00	3.124320e-05	
90	4.500000e+00	3.110419e-05	
91	4.550000e+00	3.096875e-05	
92	4.600000e+00	3.083672e-05	
93	4.650000e+00	3.070800e-05	
94	4.700000e+00	3.058246e-05	
95	4.750000e+00	3.045997e-05	
96	4.800000e+00	3.034044e-05	
97	4.850000e+00	3.022376e-05	
98	4.900000e+00	3.010983e-05	
99	4.950000e+00	2.999855e-05	
100	5.000000e+00	2.988983e-05	
101	5.050000e+00	2.978358e-05	
102	5.100000e+00	2.967973e-05	
103	5.150000e+00	2.957819e-05	
104	5.200000e+00	2.947889e-05	
105	5.250000e+00	2.938175e-05	
106	5.300000e+00	2.928670e-05	
107	5.350000e+00	2.919369e-05	
108	5.400000e+00	2.910263e-05	
109	5.450000e+00	2.901348e-05	
110	5.500000e+00	2.892618e-05	
111	5.550000e+00	2.884066e-05	
112	5.600000e+00	2.875688e-05	

Index   v-sweep         rds             
--------------------------------------------------------------------------------
113	5.650000e+00	2.867477e-05	
114	5.700000e+00	2.859430e-05	
115	5.750000e+00	2.851541e-05	
116	5.800000e+00	2.843807e-05	
117	5.850000e+00	2.836221e-05	
118	5.900000e+00	2.828780e-05	
119	5.950000e+00	2.821481e-05	
120	6.000000e+00	2.814318e-05	
121	6.050000e+00	2.807289e-05	
122	6.100000e+00	2.800389e-05	
123	6.150000e+00	2.793615e-05	
124	6.200000e+00	2.786964e-05	
125	6.250000e+00	2.780432e-05	
126	6.300000e+00	2.774016e-05	
127	6.350000e+00	2.767713e-05	
128	6.400000e+00	2.761520e-05	
129	6.450000e+00	2.755434e-05	
130	6.500000e+00	2.749453e-05	
131	6.550000e+00	2.743573e-05	
132	6.600000e+00	2.737793e-05	
Reset re-loads circuit ***************************

Circuit: ***************************

Doing analysis at TEMP = -40.000000 and TNOM = -40.000000


No. of Data Rows : 133
                          ***************************
                          DC transfer characteristic  Mon Jan  9 13:58:39  2023
--------------------------------------------------------------------------------
Index   v-sweep         rds             
--------------------------------------------------------------------------------
0	0.000000e+00	4.745985e-03	
1	5.000000e-02	4.458430e-03	
2	1.000000e-01	4.182385e-03	
3	1.500000e-01	3.917298e-03	
4	2.000000e-01	3.662620e-03	
5	2.500000e-01	3.417795e-03	
6	3.000000e-01	3.182269e-03	
7	3.500000e-01	2.955500e-03	
8	4.000000e-01	2.736956e-03	
9	4.500000e-01	2.526112e-03	
10	5.000000e-01	2.322416e-03	
11	5.500000e-01	2.125220e-03	
12	6.000000e-01	1.933650e-03	
13	6.500000e-01	1.746377e-03	
14	7.000000e-01	1.561271e-03	
15	7.500000e-01	1.375128e-03	
16	8.000000e-01	1.184447e-03	
17	8.500000e-01	9.894088e-04	
18	9.000000e-01	8.001547e-04	
19	9.500000e-01	6.343825e-04	
20	1.000000e+00	5.034089e-04	
21	1.050000e+00	4.061502e-04	
22	1.100000e+00	3.352526e-04	
23	1.150000e+00	2.831533e-04	
24	1.200000e+00	2.441069e-04	
25	1.250000e+00	2.141632e-04	
26	1.300000e+00	1.906780e-04	
27	1.350000e+00	1.718752e-04	
28	1.400000e+00	1.565432e-04	
29	1.450000e+00	1.438383e-04	
30	1.500000e+00	1.331607e-04	
31	1.550000e+00	1.240751e-04	
32	1.600000e+00	1.162592e-04	
33	1.650000e+00	1.094704e-04	
34	1.700000e+00	1.035229e-04	
35	1.750000e+00	9.827260e-05	
36	1.800000e+00	9.360571e-05	
37	1.850000e+00	8.943173e-05	
38	1.900000e+00	8.567767e-05	
39	1.950000e+00	8.228408e-05	
40	2.000000e+00	7.920212e-05	
41	2.050000e+00	7.639127e-05	
42	2.100000e+00	7.381770e-05	
43	2.150000e+00	7.145290e-05	
44	2.200000e+00	6.927274e-05	
45	2.250000e+00	6.725662e-05	
46	2.300000e+00	6.538689e-05	
47	2.350000e+00	6.364829e-05	
48	2.400000e+00	6.202763e-05	
49	2.450000e+00	6.051341e-05	
50	2.500000e+00	5.909555e-05	
51	2.550000e+00	5.776522e-05	
52	2.600000e+00	5.651462e-05	
53	2.650000e+00	5.533684e-05	
54	2.700000e+00	5.422574e-05	

Index   v-sweep         rds             
--------------------------------------------------------------------------------
55	2.750000e+00	5.317587e-05	
56	2.800000e+00	5.218232e-05	
57	2.850000e+00	5.124073e-05	
58	2.900000e+00	5.034713e-05	
59	2.950000e+00	4.949798e-05	
60	3.000000e+00	4.869006e-05	
61	3.050000e+00	4.792045e-05	
62	3.100000e+00	4.718652e-05	
63	3.150000e+00	4.648585e-05	
64	3.200000e+00	4.581624e-05	
65	3.250000e+00	4.517568e-05	
66	3.300000e+00	4.456234e-05	
67	3.350000e+00	4.397452e-05	
68	3.400000e+00	4.341067e-05	
69	3.450000e+00	4.286937e-05	
70	3.500000e+00	4.234928e-05	
71	3.550000e+00	4.184921e-05	
72	3.600000e+00	4.136801e-05	
73	3.650000e+00	4.090464e-05	
74	3.700000e+00	4.045815e-05	
75	3.750000e+00	4.002761e-05	
76	3.800000e+00	3.961221e-05	
77	3.850000e+00	3.921115e-05	
78	3.900000e+00	3.882372e-05	
79	3.950000e+00	3.844922e-05	
80	4.000000e+00	3.808704e-05	
81	4.050000e+00	3.773657e-05	
82	4.100000e+00	3.739725e-05	
83	4.150000e+00	3.706857e-05	
84	4.200000e+00	3.675004e-05	
85	4.250000e+00	3.644119e-05	
86	4.300000e+00	3.614159e-05	
87	4.350000e+00	3.585084e-05	
88	4.400000e+00	3.556855e-05	
89	4.450000e+00	3.529437e-05	
90	4.500000e+00	3.502793e-05	
91	4.550000e+00	3.476894e-05	
92	4.600000e+00	3.451707e-05	
93	4.650000e+00	3.427205e-05	
94	4.700000e+00	3.403359e-05	
95	4.750000e+00	3.380145e-05	
96	4.800000e+00	3.357537e-05	
97	4.850000e+00	3.335512e-05	
98	4.900000e+00	3.314049e-05	
99	4.950000e+00	3.293125e-05	
100	5.000000e+00	3.272722e-05	
101	5.050000e+00	3.252820e-05	
102	5.100000e+00	3.233402e-05	
103	5.150000e+00	3.214449e-05	
104	5.200000e+00	3.195946e-05	
105	5.250000e+00	3.177877e-05	
106	5.300000e+00	3.160227e-05	
107	5.350000e+00	3.142982e-05	
108	5.400000e+00	3.126128e-05	
109	5.450000e+00	3.109653e-05	
110	5.500000e+00	3.093543e-05	
111	5.550000e+00	3.077788e-05	
112	5.600000e+00	3.062375e-05	

Index   v-sweep         rds             
--------------------------------------------------------------------------------
113	5.650000e+00	3.047294e-05	
114	5.700000e+00	3.032534e-05	
115	5.750000e+00	3.018086e-05	
116	5.800000e+00	3.003940e-05	
117	5.850000e+00	2.990086e-05	
118	5.900000e+00	2.976516e-05	
119	5.950000e+00	2.963222e-05	
120	6.000000e+00	2.950194e-05	
121	6.050000e+00	2.937426e-05	
122	6.100000e+00	2.924911e-05	
123	6.150000e+00	2.912639e-05	
124	6.200000e+00	2.900606e-05	
125	6.250000e+00	2.888804e-05	
126	6.300000e+00	2.877226e-05	
127	6.350000e+00	2.865867e-05	
128	6.400000e+00	2.854720e-05	
129	6.450000e+00	2.843780e-05	
130	6.500000e+00	2.833042e-05	
131	6.550000e+00	2.822499e-05	
132	6.600000e+00	2.812146e-05	
Reset re-loads circuit ***************************

Circuit: ***************************

Doing analysis at TEMP = -40.000000 and TNOM = -40.000000


No. of Data Rows : 133
                          ***************************
                          DC transfer characteristic  Mon Jan  9 13:58:39  2023
--------------------------------------------------------------------------------
Index   v-sweep         rds             
--------------------------------------------------------------------------------
0	0.000000e+00	6.046063e-03	
1	5.000000e-02	5.755034e-03	
2	1.000000e-01	5.474538e-03	
3	1.500000e-01	5.204130e-03	
4	2.000000e-01	4.943369e-03	
5	2.500000e-01	4.691810e-03	
6	3.000000e-01	4.449002e-03	
7	3.500000e-01	4.214498e-03	
8	4.000000e-01	3.987853e-03	
9	4.500000e-01	3.768641e-03	
10	5.000000e-01	3.556454e-03	
11	5.500000e-01	3.350905e-03	
12	6.000000e-01	3.151623e-03	
13	6.500000e-01	2.958239e-03	
14	7.000000e-01	2.770357e-03	
15	7.500000e-01	2.587508e-03	
16	8.000000e-01	2.409067e-03	
17	8.500000e-01	2.234122e-03	
18	9.000000e-01	2.061266e-03	
19	9.500000e-01	1.888293e-03	
20	1.000000e+00	1.711921e-03	
21	1.050000e+00	1.528029e-03	
22	1.100000e+00	1.333684e-03	
23	1.150000e+00	1.131888e-03	
24	1.200000e+00	9.352398e-04	
25	1.250000e+00	7.605814e-04	
26	1.300000e+00	6.180921e-04	
27	1.350000e+00	5.078543e-04	
28	1.400000e+00	4.243160e-04	
29	1.450000e+00	3.609542e-04	
30	1.500000e+00	3.123103e-04	
31	1.550000e+00	2.743374e-04	
32	1.600000e+00	2.441647e-04	
33	1.650000e+00	2.197769e-04	
34	1.700000e+00	1.997514e-04	
35	1.750000e+00	1.830716e-04	
36	1.800000e+00	1.689998e-04	
37	1.850000e+00	1.569922e-04	
38	1.900000e+00	1.466410e-04	
39	1.950000e+00	1.376361e-04	
40	2.000000e+00	1.297383e-04	
41	2.050000e+00	1.227605e-04	
42	2.100000e+00	1.165545e-04	
43	2.150000e+00	1.110018e-04	
44	2.200000e+00	1.060064e-04	
45	2.250000e+00	1.014900e-04	
46	2.300000e+00	9.738817e-05	
47	2.350000e+00	9.364716e-05	
48	2.400000e+00	9.022213e-05	
49	2.450000e+00	8.707527e-05	
50	2.500000e+00	8.417446e-05	
51	2.550000e+00	8.149233e-05	
52	2.600000e+00	7.900535e-05	
53	2.650000e+00	7.669322e-05	
54	2.700000e+00	7.453833e-05	

Index   v-sweep         rds             
--------------------------------------------------------------------------------
55	2.750000e+00	7.252535e-05	
56	2.800000e+00	7.064085e-05	
57	2.850000e+00	6.887303e-05	
58	2.900000e+00	6.721149e-05	
59	2.950000e+00	6.564700e-05	
60	3.000000e+00	6.417139e-05	
61	3.050000e+00	6.277735e-05	
62	3.100000e+00	6.145835e-05	
63	3.150000e+00	6.020854e-05	
64	3.200000e+00	5.902267e-05	
65	3.250000e+00	5.789597e-05	
66	3.300000e+00	5.682417e-05	
67	3.350000e+00	5.580337e-05	
68	3.400000e+00	5.483004e-05	
69	3.450000e+00	5.390098e-05	
70	3.500000e+00	5.301323e-05	
71	3.550000e+00	5.216413e-05	
72	3.600000e+00	5.135122e-05	
73	3.650000e+00	5.057225e-05	
74	3.700000e+00	4.982515e-05	
75	3.750000e+00	4.910802e-05	
76	3.800000e+00	4.841909e-05	
77	3.850000e+00	4.775674e-05	
78	3.900000e+00	4.711948e-05	
79	3.950000e+00	4.650591e-05	
80	4.000000e+00	4.591474e-05	
81	4.050000e+00	4.534477e-05	
82	4.100000e+00	4.479490e-05	
83	4.150000e+00	4.426407e-05	
84	4.200000e+00	4.375133e-05	
85	4.250000e+00	4.325577e-05	
86	4.300000e+00	4.277654e-05	
87	4.350000e+00	4.231286e-05	
88	4.400000e+00	4.186399e-05	
89	4.450000e+00	4.142923e-05	
90	4.500000e+00	4.100793e-05	
91	4.550000e+00	4.059948e-05	
92	4.600000e+00	4.020331e-05	
93	4.650000e+00	3.981887e-05	
94	4.700000e+00	3.944565e-05	
95	4.750000e+00	3.908318e-05	
96	4.800000e+00	3.873100e-05	
97	4.850000e+00	3.838868e-05	
98	4.900000e+00	3.805582e-05	
99	4.950000e+00	3.773204e-05	
100	5.000000e+00	3.741696e-05	
101	5.050000e+00	3.711026e-05	
102	5.100000e+00	3.681161e-05	
103	5.150000e+00	3.652069e-05	
104	5.200000e+00	3.623721e-05	
105	5.250000e+00	3.596091e-05	
106	5.300000e+00	3.569150e-05	
107	5.350000e+00	3.542874e-05	
108	5.400000e+00	3.517240e-05	
109	5.450000e+00	3.492224e-05	
110	5.500000e+00	3.467805e-05	
111	5.550000e+00	3.443961e-05	
112	5.600000e+00	3.420675e-05	

Index   v-sweep         rds             
--------------------------------------------------------------------------------
113	5.650000e+00	3.397925e-05	
114	5.700000e+00	3.375695e-05	
115	5.750000e+00	3.353967e-05	
116	5.800000e+00	3.332726e-05	
117	5.850000e+00	3.311954e-05	
118	5.900000e+00	3.291638e-05	
119	5.950000e+00	3.271762e-05	
120	6.000000e+00	3.252313e-05	
121	6.050000e+00	3.233279e-05	
122	6.100000e+00	3.214645e-05	
123	6.150000e+00	3.196401e-05	
124	6.200000e+00	3.178533e-05	
125	6.250000e+00	3.161032e-05	
126	6.300000e+00	3.143887e-05	
127	6.350000e+00	3.127086e-05	
128	6.400000e+00	3.110621e-05	
129	6.450000e+00	3.094481e-05	
130	6.500000e+00	3.078658e-05	
131	6.550000e+00	3.063142e-05	
132	6.600000e+00	3.047925e-05	
Reset re-loads circuit ***************************

Circuit: ***************************

Doing analysis at TEMP = -40.000000 and TNOM = -40.000000


No. of Data Rows : 133
                          ***************************
                          DC transfer characteristic  Mon Jan  9 13:58:39  2023
--------------------------------------------------------------------------------
Index   v-sweep         rds             
--------------------------------------------------------------------------------
0	0.000000e+00	6.985867e-03	
1	5.000000e-02	6.704482e-03	
2	1.000000e-01	6.432188e-03	
3	1.500000e-01	6.168650e-03	
4	2.000000e-01	5.913536e-03	
5	2.500000e-01	5.666513e-03	
6	3.000000e-01	5.427242e-03	
7	3.500000e-01	5.195382e-03	
8	4.000000e-01	4.970591e-03	
9	4.500000e-01	4.752531e-03	
10	5.000000e-01	4.540873e-03	
11	5.500000e-01	4.335301e-03	
12	6.000000e-01	4.135515e-03	
13	6.500000e-01	3.941236e-03	
14	7.000000e-01	3.752202e-03	
15	7.500000e-01	3.568169e-03	
16	8.000000e-01	3.388900e-03	
17	8.500000e-01	3.214154e-03	
18	9.000000e-01	3.043668e-03	
19	9.500000e-01	2.877129e-03	
20	1.000000e+00	2.714121e-03	
21	1.050000e+00	2.554058e-03	
22	1.100000e+00	2.396069e-03	
23	1.150000e+00	2.238822e-03	
24	1.200000e+00	2.080300e-03	
25	1.250000e+00	1.917572e-03	
26	1.300000e+00	1.746871e-03	
27	1.350000e+00	1.564703e-03	
28	1.400000e+00	1.370824e-03	
29	1.450000e+00	1.172051e-03	
30	1.500000e+00	9.820801e-04	
31	1.550000e+00	8.146310e-04	
32	1.600000e+00	6.764909e-04	
33	1.650000e+00	5.669966e-04	
34	1.700000e+00	4.815994e-04	
35	1.750000e+00	4.150066e-04	
36	1.800000e+00	3.626228e-04	
37	1.850000e+00	3.208849e-04	
38	1.900000e+00	2.871549e-04	
39	1.950000e+00	2.595096e-04	
40	2.000000e+00	2.365474e-04	
41	2.050000e+00	2.172387e-04	
42	2.100000e+00	2.008193e-04	
43	2.150000e+00	1.867145e-04	
44	2.200000e+00	1.744863e-04	
45	2.250000e+00	1.637971e-04	
46	2.300000e+00	1.543829e-04	
47	2.350000e+00	1.460353e-04	
48	2.400000e+00	1.385876e-04	
49	2.450000e+00	1.319055e-04	
50	2.500000e+00	1.258794e-04	
51	2.550000e+00	1.204194e-04	
52	2.600000e+00	1.154509e-04	
53	2.650000e+00	1.109118e-04	
54	2.700000e+00	1.067495e-04	

Index   v-sweep         rds             
--------------------------------------------------------------------------------
55	2.750000e+00	1.029200e-04	
56	2.800000e+00	9.938542e-05	
57	2.850000e+00	9.611351e-05	
58	2.900000e+00	9.307647e-05	
59	2.950000e+00	9.025023e-05	
60	3.000000e+00	8.761386e-05	
61	3.050000e+00	8.514910e-05	
62	3.100000e+00	8.283993e-05	
63	3.150000e+00	8.067222e-05	
64	3.200000e+00	7.863350e-05	
65	3.250000e+00	7.671273e-05	
66	3.300000e+00	7.490006e-05	
67	3.350000e+00	7.318669e-05	
68	3.400000e+00	7.156477e-05	
69	3.450000e+00	7.002723e-05	
70	3.500000e+00	6.856771e-05	
71	3.550000e+00	6.718047e-05	
72	3.600000e+00	6.586031e-05	
73	3.650000e+00	6.460252e-05	
74	3.700000e+00	6.340283e-05	
75	3.750000e+00	6.225731e-05	
76	3.800000e+00	6.116242e-05	
77	3.850000e+00	6.011490e-05	
78	3.900000e+00	5.911175e-05	
79	3.950000e+00	5.815023e-05	
80	4.000000e+00	5.722783e-05	
81	4.050000e+00	5.634221e-05	
82	4.100000e+00	5.549125e-05	
83	4.150000e+00	5.467294e-05	
84	4.200000e+00	5.388547e-05	
85	4.250000e+00	5.312713e-05	
86	4.300000e+00	5.239634e-05	
87	4.350000e+00	5.169165e-05	
88	4.400000e+00	5.101168e-05	
89	4.450000e+00	5.035517e-05	
90	4.500000e+00	4.972093e-05	
91	4.550000e+00	4.910785e-05	
92	4.600000e+00	4.851491e-05	
93	4.650000e+00	4.794112e-05	
94	4.700000e+00	4.738559e-05	
95	4.750000e+00	4.684747e-05	
96	4.800000e+00	4.632596e-05	
97	4.850000e+00	4.582030e-05	
98	4.900000e+00	4.532979e-05	
99	4.950000e+00	4.485377e-05	
100	5.000000e+00	4.439161e-05	
101	5.050000e+00	4.394272e-05	
102	5.100000e+00	4.350655e-05	
103	5.150000e+00	4.308256e-05	
104	5.200000e+00	4.267027e-05	
105	5.250000e+00	4.226920e-05	
106	5.300000e+00	4.187890e-05	
107	5.350000e+00	4.149896e-05	
108	5.400000e+00	4.112898e-05	
109	5.450000e+00	4.076857e-05	
110	5.500000e+00	4.041738e-05	
111	5.550000e+00	4.007506e-05	
112	5.600000e+00	3.974130e-05	

Index   v-sweep         rds             
--------------------------------------------------------------------------------
113	5.650000e+00	3.941577e-05	
114	5.700000e+00	3.909819e-05	
115	5.750000e+00	3.878828e-05	
116	5.800000e+00	3.848576e-05	
117	5.850000e+00	3.819039e-05	
118	5.900000e+00	3.790193e-05	
119	5.950000e+00	3.762013e-05	
120	6.000000e+00	3.734478e-05	
121	6.050000e+00	3.707567e-05	
122	6.100000e+00	3.681259e-05	
123	6.150000e+00	3.655536e-05	
124	6.200000e+00	3.630378e-05	
125	6.250000e+00	3.605769e-05	
126	6.300000e+00	3.581690e-05	
127	6.350000e+00	3.558126e-05	
128	6.400000e+00	3.535061e-05	
129	6.450000e+00	3.512480e-05	
130	6.500000e+00	3.490368e-05	
131	6.550000e+00	3.468713e-05	
132	6.600000e+00	3.447500e-05	
Reset re-loads circuit ***************************

Circuit: ***************************

Doing analysis at TEMP = -40.000000 and TNOM = -40.000000


No. of Data Rows : 133
                          ***************************
                          DC transfer characteristic  Mon Jan  9 13:58:39  2023
--------------------------------------------------------------------------------
Index   v-sweep         rds             
--------------------------------------------------------------------------------
0	0.000000e+00	7.592544e-03	
1	5.000000e-02	7.329987e-03	
2	1.000000e-01	7.074967e-03	
3	1.500000e-01	6.827243e-03	
4	2.000000e-01	6.586573e-03	
5	2.500000e-01	6.352716e-03	
6	3.000000e-01	6.125431e-03	
7	3.500000e-01	5.904470e-03	
8	4.000000e-01	5.689587e-03	
9	4.500000e-01	5.480531e-03	
10	5.000000e-01	5.277056e-03	
11	5.500000e-01	5.078920e-03	
12	6.000000e-01	4.885888e-03	
13	6.500000e-01	4.697734e-03	
14	7.000000e-01	4.514247e-03	
15	7.500000e-01	4.335228e-03	
16	8.000000e-01	4.160492e-03	
17	8.500000e-01	3.989869e-03	
18	9.000000e-01	3.823201e-03	
19	9.500000e-01	3.660336e-03	
20	1.000000e+00	3.501130e-03	
21	1.050000e+00	3.345431e-03	
22	1.100000e+00	3.193072e-03	
23	1.150000e+00	3.043853e-03	
24	1.200000e+00	2.897514e-03	
25	1.250000e+00	2.753700e-03	
26	1.300000e+00	2.611899e-03	
27	1.350000e+00	2.471360e-03	
28	1.400000e+00	2.330960e-03	
29	1.450000e+00	2.189036e-03	
30	1.500000e+00	2.043212e-03	
31	1.550000e+00	1.890367e-03	
32	1.600000e+00	1.727158e-03	
33	1.650000e+00	1.551658e-03	
34	1.700000e+00	1.366171e-03	
35	1.750000e+00	1.179119e-03	
36	1.800000e+00	1.002750e-03	
37	1.850000e+00	8.473751e-04	
38	1.900000e+00	7.174856e-04	
39	1.950000e+00	6.122560e-04	
40	2.000000e+00	5.281281e-04	
41	2.050000e+00	4.609311e-04	
42	2.100000e+00	4.069180e-04	
43	2.150000e+00	3.630678e-04	
44	2.200000e+00	3.270593e-04	
45	2.250000e+00	2.971429e-04	
46	2.300000e+00	2.720056e-04	
47	2.350000e+00	2.506588e-04	
48	2.400000e+00	2.323523e-04	
49	2.450000e+00	2.165114e-04	
50	2.500000e+00	2.026910e-04	
51	2.550000e+00	1.905429e-04	
52	2.600000e+00	1.797917e-04	
53	2.650000e+00	1.702175e-04	
54	2.700000e+00	1.616428e-04	

Index   v-sweep         rds             
--------------------------------------------------------------------------------
55	2.750000e+00	1.539232e-04	
56	2.800000e+00	1.469401e-04	
57	2.850000e+00	1.405955e-04	
58	2.900000e+00	1.348075e-04	
59	2.950000e+00	1.295076e-04	
60	3.000000e+00	1.246377e-04	
61	3.050000e+00	1.201485e-04	
62	3.100000e+00	1.159978e-04	
63	3.150000e+00	1.121494e-04	
64	3.200000e+00	1.085719e-04	
65	3.250000e+00	1.052381e-04	
66	3.300000e+00	1.021243e-04	
67	3.350000e+00	9.920966e-05	
68	3.400000e+00	9.647598e-05	
69	3.450000e+00	9.390710e-05	
70	3.500000e+00	9.148873e-05	
71	3.550000e+00	8.920818e-05	
72	3.600000e+00	8.705411e-05	
73	3.650000e+00	8.501640e-05	
74	3.700000e+00	8.308598e-05	
75	3.750000e+00	8.125465e-05	
76	3.800000e+00	7.951507e-05	
77	3.850000e+00	7.786056e-05	
78	3.900000e+00	7.628509e-05	
79	3.950000e+00	7.478319e-05	
80	4.000000e+00	7.334984e-05	
81	4.050000e+00	7.198052e-05	
82	4.100000e+00	7.067104e-05	
83	4.150000e+00	6.941761e-05	
84	4.200000e+00	6.821674e-05	
85	4.250000e+00	6.706519e-05	
86	4.300000e+00	6.596003e-05	
87	4.350000e+00	6.489852e-05	
88	4.400000e+00	6.387815e-05	
89	4.450000e+00	6.289659e-05	
90	4.500000e+00	6.195168e-05	
91	4.550000e+00	6.104141e-05	
92	4.600000e+00	6.016394e-05	
93	4.650000e+00	5.931754e-05	
94	4.700000e+00	5.850059e-05	
95	4.750000e+00	5.771160e-05	
96	4.800000e+00	5.694917e-05	
97	4.850000e+00	5.621199e-05	
98	4.900000e+00	5.549883e-05	
99	4.950000e+00	5.480856e-05	
100	5.000000e+00	5.414010e-05	
101	5.050000e+00	5.349243e-05	
102	5.100000e+00	5.286462e-05	
103	5.150000e+00	5.225578e-05	
104	5.200000e+00	5.166507e-05	
105	5.250000e+00	5.109170e-05	
106	5.300000e+00	5.053493e-05	
107	5.350000e+00	4.999406e-05	
108	5.400000e+00	4.946843e-05	
109	5.450000e+00	4.895741e-05	
110	5.500000e+00	4.846041e-05	
111	5.550000e+00	4.797688e-05	
112	5.600000e+00	4.750628e-05	

Index   v-sweep         rds             
--------------------------------------------------------------------------------
113	5.650000e+00	4.704812e-05	
114	5.700000e+00	4.660191e-05	
115	5.750000e+00	4.616721e-05	
116	5.800000e+00	4.574359e-05	
117	5.850000e+00	4.533065e-05	
118	5.900000e+00	4.492798e-05	
119	5.950000e+00	4.453523e-05	
120	6.000000e+00	4.415205e-05	
121	6.050000e+00	4.377810e-05	
122	6.100000e+00	4.341306e-05	
123	6.150000e+00	4.305664e-05	
124	6.200000e+00	4.270853e-05	
125	6.250000e+00	4.236847e-05	
126	6.300000e+00	4.203618e-05	
127	6.350000e+00	4.171143e-05	
128	6.400000e+00	4.139395e-05	
129	6.450000e+00	4.108354e-05	
130	6.500000e+00	4.077995e-05	
131	6.550000e+00	4.048299e-05	
132	6.600000e+00	4.019244e-05	
Reset re-loads circuit ***************************

Circuit: ***************************

Note: No ".plot", ".print", or ".fourier" lines; no simulations run
