
Note: Compatibility modes selected: hs

Warning: m=xx on .subckt line will override multiplier m hierarchy!


Circuit: ***************************

Doing analysis at TEMP = -40.000000 and TNOM = -40.000000


No. of Data Rows : 133
                          ***************************
                          DC transfer characteristic  Mon Jan  9 13:58:38  2023
--------------------------------------------------------------------------------
Index   v-sweep         rds             
--------------------------------------------------------------------------------
0	0.000000e+00	3.498847e-05	
1	5.000000e-02	2.557031e-05	
2	1.000000e-01	1.642739e-05	
3	1.500000e-01	8.269262e-06	
4	2.000000e-01	2.954845e-06	
5	2.500000e-01	9.767247e-07	
6	3.000000e-01	4.192043e-07	
7	3.500000e-01	2.395639e-07	
8	4.000000e-01	1.672994e-07	
9	4.500000e-01	1.323878e-07	
10	5.000000e-01	1.130514e-07	
11	5.500000e-01	1.011963e-07	
12	6.000000e-01	9.334852e-08	
13	6.500000e-01	8.783769e-08	
14	7.000000e-01	8.378472e-08	
15	7.500000e-01	8.069208e-08	
16	8.000000e-01	7.826082e-08	
17	8.500000e-01	7.630217e-08	
18	9.000000e-01	7.469188e-08	
19	9.500000e-01	7.334519e-08	
20	1.000000e+00	7.220251e-08	
21	1.050000e+00	7.122078e-08	
22	1.100000e+00	7.036823e-08	
23	1.150000e+00	6.962087e-08	
24	1.200000e+00	6.896030e-08	
25	1.250000e+00	6.837218e-08	
26	1.300000e+00	6.784514e-08	
27	1.350000e+00	6.737010e-08	
28	1.400000e+00	6.693969e-08	
29	1.450000e+00	6.654786e-08	
30	1.500000e+00	6.618962e-08	
31	1.550000e+00	6.586081e-08	
32	1.600000e+00	6.555793e-08	
33	1.650000e+00	6.527801e-08	
34	1.700000e+00	6.501853e-08	
35	1.750000e+00	6.477733e-08	
36	1.800000e+00	6.455252e-08	
37	1.850000e+00	6.434249e-08	
38	1.900000e+00	6.414582e-08	
39	1.950000e+00	6.396128e-08	
40	2.000000e+00	6.378778e-08	
41	2.050000e+00	6.362435e-08	
42	2.100000e+00	6.347014e-08	
43	2.150000e+00	6.332440e-08	
44	2.200000e+00	6.318644e-08	
45	2.250000e+00	6.305565e-08	
46	2.300000e+00	6.293150e-08	
47	2.350000e+00	6.281349e-08	
48	2.400000e+00	6.270119e-08	
49	2.450000e+00	6.259417e-08	
50	2.500000e+00	6.249209e-08	
51	2.550000e+00	6.239461e-08	
52	2.600000e+00	6.230143e-08	
53	2.650000e+00	6.221227e-08	
54	2.700000e+00	6.212687e-08	

Index   v-sweep         rds             
--------------------------------------------------------------------------------
55	2.750000e+00	6.204501e-08	
56	2.800000e+00	6.196648e-08	
57	2.850000e+00	6.189106e-08	
58	2.900000e+00	6.181859e-08	
59	2.950000e+00	6.174890e-08	
60	3.000000e+00	6.168183e-08	
61	3.050000e+00	6.161723e-08	
62	3.100000e+00	6.155498e-08	
63	3.150000e+00	6.149494e-08	
64	3.200000e+00	6.143701e-08	
65	3.250000e+00	6.138108e-08	
66	3.300000e+00	6.132704e-08	
67	3.350000e+00	6.127480e-08	
68	3.400000e+00	6.122428e-08	
69	3.450000e+00	6.117539e-08	
70	3.500000e+00	6.112806e-08	
71	3.550000e+00	6.108221e-08	
72	3.600000e+00	6.103777e-08	
73	3.650000e+00	6.099469e-08	
74	3.700000e+00	6.095290e-08	
75	3.750000e+00	6.091235e-08	
76	3.800000e+00	6.087298e-08	
77	3.850000e+00	6.083474e-08	
78	3.900000e+00	6.079758e-08	
79	3.950000e+00	6.076147e-08	
80	4.000000e+00	6.072635e-08	
81	4.050000e+00	6.069219e-08	
82	4.100000e+00	6.065895e-08	
83	4.150000e+00	6.062659e-08	
84	4.200000e+00	6.059509e-08	
85	4.250000e+00	6.056440e-08	
86	4.300000e+00	6.053449e-08	
87	4.350000e+00	6.050534e-08	
88	4.400000e+00	6.047693e-08	
89	4.450000e+00	6.044921e-08	
90	4.500000e+00	6.042217e-08	
91	4.550000e+00	6.039579e-08	
92	4.600000e+00	6.037004e-08	
93	4.650000e+00	6.034489e-08	
94	4.700000e+00	6.032033e-08	
95	4.750000e+00	6.029634e-08	
96	4.800000e+00	6.027290e-08	
97	4.850000e+00	6.024999e-08	
98	4.900000e+00	6.022760e-08	
99	4.950000e+00	6.020570e-08	
100	5.000000e+00	6.018428e-08	
101	5.050000e+00	6.016332e-08	
102	5.100000e+00	6.014282e-08	
103	5.150000e+00	6.012275e-08	
104	5.200000e+00	6.010310e-08	
105	5.250000e+00	6.008387e-08	
106	5.300000e+00	6.006503e-08	
107	5.350000e+00	6.004658e-08	
108	5.400000e+00	6.002851e-08	
109	5.450000e+00	6.001079e-08	
110	5.500000e+00	5.999343e-08	
111	5.550000e+00	5.997642e-08	
112	5.600000e+00	5.995973e-08	

Index   v-sweep         rds             
--------------------------------------------------------------------------------
113	5.650000e+00	5.994337e-08	
114	5.700000e+00	5.992733e-08	
115	5.750000e+00	5.991159e-08	
116	5.800000e+00	5.989615e-08	
117	5.850000e+00	5.988099e-08	
118	5.900000e+00	5.986612e-08	
119	5.950000e+00	5.985152e-08	
120	6.000000e+00	5.983719e-08	
121	6.050000e+00	5.982312e-08	
122	6.100000e+00	5.980930e-08	
123	6.150000e+00	5.979573e-08	
124	6.200000e+00	5.978240e-08	
125	6.250000e+00	5.976930e-08	
126	6.300000e+00	5.975643e-08	
127	6.350000e+00	5.974378e-08	
128	6.400000e+00	5.973135e-08	
129	6.450000e+00	5.971913e-08	
130	6.500000e+00	5.970712e-08	
131	6.550000e+00	5.969530e-08	
132	6.600000e+00	5.968369e-08	
Reset re-loads circuit ***************************

Circuit: ***************************

Doing analysis at TEMP = -40.000000 and TNOM = -40.000000


No. of Data Rows : 133
                          ***************************
                          DC transfer characteristic  Mon Jan  9 13:58:39  2023
--------------------------------------------------------------------------------
Index   v-sweep         rds             
--------------------------------------------------------------------------------
0	0.000000e+00	1.833625e-04	
1	5.000000e-02	1.730218e-04	
2	1.000000e-01	1.627363e-04	
3	1.500000e-01	1.525059e-04	
4	2.000000e-01	1.423304e-04	
5	2.500000e-01	1.322098e-04	
6	3.000000e-01	1.221442e-04	
7	3.500000e-01	1.121341e-04	
8	4.000000e-01	1.021804e-04	
9	4.500000e-01	9.228492e-05	
10	5.000000e-01	8.245108e-05	
11	5.500000e-01	7.268548e-05	
12	6.000000e-01	6.300113e-05	
13	6.500000e-01	5.342460e-05	
14	7.000000e-01	4.401195e-05	
15	7.500000e-01	3.488278e-05	
16	8.000000e-01	2.628199e-05	
17	8.500000e-01	1.864121e-05	
18	9.000000e-01	1.249682e-05	
19	9.500000e-01	8.142875e-06	
20	1.000000e+00	5.374844e-06	
21	1.050000e+00	3.706694e-06	
22	1.100000e+00	2.700944e-06	
23	1.150000e+00	2.074882e-06	
24	1.200000e+00	1.667791e-06	
25	1.250000e+00	1.391050e-06	
26	1.300000e+00	1.195094e-06	
27	1.350000e+00	1.051289e-06	
28	1.400000e+00	9.424505e-07	
29	1.450000e+00	8.578732e-07	
30	1.500000e+00	7.906445e-07	
31	1.550000e+00	7.361559e-07	
32	1.600000e+00	6.912440e-07	
33	1.650000e+00	6.536809e-07	
34	1.700000e+00	6.218600e-07	
35	1.750000e+00	5.945993e-07	
36	1.800000e+00	5.710120e-07	
37	1.850000e+00	5.504222e-07	
38	1.900000e+00	5.323068e-07	
39	1.950000e+00	5.162551e-07	
40	2.000000e+00	5.019410e-07	
41	2.050000e+00	4.891024e-07	
42	2.100000e+00	4.775265e-07	
43	2.150000e+00	4.670390e-07	
44	2.200000e+00	4.574957e-07	
45	2.250000e+00	4.487766e-07	
46	2.300000e+00	4.407808e-07	
47	2.350000e+00	4.334232e-07	
48	2.400000e+00	4.266311e-07	
49	2.450000e+00	4.203427e-07	
50	2.500000e+00	4.145045e-07	
51	2.550000e+00	4.090704e-07	
52	2.600000e+00	4.040002e-07	
53	2.650000e+00	3.992590e-07	
54	2.700000e+00	3.948160e-07	

Index   v-sweep         rds             
--------------------------------------------------------------------------------
55	2.750000e+00	3.906442e-07	
56	2.800000e+00	3.867198e-07	
57	2.850000e+00	3.830215e-07	
58	2.900000e+00	3.795305e-07	
59	2.950000e+00	3.762299e-07	
60	3.000000e+00	3.731048e-07	
61	3.050000e+00	3.701416e-07	
62	3.100000e+00	3.673282e-07	
63	3.150000e+00	3.646534e-07	
64	3.200000e+00	3.621075e-07	
65	3.250000e+00	3.596813e-07	
66	3.300000e+00	3.573667e-07	
67	3.350000e+00	3.551561e-07	
68	3.400000e+00	3.530428e-07	
69	3.450000e+00	3.510206e-07	
70	3.500000e+00	3.490836e-07	
71	3.550000e+00	3.472267e-07	
72	3.600000e+00	3.454450e-07	
73	3.650000e+00	3.437340e-07	
74	3.700000e+00	3.420897e-07	
75	3.750000e+00	3.405082e-07	
76	3.800000e+00	3.389861e-07	
77	3.850000e+00	3.375200e-07	
78	3.900000e+00	3.361070e-07	
79	3.950000e+00	3.347442e-07	
80	4.000000e+00	3.334290e-07	
81	4.050000e+00	3.321590e-07	
82	4.100000e+00	3.309319e-07	
83	4.150000e+00	3.297456e-07	
84	4.200000e+00	3.285980e-07	
85	4.250000e+00	3.274874e-07	
86	4.300000e+00	3.264119e-07	
87	4.350000e+00	3.253700e-07	
88	4.400000e+00	3.243601e-07	
89	4.450000e+00	3.233807e-07	
90	4.500000e+00	3.224306e-07	
91	4.550000e+00	3.215084e-07	
92	4.600000e+00	3.206128e-07	
93	4.650000e+00	3.197429e-07	
94	4.700000e+00	3.188974e-07	
95	4.750000e+00	3.180755e-07	
96	4.800000e+00	3.172760e-07	
97	4.850000e+00	3.164982e-07	
98	4.900000e+00	3.157411e-07	
99	4.950000e+00	3.150040e-07	
100	5.000000e+00	3.142861e-07	
101	5.050000e+00	3.135865e-07	
102	5.100000e+00	3.129048e-07	
103	5.150000e+00	3.122400e-07	
104	5.200000e+00	3.115918e-07	
105	5.250000e+00	3.109593e-07	
106	5.300000e+00	3.103422e-07	
107	5.350000e+00	3.097398e-07	
108	5.400000e+00	3.091516e-07	
109	5.450000e+00	3.085771e-07	
110	5.500000e+00	3.080158e-07	
111	5.550000e+00	3.074674e-07	
112	5.600000e+00	3.069313e-07	

Index   v-sweep         rds             
--------------------------------------------------------------------------------
113	5.650000e+00	3.064072e-07	
114	5.700000e+00	3.058947e-07	
115	5.750000e+00	3.053933e-07	
116	5.800000e+00	3.049027e-07	
117	5.850000e+00	3.044227e-07	
118	5.900000e+00	3.039528e-07	
119	5.950000e+00	3.034927e-07	
120	6.000000e+00	3.030422e-07	
121	6.050000e+00	3.026009e-07	
122	6.100000e+00	3.021685e-07	
123	6.150000e+00	3.017449e-07	
124	6.200000e+00	3.013297e-07	
125	6.250000e+00	3.009227e-07	
126	6.300000e+00	3.005236e-07	
127	6.350000e+00	3.001323e-07	
128	6.400000e+00	2.997484e-07	
129	6.450000e+00	2.993719e-07	
130	6.500000e+00	2.990024e-07	
131	6.550000e+00	2.986398e-07	
132	6.600000e+00	2.982839e-07	
Reset re-loads circuit ***************************

Circuit: ***************************

Doing analysis at TEMP = -40.000000 and TNOM = -40.000000


No. of Data Rows : 133
                          ***************************
                          DC transfer characteristic  Mon Jan  9 13:58:39  2023
--------------------------------------------------------------------------------
Index   v-sweep         rds             
--------------------------------------------------------------------------------
0	0.000000e+00	3.092422e-04	
1	5.000000e-02	2.992790e-04	
2	1.000000e-01	2.893721e-04	
3	1.500000e-01	2.795213e-04	
4	2.000000e-01	2.697259e-04	
5	2.500000e-01	2.599858e-04	
6	3.000000e-01	2.503004e-04	
7	3.500000e-01	2.406694e-04	
8	4.000000e-01	2.310923e-04	
9	4.500000e-01	2.215688e-04	
10	5.000000e-01	2.120984e-04	
11	5.500000e-01	2.026807e-04	
12	6.000000e-01	1.933153e-04	
13	6.500000e-01	1.840017e-04	
14	7.000000e-01	1.747396e-04	
15	7.500000e-01	1.655284e-04	
16	8.000000e-01	1.563676e-04	
17	8.500000e-01	1.472567e-04	
18	9.000000e-01	1.381953e-04	
19	9.500000e-01	1.291827e-04	
20	1.000000e+00	1.202184e-04	
21	1.050000e+00	1.113019e-04	
22	1.100000e+00	1.024331e-04	
23	1.150000e+00	9.361207e-05	
24	1.200000e+00	8.484034e-05	
25	1.250000e+00	7.612185e-05	
26	1.300000e+00	6.746600e-05	
27	1.350000e+00	5.889364e-05	
28	1.400000e+00	5.044893e-05	
29	1.450000e+00	4.222013e-05	
30	1.500000e+00	3.436854e-05	
31	1.550000e+00	2.714635e-05	
32	1.600000e+00	2.085842e-05	
33	1.650000e+00	1.574171e-05	
34	1.700000e+00	1.184163e-05	
35	1.750000e+00	9.007623e-06	
36	1.800000e+00	6.996532e-06	
37	1.850000e+00	5.573215e-06	
38	1.900000e+00	4.554497e-06	
39	1.950000e+00	3.811693e-06	
40	2.000000e+00	3.258346e-06	
41	2.050000e+00	2.837104e-06	
42	2.100000e+00	2.509748e-06	
43	2.150000e+00	2.250477e-06	
44	2.200000e+00	2.041565e-06	
45	2.250000e+00	1.870607e-06	
46	2.300000e+00	1.728758e-06	
47	2.350000e+00	1.609594e-06	
48	2.400000e+00	1.508370e-06	
49	2.450000e+00	1.421523e-06	
50	2.500000e+00	1.346341e-06	
51	2.550000e+00	1.280728e-06	
52	2.600000e+00	1.223045e-06	
53	2.650000e+00	1.171995e-06	
54	2.700000e+00	1.126540e-06	

Index   v-sweep         rds             
--------------------------------------------------------------------------------
55	2.750000e+00	1.085843e-06	
56	2.800000e+00	1.049219e-06	
57	2.850000e+00	1.016107e-06	
58	2.900000e+00	9.860417e-07	
59	2.950000e+00	9.586331e-07	
60	3.000000e+00	9.335547e-07	
61	3.050000e+00	9.105299e-07	
62	3.100000e+00	8.893231e-07	
63	3.150000e+00	8.697328e-07	
64	3.200000e+00	8.515857e-07	
65	3.250000e+00	8.347316e-07	
66	3.300000e+00	8.190405e-07	
67	3.350000e+00	8.043987e-07	
68	3.400000e+00	7.907065e-07	
69	3.450000e+00	7.778765e-07	
70	3.500000e+00	7.658312e-07	
71	3.550000e+00	7.545024e-07	
72	3.600000e+00	7.438290e-07	
73	3.650000e+00	7.337569e-07	
74	3.700000e+00	7.242375e-07	
75	3.750000e+00	7.152273e-07	
76	3.800000e+00	7.066873e-07	
77	3.850000e+00	6.985822e-07	
78	3.900000e+00	6.908800e-07	
79	3.950000e+00	6.835520e-07	
80	4.000000e+00	6.765718e-07	
81	4.050000e+00	6.699158e-07	
82	4.100000e+00	6.635621e-07	
83	4.150000e+00	6.574909e-07	
84	4.200000e+00	6.516840e-07	
85	4.250000e+00	6.461247e-07	
86	4.300000e+00	6.407977e-07	
87	4.350000e+00	6.356891e-07	
88	4.400000e+00	6.307856e-07	
89	4.450000e+00	6.260755e-07	
90	4.500000e+00	6.215476e-07	
91	4.550000e+00	6.171917e-07	
92	4.600000e+00	6.129982e-07	
93	4.650000e+00	6.089583e-07	
94	4.700000e+00	6.050639e-07	
95	4.750000e+00	6.013074e-07	
96	4.800000e+00	5.976815e-07	
97	4.850000e+00	5.941797e-07	
98	4.900000e+00	5.907957e-07	
99	4.950000e+00	5.875238e-07	
100	5.000000e+00	5.843586e-07	
101	5.050000e+00	5.812950e-07	
102	5.100000e+00	5.783282e-07	
103	5.150000e+00	5.754537e-07	
104	5.200000e+00	5.726674e-07	
105	5.250000e+00	5.699652e-07	
106	5.300000e+00	5.673435e-07	
107	5.350000e+00	5.647987e-07	
108	5.400000e+00	5.623276e-07	
109	5.450000e+00	5.599271e-07	
110	5.500000e+00	5.575940e-07	
111	5.550000e+00	5.553258e-07	
112	5.600000e+00	5.531198e-07	

Index   v-sweep         rds             
--------------------------------------------------------------------------------
113	5.650000e+00	5.509734e-07	
114	5.700000e+00	5.488842e-07	
115	5.750000e+00	5.468502e-07	
116	5.800000e+00	5.448690e-07	
117	5.850000e+00	5.429388e-07	
118	5.900000e+00	5.410575e-07	
119	5.950000e+00	5.392234e-07	
120	6.000000e+00	5.374347e-07	
121	6.050000e+00	5.356898e-07	
122	6.100000e+00	5.339871e-07	
123	6.150000e+00	5.323251e-07	
124	6.200000e+00	5.307024e-07	
125	6.250000e+00	5.291175e-07	
126	6.300000e+00	5.275693e-07	
127	6.350000e+00	5.260565e-07	
128	6.400000e+00	5.245779e-07	
129	6.450000e+00	5.231323e-07	
130	6.500000e+00	5.217186e-07	
131	6.550000e+00	5.203359e-07	
132	6.600000e+00	5.189832e-07	
Reset re-loads circuit ***************************

Circuit: ***************************

Doing analysis at TEMP = -40.000000 and TNOM = -40.000000


No. of Data Rows : 133
                          ***************************
                          DC transfer characteristic  Mon Jan  9 13:58:39  2023
--------------------------------------------------------------------------------
Index   v-sweep         rds             
--------------------------------------------------------------------------------
0	0.000000e+00	4.083140e-04	
1	5.000000e-02	3.990090e-04	
2	1.000000e-01	3.897554e-04	
3	1.500000e-01	3.805527e-04	
4	2.000000e-01	3.714007e-04	
5	2.500000e-01	3.622989e-04	
6	3.000000e-01	3.532470e-04	
7	3.500000e-01	3.442447e-04	
8	4.000000e-01	3.352916e-04	
9	4.500000e-01	3.263873e-04	
10	5.000000e-01	3.175316e-04	
11	5.500000e-01	3.087240e-04	
12	6.000000e-01	2.999643e-04	
13	6.500000e-01	2.912520e-04	
14	7.000000e-01	2.825868e-04	
15	7.500000e-01	2.739683e-04	
16	8.000000e-01	2.653963e-04	
17	8.500000e-01	2.568702e-04	
18	9.000000e-01	2.483898e-04	
19	9.500000e-01	2.399546e-04	
20	1.000000e+00	2.315644e-04	
21	1.050000e+00	2.232185e-04	
22	1.100000e+00	2.149167e-04	
23	1.150000e+00	2.066584e-04	
24	1.200000e+00	1.984432e-04	
25	1.250000e+00	1.902705e-04	
26	1.300000e+00	1.821397e-04	
27	1.350000e+00	1.740503e-04	
28	1.400000e+00	1.660013e-04	
29	1.450000e+00	1.579920e-04	
30	1.500000e+00	1.500215e-04	
31	1.550000e+00	1.420884e-04	
32	1.600000e+00	1.341914e-04	
33	1.650000e+00	1.263288e-04	
34	1.700000e+00	1.184986e-04	
35	1.750000e+00	1.106983e-04	
36	1.800000e+00	1.029251e-04	
37	1.850000e+00	9.517586e-05	
38	1.900000e+00	8.744740e-05	
39	1.950000e+00	7.973767e-05	
40	2.000000e+00	7.204775e-05	
41	2.050000e+00	6.438644e-05	
42	2.100000e+00	5.677880e-05	
43	2.150000e+00	4.928020e-05	
44	2.200000e+00	4.199456e-05	
45	2.250000e+00	3.508679e-05	
46	2.300000e+00	2.876922e-05	
47	2.350000e+00	2.324711e-05	
48	2.400000e+00	1.864450e-05	
49	2.450000e+00	1.496349e-05	
50	2.500000e+00	1.210375e-05	
51	2.550000e+00	9.915718e-06	
52	2.600000e+00	8.247588e-06	
53	2.650000e+00	6.969787e-06	
54	2.700000e+00	5.981317e-06	

Index   v-sweep         rds             
--------------------------------------------------------------------------------
55	2.750000e+00	5.207057e-06	
56	2.800000e+00	4.592321e-06	
57	2.850000e+00	4.097556e-06	
58	2.900000e+00	3.694089e-06	
59	2.950000e+00	3.360981e-06	
60	3.000000e+00	3.082786e-06	
61	3.050000e+00	2.847982e-06	
62	3.100000e+00	2.647868e-06	
63	3.150000e+00	2.475796e-06	
64	3.200000e+00	2.326630e-06	
65	3.250000e+00	2.196355e-06	
66	3.300000e+00	2.081800e-06	
67	3.350000e+00	1.980436e-06	
68	3.400000e+00	1.890227e-06	
69	3.450000e+00	1.809519e-06	
70	3.500000e+00	1.736957e-06	
71	3.550000e+00	1.671424e-06	
72	3.600000e+00	1.611990e-06	
73	3.650000e+00	1.557878e-06	
74	3.700000e+00	1.508432e-06	
75	3.750000e+00	1.463098e-06	
76	3.800000e+00	1.421402e-06	
77	3.850000e+00	1.382940e-06	
78	3.900000e+00	1.347363e-06	
79	3.950000e+00	1.314368e-06	
80	4.000000e+00	1.283694e-06	
81	4.050000e+00	1.255112e-06	
82	4.100000e+00	1.228422e-06	
83	4.150000e+00	1.203447e-06	
84	4.200000e+00	1.180032e-06	
85	4.250000e+00	1.158040e-06	
86	4.300000e+00	1.137348e-06	
87	4.350000e+00	1.117848e-06	
88	4.400000e+00	1.099441e-06	
89	4.450000e+00	1.082042e-06	
90	4.500000e+00	1.065570e-06	
91	4.550000e+00	1.049957e-06	
92	4.600000e+00	1.035137e-06	
93	4.650000e+00	1.021054e-06	
94	4.700000e+00	1.007655e-06	
95	4.750000e+00	9.948922e-07	
96	4.800000e+00	9.827226e-07	
97	4.850000e+00	9.711066e-07	
98	4.900000e+00	9.600080e-07	
99	4.950000e+00	9.493936e-07	
100	5.000000e+00	9.392331e-07	
101	5.050000e+00	9.294984e-07	
102	5.100000e+00	9.201639e-07	
103	5.150000e+00	9.112059e-07	
104	5.200000e+00	9.026024e-07	
105	5.250000e+00	8.943331e-07	
106	5.300000e+00	8.863793e-07	
107	5.350000e+00	8.787235e-07	
108	5.400000e+00	8.713496e-07	
109	5.450000e+00	8.642426e-07	
110	5.500000e+00	8.573884e-07	
111	5.550000e+00	8.507741e-07	
112	5.600000e+00	8.443873e-07	

Index   v-sweep         rds             
--------------------------------------------------------------------------------
113	5.650000e+00	8.382169e-07	
114	5.700000e+00	8.322520e-07	
115	5.750000e+00	8.264828e-07	
116	5.800000e+00	8.209000e-07	
117	5.850000e+00	8.154947e-07	
118	5.900000e+00	8.102588e-07	
119	5.950000e+00	8.051846e-07	
120	6.000000e+00	8.002647e-07	
121	6.050000e+00	7.954924e-07	
122	6.100000e+00	7.908612e-07	
123	6.150000e+00	7.863650e-07	
124	6.200000e+00	7.819980e-07	
125	6.250000e+00	7.777550e-07	
126	6.300000e+00	7.736306e-07	
127	6.350000e+00	7.696202e-07	
128	6.400000e+00	7.657190e-07	
129	6.450000e+00	7.619229e-07	
130	6.500000e+00	7.582275e-07	
131	6.550000e+00	7.546291e-07	
132	6.600000e+00	7.511239e-07	
Reset re-loads circuit ***************************

Circuit: ***************************

Doing analysis at TEMP = -40.000000 and TNOM = -40.000000


No. of Data Rows : 133
                          ***************************
                          DC transfer characteristic  Mon Jan  9 13:58:39  2023
--------------------------------------------------------------------------------
Index   v-sweep         rds             
--------------------------------------------------------------------------------
0	0.000000e+00	4.830585e-04	
1	5.000000e-02	4.745637e-04	
2	1.000000e-01	4.661129e-04	
3	1.500000e-01	4.577058e-04	
4	2.000000e-01	4.493421e-04	
5	2.500000e-01	4.410215e-04	
6	3.000000e-01	4.327437e-04	
7	3.500000e-01	4.245085e-04	
8	4.000000e-01	4.163155e-04	
9	4.500000e-01	4.081646e-04	
10	5.000000e-01	4.000553e-04	
11	5.500000e-01	3.919876e-04	
12	6.000000e-01	3.839610e-04	
13	6.500000e-01	3.759753e-04	
14	7.000000e-01	3.680303e-04	
15	7.500000e-01	3.601257e-04	
16	8.000000e-01	3.522611e-04	
17	8.500000e-01	3.444364e-04	
18	9.000000e-01	3.366513e-04	
19	9.500000e-01	3.289054e-04	
20	1.000000e+00	3.211986e-04	
21	1.050000e+00	3.135306e-04	
22	1.100000e+00	3.059010e-04	
23	1.150000e+00	2.983096e-04	
24	1.200000e+00	2.907562e-04	
25	1.250000e+00	2.832404e-04	
26	1.300000e+00	2.757619e-04	
27	1.350000e+00	2.683206e-04	
28	1.400000e+00	2.609160e-04	
29	1.450000e+00	2.535478e-04	
30	1.500000e+00	2.462158e-04	
31	1.550000e+00	2.389196e-04	
32	1.600000e+00	2.316589e-04	
33	1.650000e+00	2.244332e-04	
34	1.700000e+00	2.172422e-04	
35	1.750000e+00	2.100855e-04	
36	1.800000e+00	2.029625e-04	
37	1.850000e+00	1.958728e-04	
38	1.900000e+00	1.888157e-04	
39	1.950000e+00	1.817906e-04	
40	2.000000e+00	1.747969e-04	
41	2.050000e+00	1.678334e-04	
42	2.100000e+00	1.608994e-04	
43	2.150000e+00	1.539934e-04	
44	2.200000e+00	1.471141e-04	
45	2.250000e+00	1.402597e-04	
46	2.300000e+00	1.334281e-04	
47	2.350000e+00	1.266165e-04	
48	2.400000e+00	1.198218e-04	
49	2.450000e+00	1.130399e-04	
50	2.500000e+00	1.062660e-04	
51	2.550000e+00	9.949431e-05	
52	2.600000e+00	9.271807e-05	
53	2.650000e+00	8.593013e-05	
54	2.700000e+00	7.912393e-05	

Index   v-sweep         rds             
--------------------------------------------------------------------------------
55	2.750000e+00	7.229604e-05	
56	2.800000e+00	6.545102e-05	
57	2.850000e+00	5.860960e-05	
58	2.900000e+00	5.182065e-05	
59	2.950000e+00	4.517371e-05	
60	3.000000e+00	3.880423e-05	
61	3.050000e+00	3.287951e-05	
62	3.100000e+00	2.756142e-05	
63	3.150000e+00	2.296055e-05	
64	3.200000e+00	1.910865e-05	
65	3.250000e+00	1.596338e-05	
66	3.300000e+00	1.343539e-05	
67	3.350000e+00	1.141841e-05	
68	3.400000e+00	9.810207e-06	
69	3.450000e+00	8.522749e-06	
70	3.500000e+00	7.484806e-06	
71	3.550000e+00	6.640706e-06	
72	3.600000e+00	5.947699e-06	
73	3.650000e+00	5.373197e-06	
74	3.700000e+00	4.892373e-06	
75	3.750000e+00	4.486250e-06	
76	3.800000e+00	4.140233e-06	
77	3.850000e+00	3.843018e-06	
78	3.900000e+00	3.585774e-06	
79	3.950000e+00	3.361549e-06	
80	4.000000e+00	3.164818e-06	
81	4.050000e+00	2.991157e-06	
82	4.100000e+00	2.836994e-06	
83	4.150000e+00	2.699423e-06	
84	4.200000e+00	2.576058e-06	
85	4.250000e+00	2.464933e-06	
86	4.300000e+00	2.364410e-06	
87	4.350000e+00	2.273122e-06	
88	4.400000e+00	2.189915e-06	
89	4.450000e+00	2.113815e-06	
90	4.500000e+00	2.043991e-06	
91	4.550000e+00	1.979733e-06	
92	4.600000e+00	1.920430e-06	
93	4.650000e+00	1.865555e-06	
94	4.700000e+00	1.814650e-06	
95	4.750000e+00	1.767316e-06	
96	4.800000e+00	1.723206e-06	
97	4.850000e+00	1.682013e-06	
98	4.900000e+00	1.643468e-06	
99	4.950000e+00	1.607332e-06	
100	5.000000e+00	1.573394e-06	
101	5.050000e+00	1.541467e-06	
102	5.100000e+00	1.511383e-06	
103	5.150000e+00	1.482991e-06	
104	5.200000e+00	1.456158e-06	
105	5.250000e+00	1.430762e-06	
106	5.300000e+00	1.406694e-06	
107	5.350000e+00	1.383856e-06	
108	5.400000e+00	1.362159e-06	
109	5.450000e+00	1.341521e-06	
110	5.500000e+00	1.321869e-06	
111	5.550000e+00	1.303136e-06	
112	5.600000e+00	1.285260e-06	

Index   v-sweep         rds             
--------------------------------------------------------------------------------
113	5.650000e+00	1.268186e-06	
114	5.700000e+00	1.251862e-06	
115	5.750000e+00	1.236240e-06	
116	5.800000e+00	1.221278e-06	
117	5.850000e+00	1.206936e-06	
118	5.900000e+00	1.193176e-06	
119	5.950000e+00	1.179965e-06	
120	6.000000e+00	1.167271e-06	
121	6.050000e+00	1.155066e-06	
122	6.100000e+00	1.143321e-06	
123	6.150000e+00	1.132013e-06	
124	6.200000e+00	1.121117e-06	
125	6.250000e+00	1.110612e-06	
126	6.300000e+00	1.100478e-06	
127	6.350000e+00	1.090696e-06	
128	6.400000e+00	1.081248e-06	
129	6.450000e+00	1.072117e-06	
130	6.500000e+00	1.063289e-06	
131	6.550000e+00	1.054748e-06	
132	6.600000e+00	1.046482e-06	
Reset re-loads circuit ***************************

Circuit: ***************************

Doing analysis at TEMP = -40.000000 and TNOM = -40.000000


No. of Data Rows : 133
                          ***************************
                          DC transfer characteristic  Mon Jan  9 13:58:39  2023
--------------------------------------------------------------------------------
Index   v-sweep         rds             
--------------------------------------------------------------------------------
0	0.000000e+00	5.347571e-04	
1	5.000000e-02	5.271446e-04	
2	1.000000e-01	5.195682e-04	
3	1.500000e-01	5.120279e-04	
4	2.000000e-01	5.045233e-04	
5	2.500000e-01	4.970542e-04	
6	3.000000e-01	4.896205e-04	
7	3.500000e-01	4.822218e-04	
8	4.000000e-01	4.748582e-04	
9	4.500000e-01	4.675292e-04	
10	5.000000e-01	4.602347e-04	
11	5.500000e-01	4.529745e-04	
12	6.000000e-01	4.457485e-04	
13	6.500000e-01	4.385563e-04	
14	7.000000e-01	4.313978e-04	
15	7.500000e-01	4.242728e-04	
16	8.000000e-01	4.171811e-04	
17	8.500000e-01	4.101225e-04	
18	9.000000e-01	4.030969e-04	
19	9.500000e-01	3.961039e-04	
20	1.000000e+00	3.891434e-04	
21	1.050000e+00	3.822152e-04	
22	1.100000e+00	3.753191e-04	
23	1.150000e+00	3.684549e-04	
24	1.200000e+00	3.616225e-04	
25	1.250000e+00	3.548216e-04	
26	1.300000e+00	3.480520e-04	
27	1.350000e+00	3.413136e-04	
28	1.400000e+00	3.346061e-04	
29	1.450000e+00	3.279294e-04	
30	1.500000e+00	3.212832e-04	
31	1.550000e+00	3.146674e-04	
32	1.600000e+00	3.080817e-04	
33	1.650000e+00	3.015259e-04	
34	1.700000e+00	2.950000e-04	
35	1.750000e+00	2.885035e-04	
36	1.800000e+00	2.820364e-04	
37	1.850000e+00	2.755985e-04	
38	1.900000e+00	2.691894e-04	
39	1.950000e+00	2.628090e-04	
40	2.000000e+00	2.564571e-04	
41	2.050000e+00	2.501333e-04	
42	2.100000e+00	2.438375e-04	
43	2.150000e+00	2.375694e-04	
44	2.200000e+00	2.313287e-04	
45	2.250000e+00	2.251151e-04	
46	2.300000e+00	2.189283e-04	
47	2.350000e+00	2.127679e-04	
48	2.400000e+00	2.066336e-04	
49	2.450000e+00	2.005249e-04	
50	2.500000e+00	1.944414e-04	
51	2.550000e+00	1.883825e-04	
52	2.600000e+00	1.823476e-04	
53	2.650000e+00	1.763361e-04	
54	2.700000e+00	1.703471e-04	

Index   v-sweep         rds             
--------------------------------------------------------------------------------
55	2.750000e+00	1.643798e-04	
56	2.800000e+00	1.584330e-04	
57	2.850000e+00	1.525054e-04	
58	2.900000e+00	1.465955e-04	
59	2.950000e+00	1.407014e-04	
60	3.000000e+00	1.348208e-04	
61	3.050000e+00	1.289509e-04	
62	3.100000e+00	1.230884e-04	
63	3.150000e+00	1.172291e-04	
64	3.200000e+00	1.113678e-04	
65	3.250000e+00	1.054985e-04	
66	3.300000e+00	9.961380e-05	
67	3.350000e+00	9.370500e-05	
68	3.400000e+00	8.776259e-05	
69	3.450000e+00	8.177680e-05	
70	3.500000e+00	7.573952e-05	
71	3.550000e+00	6.964763e-05	
72	3.600000e+00	6.350876e-05	
73	3.650000e+00	5.734954e-05	
74	3.700000e+00	5.122508e-05	
75	3.750000e+00	4.522550e-05	
76	3.800000e+00	3.947317e-05	
77	3.850000e+00	3.410524e-05	
78	3.900000e+00	2.924466e-05	
79	3.950000e+00	2.497197e-05	
80	4.000000e+00	2.131176e-05	
81	4.050000e+00	1.823786e-05	
82	4.100000e+00	1.569021e-05	
83	4.150000e+00	1.359358e-05	
84	4.200000e+00	1.187166e-05	
85	4.250000e+00	1.045509e-05	
86	4.300000e+00	9.284752e-06	
87	4.350000e+00	8.312137e-06	
88	4.400000e+00	7.498303e-06	
89	4.450000e+00	6.812356e-06	
90	4.500000e+00	6.229913e-06	
91	4.550000e+00	5.731737e-06	
92	4.600000e+00	5.302618e-06	
93	4.650000e+00	4.930480e-06	
94	4.700000e+00	4.605684e-06	
95	4.750000e+00	4.320493e-06	
96	4.800000e+00	4.068652e-06	
97	4.850000e+00	3.845075e-06	
98	4.900000e+00	3.645599e-06	
99	4.950000e+00	3.466794e-06	
100	5.000000e+00	3.305818e-06	
101	5.050000e+00	3.160299e-06	
102	5.100000e+00	3.028247e-06	
103	5.150000e+00	2.907987e-06	
104	5.200000e+00	2.798095e-06	
105	5.250000e+00	2.697359e-06	
106	5.300000e+00	2.604741e-06	
107	5.350000e+00	2.519348e-06	
108	5.400000e+00	2.440408e-06	
109	5.450000e+00	2.367252e-06	
110	5.500000e+00	2.299295e-06	
111	5.550000e+00	2.236027e-06	
112	5.600000e+00	2.177002e-06	

Index   v-sweep         rds             
--------------------------------------------------------------------------------
113	5.650000e+00	2.121823e-06	
114	5.700000e+00	2.070142e-06	
115	5.750000e+00	2.021652e-06	
116	5.800000e+00	1.976075e-06	
117	5.850000e+00	1.933168e-06	
118	5.900000e+00	1.892712e-06	
119	5.950000e+00	1.854510e-06	
120	6.000000e+00	1.818385e-06	
121	6.050000e+00	1.784178e-06	
122	6.100000e+00	1.751746e-06	
123	6.150000e+00	1.720959e-06	
124	6.200000e+00	1.691698e-06	
125	6.250000e+00	1.663857e-06	
126	6.300000e+00	1.637337e-06	
127	6.350000e+00	1.612050e-06	
128	6.400000e+00	1.587915e-06	
129	6.450000e+00	1.564856e-06	
130	6.500000e+00	1.542805e-06	
131	6.550000e+00	1.521700e-06	
132	6.600000e+00	1.501482e-06	
Reset re-loads circuit ***************************

Circuit: ***************************

Note: No ".plot", ".print", or ".fourier" lines; no simulations run
