
Note: Compatibility modes selected: hs

Warning: m=xx on .subckt line will override multiplier m hierarchy!


Circuit: ***************************

Doing analysis at TEMP = 25.000000 and TNOM = 25.000000


No. of Data Rows : 133
                          ***************************
                          DC transfer characteristic  Mon Jan  9 13:58:37  2023
--------------------------------------------------------------------------------
Index   v-sweep         rds             
--------------------------------------------------------------------------------
0	0.000000e+00	6.939384e-06	
1	5.000000e-02	5.642637e-06	
2	1.000000e-01	4.359120e-06	
3	1.500000e-01	3.102863e-06	
4	2.000000e-01	1.920955e-06	
5	2.500000e-01	9.519433e-07	
6	3.000000e-01	3.840308e-07	
7	3.500000e-01	1.593236e-07	
8	4.000000e-01	8.097532e-08	
9	4.500000e-01	5.052781e-08	
10	5.000000e-01	3.663525e-08	
11	5.500000e-01	2.934119e-08	
12	6.000000e-01	2.506449e-08	
13	6.500000e-01	2.233392e-08	
14	7.000000e-01	2.047143e-08	
15	7.500000e-01	1.913345e-08	
16	8.000000e-01	1.813181e-08	
17	8.500000e-01	1.735661e-08	
18	9.000000e-01	1.674014e-08	
19	9.500000e-01	1.623878e-08	
20	1.000000e+00	1.582331e-08	
21	1.050000e+00	1.547349e-08	
22	1.100000e+00	1.517494e-08	
23	1.150000e+00	1.491716e-08	
24	1.200000e+00	1.469230e-08	
25	1.250000e+00	1.449442e-08	
26	1.300000e+00	1.431891e-08	
27	1.350000e+00	1.416217e-08	
28	1.400000e+00	1.402131e-08	
29	1.450000e+00	1.389402e-08	
30	1.500000e+00	1.377843e-08	
31	1.550000e+00	1.367297e-08	
32	1.600000e+00	1.357636e-08	
33	1.650000e+00	1.348753e-08	
34	1.700000e+00	1.340556e-08	
35	1.750000e+00	1.332969e-08	
36	1.800000e+00	1.325925e-08	
37	1.850000e+00	1.319368e-08	
38	1.900000e+00	1.313249e-08	
39	1.950000e+00	1.307525e-08	
40	2.000000e+00	1.302159e-08	
41	2.050000e+00	1.297118e-08	
42	2.100000e+00	1.292373e-08	
43	2.150000e+00	1.287900e-08	
44	2.200000e+00	1.283674e-08	
45	2.250000e+00	1.279677e-08	
46	2.300000e+00	1.275890e-08	
47	2.350000e+00	1.272297e-08	
48	2.400000e+00	1.268884e-08	
49	2.450000e+00	1.265636e-08	
50	2.500000e+00	1.262543e-08	
51	2.550000e+00	1.259594e-08	
52	2.600000e+00	1.256778e-08	
53	2.650000e+00	1.254088e-08	
54	2.700000e+00	1.251514e-08	

Index   v-sweep         rds             
--------------------------------------------------------------------------------
55	2.750000e+00	1.249050e-08	
56	2.800000e+00	1.246689e-08	
57	2.850000e+00	1.244423e-08	
58	2.900000e+00	1.242249e-08	
59	2.950000e+00	1.240159e-08	
60	3.000000e+00	1.238150e-08	
61	3.050000e+00	1.236217e-08	
62	3.100000e+00	1.234355e-08	
63	3.150000e+00	1.232561e-08	
64	3.200000e+00	1.230831e-08	
65	3.250000e+00	1.229162e-08	
66	3.300000e+00	1.227551e-08	
67	3.350000e+00	1.225994e-08	
68	3.400000e+00	1.224490e-08	
69	3.450000e+00	1.223034e-08	
70	3.500000e+00	1.221626e-08	
71	3.550000e+00	1.220263e-08	
72	3.600000e+00	1.218942e-08	
73	3.650000e+00	1.217663e-08	
74	3.700000e+00	1.216422e-08	
75	3.750000e+00	1.215218e-08	
76	3.800000e+00	1.214050e-08	
77	3.850000e+00	1.212916e-08	
78	3.900000e+00	1.211815e-08	
79	3.950000e+00	1.210744e-08	
80	4.000000e+00	1.209704e-08	
81	4.050000e+00	1.208692e-08	
82	4.100000e+00	1.207708e-08	
83	4.150000e+00	1.206750e-08	
84	4.200000e+00	1.205818e-08	
85	4.250000e+00	1.204910e-08	
86	4.300000e+00	1.204026e-08	
87	4.350000e+00	1.203164e-08	
88	4.400000e+00	1.202324e-08	
89	4.450000e+00	1.201505e-08	
90	4.500000e+00	1.200706e-08	
91	4.550000e+00	1.199926e-08	
92	4.600000e+00	1.199165e-08	
93	4.650000e+00	1.198422e-08	
94	4.700000e+00	1.197697e-08	
95	4.750000e+00	1.196989e-08	
96	4.800000e+00	1.196297e-08	
97	4.850000e+00	1.195620e-08	
98	4.900000e+00	1.194959e-08	
99	4.950000e+00	1.194313e-08	
100	5.000000e+00	1.193681e-08	
101	5.050000e+00	1.193062e-08	
102	5.100000e+00	1.192457e-08	
103	5.150000e+00	1.191865e-08	
104	5.200000e+00	1.191285e-08	
105	5.250000e+00	1.190718e-08	
106	5.300000e+00	1.190162e-08	
107	5.350000e+00	1.189618e-08	
108	5.400000e+00	1.189085e-08	
109	5.450000e+00	1.188562e-08	
110	5.500000e+00	1.188050e-08	
111	5.550000e+00	1.187548e-08	
112	5.600000e+00	1.187056e-08	

Index   v-sweep         rds             
--------------------------------------------------------------------------------
113	5.650000e+00	1.186573e-08	
114	5.700000e+00	1.186100e-08	
115	5.750000e+00	1.185636e-08	
116	5.800000e+00	1.185180e-08	
117	5.850000e+00	1.184733e-08	
118	5.900000e+00	1.184294e-08	
119	5.950000e+00	1.183864e-08	
120	6.000000e+00	1.183441e-08	
121	6.050000e+00	1.183026e-08	
122	6.100000e+00	1.182618e-08	
123	6.150000e+00	1.182218e-08	
124	6.200000e+00	1.181824e-08	
125	6.250000e+00	1.181438e-08	
126	6.300000e+00	1.181058e-08	
127	6.350000e+00	1.180684e-08	
128	6.400000e+00	1.180318e-08	
129	6.450000e+00	1.179957e-08	
130	6.500000e+00	1.179602e-08	
131	6.550000e+00	1.179253e-08	
132	6.600000e+00	1.178910e-08	
Reset re-loads circuit ***************************

Circuit: ***************************

Doing analysis at TEMP = 25.000000 and TNOM = 25.000000


No. of Data Rows : 133
                          ***************************
                          DC transfer characteristic  Mon Jan  9 13:58:38  2023
--------------------------------------------------------------------------------
Index   v-sweep         rds             
--------------------------------------------------------------------------------
0	0.000000e+00	2.680368e-05	
1	5.000000e-02	2.542232e-05	
2	1.000000e-01	2.404780e-05	
3	1.500000e-01	2.268012e-05	
4	2.000000e-01	2.131924e-05	
5	2.500000e-01	1.996517e-05	
6	3.000000e-01	1.861791e-05	
7	3.500000e-01	1.727749e-05	
8	4.000000e-01	1.594399e-05	
9	4.500000e-01	1.461752e-05	
10	5.000000e-01	1.329832e-05	
11	5.500000e-01	1.198680e-05	
12	6.000000e-01	1.068366e-05	
13	6.500000e-01	9.390255e-06	
14	7.000000e-01	8.109089e-06	
15	7.500000e-01	6.845096e-06	
16	8.000000e-01	5.608183e-06	
17	8.500000e-01	4.418185e-06	
18	9.000000e-01	3.312358e-06	
19	9.500000e-01	2.349046e-06	
20	1.000000e+00	1.589700e-06	
21	1.050000e+00	1.056765e-06	
22	1.100000e+00	7.156670e-07	
23	1.150000e+00	5.062347e-07	
24	1.200000e+00	3.770712e-07	
25	1.250000e+00	2.949110e-07	
26	1.300000e+00	2.404710e-07	
27	1.350000e+00	2.028683e-07	
28	1.400000e+00	1.758820e-07	
29	1.450000e+00	1.558495e-07	
30	1.500000e+00	1.405376e-07	
31	1.550000e+00	1.285358e-07	
32	1.600000e+00	1.189228e-07	
33	1.650000e+00	1.110784e-07	
34	1.700000e+00	1.045730e-07	
35	1.750000e+00	9.910174e-08	
36	1.800000e+00	9.444339e-08	
37	1.850000e+00	9.043405e-08	
38	1.900000e+00	8.695014e-08	
39	1.950000e+00	8.389692e-08	
40	2.000000e+00	8.120076e-08	
41	2.050000e+00	7.880358e-08	
42	2.100000e+00	7.665907e-08	
43	2.150000e+00	7.472988e-08	
44	2.200000e+00	7.298556e-08	
45	2.250000e+00	7.140109e-08	
46	2.300000e+00	6.995570e-08	
47	2.350000e+00	6.863206e-08	
48	2.400000e+00	6.741554e-08	
49	2.450000e+00	6.629377e-08	
50	2.500000e+00	6.525619e-08	
51	2.550000e+00	6.429373e-08	
52	2.600000e+00	6.339859e-08	
53	2.650000e+00	6.256399e-08	
54	2.700000e+00	6.178402e-08	

Index   v-sweep         rds             
--------------------------------------------------------------------------------
55	2.750000e+00	6.105353e-08	
56	2.800000e+00	6.036798e-08	
57	2.850000e+00	5.972337e-08	
58	2.900000e+00	5.911615e-08	
59	2.950000e+00	5.854319e-08	
60	3.000000e+00	5.800168e-08	
61	3.050000e+00	5.748910e-08	
62	3.100000e+00	5.700321e-08	
63	3.150000e+00	5.654199e-08	
64	3.200000e+00	5.610361e-08	
65	3.250000e+00	5.568642e-08	
66	3.300000e+00	5.528894e-08	
67	3.350000e+00	5.490979e-08	
68	3.400000e+00	5.454775e-08	
69	3.450000e+00	5.420168e-08	
70	3.500000e+00	5.387057e-08	
71	3.550000e+00	5.355345e-08	
72	3.600000e+00	5.324947e-08	
73	3.650000e+00	5.295782e-08	
74	3.700000e+00	5.267779e-08	
75	3.750000e+00	5.240867e-08	
76	3.800000e+00	5.214987e-08	
77	3.850000e+00	5.190078e-08	
78	3.900000e+00	5.166088e-08	
79	3.950000e+00	5.142968e-08	
80	4.000000e+00	5.120670e-08	
81	4.050000e+00	5.099152e-08	
82	4.100000e+00	5.078373e-08	
83	4.150000e+00	5.058297e-08	
84	4.200000e+00	5.038889e-08	
85	4.250000e+00	5.020115e-08	
86	4.300000e+00	5.001946e-08	
87	4.350000e+00	4.984352e-08	
88	4.400000e+00	4.967307e-08	
89	4.450000e+00	4.950785e-08	
90	4.500000e+00	4.934764e-08	
91	4.550000e+00	4.919220e-08	
92	4.600000e+00	4.904133e-08	
93	4.650000e+00	4.889483e-08	
94	4.700000e+00	4.875251e-08	
95	4.750000e+00	4.861420e-08	
96	4.800000e+00	4.847973e-08	
97	4.850000e+00	4.834894e-08	
98	4.900000e+00	4.822169e-08	
99	4.950000e+00	4.809783e-08	
100	5.000000e+00	4.797724e-08	
101	5.050000e+00	4.785977e-08	
102	5.100000e+00	4.774532e-08	
103	5.150000e+00	4.763377e-08	
104	5.200000e+00	4.752501e-08	
105	5.250000e+00	4.741894e-08	
106	5.300000e+00	4.731546e-08	
107	5.350000e+00	4.721448e-08	
108	5.400000e+00	4.711591e-08	
109	5.450000e+00	4.701966e-08	
110	5.500000e+00	4.692565e-08	
111	5.550000e+00	4.683380e-08	
112	5.600000e+00	4.674405e-08	

Index   v-sweep         rds             
--------------------------------------------------------------------------------
113	5.650000e+00	4.665632e-08	
114	5.700000e+00	4.657055e-08	
115	5.750000e+00	4.648666e-08	
116	5.800000e+00	4.640461e-08	
117	5.850000e+00	4.632432e-08	
118	5.900000e+00	4.624575e-08	
119	5.950000e+00	4.616883e-08	
120	6.000000e+00	4.609353e-08	
121	6.050000e+00	4.601978e-08	
122	6.100000e+00	4.594754e-08	
123	6.150000e+00	4.587677e-08	
124	6.200000e+00	4.580742e-08	
125	6.250000e+00	4.573945e-08	
126	6.300000e+00	4.567281e-08	
127	6.350000e+00	4.560748e-08	
128	6.400000e+00	4.554341e-08	
129	6.450000e+00	4.548056e-08	
130	6.500000e+00	4.541891e-08	
131	6.550000e+00	4.535841e-08	
132	6.600000e+00	4.529904e-08	
Reset re-loads circuit ***************************

Circuit: ***************************

Doing analysis at TEMP = 25.000000 and TNOM = 25.000000


No. of Data Rows : 133
                          ***************************
                          DC transfer characteristic  Mon Jan  9 13:58:38  2023
--------------------------------------------------------------------------------
Index   v-sweep         rds             
--------------------------------------------------------------------------------
0	0.000000e+00	4.364531e-05	
1	5.000000e-02	4.232294e-05	
2	1.000000e-01	4.100720e-05	
3	1.500000e-01	3.969805e-05	
4	2.000000e-01	3.839544e-05	
5	2.500000e-01	3.709933e-05	
6	3.000000e-01	3.580969e-05	
7	3.500000e-01	3.452648e-05	
8	4.000000e-01	3.324965e-05	
9	4.500000e-01	3.197916e-05	
10	5.000000e-01	3.071497e-05	
11	5.500000e-01	2.945706e-05	
12	6.000000e-01	2.820536e-05	
13	6.500000e-01	2.695986e-05	
14	7.000000e-01	2.572051e-05	
15	7.500000e-01	2.448727e-05	
16	8.000000e-01	2.326011e-05	
17	8.500000e-01	2.203900e-05	
18	9.000000e-01	2.082391e-05	
19	9.500000e-01	1.961481e-05	
20	1.000000e+00	1.841168e-05	
21	1.050000e+00	1.721452e-05	
22	1.100000e+00	1.602336e-05	
23	1.150000e+00	1.483825e-05	
24	1.200000e+00	1.365933e-05	
25	1.250000e+00	1.248685e-05	
26	1.300000e+00	1.132133e-05	
27	1.350000e+00	1.016373e-05	
28	1.400000e+00	9.015855e-06	
29	1.450000e+00	7.881177e-06	
30	1.500000e+00	6.766205e-06	
31	1.550000e+00	5.682848e-06	
32	1.600000e+00	4.651434e-06	
33	1.650000e+00	3.702393e-06	
34	1.700000e+00	2.872003e-06	
35	1.750000e+00	2.189350e-06	
36	1.800000e+00	1.661966e-06	
37	1.850000e+00	1.273583e-06	
38	1.900000e+00	9.949519e-07	
39	1.950000e+00	7.962065e-07	
40	2.000000e+00	6.532108e-07	
41	2.050000e+00	5.485829e-07	
42	2.100000e+00	4.704543e-07	
43	2.150000e+00	4.108697e-07	
44	2.200000e+00	3.644942e-07	
45	2.250000e+00	3.277113e-07	
46	2.300000e+00	2.980308e-07	
47	2.350000e+00	2.737075e-07	
48	2.400000e+00	2.534956e-07	
49	2.450000e+00	2.364901e-07	
50	2.500000e+00	2.220222e-07	
51	2.550000e+00	2.095897e-07	
52	2.600000e+00	1.988097e-07	
53	2.650000e+00	1.893868e-07	
54	2.700000e+00	1.810894e-07	

Index   v-sweep         rds             
--------------------------------------------------------------------------------
55	2.750000e+00	1.737345e-07	
56	2.800000e+00	1.671755e-07	
57	2.850000e+00	1.612939e-07	
58	2.900000e+00	1.559929e-07	
59	2.950000e+00	1.511932e-07	
60	3.000000e+00	1.468286e-07	
61	3.050000e+00	1.428441e-07	
62	3.100000e+00	1.391933e-07	
63	3.150000e+00	1.358368e-07	
64	3.200000e+00	1.327413e-07	
65	3.250000e+00	1.298781e-07	
66	3.300000e+00	1.272224e-07	
67	3.350000e+00	1.247530e-07	
68	3.400000e+00	1.224513e-07	
69	3.450000e+00	1.203010e-07	
70	3.500000e+00	1.182879e-07	
71	3.550000e+00	1.163995e-07	
72	3.600000e+00	1.146247e-07	
73	3.650000e+00	1.129538e-07	
74	3.700000e+00	1.113779e-07	
75	3.750000e+00	1.098894e-07	
76	3.800000e+00	1.084813e-07	
77	3.850000e+00	1.071472e-07	
78	3.900000e+00	1.058816e-07	
79	3.950000e+00	1.046794e-07	
80	4.000000e+00	1.035360e-07	
81	4.050000e+00	1.024473e-07	
82	4.100000e+00	1.014094e-07	
83	4.150000e+00	1.004189e-07	
84	4.200000e+00	9.947267e-08	
85	4.250000e+00	9.856785e-08	
86	4.300000e+00	9.770179e-08	
87	4.350000e+00	9.687208e-08	
88	4.400000e+00	9.607650e-08	
89	4.450000e+00	9.531300e-08	
90	4.500000e+00	9.457970e-08	
91	4.550000e+00	9.387486e-08	
92	4.600000e+00	9.319686e-08	
93	4.650000e+00	9.254421e-08	
94	4.700000e+00	9.191553e-08	
95	4.750000e+00	9.130953e-08	
96	4.800000e+00	9.072502e-08	
97	4.850000e+00	9.016088e-08	
98	4.900000e+00	8.961607e-08	
99	4.950000e+00	8.908963e-08	
100	5.000000e+00	8.858064e-08	
101	5.050000e+00	8.808826e-08	
102	5.100000e+00	8.761170e-08	
103	5.150000e+00	8.715020e-08	
104	5.200000e+00	8.670308e-08	
105	5.250000e+00	8.626967e-08	
106	5.300000e+00	8.584936e-08	
107	5.350000e+00	8.544156e-08	
108	5.400000e+00	8.504574e-08	
109	5.450000e+00	8.466137e-08	
110	5.500000e+00	8.428797e-08	
111	5.550000e+00	8.392507e-08	
112	5.600000e+00	8.357225e-08	

Index   v-sweep         rds             
--------------------------------------------------------------------------------
113	5.650000e+00	8.322909e-08	
114	5.700000e+00	8.289520e-08	
115	5.750000e+00	8.257022e-08	
116	5.800000e+00	8.225379e-08	
117	5.850000e+00	8.194559e-08	
118	5.900000e+00	8.164529e-08	
119	5.950000e+00	8.135261e-08	
120	6.000000e+00	8.106726e-08	
121	6.050000e+00	8.078897e-08	
122	6.100000e+00	8.051747e-08	
123	6.150000e+00	8.025253e-08	
124	6.200000e+00	7.999392e-08	
125	6.250000e+00	7.974141e-08	
126	6.300000e+00	7.949478e-08	
127	6.350000e+00	7.925385e-08	
128	6.400000e+00	7.901841e-08	
129	6.450000e+00	7.878827e-08	
130	6.500000e+00	7.856328e-08	
131	6.550000e+00	7.834324e-08	
132	6.600000e+00	7.812801e-08	
Reset re-loads circuit ***************************

Circuit: ***************************

Doing analysis at TEMP = 25.000000 and TNOM = 25.000000


No. of Data Rows : 133
                          ***************************
                          DC transfer characteristic  Mon Jan  9 13:58:38  2023
--------------------------------------------------------------------------------
Index   v-sweep         rds             
--------------------------------------------------------------------------------
0	0.000000e+00	5.717273e-05	
1	5.000000e-02	5.594313e-05	
2	1.000000e-01	5.471943e-05	
3	1.500000e-01	5.350160e-05	
4	2.000000e-01	5.228960e-05	
5	2.500000e-01	5.108340e-05	
6	3.000000e-01	4.988297e-05	
7	3.500000e-01	4.868826e-05	
8	4.000000e-01	4.749925e-05	
9	4.500000e-01	4.631589e-05	
10	5.000000e-01	4.513815e-05	
11	5.500000e-01	4.396600e-05	
12	6.000000e-01	4.279941e-05	
13	6.500000e-01	4.163833e-05	
14	7.000000e-01	4.048274e-05	
15	7.500000e-01	3.933260e-05	
16	8.000000e-01	3.818787e-05	
17	8.500000e-01	3.704852e-05	
18	9.000000e-01	3.591452e-05	
19	9.500000e-01	3.478583e-05	
20	1.000000e+00	3.366241e-05	
21	1.050000e+00	3.254423e-05	
22	1.100000e+00	3.143125e-05	
23	1.150000e+00	3.032344e-05	
24	1.200000e+00	2.922074e-05	
25	1.250000e+00	2.812313e-05	
26	1.300000e+00	2.703056e-05	
27	1.350000e+00	2.594299e-05	
28	1.400000e+00	2.486036e-05	
29	1.450000e+00	2.378263e-05	
30	1.500000e+00	2.270973e-05	
31	1.550000e+00	2.164161e-05	
32	1.600000e+00	2.057820e-05	
33	1.650000e+00	1.951941e-05	
34	1.700000e+00	1.846516e-05	
35	1.750000e+00	1.741534e-05	
36	1.800000e+00	1.636985e-05	
37	1.850000e+00	1.532856e-05	
38	1.900000e+00	1.429135e-05	
39	1.950000e+00	1.325811e-05	
40	2.000000e+00	1.222882e-05	
41	2.050000e+00	1.120359e-05	
42	2.100000e+00	1.018291e-05	
43	2.150000e+00	9.168012e-06	
44	2.200000e+00	8.161510e-06	
45	2.250000e+00	7.168596e-06	
46	2.300000e+00	6.198665e-06	
47	2.350000e+00	5.267052e-06	
48	2.400000e+00	4.395459e-06	
49	2.450000e+00	3.608996e-06	
50	2.500000e+00	2.929211e-06	
51	2.550000e+00	2.366506e-06	
52	2.600000e+00	1.917295e-06	
53	2.650000e+00	1.567399e-06	
54	2.700000e+00	1.298159e-06	

Index   v-sweep         rds             
--------------------------------------------------------------------------------
55	2.750000e+00	1.091360e-06	
56	2.800000e+00	9.316481e-07	
57	2.850000e+00	8.070687e-07	
58	2.900000e+00	7.086952e-07	
59	2.950000e+00	6.299876e-07	
60	3.000000e+00	5.661809e-07	
61	3.050000e+00	5.137950e-07	
62	3.100000e+00	4.702701e-07	
63	3.150000e+00	4.337048e-07	
64	3.200000e+00	4.026715e-07	
65	3.250000e+00	3.760855e-07	
66	3.300000e+00	3.531134e-07	
67	3.350000e+00	3.331077e-07	
68	3.400000e+00	3.155599e-07	
69	3.450000e+00	3.000663e-07	
70	3.500000e+00	2.863036e-07	
71	3.550000e+00	2.740105e-07	
72	3.600000e+00	2.629737e-07	
73	3.650000e+00	2.530180e-07	
74	3.700000e+00	2.439982e-07	
75	3.750000e+00	2.357932e-07	
76	3.800000e+00	2.283013e-07	
77	3.850000e+00	2.214367e-07	
78	3.900000e+00	2.151264e-07	
79	3.950000e+00	2.093079e-07	
80	4.000000e+00	2.039276e-07	
81	4.050000e+00	1.989392e-07	
82	4.100000e+00	1.943027e-07	
83	4.150000e+00	1.899831e-07	
84	4.200000e+00	1.859498e-07	
85	4.250000e+00	1.821759e-07	
86	4.300000e+00	1.786379e-07	
87	4.350000e+00	1.753147e-07	
88	4.400000e+00	1.721879e-07	
89	4.450000e+00	1.692409e-07	
90	4.500000e+00	1.664590e-07	
91	4.550000e+00	1.638289e-07	
92	4.600000e+00	1.613388e-07	
93	4.650000e+00	1.589781e-07	
94	4.700000e+00	1.567370e-07	
95	4.750000e+00	1.546069e-07	
96	4.800000e+00	1.525799e-07	
97	4.850000e+00	1.506488e-07	
98	4.900000e+00	1.488070e-07	
99	4.950000e+00	1.470487e-07	
100	5.000000e+00	1.453682e-07	
101	5.050000e+00	1.437608e-07	
102	5.100000e+00	1.422217e-07	
103	5.150000e+00	1.407468e-07	
104	5.200000e+00	1.393322e-07	
105	5.250000e+00	1.379743e-07	
106	5.300000e+00	1.366699e-07	
107	5.350000e+00	1.354158e-07	
108	5.400000e+00	1.342092e-07	
109	5.450000e+00	1.330476e-07	
110	5.500000e+00	1.319285e-07	
111	5.550000e+00	1.308497e-07	
112	5.600000e+00	1.298089e-07	

Index   v-sweep         rds             
--------------------------------------------------------------------------------
113	5.650000e+00	1.288043e-07	
114	5.700000e+00	1.278341e-07	
115	5.750000e+00	1.268965e-07	
116	5.800000e+00	1.259899e-07	
117	5.850000e+00	1.251128e-07	
118	5.900000e+00	1.242639e-07	
119	5.950000e+00	1.234418e-07	
120	6.000000e+00	1.226452e-07	
121	6.050000e+00	1.218731e-07	
122	6.100000e+00	1.211242e-07	
123	6.150000e+00	1.203977e-07	
124	6.200000e+00	1.196925e-07	
125	6.250000e+00	1.190076e-07	
126	6.300000e+00	1.183423e-07	
127	6.350000e+00	1.176958e-07	
128	6.400000e+00	1.170672e-07	
129	6.450000e+00	1.164558e-07	
130	6.500000e+00	1.158609e-07	
131	6.550000e+00	1.152819e-07	
132	6.600000e+00	1.147182e-07	
Reset re-loads circuit ***************************

Circuit: ***************************

Doing analysis at TEMP = 25.000000 and TNOM = 25.000000


No. of Data Rows : 133
                          ***************************
                          DC transfer characteristic  Mon Jan  9 13:58:38  2023
--------------------------------------------------------------------------------
Index   v-sweep         rds             
--------------------------------------------------------------------------------
0	0.000000e+00	6.701145e-05	
1	5.000000e-02	6.589459e-05	
2	1.000000e-01	6.478273e-05	
3	1.500000e-01	6.367581e-05	
4	2.000000e-01	6.257382e-05	
5	2.500000e-01	6.147673e-05	
6	3.000000e-01	6.038451e-05	
7	3.500000e-01	5.929713e-05	
8	4.000000e-01	5.821457e-05	
9	4.500000e-01	5.713680e-05	
10	5.000000e-01	5.606379e-05	
11	5.500000e-01	5.499552e-05	
12	6.000000e-01	5.393195e-05	
13	6.500000e-01	5.287306e-05	
14	7.000000e-01	5.181883e-05	
15	7.500000e-01	5.076923e-05	
16	8.000000e-01	4.972423e-05	
17	8.500000e-01	4.868380e-05	
18	9.000000e-01	4.764792e-05	
19	9.500000e-01	4.661657e-05	
20	1.000000e+00	4.558971e-05	
21	1.050000e+00	4.456732e-05	
22	1.100000e+00	4.354938e-05	
23	1.150000e+00	4.253585e-05	
24	1.200000e+00	4.152672e-05	
25	1.250000e+00	4.052195e-05	
26	1.300000e+00	3.952152e-05	
27	1.350000e+00	3.852540e-05	
28	1.400000e+00	3.753357e-05	
29	1.450000e+00	3.654599e-05	
30	1.500000e+00	3.556264e-05	
31	1.550000e+00	3.458349e-05	
32	1.600000e+00	3.360851e-05	
33	1.650000e+00	3.263767e-05	
34	1.700000e+00	3.167093e-05	
35	1.750000e+00	3.070827e-05	
36	1.800000e+00	2.974965e-05	
37	1.850000e+00	2.879503e-05	
38	1.900000e+00	2.784438e-05	
39	1.950000e+00	2.689764e-05	
40	2.000000e+00	2.595477e-05	
41	2.050000e+00	2.501573e-05	
42	2.100000e+00	2.408044e-05	
43	2.150000e+00	2.314885e-05	
44	2.200000e+00	2.222088e-05	
45	2.250000e+00	2.129644e-05	
46	2.300000e+00	2.037543e-05	
47	2.350000e+00	1.945772e-05	
48	2.400000e+00	1.854317e-05	
49	2.450000e+00	1.763160e-05	
50	2.500000e+00	1.672282e-05	
51	2.550000e+00	1.581656e-05	
52	2.600000e+00	1.491253e-05	
53	2.650000e+00	1.401039e-05	
54	2.700000e+00	1.310974e-05	

Index   v-sweep         rds             
--------------------------------------------------------------------------------
55	2.750000e+00	1.221020e-05	
56	2.800000e+00	1.131142e-05	
57	2.850000e+00	1.041325e-05	
58	2.900000e+00	9.516055e-06	
59	2.950000e+00	8.621184e-06	
60	3.000000e+00	7.731834e-06	
61	3.050000e+00	6.854196e-06	
62	3.100000e+00	5.998678e-06	
63	3.150000e+00	5.180432e-06	
64	3.200000e+00	4.418092e-06	
65	3.250000e+00	3.730130e-06	
66	3.300000e+00	3.129999e-06	
67	3.350000e+00	2.622655e-06	
68	3.400000e+00	2.204352e-06	
69	3.450000e+00	1.865226e-06	
70	3.500000e+00	1.592698e-06	
71	3.550000e+00	1.374148e-06	
72	3.600000e+00	1.198391e-06	
73	3.650000e+00	1.056186e-06	
74	3.700000e+00	9.402010e-07	
75	3.750000e+00	8.447440e-07	
76	3.800000e+00	7.654420e-07	
77	3.850000e+00	6.989441e-07	
78	3.900000e+00	6.426777e-07	
79	3.950000e+00	5.946580e-07	
80	4.000000e+00	5.533438e-07	
81	4.050000e+00	5.175291e-07	
82	4.100000e+00	4.862626e-07	
83	4.150000e+00	4.587877e-07	
84	4.200000e+00	4.344978e-07	
85	4.250000e+00	4.129025e-07	
86	4.300000e+00	3.936025e-07	
87	4.350000e+00	3.762700e-07	
88	4.400000e+00	3.606343e-07	
89	4.450000e+00	3.464700e-07	
90	4.500000e+00	3.335885e-07	
91	4.550000e+00	3.218310e-07	
92	4.600000e+00	3.110628e-07	
93	4.650000e+00	3.011692e-07	
94	4.700000e+00	2.920521e-07	
95	4.750000e+00	2.836270e-07	
96	4.800000e+00	2.758209e-07	
97	4.850000e+00	2.685705e-07	
98	4.900000e+00	2.618203e-07	
99	4.950000e+00	2.555222e-07	
100	5.000000e+00	2.496336e-07	
101	5.050000e+00	2.441170e-07	
102	5.100000e+00	2.389394e-07	
103	5.150000e+00	2.340713e-07	
104	5.200000e+00	2.294866e-07	
105	5.250000e+00	2.251618e-07	
106	5.300000e+00	2.210761e-07	
107	5.350000e+00	2.172107e-07	
108	5.400000e+00	2.135487e-07	
109	5.450000e+00	2.100747e-07	
110	5.500000e+00	2.067751e-07	
111	5.550000e+00	2.036373e-07	
112	5.600000e+00	2.006500e-07	

Index   v-sweep         rds             
--------------------------------------------------------------------------------
113	5.650000e+00	1.978028e-07	
114	5.700000e+00	1.950863e-07	
115	5.750000e+00	1.924919e-07	
116	5.800000e+00	1.900117e-07	
117	5.850000e+00	1.876385e-07	
118	5.900000e+00	1.853656e-07	
119	5.950000e+00	1.831869e-07	
120	6.000000e+00	1.810968e-07	
121	6.050000e+00	1.790901e-07	
122	6.100000e+00	1.771619e-07	
123	6.150000e+00	1.753079e-07	
124	6.200000e+00	1.735239e-07	
125	6.250000e+00	1.718061e-07	
126	6.300000e+00	1.701509e-07	
127	6.350000e+00	1.685550e-07	
128	6.400000e+00	1.670154e-07	
129	6.450000e+00	1.655291e-07	
130	6.500000e+00	1.640935e-07	
131	6.550000e+00	1.627060e-07	
132	6.600000e+00	1.613644e-07	
Reset re-loads circuit ***************************

Circuit: ***************************

Doing analysis at TEMP = 25.000000 and TNOM = 25.000000


No. of Data Rows : 133
                          ***************************
                          DC transfer characteristic  Mon Jan  9 13:58:38  2023
--------------------------------------------------------------------------------
Index   v-sweep         rds             
--------------------------------------------------------------------------------
0	0.000000e+00	7.426399e-05	
1	5.000000e-02	7.326322e-05	
2	1.000000e-01	7.226653e-05	
3	1.500000e-01	7.127391e-05	
4	2.000000e-01	7.028533e-05	
5	2.500000e-01	6.930078e-05	
6	3.000000e-01	6.832024e-05	
7	3.500000e-01	6.734368e-05	
8	4.000000e-01	6.637109e-05	
9	4.500000e-01	6.540244e-05	
10	5.000000e-01	6.443772e-05	
11	5.500000e-01	6.347690e-05	
12	6.000000e-01	6.251996e-05	
13	6.500000e-01	6.156689e-05	
14	7.000000e-01	6.061766e-05	
15	7.500000e-01	5.967225e-05	
16	8.000000e-01	5.873065e-05	
17	8.500000e-01	5.779283e-05	
18	9.000000e-01	5.685878e-05	
19	9.500000e-01	5.592847e-05	
20	1.000000e+00	5.500189e-05	
21	1.050000e+00	5.407902e-05	
22	1.100000e+00	5.315984e-05	
23	1.150000e+00	5.224432e-05	
24	1.200000e+00	5.133245e-05	
25	1.250000e+00	5.042422e-05	
26	1.300000e+00	4.951959e-05	
27	1.350000e+00	4.861856e-05	
28	1.400000e+00	4.772110e-05	
29	1.450000e+00	4.682720e-05	
30	1.500000e+00	4.593683e-05	
31	1.550000e+00	4.504998e-05	
32	1.600000e+00	4.416662e-05	
33	1.650000e+00	4.328674e-05	
34	1.700000e+00	4.241033e-05	
35	1.750000e+00	4.153735e-05	
36	1.800000e+00	4.066779e-05	
37	1.850000e+00	3.980164e-05	
38	1.900000e+00	3.893886e-05	
39	1.950000e+00	3.807944e-05	
40	2.000000e+00	3.722337e-05	
41	2.050000e+00	3.637061e-05	
42	2.100000e+00	3.552115e-05	
43	2.150000e+00	3.467497e-05	
44	2.200000e+00	3.383204e-05	
45	2.250000e+00	3.299234e-05	
46	2.300000e+00	3.215584e-05	
47	2.350000e+00	3.132252e-05	
48	2.400000e+00	3.049235e-05	
49	2.450000e+00	2.966531e-05	
50	2.500000e+00	2.884135e-05	
51	2.550000e+00	2.802045e-05	
52	2.600000e+00	2.720257e-05	
53	2.650000e+00	2.638767e-05	
54	2.700000e+00	2.557570e-05	

Index   v-sweep         rds             
--------------------------------------------------------------------------------
55	2.750000e+00	2.476661e-05	
56	2.800000e+00	2.396035e-05	
57	2.850000e+00	2.315685e-05	
58	2.900000e+00	2.235602e-05	
59	2.950000e+00	2.155780e-05	
60	3.000000e+00	2.076206e-05	
61	3.050000e+00	1.996868e-05	
62	3.100000e+00	1.917753e-05	
63	3.150000e+00	1.838842e-05	
64	3.200000e+00	1.760114e-05	
65	3.250000e+00	1.681543e-05	
66	3.300000e+00	1.603100e-05	
67	3.350000e+00	1.524745e-05	
68	3.400000e+00	1.446435e-05	
69	3.450000e+00	1.368117e-05	
70	3.500000e+00	1.289729e-05	
71	3.550000e+00	1.211205e-05	
72	3.600000e+00	1.132476e-05	
73	3.650000e+00	1.053486e-05	
74	3.700000e+00	9.742103e-06	
75	3.750000e+00	8.947011e-06	
76	3.800000e+00	8.151457e-06	
77	3.850000e+00	7.359533e-06	
78	3.900000e+00	6.578442e-06	
79	3.950000e+00	5.819025e-06	
80	4.000000e+00	5.095269e-06	
81	4.050000e+00	4.422352e-06	
82	4.100000e+00	3.813594e-06	
83	4.150000e+00	3.277541e-06	
84	4.200000e+00	2.816564e-06	
85	4.250000e+00	2.427393e-06	
86	4.300000e+00	2.102914e-06	
87	4.350000e+00	1.834217e-06	
88	4.400000e+00	1.612189e-06	
89	4.450000e+00	1.428464e-06	
90	4.500000e+00	1.275839e-06	
91	4.550000e+00	1.148345e-06	
92	4.600000e+00	1.041153e-06	
93	4.650000e+00	9.503995e-07	
94	4.700000e+00	8.730161e-07	
95	4.750000e+00	8.065668e-07	
96	4.800000e+00	7.491152e-07	
97	4.850000e+00	6.991166e-07	
98	4.900000e+00	6.553325e-07	
99	4.950000e+00	6.167645e-07	
100	5.000000e+00	5.826029e-07	
101	5.050000e+00	5.521870e-07	
102	5.100000e+00	5.249740e-07	
103	5.150000e+00	5.005157e-07	
104	5.200000e+00	4.784393e-07	
105	5.250000e+00	4.584332e-07	
106	5.300000e+00	4.402354e-07	
107	5.350000e+00	4.236243e-07	
108	5.400000e+00	4.084116e-07	
109	5.450000e+00	3.944365e-07	
110	5.500000e+00	3.815609e-07	
111	5.550000e+00	3.696658e-07	
112	5.600000e+00	3.586482e-07	

Index   v-sweep         rds             
--------------------------------------------------------------------------------
113	5.650000e+00	3.484186e-07	
114	5.700000e+00	3.388987e-07	
115	5.750000e+00	3.300201e-07	
116	5.800000e+00	3.217225e-07	
117	5.850000e+00	3.139528e-07	
118	5.900000e+00	3.066639e-07	
119	5.950000e+00	2.998141e-07	
120	6.000000e+00	2.933661e-07	
121	6.050000e+00	2.872868e-07	
122	6.100000e+00	2.815465e-07	
123	6.150000e+00	2.761183e-07	
124	6.200000e+00	2.709783e-07	
125	6.250000e+00	2.661048e-07	
126	6.300000e+00	2.614781e-07	
127	6.350000e+00	2.570805e-07	
128	6.400000e+00	2.528958e-07	
129	6.450000e+00	2.489093e-07	
130	6.500000e+00	2.451076e-07	
131	6.550000e+00	2.414785e-07	
132	6.600000e+00	2.380108e-07	
Reset re-loads circuit ***************************

Circuit: ***************************

Note: No ".plot", ".print", or ".fourier" lines; no simulations run
