
Note: Compatibility modes selected: hs

Warning: m=xx on .subckt line will override multiplier m hierarchy!


Circuit: ***************************

Doing analysis at TEMP = 25.000000 and TNOM = 25.000000


No. of Data Rows : 133
                          ***************************
                          DC transfer characteristic  Mon Jan  9 13:58:37  2023
--------------------------------------------------------------------------------
Index   v-sweep         rds             
--------------------------------------------------------------------------------
0	0.000000e+00	3.412218e-06	
1	5.000000e-02	2.787699e-06	
2	1.000000e-01	2.168007e-06	
3	1.500000e-01	1.559303e-06	
4	2.000000e-01	9.819468e-07	
5	2.500000e-01	4.971303e-07	
6	3.000000e-01	1.993620e-07	
7	3.500000e-01	7.779444e-08	
8	4.000000e-01	3.627592e-08	
9	4.500000e-01	2.100361e-08	
10	5.000000e-01	1.449430e-08	
11	5.500000e-01	1.131562e-08	
12	6.000000e-01	9.583081e-09	
13	6.500000e-01	8.553198e-09	
14	7.000000e-01	7.897335e-09	
15	7.500000e-01	7.455843e-09	
16	8.000000e-01	7.144883e-09	
17	8.500000e-01	6.917498e-09	
18	9.000000e-01	6.745921e-09	
19	9.500000e-01	6.612970e-09	
20	1.000000e+00	6.507583e-09	
21	1.050000e+00	6.422398e-09	
22	1.100000e+00	6.352364e-09	
23	1.150000e+00	6.293927e-09	
24	1.200000e+00	6.244529e-09	
25	1.250000e+00	6.202290e-09	
26	1.300000e+00	6.165803e-09	
27	1.350000e+00	6.133995e-09	
28	1.400000e+00	6.106041e-09	
29	1.450000e+00	6.081293e-09	
30	1.500000e+00	6.059237e-09	
31	1.550000e+00	6.039464e-09	
32	1.600000e+00	6.021640e-09	
33	1.650000e+00	6.005492e-09	
34	1.700000e+00	5.990797e-09	
35	1.750000e+00	5.977368e-09	
36	1.800000e+00	5.965049e-09	
37	1.850000e+00	5.953708e-09	
38	1.900000e+00	5.943233e-09	
39	1.950000e+00	5.933529e-09	
40	2.000000e+00	5.924513e-09	
41	2.050000e+00	5.916115e-09	
42	2.100000e+00	5.908273e-09	
43	2.150000e+00	5.900933e-09	
44	2.200000e+00	5.894050e-09	
45	2.250000e+00	5.887580e-09	
46	2.300000e+00	5.881488e-09	
47	2.350000e+00	5.875742e-09	
48	2.400000e+00	5.870313e-09	
49	2.450000e+00	5.865175e-09	
50	2.500000e+00	5.860305e-09	
51	2.550000e+00	5.855684e-09	
52	2.600000e+00	5.851291e-09	
53	2.650000e+00	5.847111e-09	
54	2.700000e+00	5.843128e-09	

Index   v-sweep         rds             
--------------------------------------------------------------------------------
55	2.750000e+00	5.839329e-09	
56	2.800000e+00	5.835701e-09	
57	2.850000e+00	5.832233e-09	
58	2.900000e+00	5.828915e-09	
59	2.950000e+00	5.825736e-09	
60	3.000000e+00	5.822689e-09	
61	3.050000e+00	5.819766e-09	
62	3.100000e+00	5.816958e-09	
63	3.150000e+00	5.814259e-09	
64	3.200000e+00	5.811663e-09	
65	3.250000e+00	5.809165e-09	
66	3.300000e+00	5.806758e-09	
67	3.350000e+00	5.804438e-09	
68	3.400000e+00	5.802200e-09	
69	3.450000e+00	5.800040e-09	
70	3.500000e+00	5.797954e-09	
71	3.550000e+00	5.795938e-09	
72	3.600000e+00	5.793989e-09	
73	3.650000e+00	5.792104e-09	
74	3.700000e+00	5.790278e-09	
75	3.750000e+00	5.788511e-09	
76	3.800000e+00	5.786798e-09	
77	3.850000e+00	5.785137e-09	
78	3.900000e+00	5.783527e-09	
79	3.950000e+00	5.781964e-09	
80	4.000000e+00	5.780447e-09	
81	4.050000e+00	5.778974e-09	
82	4.100000e+00	5.777542e-09	
83	4.150000e+00	5.776151e-09	
84	4.200000e+00	5.774798e-09	
85	4.250000e+00	5.773482e-09	
86	4.300000e+00	5.772202e-09	
87	4.350000e+00	5.770956e-09	
88	4.400000e+00	5.769742e-09	
89	4.450000e+00	5.768559e-09	
90	4.500000e+00	5.767407e-09	
91	4.550000e+00	5.766284e-09	
92	4.600000e+00	5.765189e-09	
93	4.650000e+00	5.764121e-09	
94	4.700000e+00	5.763079e-09	
95	4.750000e+00	5.762063e-09	
96	4.800000e+00	5.761070e-09	
97	4.850000e+00	5.760100e-09	
98	4.900000e+00	5.759154e-09	
99	4.950000e+00	5.758229e-09	
100	5.000000e+00	5.757325e-09	
101	5.050000e+00	5.756441e-09	
102	5.100000e+00	5.755577e-09	
103	5.150000e+00	5.754732e-09	
104	5.200000e+00	5.753905e-09	
105	5.250000e+00	5.753096e-09	
106	5.300000e+00	5.752305e-09	
107	5.350000e+00	5.751530e-09	
108	5.400000e+00	5.750772e-09	
109	5.450000e+00	5.750029e-09	
110	5.500000e+00	5.749301e-09	
111	5.550000e+00	5.748588e-09	
112	5.600000e+00	5.747890e-09	

Index   v-sweep         rds             
--------------------------------------------------------------------------------
113	5.650000e+00	5.747205e-09	
114	5.700000e+00	5.746534e-09	
115	5.750000e+00	5.745876e-09	
116	5.800000e+00	5.745230e-09	
117	5.850000e+00	5.744597e-09	
118	5.900000e+00	5.743976e-09	
119	5.950000e+00	5.743367e-09	
120	6.000000e+00	5.742769e-09	
121	6.050000e+00	5.742183e-09	
122	6.100000e+00	5.741607e-09	
123	6.150000e+00	5.741041e-09	
124	6.200000e+00	5.740486e-09	
125	6.250000e+00	5.739940e-09	
126	6.300000e+00	5.739405e-09	
127	6.350000e+00	5.738878e-09	
128	6.400000e+00	5.738361e-09	
129	6.450000e+00	5.737853e-09	
130	6.500000e+00	5.737353e-09	
131	6.550000e+00	5.736862e-09	
132	6.600000e+00	5.736380e-09	
Reset re-loads circuit ***************************

Circuit: ***************************

Doing analysis at TEMP = 25.000000 and TNOM = 25.000000


No. of Data Rows : 133
                          ***************************
                          DC transfer characteristic  Mon Jan  9 13:58:37  2023
--------------------------------------------------------------------------------
Index   v-sweep         rds             
--------------------------------------------------------------------------------
0	0.000000e+00	1.335536e-05	
1	5.000000e-02	1.270056e-05	
2	1.000000e-01	1.204741e-05	
3	1.500000e-01	1.139591e-05	
4	2.000000e-01	1.074606e-05	
5	2.500000e-01	1.009788e-05	
6	3.000000e-01	9.451382e-06	
7	3.500000e-01	8.806597e-06	
8	4.000000e-01	8.163566e-06	
9	4.500000e-01	7.522357e-06	
10	5.000000e-01	6.883078e-06	
11	5.500000e-01	6.245904e-06	
12	6.000000e-01	5.611131e-06	
13	6.500000e-01	4.979267e-06	
14	7.000000e-01	4.351222e-06	
15	7.500000e-01	3.728681e-06	
16	8.000000e-01	3.114860e-06	
17	8.500000e-01	2.516013e-06	
18	9.000000e-01	1.944114e-06	
19	9.500000e-01	1.420252e-06	
20	1.000000e+00	9.745191e-07	
21	1.050000e+00	6.341588e-07	
22	1.100000e+00	4.036777e-07	
23	1.150000e+00	2.614300e-07	
24	1.200000e+00	1.772623e-07	
25	1.250000e+00	1.273287e-07	
26	1.300000e+00	9.683594e-08	
27	1.350000e+00	7.746266e-08	
28	1.400000e+00	6.463421e-08	
29	1.450000e+00	5.580155e-08	
30	1.500000e+00	4.950232e-08	
31	1.550000e+00	4.486806e-08	
32	1.600000e+00	4.136463e-08	
33	1.650000e+00	3.865235e-08	
34	1.700000e+00	3.650843e-08	
35	1.750000e+00	3.478257e-08	
36	1.800000e+00	3.337076e-08	
37	1.850000e+00	3.219937e-08	
38	1.900000e+00	3.121513e-08	
39	1.950000e+00	3.037882e-08	
40	2.000000e+00	2.966104e-08	
41	2.050000e+00	2.903940e-08	
42	2.100000e+00	2.849665e-08	
43	2.150000e+00	2.801927e-08	
44	2.200000e+00	2.759657e-08	
45	2.250000e+00	2.722000e-08	
46	2.300000e+00	2.688267e-08	
47	2.350000e+00	2.657893e-08	
48	2.400000e+00	2.630417e-08	
49	2.450000e+00	2.605453e-08	
50	2.500000e+00	2.582682e-08	
51	2.550000e+00	2.561834e-08	
52	2.600000e+00	2.542681e-08	
53	2.650000e+00	2.525029e-08	
54	2.700000e+00	2.508712e-08	

Index   v-sweep         rds             
--------------------------------------------------------------------------------
55	2.750000e+00	2.493587e-08	
56	2.800000e+00	2.479531e-08	
57	2.850000e+00	2.466436e-08	
58	2.900000e+00	2.454208e-08	
59	2.950000e+00	2.442766e-08	
60	3.000000e+00	2.432036e-08	
61	3.050000e+00	2.421957e-08	
62	3.100000e+00	2.412470e-08	
63	3.150000e+00	2.403527e-08	
64	3.200000e+00	2.395081e-08	
65	3.250000e+00	2.387094e-08	
66	3.300000e+00	2.379529e-08	
67	3.350000e+00	2.372354e-08	
68	3.400000e+00	2.365540e-08	
69	3.450000e+00	2.359060e-08	
70	3.500000e+00	2.352892e-08	
71	3.550000e+00	2.347012e-08	
72	3.600000e+00	2.341402e-08	
73	3.650000e+00	2.336043e-08	
74	3.700000e+00	2.330919e-08	
75	3.750000e+00	2.326016e-08	
76	3.800000e+00	2.321319e-08	
77	3.850000e+00	2.316815e-08	
78	3.900000e+00	2.312493e-08	
79	3.950000e+00	2.308343e-08	
80	4.000000e+00	2.304354e-08	
81	4.050000e+00	2.300517e-08	
82	4.100000e+00	2.296824e-08	
83	4.150000e+00	2.293266e-08	
84	4.200000e+00	2.289837e-08	
85	4.250000e+00	2.286530e-08	
86	4.300000e+00	2.283338e-08	
87	4.350000e+00	2.280255e-08	
88	4.400000e+00	2.277277e-08	
89	4.450000e+00	2.274397e-08	
90	4.500000e+00	2.271611e-08	
91	4.550000e+00	2.268915e-08	
92	4.600000e+00	2.266304e-08	
93	4.650000e+00	2.263774e-08	
94	4.700000e+00	2.261322e-08	
95	4.750000e+00	2.258944e-08	
96	4.800000e+00	2.256637e-08	
97	4.850000e+00	2.254397e-08	
98	4.900000e+00	2.252223e-08	
99	4.950000e+00	2.250110e-08	
100	5.000000e+00	2.248056e-08	
101	5.050000e+00	2.246060e-08	
102	5.100000e+00	2.244118e-08	
103	5.150000e+00	2.242229e-08	
104	5.200000e+00	2.240390e-08	
105	5.250000e+00	2.238599e-08	
106	5.300000e+00	2.236855e-08	
107	5.350000e+00	2.235155e-08	
108	5.400000e+00	2.233499e-08	
109	5.450000e+00	2.231884e-08	
110	5.500000e+00	2.230309e-08	
111	5.550000e+00	2.228772e-08	
112	5.600000e+00	2.227272e-08	

Index   v-sweep         rds             
--------------------------------------------------------------------------------
113	5.650000e+00	2.225808e-08	
114	5.700000e+00	2.224379e-08	
115	5.750000e+00	2.222983e-08	
116	5.800000e+00	2.221619e-08	
117	5.850000e+00	2.220286e-08	
118	5.900000e+00	2.218983e-08	
119	5.950000e+00	2.217709e-08	
120	6.000000e+00	2.216463e-08	
121	6.050000e+00	2.215244e-08	
122	6.100000e+00	2.214051e-08	
123	6.150000e+00	2.212884e-08	
124	6.200000e+00	2.211742e-08	
125	6.250000e+00	2.210623e-08	
126	6.300000e+00	2.209528e-08	
127	6.350000e+00	2.208455e-08	
128	6.400000e+00	2.207403e-08	
129	6.450000e+00	2.206373e-08	
130	6.500000e+00	2.205363e-08	
131	6.550000e+00	2.204373e-08	
132	6.600000e+00	2.203403e-08	
Reset re-loads circuit ***************************

Circuit: ***************************

Doing analysis at TEMP = 25.000000 and TNOM = 25.000000


No. of Data Rows : 133
                          ***************************
                          DC transfer characteristic  Mon Jan  9 13:58:37  2023
--------------------------------------------------------------------------------
Index   v-sweep         rds             
--------------------------------------------------------------------------------
0	0.000000e+00	2.178410e-05	
1	5.000000e-02	2.116982e-05	
2	1.000000e-01	2.055710e-05	
3	1.500000e-01	1.994593e-05	
4	2.000000e-01	1.933630e-05	
5	2.500000e-01	1.872823e-05	
6	3.000000e-01	1.812169e-05	
7	3.500000e-01	1.751669e-05	
8	4.000000e-01	1.691322e-05	
9	4.500000e-01	1.631128e-05	
10	5.000000e-01	1.571087e-05	
11	5.500000e-01	1.511197e-05	
12	6.000000e-01	1.451459e-05	
13	6.500000e-01	1.391872e-05	
14	7.000000e-01	1.332436e-05	
15	7.500000e-01	1.273152e-05	
16	8.000000e-01	1.214018e-05	
17	8.500000e-01	1.155036e-05	
18	9.000000e-01	1.096205e-05	
19	9.500000e-01	1.037527e-05	
20	1.000000e+00	9.790026e-06	
21	1.050000e+00	9.206341e-06	
22	1.100000e+00	8.624248e-06	
23	1.150000e+00	8.043798e-06	
24	1.200000e+00	7.465073e-06	
25	1.250000e+00	6.888198e-06	
26	1.300000e+00	6.313377e-06	
27	1.350000e+00	5.740939e-06	
28	1.400000e+00	5.171428e-06	
29	1.450000e+00	4.605758e-06	
30	1.500000e+00	4.045491e-06	
31	1.550000e+00	3.493313e-06	
32	1.600000e+00	2.953817e-06	
33	1.650000e+00	2.434618e-06	
34	1.700000e+00	1.947473e-06	
35	1.750000e+00	1.508192e-06	
36	1.800000e+00	1.133434e-06	
37	1.850000e+00	8.341583e-07	
38	1.900000e+00	6.100897e-07	
39	1.950000e+00	4.504503e-07	
40	2.000000e+00	3.398248e-07	
41	2.050000e+00	2.636986e-07	
42	2.100000e+00	2.108886e-07	
43	2.150000e+00	1.736269e-07	
44	2.200000e+00	1.467736e-07	
45	2.250000e+00	1.269836e-07	
46	2.300000e+00	1.120759e-07	
47	2.350000e+00	1.006121e-07	
48	2.400000e+00	9.162785e-08	
49	2.450000e+00	8.446422e-08	
50	2.500000e+00	7.866252e-08	
51	2.550000e+00	7.389732e-08	
52	2.600000e+00	6.993356e-08	
53	2.650000e+00	6.659860e-08	
54	2.700000e+00	6.376360e-08	

Index   v-sweep         rds             
--------------------------------------------------------------------------------
55	2.750000e+00	6.133103e-08	
56	2.800000e+00	5.922601e-08	
57	2.850000e+00	5.739037e-08	
58	2.900000e+00	5.577835e-08	
59	2.950000e+00	5.435360e-08	
60	3.000000e+00	5.308693e-08	
61	3.050000e+00	5.195469e-08	
62	3.100000e+00	5.093757e-08	
63	3.150000e+00	5.001964e-08	
64	3.200000e+00	4.918770e-08	
65	3.250000e+00	4.843070e-08	
66	3.300000e+00	4.773937e-08	
67	3.350000e+00	4.710584e-08	
68	3.400000e+00	4.652342e-08	
69	3.450000e+00	4.598639e-08	
70	3.500000e+00	4.548983e-08	
71	3.550000e+00	4.502947e-08	
72	3.600000e+00	4.460164e-08	
73	3.650000e+00	4.420309e-08	
74	3.700000e+00	4.383103e-08	
75	3.750000e+00	4.348296e-08	
76	3.800000e+00	4.315671e-08	
77	3.850000e+00	4.285034e-08	
78	3.900000e+00	4.256214e-08	
79	3.950000e+00	4.229058e-08	
80	4.000000e+00	4.203429e-08	
81	4.050000e+00	4.179205e-08	
82	4.100000e+00	4.156277e-08	
83	4.150000e+00	4.134545e-08	
84	4.200000e+00	4.113920e-08	
85	4.250000e+00	4.094322e-08	
86	4.300000e+00	4.075677e-08	
87	4.350000e+00	4.057919e-08	
88	4.400000e+00	4.040988e-08	
89	4.450000e+00	4.024827e-08	
90	4.500000e+00	4.009387e-08	
91	4.550000e+00	3.994621e-08	
92	4.600000e+00	3.980487e-08	
93	4.650000e+00	3.966946e-08	
94	4.700000e+00	3.953962e-08	
95	4.750000e+00	3.941501e-08	
96	4.800000e+00	3.929534e-08	
97	4.850000e+00	3.918032e-08	
98	4.900000e+00	3.906969e-08	
99	4.950000e+00	3.896320e-08	
100	5.000000e+00	3.886063e-08	
101	5.050000e+00	3.876177e-08	
102	5.100000e+00	3.866643e-08	
103	5.150000e+00	3.857443e-08	
104	5.200000e+00	3.848558e-08	
105	5.250000e+00	3.839975e-08	
106	5.300000e+00	3.831677e-08	
107	5.350000e+00	3.823651e-08	
108	5.400000e+00	3.815885e-08	
109	5.450000e+00	3.808365e-08	
110	5.500000e+00	3.801080e-08	
111	5.550000e+00	3.794020e-08	
112	5.600000e+00	3.787175e-08	

Index   v-sweep         rds             
--------------------------------------------------------------------------------
113	5.650000e+00	3.780534e-08	
114	5.700000e+00	3.774090e-08	
115	5.750000e+00	3.767833e-08	
116	5.800000e+00	3.761756e-08	
117	5.850000e+00	3.755851e-08	
118	5.900000e+00	3.750110e-08	
119	5.950000e+00	3.744528e-08	
120	6.000000e+00	3.739098e-08	
121	6.050000e+00	3.733814e-08	
122	6.100000e+00	3.728669e-08	
123	6.150000e+00	3.723659e-08	
124	6.200000e+00	3.718779e-08	
125	6.250000e+00	3.714023e-08	
126	6.300000e+00	3.709387e-08	
127	6.350000e+00	3.704867e-08	
128	6.400000e+00	3.700458e-08	
129	6.450000e+00	3.696156e-08	
130	6.500000e+00	3.691957e-08	
131	6.550000e+00	3.687858e-08	
132	6.600000e+00	3.683856e-08	
Reset re-loads circuit ***************************

Circuit: ***************************

Doing analysis at TEMP = 25.000000 and TNOM = 25.000000


No. of Data Rows : 133
                          ***************************
                          DC transfer characteristic  Mon Jan  9 13:58:38  2023
--------------------------------------------------------------------------------
Index   v-sweep         rds             
--------------------------------------------------------------------------------
0	0.000000e+00	2.850408e-05	
1	5.000000e-02	2.794365e-05	
2	1.000000e-01	2.738459e-05	
3	1.500000e-01	2.682689e-05	
4	2.000000e-01	2.627055e-05	
5	2.500000e-01	2.571556e-05	
6	3.000000e-01	2.516193e-05	
7	3.500000e-01	2.460964e-05	
8	4.000000e-01	2.405869e-05	
9	4.500000e-01	2.350908e-05	
10	5.000000e-01	2.296081e-05	
11	5.500000e-01	2.241386e-05	
12	6.000000e-01	2.186824e-05	
13	6.500000e-01	2.132394e-05	
14	7.000000e-01	2.078095e-05	
15	7.500000e-01	2.023928e-05	
16	8.000000e-01	1.969892e-05	
17	8.500000e-01	1.915986e-05	
18	9.000000e-01	1.862209e-05	
19	9.500000e-01	1.808563e-05	
20	1.000000e+00	1.755045e-05	
21	1.050000e+00	1.701656e-05	
22	1.100000e+00	1.648395e-05	
23	1.150000e+00	1.595262e-05	
24	1.200000e+00	1.542256e-05	
25	1.250000e+00	1.489376e-05	
26	1.300000e+00	1.436623e-05	
27	1.350000e+00	1.383996e-05	
28	1.400000e+00	1.331494e-05	
29	1.450000e+00	1.279117e-05	
30	1.500000e+00	1.226865e-05	
31	1.550000e+00	1.174736e-05	
32	1.600000e+00	1.122732e-05	
33	1.650000e+00	1.070850e-05	
34	1.700000e+00	1.019093e-05	
35	1.750000e+00	9.674583e-06	
36	1.800000e+00	9.159481e-06	
37	1.850000e+00	8.645630e-06	
38	1.900000e+00	8.133053e-06	
39	1.950000e+00	7.621788e-06	
40	2.000000e+00	7.111899e-06	
41	2.050000e+00	6.603491e-06	
42	2.100000e+00	6.096742e-06	
43	2.150000e+00	5.591941e-06	
44	2.200000e+00	5.089574e-06	
45	2.250000e+00	4.590443e-06	
46	2.300000e+00	4.095879e-06	
47	2.350000e+00	3.608075e-06	
48	2.400000e+00	3.130558e-06	
49	2.450000e+00	2.668791e-06	
50	2.500000e+00	2.230643e-06	
51	2.550000e+00	1.826240e-06	
52	2.600000e+00	1.466463e-06	
53	2.650000e+00	1.160037e-06	
54	2.700000e+00	9.105050e-07	

Index   v-sweep         rds             
--------------------------------------------------------------------------------
55	2.750000e+00	7.151443e-07	
56	2.800000e+00	5.665111e-07	
57	2.850000e+00	4.552325e-07	
58	2.900000e+00	3.723162e-07	
59	2.950000e+00	3.102987e-07	
60	3.000000e+00	2.634742e-07	
61	3.050000e+00	2.276724e-07	
62	3.100000e+00	1.999101e-07	
63	3.150000e+00	1.780687e-07	
64	3.200000e+00	1.606404e-07	
65	3.250000e+00	1.465449e-07	
66	3.300000e+00	1.349999e-07	
67	3.350000e+00	1.254324e-07	
68	3.400000e+00	1.174176e-07	
69	3.450000e+00	1.106364e-07	
70	3.500000e+00	1.048465e-07	
71	3.550000e+00	9.986152e-08	
72	3.600000e+00	9.553638e-08	
73	3.650000e+00	9.175723e-08	
74	3.700000e+00	8.843364e-08	
75	3.750000e+00	8.549315e-08	
76	3.800000e+00	8.287722e-08	
77	3.850000e+00	8.053809e-08	
78	3.900000e+00	7.843656e-08	
79	3.950000e+00	7.654019e-08	
80	4.000000e+00	7.482195e-08	
81	4.050000e+00	7.325916e-08	
82	4.100000e+00	7.183271e-08	
83	4.150000e+00	7.052637e-08	
84	4.200000e+00	6.932630e-08	
85	4.250000e+00	6.822064e-08	
86	4.300000e+00	6.719916e-08	
87	4.350000e+00	6.625303e-08	
88	4.400000e+00	6.537455e-08	
89	4.450000e+00	6.455702e-08	
90	4.500000e+00	6.379456e-08	
91	4.550000e+00	6.308199e-08	
92	4.600000e+00	6.241477e-08	
93	4.650000e+00	6.178886e-08	
94	4.700000e+00	6.120068e-08	
95	4.750000e+00	6.064702e-08	
96	4.800000e+00	6.012505e-08	
97	4.850000e+00	5.963221e-08	
98	4.900000e+00	5.916620e-08	
99	4.950000e+00	5.872497e-08	
100	5.000000e+00	5.830664e-08	
101	5.050000e+00	5.790954e-08	
102	5.100000e+00	5.753213e-08	
103	5.150000e+00	5.717303e-08	
104	5.200000e+00	5.683098e-08	
105	5.250000e+00	5.650482e-08	
106	5.300000e+00	5.619350e-08	
107	5.350000e+00	5.589605e-08	
108	5.400000e+00	5.561161e-08	
109	5.450000e+00	5.533934e-08	
110	5.500000e+00	5.507850e-08	
111	5.550000e+00	5.482842e-08	
112	5.600000e+00	5.458844e-08	

Index   v-sweep         rds             
--------------------------------------------------------------------------------
113	5.650000e+00	5.435800e-08	
114	5.700000e+00	5.413653e-08	
115	5.750000e+00	5.392354e-08	
116	5.800000e+00	5.371857e-08	
117	5.850000e+00	5.352117e-08	
118	5.900000e+00	5.333095e-08	
119	5.950000e+00	5.314752e-08	
120	6.000000e+00	5.297054e-08	
121	6.050000e+00	5.279969e-08	
122	6.100000e+00	5.263464e-08	
123	6.150000e+00	5.247513e-08	
124	6.200000e+00	5.232088e-08	
125	6.250000e+00	5.217164e-08	
126	6.300000e+00	5.202717e-08	
127	6.350000e+00	5.188726e-08	
128	6.400000e+00	5.175169e-08	
129	6.450000e+00	5.162027e-08	
130	6.500000e+00	5.149281e-08	
131	6.550000e+00	5.136915e-08	
132	6.600000e+00	5.124911e-08	
Reset re-loads circuit ***************************

Circuit: ***************************

Doing analysis at TEMP = 25.000000 and TNOM = 25.000000


No. of Data Rows : 133
                          ***************************
                          DC transfer characteristic  Mon Jan  9 13:58:38  2023
--------------------------------------------------------------------------------
Index   v-sweep         rds             
--------------------------------------------------------------------------------
0	0.000000e+00	3.359911e-05	
1	5.000000e-02	3.309700e-05	
2	1.000000e-01	3.259604e-05	
3	1.500000e-01	3.209621e-05	
4	2.000000e-01	3.159753e-05	
5	2.500000e-01	3.109998e-05	
6	3.000000e-01	3.060356e-05	
7	3.500000e-01	3.010827e-05	
8	4.000000e-01	2.961410e-05	
9	4.500000e-01	2.912105e-05	
10	5.000000e-01	2.862913e-05	
11	5.500000e-01	2.813831e-05	
12	6.000000e-01	2.764861e-05	
13	6.500000e-01	2.716002e-05	
14	7.000000e-01	2.667253e-05	
15	7.500000e-01	2.618614e-05	
16	8.000000e-01	2.570085e-05	
17	8.500000e-01	2.521665e-05	
18	9.000000e-01	2.473355e-05	
19	9.500000e-01	2.425153e-05	
20	1.000000e+00	2.377060e-05	
21	1.050000e+00	2.329075e-05	
22	1.100000e+00	2.281197e-05	
23	1.150000e+00	2.233428e-05	
24	1.200000e+00	2.185765e-05	
25	1.250000e+00	2.138209e-05	
26	1.300000e+00	2.090759e-05	
27	1.350000e+00	2.043416e-05	
28	1.400000e+00	1.996178e-05	
29	1.450000e+00	1.949046e-05	
30	1.500000e+00	1.902018e-05	
31	1.550000e+00	1.855095e-05	
32	1.600000e+00	1.808276e-05	
33	1.650000e+00	1.761561e-05	
34	1.700000e+00	1.714950e-05	
35	1.750000e+00	1.668441e-05	
36	1.800000e+00	1.622035e-05	
37	1.850000e+00	1.575730e-05	
38	1.900000e+00	1.529528e-05	
39	1.950000e+00	1.483426e-05	
40	2.000000e+00	1.437425e-05	
41	2.050000e+00	1.391524e-05	
42	2.100000e+00	1.345721e-05	
43	2.150000e+00	1.300018e-05	
44	2.200000e+00	1.254412e-05	
45	2.250000e+00	1.208904e-05	
46	2.300000e+00	1.163492e-05	
47	2.350000e+00	1.118175e-05	
48	2.400000e+00	1.072952e-05	
49	2.450000e+00	1.027823e-05	
50	2.500000e+00	9.827857e-06	
51	2.550000e+00	9.378397e-06	
52	2.600000e+00	8.929836e-06	
53	2.650000e+00	8.482165e-06	
54	2.700000e+00	8.035376e-06	

Index   v-sweep         rds             
--------------------------------------------------------------------------------
55	2.750000e+00	7.589468e-06	
56	2.800000e+00	7.144452e-06	
57	2.850000e+00	6.700357e-06	
58	2.900000e+00	6.257246e-06	
59	2.950000e+00	5.815237e-06	
60	3.000000e+00	5.374548e-06	
61	3.050000e+00	4.935551e-06	
62	3.100000e+00	4.498880e-06	
63	3.150000e+00	4.065585e-06	
64	3.200000e+00	3.637367e-06	
65	3.250000e+00	3.216885e-06	
66	3.300000e+00	2.808111e-06	
67	3.350000e+00	2.416574e-06	
68	3.400000e+00	2.049254e-06	
69	3.450000e+00	1.713787e-06	
70	3.500000e+00	1.416963e-06	
71	3.550000e+00	1.162980e-06	
72	3.600000e+00	9.523725e-07	
73	3.650000e+00	7.821741e-07	
74	3.700000e+00	6.470969e-07	
75	3.750000e+00	5.409726e-07	
76	3.800000e+00	4.578574e-07	
77	3.850000e+00	3.926183e-07	
78	3.900000e+00	3.411048e-07	
79	3.950000e+00	3.000903e-07	
80	4.000000e+00	2.671200e-07	
81	4.050000e+00	2.403457e-07	
82	4.100000e+00	2.183795e-07	
83	4.150000e+00	2.001768e-07	
84	4.200000e+00	1.849477e-07	
85	4.250000e+00	1.720903e-07	
86	4.300000e+00	1.611424e-07	
87	4.350000e+00	1.517459e-07	
88	4.400000e+00	1.436210e-07	
89	4.450000e+00	1.365470e-07	
90	4.500000e+00	1.303484e-07	
91	4.550000e+00	1.248844e-07	
92	4.600000e+00	1.200414e-07	
93	4.650000e+00	1.157265e-07	
94	4.700000e+00	1.118638e-07	
95	4.750000e+00	1.083904e-07	
96	4.800000e+00	1.052540e-07	
97	4.850000e+00	1.024110e-07	
98	4.900000e+00	9.982438e-08	
99	4.950000e+00	9.746306e-08	
100	5.000000e+00	9.530051e-08	
101	5.050000e+00	9.331402e-08	
102	5.100000e+00	9.148409e-08	
103	5.150000e+00	8.979389e-08	
104	5.200000e+00	8.822881e-08	
105	5.250000e+00	8.677615e-08	
106	5.300000e+00	8.542481e-08	
107	5.350000e+00	8.416504e-08	
108	5.400000e+00	8.298826e-08	
109	5.450000e+00	8.188692e-08	
110	5.500000e+00	8.085430e-08	
111	5.550000e+00	7.988444e-08	
112	5.600000e+00	7.897203e-08	

Index   v-sweep         rds             
--------------------------------------------------------------------------------
113	5.650000e+00	7.811232e-08	
114	5.700000e+00	7.730105e-08	
115	5.750000e+00	7.653441e-08	
116	5.800000e+00	7.580895e-08	
117	5.850000e+00	7.512157e-08	
118	5.900000e+00	7.446945e-08	
119	5.950000e+00	7.385005e-08	
120	6.000000e+00	7.326106e-08	
121	6.050000e+00	7.270035e-08	
122	6.100000e+00	7.216603e-08	
123	6.150000e+00	7.165632e-08	
124	6.200000e+00	7.116962e-08	
125	6.250000e+00	7.070446e-08	
126	6.300000e+00	7.025948e-08	
127	6.350000e+00	6.983344e-08	
128	6.400000e+00	6.942519e-08	
129	6.450000e+00	6.903367e-08	
130	6.500000e+00	6.865791e-08	
131	6.550000e+00	6.829699e-08	
132	6.600000e+00	6.795009e-08	
Reset re-loads circuit ***************************

Circuit: ***************************

Doing analysis at TEMP = 25.000000 and TNOM = 25.000000


No. of Data Rows : 133
                          ***************************
                          DC transfer characteristic  Mon Jan  9 13:58:38  2023
--------------------------------------------------------------------------------
Index   v-sweep         rds             
--------------------------------------------------------------------------------
0	0.000000e+00	3.723216e-05	
1	5.000000e-02	3.678817e-05	
2	1.000000e-01	3.634510e-05	
3	1.500000e-01	3.590296e-05	
4	2.000000e-01	3.546175e-05	
5	2.500000e-01	3.502146e-05	
6	3.000000e-01	3.458209e-05	
7	3.500000e-01	3.414363e-05	
8	4.000000e-01	3.370609e-05	
9	4.500000e-01	3.326946e-05	
10	5.000000e-01	3.283375e-05	
11	5.500000e-01	3.239894e-05	
12	6.000000e-01	3.196503e-05	
13	6.500000e-01	3.153203e-05	
14	7.000000e-01	3.109992e-05	
15	7.500000e-01	3.066872e-05	
16	8.000000e-01	3.023840e-05	
17	8.500000e-01	2.980899e-05	
18	9.000000e-01	2.938046e-05	
19	9.500000e-01	2.895282e-05	
20	1.000000e+00	2.852606e-05	
21	1.050000e+00	2.810019e-05	
22	1.100000e+00	2.767520e-05	
23	1.150000e+00	2.725109e-05	
24	1.200000e+00	2.682785e-05	
25	1.250000e+00	2.640549e-05	
26	1.300000e+00	2.598399e-05	
27	1.350000e+00	2.556337e-05	
28	1.400000e+00	2.514361e-05	
29	1.450000e+00	2.472472e-05	
30	1.500000e+00	2.430668e-05	
31	1.550000e+00	2.388951e-05	
32	1.600000e+00	2.347319e-05	
33	1.650000e+00	2.305772e-05	
34	1.700000e+00	2.264311e-05	
35	1.750000e+00	2.222934e-05	
36	1.800000e+00	2.181642e-05	
37	1.850000e+00	2.140435e-05	
38	1.900000e+00	2.099311e-05	
39	1.950000e+00	2.058271e-05	
40	2.000000e+00	2.017315e-05	
41	2.050000e+00	1.976442e-05	
42	2.100000e+00	1.935652e-05	
43	2.150000e+00	1.894944e-05	
44	2.200000e+00	1.854319e-05	
45	2.250000e+00	1.813776e-05	
46	2.300000e+00	1.773314e-05	
47	2.350000e+00	1.732934e-05	
48	2.400000e+00	1.692635e-05	
49	2.450000e+00	1.652417e-05	
50	2.500000e+00	1.612279e-05	
51	2.550000e+00	1.572220e-05	
52	2.600000e+00	1.532241e-05	
53	2.650000e+00	1.492341e-05	
54	2.700000e+00	1.452520e-05	

Index   v-sweep         rds             
--------------------------------------------------------------------------------
55	2.750000e+00	1.412776e-05	
56	2.800000e+00	1.373110e-05	
57	2.850000e+00	1.333520e-05	
58	2.900000e+00	1.294007e-05	
59	2.950000e+00	1.254568e-05	
60	3.000000e+00	1.215204e-05	
61	3.050000e+00	1.175913e-05	
62	3.100000e+00	1.136695e-05	
63	3.150000e+00	1.097548e-05	
64	3.200000e+00	1.058470e-05	
65	3.250000e+00	1.019461e-05	
66	3.300000e+00	9.805188e-06	
67	3.350000e+00	9.416411e-06	
68	3.400000e+00	9.028262e-06	
69	3.450000e+00	8.640715e-06	
70	3.500000e+00	8.253747e-06	
71	3.550000e+00	7.867328e-06	
72	3.600000e+00	7.481431e-06	
73	3.650000e+00	7.096030e-06	
74	3.700000e+00	6.711101e-06	
75	3.750000e+00	6.326635e-06	
76	3.800000e+00	5.942644e-06	
77	3.850000e+00	5.559180e-06	
78	3.900000e+00	5.176367e-06	
79	3.950000e+00	4.794448e-06	
80	4.000000e+00	4.413859e-06	
81	4.050000e+00	4.035347e-06	
82	4.100000e+00	3.660122e-06	
83	4.150000e+00	3.290071e-06	
84	4.200000e+00	2.927977e-06	
85	4.250000e+00	2.577689e-06	
86	4.300000e+00	2.244094e-06	
87	4.350000e+00	1.932730e-06	
88	4.400000e+00	1.648995e-06	
89	4.450000e+00	1.397098e-06	
90	4.500000e+00	1.179173e-06	
91	4.550000e+00	9.949511e-07	
92	4.600000e+00	8.420773e-07	
93	4.650000e+00	7.168574e-07	
94	4.700000e+00	6.150599e-07	
95	4.750000e+00	5.325329e-07	
96	4.800000e+00	4.655614e-07	
97	4.850000e+00	4.110083e-07	
98	4.900000e+00	3.663199e-07	
99	4.950000e+00	3.294625e-07	
100	5.000000e+00	2.988373e-07	
101	5.050000e+00	2.731941e-07	
102	5.100000e+00	2.515568e-07	
103	5.150000e+00	2.331616e-07	
104	5.200000e+00	2.174091e-07	
105	5.250000e+00	2.038260e-07	
106	5.300000e+00	1.920364e-07	
107	5.350000e+00	1.817400e-07	
108	5.400000e+00	1.726952e-07	
109	5.450000e+00	1.647063e-07	
110	5.500000e+00	1.576138e-07	
111	5.550000e+00	1.512867e-07	
112	5.600000e+00	1.456171e-07	

Index   v-sweep         rds             
--------------------------------------------------------------------------------
113	5.650000e+00	1.405150e-07	
114	5.700000e+00	1.359055e-07	
115	5.750000e+00	1.317254e-07	
116	5.800000e+00	1.279214e-07	
117	5.850000e+00	1.244484e-07	
118	5.900000e+00	1.212676e-07	
119	5.950000e+00	1.183461e-07	
120	6.000000e+00	1.156551e-07	
121	6.050000e+00	1.131701e-07	
122	6.100000e+00	1.108698e-07	
123	6.150000e+00	1.087352e-07	
124	6.200000e+00	1.067503e-07	
125	6.250000e+00	1.049005e-07	
126	6.300000e+00	1.031734e-07	
127	6.350000e+00	1.015576e-07	
128	6.400000e+00	1.000433e-07	
129	6.450000e+00	9.862171e-08	
130	6.500000e+00	9.728496e-08	
131	6.550000e+00	9.602603e-08	
132	6.600000e+00	9.483862e-08	
Reset re-loads circuit ***************************

Circuit: ***************************

Note: No ".plot", ".print", or ".fourier" lines; no simulations run
