
Note: Compatibility modes selected: hs

Warning: m=xx on .subckt line will override multiplier m hierarchy!


Circuit: ***************************

Doing analysis at TEMP = 25.000000 and TNOM = 25.000000


No. of Data Rows : 133
                          ***************************
                          DC transfer characteristic  Mon Jan  9 13:58:38  2023
--------------------------------------------------------------------------------
Index   v-sweep         rds             
--------------------------------------------------------------------------------
0	0.000000e+00	2.322657e-06	
1	5.000000e-02	1.935614e-06	
2	1.000000e-01	1.551705e-06	
3	1.500000e-01	1.173190e-06	
4	2.000000e-01	8.069701e-07	
5	2.500000e-01	4.745718e-07	
6	3.000000e-01	2.252812e-07	
7	3.500000e-01	9.437967e-08	
8	4.000000e-01	4.338500e-08	
9	4.500000e-01	2.421127e-08	
10	5.000000e-01	1.607766e-08	
11	5.500000e-01	1.209569e-08	
12	6.000000e-01	9.892412e-09	
13	6.500000e-01	8.549346e-09	
14	7.000000e-01	7.666424e-09	
15	7.500000e-01	7.050618e-09	
16	8.000000e-01	6.600513e-09	
17	8.500000e-01	6.258924e-09	
18	9.000000e-01	5.991656e-09	
19	9.500000e-01	5.777226e-09	
20	1.000000e+00	5.601559e-09	
21	1.050000e+00	5.455101e-09	
22	1.100000e+00	5.331161e-09	
23	1.150000e+00	5.224928e-09	
24	1.200000e+00	5.132860e-09	
25	1.250000e+00	5.052298e-09	
26	1.300000e+00	4.981203e-09	
27	1.350000e+00	4.917994e-09	
28	1.400000e+00	4.861420e-09	
29	1.450000e+00	4.810483e-09	
30	1.500000e+00	4.764376e-09	
31	1.550000e+00	4.722439e-09	
32	1.600000e+00	4.684126e-09	
33	1.650000e+00	4.648985e-09	
34	1.700000e+00	4.616635e-09	
35	1.750000e+00	4.586754e-09	
36	1.800000e+00	4.559068e-09	
37	1.850000e+00	4.533343e-09	
38	1.900000e+00	4.509377e-09	
39	1.950000e+00	4.486993e-09	
40	2.000000e+00	4.466040e-09	
41	2.050000e+00	4.446384e-09	
42	2.100000e+00	4.427908e-09	
43	2.150000e+00	4.410508e-09	
44	2.200000e+00	4.394092e-09	
45	2.250000e+00	4.378580e-09	
46	2.300000e+00	4.363898e-09	
47	2.350000e+00	4.349981e-09	
48	2.400000e+00	4.336772e-09	
49	2.450000e+00	4.324216e-09	
50	2.500000e+00	4.312268e-09	
51	2.550000e+00	4.300883e-09	
52	2.600000e+00	4.290023e-09	
53	2.650000e+00	4.279653e-09	
54	2.700000e+00	4.269739e-09	

Index   v-sweep         rds             
--------------------------------------------------------------------------------
55	2.750000e+00	4.260253e-09	
56	2.800000e+00	4.251167e-09	
57	2.850000e+00	4.242458e-09	
58	2.900000e+00	4.234101e-09	
59	2.950000e+00	4.226075e-09	
60	3.000000e+00	4.218363e-09	
61	3.050000e+00	4.210945e-09	
62	3.100000e+00	4.203805e-09	
63	3.150000e+00	4.196929e-09	
64	3.200000e+00	4.190301e-09	
65	3.250000e+00	4.183908e-09	
66	3.300000e+00	4.177739e-09	
67	3.350000e+00	4.171781e-09	
68	3.400000e+00	4.166025e-09	
69	3.450000e+00	4.160459e-09	
70	3.500000e+00	4.155076e-09	
71	3.550000e+00	4.149865e-09	
72	3.600000e+00	4.144820e-09	
73	3.650000e+00	4.139932e-09	
74	3.700000e+00	4.135194e-09	
75	3.750000e+00	4.130599e-09	
76	3.800000e+00	4.126141e-09	
77	3.850000e+00	4.121815e-09	
78	3.900000e+00	4.117613e-09	
79	3.950000e+00	4.113532e-09	
80	4.000000e+00	4.109566e-09	
81	4.050000e+00	4.105709e-09	
82	4.100000e+00	4.101959e-09	
83	4.150000e+00	4.098310e-09	
84	4.200000e+00	4.094759e-09	
85	4.250000e+00	4.091301e-09	
86	4.300000e+00	4.087933e-09	
87	4.350000e+00	4.084652e-09	
88	4.400000e+00	4.081454e-09	
89	4.450000e+00	4.078337e-09	
90	4.500000e+00	4.075296e-09	
91	4.550000e+00	4.072330e-09	
92	4.600000e+00	4.069436e-09	
93	4.650000e+00	4.066612e-09	
94	4.700000e+00	4.063854e-09	
95	4.750000e+00	4.061160e-09	
96	4.800000e+00	4.058529e-09	
97	4.850000e+00	4.055958e-09	
98	4.900000e+00	4.053445e-09	
99	4.950000e+00	4.050989e-09	
100	5.000000e+00	4.048587e-09	
101	5.050000e+00	4.046237e-09	
102	5.100000e+00	4.043939e-09	
103	5.150000e+00	4.041689e-09	
104	5.200000e+00	4.039488e-09	
105	5.250000e+00	4.037333e-09	
106	5.300000e+00	4.035223e-09	
107	5.350000e+00	4.033156e-09	
108	5.400000e+00	4.031131e-09	
109	5.450000e+00	4.029148e-09	
110	5.500000e+00	4.027204e-09	
111	5.550000e+00	4.025299e-09	
112	5.600000e+00	4.023431e-09	

Index   v-sweep         rds             
--------------------------------------------------------------------------------
113	5.650000e+00	4.021599e-09	
114	5.700000e+00	4.019803e-09	
115	5.750000e+00	4.018041e-09	
116	5.800000e+00	4.016313e-09	
117	5.850000e+00	4.014617e-09	
118	5.900000e+00	4.012952e-09	
119	5.950000e+00	4.011319e-09	
120	6.000000e+00	4.009715e-09	
121	6.050000e+00	4.008140e-09	
122	6.100000e+00	4.006594e-09	
123	6.150000e+00	4.005075e-09	
124	6.200000e+00	4.003583e-09	
125	6.250000e+00	4.002117e-09	
126	6.300000e+00	4.000677e-09	
127	6.350000e+00	3.999261e-09	
128	6.400000e+00	3.997870e-09	
129	6.450000e+00	3.996502e-09	
130	6.500000e+00	3.995158e-09	
131	6.550000e+00	3.993835e-09	
132	6.600000e+00	3.992535e-09	
Reset re-loads circuit ***************************

Circuit: ***************************

Doing analysis at TEMP = 25.000000 and TNOM = 25.000000


No. of Data Rows : 133
                          ***************************
                          DC transfer characteristic  Mon Jan  9 13:58:38  2023
--------------------------------------------------------------------------------
Index   v-sweep         rds             
--------------------------------------------------------------------------------
0	0.000000e+00	8.283240e-06	
1	5.000000e-02	7.875083e-06	
2	1.000000e-01	7.468945e-06	
3	1.500000e-01	7.064817e-06	
4	2.000000e-01	6.662694e-06	
5	2.500000e-01	6.262569e-06	
6	3.000000e-01	5.864442e-06	
7	3.500000e-01	5.468317e-06	
8	4.000000e-01	5.074203e-06	
9	4.500000e-01	4.682124e-06	
10	5.000000e-01	4.292122e-06	
11	5.500000e-01	3.904269e-06	
12	6.000000e-01	3.518697e-06	
13	6.500000e-01	3.135636e-06	
14	7.000000e-01	2.755513e-06	
15	7.500000e-01	2.379132e-06	
16	8.000000e-01	2.008056e-06	
17	8.500000e-01	1.645397e-06	
18	9.000000e-01	1.297283e-06	
19	9.500000e-01	9.749233e-07	
20	1.000000e+00	6.952247e-07	
21	1.050000e+00	4.751149e-07	
22	1.100000e+00	3.199849e-07	
23	1.150000e+00	2.196367e-07	
24	1.200000e+00	1.571543e-07	
25	1.250000e+00	1.180771e-07	
26	1.300000e+00	9.291662e-08	
27	1.350000e+00	7.607951e-08	
28	1.400000e+00	6.435832e-08	
29	1.450000e+00	5.589430e-08	
30	1.500000e+00	4.958058e-08	
31	1.550000e+00	4.473594e-08	
32	1.600000e+00	4.092679e-08	
33	1.650000e+00	3.786814e-08	
34	1.700000e+00	3.536707e-08	
35	1.750000e+00	3.328942e-08	
36	1.800000e+00	3.153961e-08	
37	1.850000e+00	3.004801e-08	
38	1.900000e+00	2.876295e-08	
39	1.950000e+00	2.764536e-08	
40	2.000000e+00	2.666522e-08	
41	2.050000e+00	2.579916e-08	
42	2.100000e+00	2.502873e-08	
43	2.150000e+00	2.433919e-08	
44	2.200000e+00	2.371863e-08	
45	2.250000e+00	2.315733e-08	
46	2.300000e+00	2.264731e-08	
47	2.350000e+00	2.218193e-08	
48	2.400000e+00	2.175565e-08	
49	2.450000e+00	2.136377e-08	
50	2.500000e+00	2.100235e-08	
51	2.550000e+00	2.066800e-08	
52	2.600000e+00	2.035780e-08	
53	2.650000e+00	2.006926e-08	
54	2.700000e+00	1.980019e-08	

Index   v-sweep         rds             
--------------------------------------------------------------------------------
55	2.750000e+00	1.954872e-08	
56	2.800000e+00	1.931316e-08	
57	2.850000e+00	1.909208e-08	
58	2.900000e+00	1.888419e-08	
59	2.950000e+00	1.868833e-08	
60	3.000000e+00	1.850352e-08	
61	3.050000e+00	1.832883e-08	
62	3.100000e+00	1.816347e-08	
63	3.150000e+00	1.800671e-08	
64	3.200000e+00	1.785790e-08	
65	3.250000e+00	1.771645e-08	
66	3.300000e+00	1.758184e-08	
67	3.350000e+00	1.745357e-08	
68	3.400000e+00	1.733122e-08	
69	3.450000e+00	1.721439e-08	
70	3.500000e+00	1.710270e-08	
71	3.550000e+00	1.699584e-08	
72	3.600000e+00	1.689349e-08	
73	3.650000e+00	1.679538e-08	
74	3.700000e+00	1.670125e-08	
75	3.750000e+00	1.661087e-08	
76	3.800000e+00	1.652400e-08	
77	3.850000e+00	1.644047e-08	
78	3.900000e+00	1.636006e-08	
79	3.950000e+00	1.628263e-08	
80	4.000000e+00	1.620799e-08	
81	4.050000e+00	1.613601e-08	
82	4.100000e+00	1.606655e-08	
83	4.150000e+00	1.599947e-08	
84	4.200000e+00	1.593467e-08	
85	4.250000e+00	1.587201e-08	
86	4.300000e+00	1.581140e-08	
87	4.350000e+00	1.575275e-08	
88	4.400000e+00	1.569595e-08	
89	4.450000e+00	1.564092e-08	
90	4.500000e+00	1.558758e-08	
91	4.550000e+00	1.553585e-08	
92	4.600000e+00	1.548567e-08	
93	4.650000e+00	1.543696e-08	
94	4.700000e+00	1.538966e-08	
95	4.750000e+00	1.534371e-08	
96	4.800000e+00	1.529906e-08	
97	4.850000e+00	1.525564e-08	
98	4.900000e+00	1.521341e-08	
99	4.950000e+00	1.517233e-08	
100	5.000000e+00	1.513234e-08	
101	5.050000e+00	1.509340e-08	
102	5.100000e+00	1.505547e-08	
103	5.150000e+00	1.501852e-08	
104	5.200000e+00	1.498250e-08	
105	5.250000e+00	1.494738e-08	
106	5.300000e+00	1.491314e-08	
107	5.350000e+00	1.487972e-08	
108	5.400000e+00	1.484712e-08	
109	5.450000e+00	1.481529e-08	
110	5.500000e+00	1.478421e-08	
111	5.550000e+00	1.475385e-08	
112	5.600000e+00	1.472420e-08	

Index   v-sweep         rds             
--------------------------------------------------------------------------------
113	5.650000e+00	1.469521e-08	
114	5.700000e+00	1.466689e-08	
115	5.750000e+00	1.463919e-08	
116	5.800000e+00	1.461210e-08	
117	5.850000e+00	1.458560e-08	
118	5.900000e+00	1.455968e-08	
119	5.950000e+00	1.453431e-08	
120	6.000000e+00	1.450947e-08	
121	6.050000e+00	1.448515e-08	
122	6.100000e+00	1.446134e-08	
123	6.150000e+00	1.443801e-08	
124	6.200000e+00	1.441516e-08	
125	6.250000e+00	1.439276e-08	
126	6.300000e+00	1.437081e-08	
127	6.350000e+00	1.434929e-08	
128	6.400000e+00	1.432819e-08	
129	6.450000e+00	1.430750e-08	
130	6.500000e+00	1.428721e-08	
131	6.550000e+00	1.426730e-08	
132	6.600000e+00	1.424776e-08	
Reset re-loads circuit ***************************

Circuit: ***************************

Doing analysis at TEMP = 25.000000 and TNOM = 25.000000


No. of Data Rows : 133
                          ***************************
                          DC transfer characteristic  Mon Jan  9 13:58:38  2023
--------------------------------------------------------------------------------
Index   v-sweep         rds             
--------------------------------------------------------------------------------
0	0.000000e+00	1.333602e-05	
1	5.000000e-02	1.294416e-05	
2	1.000000e-01	1.255425e-05	
3	1.500000e-01	1.216629e-05	
4	2.000000e-01	1.178025e-05	
5	2.500000e-01	1.139613e-05	
6	3.000000e-01	1.101392e-05	
7	3.500000e-01	1.063359e-05	
8	4.000000e-01	1.025515e-05	
9	4.500000e-01	9.878576e-06	
10	5.000000e-01	9.503859e-06	
11	5.500000e-01	9.130987e-06	
12	6.000000e-01	8.759950e-06	
13	6.500000e-01	8.390734e-06	
14	7.000000e-01	8.023330e-06	
15	7.500000e-01	7.657725e-06	
16	8.000000e-01	7.293910e-06	
17	8.500000e-01	6.931872e-06	
18	9.000000e-01	6.571603e-06	
19	9.500000e-01	6.213093e-06	
20	1.000000e+00	5.856334e-06	
21	1.050000e+00	5.501319e-06	
22	1.100000e+00	5.148048e-06	
23	1.150000e+00	4.796524e-06	
24	1.200000e+00	4.446763e-06	
25	1.250000e+00	4.098799e-06	
26	1.300000e+00	3.752704e-06	
27	1.350000e+00	3.408617e-06	
28	1.400000e+00	3.066800e-06	
29	1.450000e+00	2.727755e-06	
30	1.500000e+00	2.392432e-06	
31	1.550000e+00	2.062618e-06	
32	1.600000e+00	1.741576e-06	
33	1.650000e+00	1.434892e-06	
34	1.700000e+00	1.151024e-06	
35	1.750000e+00	9.003421e-07	
36	1.800000e+00	6.917186e-07	
37	1.850000e+00	5.283463e-07	
38	1.900000e+00	4.065114e-07	
39	1.950000e+00	3.182256e-07	
40	2.000000e+00	2.548049e-07	
41	2.050000e+00	2.089664e-07	
42	2.100000e+00	1.753374e-07	
43	2.150000e+00	1.501909e-07	
44	2.200000e+00	1.310023e-07	
45	2.250000e+00	1.160670e-07	
46	2.300000e+00	1.042244e-07	
47	2.350000e+00	9.467297e-08	
48	2.400000e+00	8.684998e-08	
49	2.450000e+00	8.035339e-08	
50	2.500000e+00	7.489091e-08	
51	2.550000e+00	7.024651e-08	
52	2.600000e+00	6.625797e-08	
53	2.650000e+00	6.280170e-08	
54	2.700000e+00	5.978224e-08	

Index   v-sweep         rds             
--------------------------------------------------------------------------------
55	2.750000e+00	5.712493e-08	
56	2.800000e+00	5.477067e-08	
57	2.850000e+00	5.267220e-08	
58	2.900000e+00	5.079133e-08	
59	2.950000e+00	4.909691e-08	
60	3.000000e+00	4.756333e-08	
61	3.050000e+00	4.616935e-08	
62	3.100000e+00	4.489722e-08	
63	3.150000e+00	4.373204e-08	
64	3.200000e+00	4.266118e-08	
65	3.250000e+00	4.167389e-08	
66	3.300000e+00	4.076095e-08	
67	3.350000e+00	3.991445e-08	
68	3.400000e+00	3.912752e-08	
69	3.450000e+00	3.839421e-08	
70	3.500000e+00	3.770932e-08	
71	3.550000e+00	3.706828e-08	
72	3.600000e+00	3.646709e-08	
73	3.650000e+00	3.590219e-08	
74	3.700000e+00	3.537046e-08	
75	3.750000e+00	3.486908e-08	
76	3.800000e+00	3.439558e-08	
77	3.850000e+00	3.394772e-08	
78	3.900000e+00	3.352349e-08	
79	3.950000e+00	3.312111e-08	
80	4.000000e+00	3.273895e-08	
81	4.050000e+00	3.237554e-08	
82	4.100000e+00	3.202954e-08	
83	4.150000e+00	3.169975e-08	
84	4.200000e+00	3.138507e-08	
85	4.250000e+00	3.108450e-08	
86	4.300000e+00	3.079711e-08	
87	4.350000e+00	3.052206e-08	
88	4.400000e+00	3.025859e-08	
89	4.450000e+00	3.000599e-08	
90	4.500000e+00	2.976360e-08	
91	4.550000e+00	2.953082e-08	
92	4.600000e+00	2.930710e-08	
93	4.650000e+00	2.909192e-08	
94	4.700000e+00	2.888481e-08	
95	4.750000e+00	2.868532e-08	
96	4.800000e+00	2.849305e-08	
97	4.850000e+00	2.830761e-08	
98	4.900000e+00	2.812865e-08	
99	4.950000e+00	2.795583e-08	
100	5.000000e+00	2.778886e-08	
101	5.050000e+00	2.762743e-08	
102	5.100000e+00	2.747128e-08	
103	5.150000e+00	2.732016e-08	
104	5.200000e+00	2.717383e-08	
105	5.250000e+00	2.703207e-08	
106	5.300000e+00	2.689466e-08	
107	5.350000e+00	2.676141e-08	
108	5.400000e+00	2.663214e-08	
109	5.450000e+00	2.650668e-08	
110	5.500000e+00	2.638485e-08	
111	5.550000e+00	2.626650e-08	
112	5.600000e+00	2.615149e-08	

Index   v-sweep         rds             
--------------------------------------------------------------------------------
113	5.650000e+00	2.603968e-08	
114	5.700000e+00	2.593094e-08	
115	5.750000e+00	2.582514e-08	
116	5.800000e+00	2.572217e-08	
117	5.850000e+00	2.562191e-08	
118	5.900000e+00	2.552427e-08	
119	5.950000e+00	2.542913e-08	
120	6.000000e+00	2.533641e-08	
121	6.050000e+00	2.524602e-08	
122	6.100000e+00	2.515787e-08	
123	6.150000e+00	2.507187e-08	
124	6.200000e+00	2.498795e-08	
125	6.250000e+00	2.490604e-08	
126	6.300000e+00	2.482607e-08	
127	6.350000e+00	2.474796e-08	
128	6.400000e+00	2.467166e-08	
129	6.450000e+00	2.459710e-08	
130	6.500000e+00	2.452423e-08	
131	6.550000e+00	2.445298e-08	
132	6.600000e+00	2.438331e-08	
Reset re-loads circuit ***************************

Circuit: ***************************

Doing analysis at TEMP = 25.000000 and TNOM = 25.000000


No. of Data Rows : 133
                          ***************************
                          DC transfer characteristic  Mon Jan  9 13:58:38  2023
--------------------------------------------------------------------------------
Index   v-sweep         rds             
--------------------------------------------------------------------------------
0	0.000000e+00	1.736003e-05	
1	5.000000e-02	1.699470e-05	
2	1.000000e-01	1.663111e-05	
3	1.500000e-01	1.626925e-05	
4	2.000000e-01	1.590911e-05	
5	2.500000e-01	1.555068e-05	
6	3.000000e-01	1.519396e-05	
7	3.500000e-01	1.483892e-05	
8	4.000000e-01	1.448556e-05	
9	4.500000e-01	1.413386e-05	
10	5.000000e-01	1.378383e-05	
11	5.500000e-01	1.343544e-05	
12	6.000000e-01	1.308869e-05	
13	6.500000e-01	1.274357e-05	
14	7.000000e-01	1.240006e-05	
15	7.500000e-01	1.205817e-05	
16	8.000000e-01	1.171787e-05	
17	8.500000e-01	1.137915e-05	
18	9.000000e-01	1.104201e-05	
19	9.500000e-01	1.070644e-05	
20	1.000000e+00	1.037243e-05	
21	1.050000e+00	1.003996e-05	
22	1.100000e+00	9.709019e-06	
23	1.150000e+00	9.379606e-06	
24	1.200000e+00	9.051705e-06	
25	1.250000e+00	8.725305e-06	
26	1.300000e+00	8.400394e-06	
27	1.350000e+00	8.076958e-06	
28	1.400000e+00	7.754985e-06	
29	1.450000e+00	7.434460e-06	
30	1.500000e+00	7.115367e-06	
31	1.550000e+00	6.797690e-06	
32	1.600000e+00	6.481410e-06	
33	1.650000e+00	6.166505e-06	
34	1.700000e+00	5.852951e-06	
35	1.750000e+00	5.540723e-06	
36	1.800000e+00	5.229788e-06	
37	1.850000e+00	4.920112e-06	
38	1.900000e+00	4.611658e-06	
39	1.950000e+00	4.304387e-06	
40	2.000000e+00	3.998263e-06	
41	2.050000e+00	3.693271e-06	
42	2.100000e+00	3.389435e-06	
43	2.150000e+00	3.086876e-06	
44	2.200000e+00	2.785913e-06	
45	2.250000e+00	2.487247e-06	
46	2.300000e+00	2.192274e-06	
47	2.350000e+00	1.903546e-06	
48	2.400000e+00	1.625279e-06	
49	2.450000e+00	1.363553e-06	
50	2.500000e+00	1.125628e-06	
51	2.550000e+00	9.180900e-07	
52	2.600000e+00	7.446142e-07	
53	2.650000e+00	6.048639e-07	
54	2.700000e+00	4.951907e-07	

Index   v-sweep         rds             
--------------------------------------------------------------------------------
55	2.750000e+00	4.103261e-07	
56	2.800000e+00	3.448948e-07	
57	2.850000e+00	2.942423e-07	
58	2.900000e+00	2.546811e-07	
59	2.950000e+00	2.234246e-07	
60	3.000000e+00	1.984150e-07	
61	3.050000e+00	1.781454e-07	
62	3.100000e+00	1.615114e-07	
63	3.150000e+00	1.476988e-07	
64	3.200000e+00	1.361021e-07	
65	3.250000e+00	1.262663e-07	
66	3.300000e+00	1.178455e-07	
67	3.350000e+00	1.105740e-07	
68	3.400000e+00	1.042454e-07	
69	3.450000e+00	9.869766e-08	
70	3.500000e+00	9.380213e-08	
71	3.550000e+00	8.945587e-08	
72	3.600000e+00	8.557566e-08	
73	3.650000e+00	8.209368e-08	
74	3.700000e+00	7.895419e-08	
75	3.750000e+00	7.611106e-08	
76	3.800000e+00	7.352582e-08	
77	3.850000e+00	7.116619e-08	
78	3.900000e+00	6.900490e-08	
79	3.950000e+00	6.701878e-08	
80	4.000000e+00	6.518806e-08	
81	4.050000e+00	6.349574e-08	
82	4.100000e+00	6.192716e-08	
83	4.150000e+00	6.046962e-08	
84	4.200000e+00	5.911205e-08	
85	4.250000e+00	5.784477e-08	
86	4.300000e+00	5.665930e-08	
87	4.350000e+00	5.554816e-08	
88	4.400000e+00	5.450473e-08	
89	4.450000e+00	5.352315e-08	
90	4.500000e+00	5.259819e-08	
91	4.550000e+00	5.172521e-08	
92	4.600000e+00	5.090003e-08	
93	4.650000e+00	5.011890e-08	
94	4.700000e+00	4.937846e-08	
95	4.750000e+00	4.867568e-08	
96	4.800000e+00	4.800779e-08	
97	4.850000e+00	4.737232e-08	
98	4.900000e+00	4.676699e-08	
99	4.950000e+00	4.618976e-08	
100	5.000000e+00	4.563873e-08	
101	5.050000e+00	4.511220e-08	
102	5.100000e+00	4.460858e-08	
103	5.150000e+00	4.412645e-08	
104	5.200000e+00	4.366447e-08	
105	5.250000e+00	4.322142e-08	
106	5.300000e+00	4.279618e-08	
107	5.350000e+00	4.238771e-08	
108	5.400000e+00	4.199505e-08	
109	5.450000e+00	4.161732e-08	
110	5.500000e+00	4.125368e-08	
111	5.550000e+00	4.090338e-08	
112	5.600000e+00	4.056570e-08	

Index   v-sweep         rds             
--------------------------------------------------------------------------------
113	5.650000e+00	4.023999e-08	
114	5.700000e+00	3.992561e-08	
115	5.750000e+00	3.962201e-08	
116	5.800000e+00	3.932863e-08	
117	5.850000e+00	3.904499e-08	
118	5.900000e+00	3.877060e-08	
119	5.950000e+00	3.850503e-08	
120	6.000000e+00	3.824786e-08	
121	6.050000e+00	3.799870e-08	
122	6.100000e+00	3.775720e-08	
123	6.150000e+00	3.752300e-08	
124	6.200000e+00	3.729578e-08	
125	6.250000e+00	3.707525e-08	
126	6.300000e+00	3.686110e-08	
127	6.350000e+00	3.665308e-08	
128	6.400000e+00	3.645092e-08	
129	6.450000e+00	3.625438e-08	
130	6.500000e+00	3.606324e-08	
131	6.550000e+00	3.587727e-08	
132	6.600000e+00	3.569627e-08	
Reset re-loads circuit ***************************

Circuit: ***************************

Doing analysis at TEMP = 25.000000 and TNOM = 25.000000


No. of Data Rows : 133
                          ***************************
                          DC transfer characteristic  Mon Jan  9 13:58:38  2023
--------------------------------------------------------------------------------
Index   v-sweep         rds             
--------------------------------------------------------------------------------
0	0.000000e+00	2.047013e-05	
1	5.000000e-02	2.013613e-05	
2	1.000000e-01	1.980362e-05	
3	1.500000e-01	1.947258e-05	
4	2.000000e-01	1.914300e-05	
5	2.500000e-01	1.881488e-05	
6	3.000000e-01	1.848822e-05	
7	3.500000e-01	1.816299e-05	
8	4.000000e-01	1.783919e-05	
9	4.500000e-01	1.751682e-05	
10	5.000000e-01	1.719587e-05	
11	5.500000e-01	1.687632e-05	
12	6.000000e-01	1.655818e-05	
13	6.500000e-01	1.624142e-05	
14	7.000000e-01	1.592605e-05	
15	7.500000e-01	1.561206e-05	
16	8.000000e-01	1.529944e-05	
17	8.500000e-01	1.498818e-05	
18	9.000000e-01	1.467827e-05	
19	9.500000e-01	1.436970e-05	
20	1.000000e+00	1.406247e-05	
21	1.050000e+00	1.375658e-05	
22	1.100000e+00	1.345200e-05	
23	1.150000e+00	1.314874e-05	
24	1.200000e+00	1.284678e-05	
25	1.250000e+00	1.254613e-05	
26	1.300000e+00	1.224676e-05	
27	1.350000e+00	1.194868e-05	
28	1.400000e+00	1.165187e-05	
29	1.450000e+00	1.135633e-05	
30	1.500000e+00	1.106204e-05	
31	1.550000e+00	1.076901e-05	
32	1.600000e+00	1.047722e-05	
33	1.650000e+00	1.018666e-05	
34	1.700000e+00	9.897322e-06	
35	1.750000e+00	9.609200e-06	
36	1.800000e+00	9.322283e-06	
37	1.850000e+00	9.036560e-06	
38	1.900000e+00	8.752020e-06	
39	1.950000e+00	8.468652e-06	
40	2.000000e+00	8.186442e-06	
41	2.050000e+00	7.905378e-06	
42	2.100000e+00	7.625443e-06	
43	2.150000e+00	7.346620e-06	
44	2.200000e+00	7.068891e-06	
45	2.250000e+00	6.792232e-06	
46	2.300000e+00	6.516619e-06	
47	2.350000e+00	6.242022e-06	
48	2.400000e+00	5.968405e-06	
49	2.450000e+00	5.695727e-06	
50	2.500000e+00	5.423938e-06	
51	2.550000e+00	5.152977e-06	
52	2.600000e+00	4.882774e-06	
53	2.650000e+00	4.613240e-06	
54	2.700000e+00	4.344277e-06	

Index   v-sweep         rds             
--------------------------------------------------------------------------------
55	2.750000e+00	4.075766e-06	
56	2.800000e+00	3.807583e-06	
57	2.850000e+00	3.539604e-06	
58	2.900000e+00	3.271741e-06	
59	2.950000e+00	3.004005e-06	
60	3.000000e+00	2.736619e-06	
61	3.050000e+00	2.470219e-06	
62	3.100000e+00	2.206153e-06	
63	3.150000e+00	1.946838e-06	
64	3.200000e+00	1.696053e-06	
65	3.250000e+00	1.458859e-06	
66	3.300000e+00	1.240879e-06	
67	3.350000e+00	1.047000e-06	
68	3.400000e+00	8.800653e-07	
69	3.450000e+00	7.403050e-07	
70	3.500000e+00	6.257063e-07	
71	3.550000e+00	5.329327e-07	
72	3.600000e+00	4.582410e-07	
73	3.650000e+00	3.980954e-07	
74	3.700000e+00	3.494584e-07	
75	3.750000e+00	3.098599e-07	
76	3.800000e+00	2.773528e-07	
77	3.850000e+00	2.504275e-07	
78	3.900000e+00	2.279211e-07	
79	3.950000e+00	2.089391e-07	
80	4.000000e+00	1.927907e-07	
81	4.050000e+00	1.789401e-07	
82	4.100000e+00	1.669687e-07	
83	4.150000e+00	1.565467e-07	
84	4.200000e+00	1.474128e-07	
85	4.250000e+00	1.393578e-07	
86	4.300000e+00	1.322132e-07	
87	4.350000e+00	1.258419e-07	
88	4.400000e+00	1.201318e-07	
89	4.450000e+00	1.149907e-07	
90	4.500000e+00	1.103418e-07	
91	4.550000e+00	1.061211e-07	
92	4.600000e+00	1.022749e-07	
93	4.650000e+00	9.875750e-08	
94	4.700000e+00	9.553039e-08	
95	4.750000e+00	9.256050e-08	
96	4.800000e+00	8.981948e-08	
97	4.850000e+00	8.728285e-08	
98	4.900000e+00	8.492940e-08	
99	4.950000e+00	8.274069e-08	
100	5.000000e+00	8.070058e-08	
101	5.050000e+00	7.879494e-08	
102	5.100000e+00	7.701132e-08	
103	5.150000e+00	7.533873e-08	
104	5.200000e+00	7.376740e-08	
105	5.250000e+00	7.228869e-08	
106	5.300000e+00	7.089487e-08	
107	5.350000e+00	6.957903e-08	
108	5.400000e+00	6.833497e-08	
109	5.450000e+00	6.715712e-08	
110	5.500000e+00	6.604048e-08	
111	5.550000e+00	6.498049e-08	
112	5.600000e+00	6.397306e-08	

Index   v-sweep         rds             
--------------------------------------------------------------------------------
113	5.650000e+00	6.301446e-08	
114	5.700000e+00	6.210131e-08	
115	5.750000e+00	6.123051e-08	
116	5.800000e+00	6.039925e-08	
117	5.850000e+00	5.960495e-08	
118	5.900000e+00	5.884525e-08	
119	5.950000e+00	5.811797e-08	
120	6.000000e+00	5.742114e-08	
121	6.050000e+00	5.675290e-08	
122	6.100000e+00	5.611157e-08	
123	6.150000e+00	5.549558e-08	
124	6.200000e+00	5.490348e-08	
125	6.250000e+00	5.433395e-08	
126	6.300000e+00	5.378572e-08	
127	6.350000e+00	5.325765e-08	
128	6.400000e+00	5.274867e-08	
129	6.450000e+00	5.225776e-08	
130	6.500000e+00	5.178401e-08	
131	6.550000e+00	5.132655e-08	
132	6.600000e+00	5.088455e-08	
Reset re-loads circuit ***************************

Circuit: ***************************

Doing analysis at TEMP = 25.000000 and TNOM = 25.000000


No. of Data Rows : 133
                          ***************************
                          DC transfer characteristic  Mon Jan  9 13:58:38  2023
--------------------------------------------------------------------------------
Index   v-sweep         rds             
--------------------------------------------------------------------------------
0	0.000000e+00	2.274719e-05	
1	5.000000e-02	2.244631e-05	
2	1.000000e-01	2.214665e-05	
3	1.500000e-01	2.184821e-05	
4	2.000000e-01	2.155099e-05	
5	2.500000e-01	2.125497e-05	
6	3.000000e-01	2.096015e-05	
7	3.500000e-01	2.066652e-05	
8	4.000000e-01	2.037408e-05	
9	4.500000e-01	2.008282e-05	
10	5.000000e-01	1.979274e-05	
11	5.500000e-01	1.950382e-05	
12	6.000000e-01	1.921607e-05	
13	6.500000e-01	1.892948e-05	
14	7.000000e-01	1.864403e-05	
15	7.500000e-01	1.835973e-05	
16	8.000000e-01	1.807657e-05	
17	8.500000e-01	1.779455e-05	
18	9.000000e-01	1.751365e-05	
19	9.500000e-01	1.723387e-05	
20	1.000000e+00	1.695520e-05	
21	1.050000e+00	1.667765e-05	
22	1.100000e+00	1.640120e-05	
23	1.150000e+00	1.612585e-05	
24	1.200000e+00	1.585159e-05	
25	1.250000e+00	1.557842e-05	
26	1.300000e+00	1.530633e-05	
27	1.350000e+00	1.503531e-05	
28	1.400000e+00	1.476536e-05	
29	1.450000e+00	1.449648e-05	
30	1.500000e+00	1.422866e-05	
31	1.550000e+00	1.396189e-05	
32	1.600000e+00	1.369616e-05	
33	1.650000e+00	1.343148e-05	
34	1.700000e+00	1.316783e-05	
35	1.750000e+00	1.290522e-05	
36	1.800000e+00	1.264362e-05	
37	1.850000e+00	1.238305e-05	
38	1.900000e+00	1.212349e-05	
39	1.950000e+00	1.186493e-05	
40	2.000000e+00	1.160737e-05	
41	2.050000e+00	1.135081e-05	
42	2.100000e+00	1.109524e-05	
43	2.150000e+00	1.084065e-05	
44	2.200000e+00	1.058703e-05	
45	2.250000e+00	1.033439e-05	
46	2.300000e+00	1.008270e-05	
47	2.350000e+00	9.831969e-06	
48	2.400000e+00	9.582184e-06	
49	2.450000e+00	9.333337e-06	
50	2.500000e+00	9.085421e-06	
51	2.550000e+00	8.838425e-06	
52	2.600000e+00	8.592339e-06	
53	2.650000e+00	8.347154e-06	
54	2.700000e+00	8.102857e-06	

Index   v-sweep         rds             
--------------------------------------------------------------------------------
55	2.750000e+00	7.859436e-06	
56	2.800000e+00	7.616874e-06	
57	2.850000e+00	7.375157e-06	
58	2.900000e+00	7.134265e-06	
59	2.950000e+00	6.894176e-06	
60	3.000000e+00	6.654865e-06	
61	3.050000e+00	6.416304e-06	
62	3.100000e+00	6.178457e-06	
63	3.150000e+00	5.941284e-06	
64	3.200000e+00	5.704736e-06	
65	3.250000e+00	5.468753e-06	
66	3.300000e+00	5.233265e-06	
67	3.350000e+00	4.998186e-06	
68	3.400000e+00	4.763412e-06	
69	3.450000e+00	4.528820e-06	
70	3.500000e+00	4.294260e-06	
71	3.550000e+00	4.059558e-06	
72	3.600000e+00	3.824516e-06	
73	3.650000e+00	3.588919e-06	
74	3.700000e+00	3.352560e-06	
75	3.750000e+00	3.115283e-06	
76	3.800000e+00	2.877071e-06	
77	3.850000e+00	2.638183e-06	
78	3.900000e+00	2.399371e-06	
79	3.950000e+00	2.162139e-06	
80	4.000000e+00	1.928987e-06	
81	4.050000e+00	1.703485e-06	
82	4.100000e+00	1.489987e-06	
83	4.150000e+00	1.292924e-06	
84	4.200000e+00	1.115886e-06	
85	4.250000e+00	9.608747e-07	
86	4.300000e+00	8.280752e-07	
87	4.350000e+00	7.161514e-07	
88	4.400000e+00	6.228151e-07	
89	4.450000e+00	5.453948e-07	
90	4.500000e+00	4.812468e-07	
91	4.550000e+00	4.279863e-07	
92	4.600000e+00	3.835771e-07	
93	4.650000e+00	3.463387e-07	
94	4.700000e+00	3.149114e-07	
95	4.750000e+00	2.882065e-07	
96	4.800000e+00	2.653569e-07	
97	4.850000e+00	2.456718e-07	
98	4.900000e+00	2.286006e-07	
99	4.950000e+00	2.137020e-07	
100	5.000000e+00	2.006211e-07	
101	5.050000e+00	1.890707e-07	
102	5.100000e+00	1.788172e-07	
103	5.150000e+00	1.696690e-07	
104	5.200000e+00	1.614686e-07	
105	5.250000e+00	1.540852e-07	
106	5.300000e+00	1.474100e-07	
107	5.350000e+00	1.413516e-07	
108	5.400000e+00	1.358330e-07	
109	5.450000e+00	1.307890e-07	
110	5.500000e+00	1.261639e-07	
111	5.550000e+00	1.219103e-07	
112	5.600000e+00	1.179871e-07	

Index   v-sweep         rds             
--------------------------------------------------------------------------------
113	5.650000e+00	1.143591e-07	
114	5.700000e+00	1.109956e-07	
115	5.750000e+00	1.078698e-07	
116	5.800000e+00	1.049585e-07	
117	5.850000e+00	1.022413e-07	
118	5.900000e+00	9.969992e-08	
119	5.950000e+00	9.731861e-08	
120	6.000000e+00	9.508321e-08	
121	6.050000e+00	9.298116e-08	
122	6.100000e+00	9.100128e-08	
123	6.150000e+00	8.913356e-08	
124	6.200000e+00	8.736903e-08	
125	6.250000e+00	8.569964e-08	
126	6.300000e+00	8.411810e-08	
127	6.350000e+00	8.261788e-08	
128	6.400000e+00	8.119302e-08	
129	6.450000e+00	7.983815e-08	
130	6.500000e+00	7.854836e-08	
131	6.550000e+00	7.731921e-08	
132	6.600000e+00	7.614661e-08	
Reset re-loads circuit ***************************

Circuit: ***************************

Note: No ".plot", ".print", or ".fourier" lines; no simulations run
