
Note: Compatibility modes selected: hs

Warning: m=xx on .subckt line will override multiplier m hierarchy!


Circuit: ***************************

Doing analysis at TEMP = 25.000000 and TNOM = 25.000000


No. of Data Rows : 133
                          ***************************
                          DC transfer characteristic  Mon Jan  9 13:58:37  2023
--------------------------------------------------------------------------------
Index   v-sweep         rds             
--------------------------------------------------------------------------------
0	0.000000e+00	3.376948e-05	
1	5.000000e-02	2.719282e-05	
2	1.000000e-01	2.068970e-05	
3	1.500000e-01	1.434923e-05	
4	2.000000e-01	8.478016e-06	
5	2.500000e-01	3.922472e-06	
6	3.000000e-01	1.520855e-06	
7	3.500000e-01	6.441346e-07	
8	4.000000e-01	3.412594e-07	
9	4.500000e-01	2.208429e-07	
10	5.000000e-01	1.644253e-07	
11	5.500000e-01	1.341250e-07	
12	6.000000e-01	1.160338e-07	
13	6.500000e-01	1.043162e-07	
14	7.000000e-01	9.623223e-08	
15	7.500000e-01	9.037162e-08	
16	8.000000e-01	8.595164e-08	
17	8.500000e-01	8.251005e-08	
18	9.000000e-01	7.975937e-08	
19	9.500000e-01	7.751279e-08	
20	1.000000e+00	7.564435e-08	
21	1.050000e+00	7.406635e-08	
22	1.100000e+00	7.271604e-08	
23	1.150000e+00	7.154740e-08	
24	1.200000e+00	7.052598e-08	
25	1.250000e+00	6.962549e-08	
26	1.300000e+00	6.882555e-08	
27	1.350000e+00	6.811010e-08	
28	1.400000e+00	6.746636e-08	
29	1.450000e+00	6.688397e-08	
30	1.500000e+00	6.635450e-08	
31	1.550000e+00	6.587102e-08	
32	1.600000e+00	6.542772e-08	
33	1.650000e+00	6.501978e-08	
34	1.700000e+00	6.464309e-08	
35	1.750000e+00	6.429418e-08	
36	1.800000e+00	6.397006e-08	
37	1.850000e+00	6.366817e-08	
38	1.900000e+00	6.338628e-08	
39	1.950000e+00	6.312246e-08	
40	2.000000e+00	6.287502e-08	
41	2.050000e+00	6.264248e-08	
42	2.100000e+00	6.242352e-08	
43	2.150000e+00	6.221698e-08	
44	2.200000e+00	6.202184e-08	
45	2.250000e+00	6.183717e-08	
46	2.300000e+00	6.166215e-08	
47	2.350000e+00	6.149605e-08	
48	2.400000e+00	6.133819e-08	
49	2.450000e+00	6.118798e-08	
50	2.500000e+00	6.104487e-08	
51	2.550000e+00	6.090838e-08	
52	2.600000e+00	6.077805e-08	
53	2.650000e+00	6.065349e-08	
54	2.700000e+00	6.053430e-08	

Index   v-sweep         rds             
--------------------------------------------------------------------------------
55	2.750000e+00	6.042016e-08	
56	2.800000e+00	6.031075e-08	
57	2.850000e+00	6.020579e-08	
58	2.900000e+00	6.010500e-08	
59	2.950000e+00	6.000815e-08	
60	3.000000e+00	5.991501e-08	
61	3.050000e+00	5.982537e-08	
62	3.100000e+00	5.973904e-08	
63	3.150000e+00	5.965583e-08	
64	3.200000e+00	5.957560e-08	
65	3.250000e+00	5.949817e-08	
66	3.300000e+00	5.942340e-08	
67	3.350000e+00	5.935117e-08	
68	3.400000e+00	5.928134e-08	
69	3.450000e+00	5.921380e-08	
70	3.500000e+00	5.914844e-08	
71	3.550000e+00	5.908515e-08	
72	3.600000e+00	5.902384e-08	
73	3.650000e+00	5.896441e-08	
74	3.700000e+00	5.890679e-08	
75	3.750000e+00	5.885090e-08	
76	3.800000e+00	5.879665e-08	
77	3.850000e+00	5.874397e-08	
78	3.900000e+00	5.869281e-08	
79	3.950000e+00	5.864309e-08	
80	4.000000e+00	5.859475e-08	
81	4.050000e+00	5.854775e-08	
82	4.100000e+00	5.850202e-08	
83	4.150000e+00	5.845752e-08	
84	4.200000e+00	5.841419e-08	
85	4.250000e+00	5.837200e-08	
86	4.300000e+00	5.833090e-08	
87	4.350000e+00	5.829084e-08	
88	4.400000e+00	5.825179e-08	
89	4.450000e+00	5.821371e-08	
90	4.500000e+00	5.817657e-08	
91	4.550000e+00	5.814032e-08	
92	4.600000e+00	5.810495e-08	
93	4.650000e+00	5.807042e-08	
94	4.700000e+00	5.803670e-08	
95	4.750000e+00	5.800377e-08	
96	4.800000e+00	5.797158e-08	
97	4.850000e+00	5.794013e-08	
98	4.900000e+00	5.790939e-08	
99	4.950000e+00	5.787933e-08	
100	5.000000e+00	5.784993e-08	
101	5.050000e+00	5.782117e-08	
102	5.100000e+00	5.779303e-08	
103	5.150000e+00	5.776549e-08	
104	5.200000e+00	5.773853e-08	
105	5.250000e+00	5.771214e-08	
106	5.300000e+00	5.768629e-08	
107	5.350000e+00	5.766097e-08	
108	5.400000e+00	5.763617e-08	
109	5.450000e+00	5.761186e-08	
110	5.500000e+00	5.758804e-08	
111	5.550000e+00	5.756469e-08	
112	5.600000e+00	5.754179e-08	

Index   v-sweep         rds             
--------------------------------------------------------------------------------
113	5.650000e+00	5.751934e-08	
114	5.700000e+00	5.749732e-08	
115	5.750000e+00	5.747572e-08	
116	5.800000e+00	5.745453e-08	
117	5.850000e+00	5.743373e-08	
118	5.900000e+00	5.741332e-08	
119	5.950000e+00	5.739328e-08	
120	6.000000e+00	5.737361e-08	
121	6.050000e+00	5.735429e-08	
122	6.100000e+00	5.733532e-08	
123	6.150000e+00	5.731669e-08	
124	6.200000e+00	5.729838e-08	
125	6.250000e+00	5.728040e-08	
126	6.300000e+00	5.726272e-08	
127	6.350000e+00	5.724535e-08	
128	6.400000e+00	5.722828e-08	
129	6.450000e+00	5.721150e-08	
130	6.500000e+00	5.719499e-08	
131	6.550000e+00	5.717877e-08	
132	6.600000e+00	5.716281e-08	
Reset re-loads circuit ***************************

Circuit: ***************************

Doing analysis at TEMP = 25.000000 and TNOM = 25.000000


No. of Data Rows : 133
                          ***************************
                          DC transfer characteristic  Mon Jan  9 13:58:37  2023
--------------------------------------------------------------------------------
Index   v-sweep         rds             
--------------------------------------------------------------------------------
0	0.000000e+00	1.351382e-04	
1	5.000000e-02	1.281005e-04	
2	1.000000e-01	1.210975e-04	
3	1.500000e-01	1.141291e-04	
4	2.000000e-01	1.071953e-04	
5	2.500000e-01	1.002959e-04	
6	3.000000e-01	9.343112e-05	
7	3.500000e-01	8.660110e-05	
8	4.000000e-01	7.980624e-05	
9	4.500000e-01	7.304726e-05	
10	5.000000e-01	6.632546e-05	
11	5.500000e-01	5.964315e-05	
12	6.000000e-01	5.300447e-05	
13	6.500000e-01	4.641710e-05	
14	7.000000e-01	3.989571e-05	
15	7.500000e-01	3.346930e-05	
16	8.000000e-01	2.719649e-05	
17	8.500000e-01	2.119426e-05	
18	9.000000e-01	1.567764e-05	
19	9.500000e-01	1.096423e-05	
20	1.000000e+00	7.346935e-06	
21	1.050000e+00	4.874458e-06	
22	1.100000e+00	3.319074e-06	
23	1.150000e+00	2.369559e-06	
24	1.200000e+00	1.782553e-06	
25	1.250000e+00	1.406759e-06	
26	1.300000e+00	1.155834e-06	
27	1.350000e+00	9.811936e-07	
28	1.400000e+00	8.549856e-07	
29	1.450000e+00	7.607213e-07	
30	1.500000e+00	6.882837e-07	
31	1.550000e+00	6.312417e-07	
32	1.600000e+00	5.853697e-07	
33	1.650000e+00	5.478062e-07	
34	1.700000e+00	5.165599e-07	
35	1.750000e+00	4.902109e-07	
36	1.800000e+00	4.677240e-07	
37	1.850000e+00	4.483298e-07	
38	1.900000e+00	4.314461e-07	
39	1.950000e+00	4.166252e-07	
40	2.000000e+00	4.035182e-07	
41	2.050000e+00	3.918490e-07	
42	2.100000e+00	3.813973e-07	
43	2.150000e+00	3.719845e-07	
44	2.200000e+00	3.634653e-07	
45	2.250000e+00	3.557197e-07	
46	2.300000e+00	3.486480e-07	
47	2.350000e+00	3.421669e-07	
48	2.400000e+00	3.362061e-07	
49	2.450000e+00	3.307059e-07	
50	2.500000e+00	3.256154e-07	
51	2.550000e+00	3.208907e-07	
52	2.600000e+00	3.164941e-07	
53	2.650000e+00	3.123929e-07	
54	2.700000e+00	3.085583e-07	

Index   v-sweep         rds             
--------------------------------------------------------------------------------
55	2.750000e+00	3.049653e-07	
56	2.800000e+00	3.015920e-07	
57	2.850000e+00	2.984189e-07	
58	2.900000e+00	2.954289e-07	
59	2.950000e+00	2.926064e-07	
60	3.000000e+00	2.899381e-07	
61	3.050000e+00	2.874115e-07	
62	3.100000e+00	2.850158e-07	
63	3.150000e+00	2.827410e-07	
64	3.200000e+00	2.805784e-07	
65	3.250000e+00	2.785198e-07	
66	3.300000e+00	2.765579e-07	
67	3.350000e+00	2.746861e-07	
68	3.400000e+00	2.728983e-07	
69	3.450000e+00	2.711891e-07	
70	3.500000e+00	2.695534e-07	
71	3.550000e+00	2.679865e-07	
72	3.600000e+00	2.664842e-07	
73	3.650000e+00	2.650427e-07	
74	3.700000e+00	2.636583e-07	
75	3.750000e+00	2.623277e-07	
76	3.800000e+00	2.610478e-07	
77	3.850000e+00	2.598159e-07	
78	3.900000e+00	2.586292e-07	
79	3.950000e+00	2.574853e-07	
80	4.000000e+00	2.563820e-07	
81	4.050000e+00	2.553171e-07	
82	4.100000e+00	2.542887e-07	
83	4.150000e+00	2.532950e-07	
84	4.200000e+00	2.523341e-07	
85	4.250000e+00	2.514046e-07	
86	4.300000e+00	2.505049e-07	
87	4.350000e+00	2.496337e-07	
88	4.400000e+00	2.487895e-07	
89	4.450000e+00	2.479711e-07	
90	4.500000e+00	2.471775e-07	
91	4.550000e+00	2.464074e-07	
92	4.600000e+00	2.456599e-07	
93	4.650000e+00	2.449340e-07	
94	4.700000e+00	2.442287e-07	
95	4.750000e+00	2.435433e-07	
96	4.800000e+00	2.428768e-07	
97	4.850000e+00	2.422285e-07	
98	4.900000e+00	2.415977e-07	
99	4.950000e+00	2.409837e-07	
100	5.000000e+00	2.403858e-07	
101	5.050000e+00	2.398034e-07	
102	5.100000e+00	2.392359e-07	
103	5.150000e+00	2.386827e-07	
104	5.200000e+00	2.381434e-07	
105	5.250000e+00	2.376173e-07	
106	5.300000e+00	2.371041e-07	
107	5.350000e+00	2.366032e-07	
108	5.400000e+00	2.361142e-07	
109	5.450000e+00	2.356367e-07	
110	5.500000e+00	2.351704e-07	
111	5.550000e+00	2.347147e-07	
112	5.600000e+00	2.342694e-07	

Index   v-sweep         rds             
--------------------------------------------------------------------------------
113	5.650000e+00	2.338341e-07	
114	5.700000e+00	2.334085e-07	
115	5.750000e+00	2.329922e-07	
116	5.800000e+00	2.325850e-07	
117	5.850000e+00	2.321866e-07	
118	5.900000e+00	2.317966e-07	
119	5.950000e+00	2.314149e-07	
120	6.000000e+00	2.310411e-07	
121	6.050000e+00	2.306750e-07	
122	6.100000e+00	2.303164e-07	
123	6.150000e+00	2.299651e-07	
124	6.200000e+00	2.296208e-07	
125	6.250000e+00	2.292834e-07	
126	6.300000e+00	2.289526e-07	
127	6.350000e+00	2.286282e-07	
128	6.400000e+00	2.283101e-07	
129	6.450000e+00	2.279980e-07	
130	6.500000e+00	2.276919e-07	
131	6.550000e+00	2.273915e-07	
132	6.600000e+00	2.270967e-07	
Reset re-loads circuit ***************************

Circuit: ***************************

Doing analysis at TEMP = 25.000000 and TNOM = 25.000000


No. of Data Rows : 133
                          ***************************
                          DC transfer characteristic  Mon Jan  9 13:58:37  2023
--------------------------------------------------------------------------------
Index   v-sweep         rds             
--------------------------------------------------------------------------------
0	0.000000e+00	2.203022e-04	
1	5.000000e-02	2.135742e-04	
2	1.000000e-01	2.068799e-04	
3	1.500000e-01	2.002189e-04	
4	2.000000e-01	1.935912e-04	
5	2.500000e-01	1.869964e-04	
6	3.000000e-01	1.804344e-04	
7	3.500000e-01	1.739051e-04	
8	4.000000e-01	1.674081e-04	
9	4.500000e-01	1.609433e-04	
10	5.000000e-01	1.545105e-04	
11	5.500000e-01	1.481095e-04	
12	6.000000e-01	1.417401e-04	
13	6.500000e-01	1.354021e-04	
14	7.000000e-01	1.290953e-04	
15	7.500000e-01	1.228196e-04	
16	8.000000e-01	1.165747e-04	
17	8.500000e-01	1.103605e-04	
18	9.000000e-01	1.041769e-04	
19	9.500000e-01	9.802375e-05	
20	1.000000e+00	9.190096e-05	
21	1.050000e+00	8.580856e-05	
22	1.100000e+00	7.974669e-05	
23	1.150000e+00	7.371577e-05	
24	1.200000e+00	6.771660e-05	
25	1.250000e+00	6.175083e-05	
26	1.300000e+00	5.582153e-05	
27	1.350000e+00	4.993461e-05	
28	1.400000e+00	4.410123e-05	
29	1.450000e+00	3.834267e-05	
30	1.500000e+00	3.269885e-05	
31	1.550000e+00	2.724184e-05	
32	1.600000e+00	2.209121e-05	
33	1.650000e+00	1.741663e-05	
34	1.700000e+00	1.340227e-05	
35	1.750000e+00	1.017015e-05	
36	1.800000e+00	7.718657e-06	
37	1.850000e+00	5.935600e-06	
38	1.900000e+00	4.663750e-06	
39	1.950000e+00	3.756945e-06	
40	2.000000e+00	3.102587e-06	
41	2.050000e+00	2.621544e-06	
42	2.100000e+00	2.260390e-06	
43	2.150000e+00	1.983442e-06	
44	2.200000e+00	1.766754e-06	
45	2.250000e+00	1.594047e-06	
46	2.300000e+00	1.454068e-06	
47	2.350000e+00	1.338892e-06	
48	2.400000e+00	1.242838e-06	
49	2.450000e+00	1.161758e-06	
50	2.500000e+00	1.092574e-06	
51	2.550000e+00	1.032966e-06	
52	2.600000e+00	9.811587e-07	
53	2.650000e+00	9.357746e-07	
54	2.700000e+00	8.957333e-07	

Index   v-sweep         rds             
--------------------------------------------------------------------------------
55	2.750000e+00	8.601767e-07	
56	2.800000e+00	8.284159e-07	
57	2.850000e+00	7.998926e-07	
58	2.900000e+00	7.741503e-07	
59	2.950000e+00	7.508123e-07	
60	3.000000e+00	7.295655e-07	
61	3.050000e+00	7.101480e-07	
62	3.100000e+00	6.923388e-07	
63	3.150000e+00	6.759504e-07	
64	3.200000e+00	6.608230e-07	
65	3.250000e+00	6.468194e-07	
66	3.300000e+00	6.338213e-07	
67	3.350000e+00	6.217261e-07	
68	3.400000e+00	6.104446e-07	
69	3.450000e+00	5.998988e-07	
70	3.500000e+00	5.900201e-07	
71	3.550000e+00	5.807481e-07	
72	3.600000e+00	5.720295e-07	
73	3.650000e+00	5.638169e-07	
74	3.700000e+00	5.560681e-07	
75	3.750000e+00	5.487454e-07	
76	3.800000e+00	5.418150e-07	
77	3.850000e+00	5.352467e-07	
78	3.900000e+00	5.290131e-07	
79	3.950000e+00	5.230896e-07	
80	4.000000e+00	5.174539e-07	
81	4.050000e+00	5.120857e-07	
82	4.100000e+00	5.069666e-07	
83	4.150000e+00	5.020799e-07	
84	4.200000e+00	4.974103e-07	
85	4.250000e+00	4.929437e-07	
86	4.300000e+00	4.886673e-07	
87	4.350000e+00	4.845693e-07	
88	4.400000e+00	4.806389e-07	
89	4.450000e+00	4.768661e-07	
90	4.500000e+00	4.732417e-07	
91	4.550000e+00	4.697572e-07	
92	4.600000e+00	4.664046e-07	
93	4.650000e+00	4.631768e-07	
94	4.700000e+00	4.600669e-07	
95	4.750000e+00	4.570687e-07	
96	4.800000e+00	4.541762e-07	
97	4.850000e+00	4.513840e-07	
98	4.900000e+00	4.486871e-07	
99	4.950000e+00	4.460806e-07	
100	5.000000e+00	4.435602e-07	
101	5.050000e+00	4.411216e-07	
102	5.100000e+00	4.387610e-07	
103	5.150000e+00	4.364747e-07	
104	5.200000e+00	4.342592e-07	
105	5.250000e+00	4.321115e-07	
106	5.300000e+00	4.300284e-07	
107	5.350000e+00	4.280070e-07	
108	5.400000e+00	4.260448e-07	
109	5.450000e+00	4.241390e-07	
110	5.500000e+00	4.222875e-07	
111	5.550000e+00	4.204878e-07	
112	5.600000e+00	4.187379e-07	

Index   v-sweep         rds             
--------------------------------------------------------------------------------
113	5.650000e+00	4.170358e-07	
114	5.700000e+00	4.153794e-07	
115	5.750000e+00	4.137671e-07	
116	5.800000e+00	4.121970e-07	
117	5.850000e+00	4.106677e-07	
118	5.900000e+00	4.091774e-07	
119	5.950000e+00	4.077248e-07	
120	6.000000e+00	4.063084e-07	
121	6.050000e+00	4.049269e-07	
122	6.100000e+00	4.035791e-07	
123	6.150000e+00	4.022637e-07	
124	6.200000e+00	4.009796e-07	
125	6.250000e+00	3.997257e-07	
126	6.300000e+00	3.985010e-07	
127	6.350000e+00	3.973044e-07	
128	6.400000e+00	3.961350e-07	
129	6.450000e+00	3.949919e-07	
130	6.500000e+00	3.938742e-07	
131	6.550000e+00	3.927811e-07	
132	6.600000e+00	3.917118e-07	
Reset re-loads circuit ***************************

Circuit: ***************************

Doing analysis at TEMP = 25.000000 and TNOM = 25.000000


No. of Data Rows : 133
                          ***************************
                          DC transfer characteristic  Mon Jan  9 13:58:37  2023
--------------------------------------------------------------------------------
Index   v-sweep         rds             
--------------------------------------------------------------------------------
0	0.000000e+00	2.877807e-04	
1	5.000000e-02	2.815400e-04	
2	1.000000e-01	2.753291e-04	
3	1.500000e-01	2.691479e-04	
4	2.000000e-01	2.629963e-04	
5	2.500000e-01	2.568740e-04	
6	3.000000e-01	2.507808e-04	
7	3.500000e-01	2.447166e-04	
8	4.000000e-01	2.386813e-04	
9	4.500000e-01	2.326746e-04	
10	5.000000e-01	2.266963e-04	
11	5.500000e-01	2.207463e-04	
12	6.000000e-01	2.148245e-04	
13	6.500000e-01	2.089305e-04	
14	7.000000e-01	2.030644e-04	
15	7.500000e-01	1.972258e-04	
16	8.000000e-01	1.914146e-04	
17	8.500000e-01	1.856307e-04	
18	9.000000e-01	1.798738e-04	
19	9.500000e-01	1.741439e-04	
20	1.000000e+00	1.684406e-04	
21	1.050000e+00	1.627638e-04	
22	1.100000e+00	1.571134e-04	
23	1.150000e+00	1.514891e-04	
24	1.200000e+00	1.458908e-04	
25	1.250000e+00	1.403182e-04	
26	1.300000e+00	1.347711e-04	
27	1.350000e+00	1.292492e-04	
28	1.400000e+00	1.237524e-04	
29	1.450000e+00	1.182804e-04	
30	1.500000e+00	1.128328e-04	
31	1.550000e+00	1.074094e-04	
32	1.600000e+00	1.020097e-04	
33	1.650000e+00	9.663337e-05	
34	1.700000e+00	9.127992e-05	
35	1.750000e+00	8.594883e-05	
36	1.800000e+00	8.063951e-05	
37	1.850000e+00	7.535135e-05	
38	1.900000e+00	7.008378e-05	
39	1.950000e+00	6.483642e-05	
40	2.000000e+00	5.960942e-05	
41	2.050000e+00	5.440414e-05	
42	2.100000e+00	4.922448e-05	
43	2.150000e+00	4.407941e-05	
44	2.200000e+00	3.898747e-05	
45	2.250000e+00	3.398388e-05	
46	2.300000e+00	2.912971e-05	
47	2.350000e+00	2.451907e-05	
48	2.400000e+00	2.027452e-05	
49	2.450000e+00	1.652159e-05	
50	2.500000e+00	1.334782e-05	
51	2.550000e+00	1.077213e-05	
52	2.600000e+00	8.746402e-06	
53	2.650000e+00	7.182743e-06	
54	2.700000e+00	5.984018e-06	

Index   v-sweep         rds             
--------------------------------------------------------------------------------
55	2.750000e+00	5.063054e-06	
56	2.800000e+00	4.349733e-06	
57	2.850000e+00	3.790870e-06	
58	2.900000e+00	3.347292e-06	
59	2.950000e+00	2.990470e-06	
60	3.000000e+00	2.699653e-06	
61	3.050000e+00	2.459663e-06	
62	3.100000e+00	2.259304e-06	
63	3.150000e+00	2.090225e-06	
64	3.200000e+00	1.946130e-06	
65	3.250000e+00	1.822212e-06	
66	3.300000e+00	1.714761e-06	
67	3.350000e+00	1.620884e-06	
68	3.400000e+00	1.538295e-06	
69	3.450000e+00	1.465176e-06	
70	3.500000e+00	1.400061e-06	
71	3.550000e+00	1.341765e-06	
72	3.600000e+00	1.289313e-06	
73	3.650000e+00	1.241905e-06	
74	3.700000e+00	1.198875e-06	
75	3.750000e+00	1.159664e-06	
76	3.800000e+00	1.123805e-06	
77	3.850000e+00	1.090898e-06	
78	3.900000e+00	1.060607e-06	
79	3.950000e+00	1.032640e-06	
80	4.000000e+00	1.006747e-06	
81	4.050000e+00	9.827137e-07	
82	4.100000e+00	9.603510e-07	
83	4.150000e+00	9.394955e-07	
84	4.200000e+00	9.200036e-07	
85	4.250000e+00	9.017491e-07	
86	4.300000e+00	8.846205e-07	
87	4.350000e+00	8.685192e-07	
88	4.400000e+00	8.533575e-07	
89	4.450000e+00	8.390572e-07	
90	4.500000e+00	8.255485e-07	
91	4.550000e+00	8.127687e-07	
92	4.600000e+00	8.006616e-07	
93	4.650000e+00	7.891763e-07	
94	4.700000e+00	7.782670e-07	
95	4.750000e+00	7.678923e-07	
96	4.800000e+00	7.580144e-07	
97	4.850000e+00	7.485991e-07	
98	4.900000e+00	7.396151e-07	
99	4.950000e+00	7.310341e-07	
100	5.000000e+00	7.228298e-07	
101	5.050000e+00	7.149783e-07	
102	5.100000e+00	7.074578e-07	
103	5.150000e+00	7.002480e-07	
104	5.200000e+00	6.933303e-07	
105	5.250000e+00	6.866876e-07	
106	5.300000e+00	6.803040e-07	
107	5.350000e+00	6.741648e-07	
108	5.400000e+00	6.682565e-07	
109	5.450000e+00	6.625664e-07	
110	5.500000e+00	6.570828e-07	
111	5.550000e+00	6.517948e-07	
112	5.600000e+00	6.466922e-07	

Index   v-sweep         rds             
--------------------------------------------------------------------------------
113	5.650000e+00	6.417656e-07	
114	5.700000e+00	6.370061e-07	
115	5.750000e+00	6.324055e-07	
116	5.800000e+00	6.279560e-07	
117	5.850000e+00	6.236504e-07	
118	5.900000e+00	6.194819e-07	
119	5.950000e+00	6.154441e-07	
120	6.000000e+00	6.115310e-07	
121	6.050000e+00	6.077370e-07	
122	6.100000e+00	6.040568e-07	
123	6.150000e+00	6.004854e-07	
124	6.200000e+00	5.970182e-07	
125	6.250000e+00	5.936506e-07	
126	6.300000e+00	5.903784e-07	
127	6.350000e+00	5.871978e-07	
128	6.400000e+00	5.841050e-07	
129	6.450000e+00	5.810964e-07	
130	6.500000e+00	5.781686e-07	
131	6.550000e+00	5.753185e-07	
132	6.600000e+00	5.725431e-07	
Reset re-loads circuit ***************************

Circuit: ***************************

Doing analysis at TEMP = 25.000000 and TNOM = 25.000000


No. of Data Rows : 133
                          ***************************
                          DC transfer characteristic  Mon Jan  9 13:58:37  2023
--------------------------------------------------------------------------------
Index   v-sweep         rds             
--------------------------------------------------------------------------------
0	0.000000e+00	3.383132e-04	
1	5.000000e-02	3.326465e-04	
2	1.000000e-01	3.270051e-04	
3	1.500000e-01	3.213887e-04	
4	2.000000e-01	3.157973e-04	
5	2.500000e-01	3.102307e-04	
6	3.000000e-01	3.046888e-04	
7	3.500000e-01	2.991715e-04	
8	4.000000e-01	2.936785e-04	
9	4.500000e-01	2.882098e-04	
10	5.000000e-01	2.827652e-04	
11	5.500000e-01	2.773447e-04	
12	6.000000e-01	2.719479e-04	
13	6.500000e-01	2.665749e-04	
14	7.000000e-01	2.612255e-04	
15	7.500000e-01	2.558995e-04	
16	8.000000e-01	2.505969e-04	
17	8.500000e-01	2.453174e-04	
18	9.000000e-01	2.400610e-04	
19	9.500000e-01	2.348276e-04	
20	1.000000e+00	2.296169e-04	
21	1.050000e+00	2.244289e-04	
22	1.100000e+00	2.192634e-04	
23	1.150000e+00	2.141202e-04	
24	1.200000e+00	2.089994e-04	
25	1.250000e+00	2.039007e-04	
26	1.300000e+00	1.988239e-04	
27	1.350000e+00	1.937691e-04	
28	1.400000e+00	1.887359e-04	
29	1.450000e+00	1.837243e-04	
30	1.500000e+00	1.787341e-04	
31	1.550000e+00	1.737653e-04	
32	1.600000e+00	1.688175e-04	
33	1.650000e+00	1.638908e-04	
34	1.700000e+00	1.589848e-04	
35	1.750000e+00	1.540995e-04	
36	1.800000e+00	1.492346e-04	
37	1.850000e+00	1.443901e-04	
38	1.900000e+00	1.395656e-04	
39	1.950000e+00	1.347609e-04	
40	2.000000e+00	1.299758e-04	
41	2.050000e+00	1.252100e-04	
42	2.100000e+00	1.204633e-04	
43	2.150000e+00	1.157351e-04	
44	2.200000e+00	1.110253e-04	
45	2.250000e+00	1.063332e-04	
46	2.300000e+00	1.016583e-04	
47	2.350000e+00	9.699998e-05	
48	2.400000e+00	9.235745e-05	
49	2.450000e+00	8.772975e-05	
50	2.500000e+00	8.311575e-05	
51	2.550000e+00	7.851411e-05	
52	2.600000e+00	7.392324e-05	
53	2.650000e+00	6.934129e-05	
54	2.700000e+00	6.476625e-05	

Index   v-sweep         rds             
--------------------------------------------------------------------------------
55	2.750000e+00	6.019616e-05	
56	2.800000e+00	5.562952e-05	
57	2.850000e+00	5.106635e-05	
58	2.900000e+00	4.650993e-05	
59	2.950000e+00	4.197010e-05	
60	3.000000e+00	3.746810e-05	
61	3.050000e+00	3.304298e-05	
62	3.100000e+00	2.875708e-05	
63	3.150000e+00	2.469601e-05	
64	3.200000e+00	2.095750e-05	
65	3.250000e+00	1.762901e-05	
66	3.300000e+00	1.476382e-05	
67	3.350000e+00	1.236909e-05	
68	3.400000e+00	1.041128e-05	
69	3.450000e+00	8.832416e-06	
70	3.500000e+00	7.566739e-06	
71	3.550000e+00	6.552038e-06	
72	3.600000e+00	5.735002e-06	
73	3.650000e+00	5.072463e-06	
74	3.700000e+00	4.530571e-06	
75	3.750000e+00	4.083215e-06	
76	3.800000e+00	3.710393e-06	
77	3.850000e+00	3.396787e-06	
78	3.900000e+00	3.130630e-06	
79	3.950000e+00	2.902829e-06	
80	4.000000e+00	2.706306e-06	
81	4.050000e+00	2.535510e-06	
82	4.100000e+00	2.386050e-06	
83	4.150000e+00	2.254425e-06	
84	4.200000e+00	2.137819e-06	
85	4.250000e+00	2.033951e-06	
86	4.300000e+00	1.940958e-06	
87	4.350000e+00	1.857307e-06	
88	4.400000e+00	1.781730e-06	
89	4.450000e+00	1.713166e-06	
90	4.500000e+00	1.650729e-06	
91	4.550000e+00	1.593668e-06	
92	4.600000e+00	1.541348e-06	
93	4.650000e+00	1.493224e-06	
94	4.700000e+00	1.448831e-06	
95	4.750000e+00	1.407769e-06	
96	4.800000e+00	1.369689e-06	
97	4.850000e+00	1.334288e-06	
98	4.900000e+00	1.301304e-06	
99	4.950000e+00	1.270506e-06	
100	5.000000e+00	1.241689e-06	
101	5.050000e+00	1.214674e-06	
102	5.100000e+00	1.189303e-06	
103	5.150000e+00	1.165433e-06	
104	5.200000e+00	1.142940e-06	
105	5.250000e+00	1.121711e-06	
106	5.300000e+00	1.101644e-06	
107	5.350000e+00	1.082650e-06	
108	5.400000e+00	1.064647e-06	
109	5.450000e+00	1.047560e-06	
110	5.500000e+00	1.031324e-06	
111	5.550000e+00	1.015877e-06	
112	5.600000e+00	1.001165e-06	

Index   v-sweep         rds             
--------------------------------------------------------------------------------
113	5.650000e+00	9.871384e-07	
114	5.700000e+00	9.737504e-07	
115	5.750000e+00	9.609596e-07	
116	5.800000e+00	9.487276e-07	
117	5.850000e+00	9.370194e-07	
118	5.900000e+00	9.258026e-07	
119	5.950000e+00	9.150475e-07	
120	6.000000e+00	9.047268e-07	
121	6.050000e+00	8.948149e-07	
122	6.100000e+00	8.852887e-07	
123	6.150000e+00	8.761263e-07	
124	6.200000e+00	8.673077e-07	
125	6.250000e+00	8.588142e-07	
126	6.300000e+00	8.506283e-07	
127	6.350000e+00	8.427341e-07	
128	6.400000e+00	8.351163e-07	
129	6.450000e+00	8.277610e-07	
130	6.500000e+00	8.206550e-07	
131	6.550000e+00	8.137860e-07	
132	6.600000e+00	8.071426e-07	
Reset re-loads circuit ***************************

Circuit: ***************************

Doing analysis at TEMP = 25.000000 and TNOM = 25.000000


No. of Data Rows : 133
                          ***************************
                          DC transfer characteristic  Mon Jan  9 13:58:37  2023
--------------------------------------------------------------------------------
Index   v-sweep         rds             
--------------------------------------------------------------------------------
0	0.000000e+00	3.739547e-04	
1	5.000000e-02	3.688895e-04	
2	1.000000e-01	3.638449e-04	
3	1.500000e-01	3.588208e-04	
4	2.000000e-01	3.538172e-04	
5	2.500000e-01	3.488339e-04	
6	3.000000e-01	3.438708e-04	
7	3.500000e-01	3.389279e-04	
8	4.000000e-01	3.340049e-04	
9	4.500000e-01	3.291019e-04	
10	5.000000e-01	3.242188e-04	
11	5.500000e-01	3.193553e-04	
12	6.000000e-01	3.145115e-04	
13	6.500000e-01	3.096871e-04	
14	7.000000e-01	3.048822e-04	
15	7.500000e-01	3.000966e-04	
16	8.000000e-01	2.953302e-04	
17	8.500000e-01	2.905830e-04	
18	9.000000e-01	2.858547e-04	
19	9.500000e-01	2.811454e-04	
20	1.000000e+00	2.764549e-04	
21	1.050000e+00	2.717832e-04	
22	1.100000e+00	2.671301e-04	
23	1.150000e+00	2.624955e-04	
24	1.200000e+00	2.578794e-04	
25	1.250000e+00	2.532816e-04	
26	1.300000e+00	2.487020e-04	
27	1.350000e+00	2.441406e-04	
28	1.400000e+00	2.395973e-04	
29	1.450000e+00	2.350719e-04	
30	1.500000e+00	2.305644e-04	
31	1.550000e+00	2.260747e-04	
32	1.600000e+00	2.216027e-04	
33	1.650000e+00	2.171482e-04	
34	1.700000e+00	2.127112e-04	
35	1.750000e+00	2.082916e-04	
36	1.800000e+00	2.038893e-04	
37	1.850000e+00	1.995042e-04	
38	1.900000e+00	1.951361e-04	
39	1.950000e+00	1.907851e-04	
40	2.000000e+00	1.864509e-04	
41	2.050000e+00	1.821335e-04	
42	2.100000e+00	1.778328e-04	
43	2.150000e+00	1.735486e-04	
44	2.200000e+00	1.692808e-04	
45	2.250000e+00	1.650294e-04	
46	2.300000e+00	1.607941e-04	
47	2.350000e+00	1.565749e-04	
48	2.400000e+00	1.523717e-04	
49	2.450000e+00	1.481841e-04	
50	2.500000e+00	1.440122e-04	
51	2.550000e+00	1.398557e-04	
52	2.600000e+00	1.357144e-04	
53	2.650000e+00	1.315881e-04	
54	2.700000e+00	1.274765e-04	

Index   v-sweep         rds             
--------------------------------------------------------------------------------
55	2.750000e+00	1.233795e-04	
56	2.800000e+00	1.192966e-04	
57	2.850000e+00	1.152276e-04	
58	2.900000e+00	1.111720e-04	
59	2.950000e+00	1.071293e-04	
60	3.000000e+00	1.030990e-04	
61	3.050000e+00	9.908042e-05	
62	3.100000e+00	9.507270e-05	
63	3.150000e+00	9.107491e-05	
64	3.200000e+00	8.708587e-05	
65	3.250000e+00	8.310417e-05	
66	3.300000e+00	7.912812e-05	
67	3.350000e+00	7.515564e-05	
68	3.400000e+00	7.118431e-05	
69	3.450000e+00	6.721125e-05	
70	3.500000e+00	6.323322e-05	
71	3.550000e+00	5.924678e-05	
72	3.600000e+00	5.524866e-05	
73	3.650000e+00	5.123666e-05	
74	3.700000e+00	4.721117e-05	
75	3.750000e+00	4.317779e-05	
76	3.800000e+00	3.915107e-05	
77	3.850000e+00	3.515920e-05	
78	3.900000e+00	3.124800e-05	
79	3.950000e+00	2.748145e-05	
80	4.000000e+00	2.393555e-05	
81	4.050000e+00	2.068492e-05	
82	4.100000e+00	1.778653e-05	
83	4.150000e+00	1.526808e-05	
84	4.200000e+00	1.312592e-05	
85	4.250000e+00	1.133184e-05	
86	4.300000e+00	9.843523e-06	
87	4.350000e+00	8.614131e-06	
88	4.400000e+00	7.598748e-06	
89	4.450000e+00	6.757700e-06	
90	4.500000e+00	6.057626e-06	
91	4.550000e+00	5.471293e-06	
92	4.600000e+00	4.976851e-06	
93	4.650000e+00	4.556913e-06	
94	4.700000e+00	4.197694e-06	
95	4.750000e+00	3.888257e-06	
96	4.800000e+00	3.619900e-06	
97	4.850000e+00	3.385670e-06	
98	4.900000e+00	3.179981e-06	
99	4.950000e+00	2.998318e-06	
100	5.000000e+00	2.837009e-06	
101	5.050000e+00	2.693051e-06	
102	5.100000e+00	2.563969e-06	
103	5.150000e+00	2.447715e-06	
104	5.200000e+00	2.342579e-06	
105	5.250000e+00	2.247129e-06	
106	5.300000e+00	2.160159e-06	
107	5.350000e+00	2.080644e-06	
108	5.400000e+00	2.007713e-06	
109	5.450000e+00	1.940621e-06	
110	5.500000e+00	1.878724e-06	
111	5.550000e+00	1.821469e-06	
112	5.600000e+00	1.768375e-06	

Index   v-sweep         rds             
--------------------------------------------------------------------------------
113	5.650000e+00	1.719022e-06	
114	5.700000e+00	1.673045e-06	
115	5.750000e+00	1.630121e-06	
116	5.800000e+00	1.589968e-06	
117	5.850000e+00	1.552335e-06	
118	5.900000e+00	1.517001e-06	
119	5.950000e+00	1.483768e-06	
120	6.000000e+00	1.452460e-06	
121	6.050000e+00	1.422920e-06	
122	6.100000e+00	1.395008e-06	
123	6.150000e+00	1.368596e-06	
124	6.200000e+00	1.343569e-06	
125	6.250000e+00	1.319826e-06	
126	6.300000e+00	1.297271e-06	
127	6.350000e+00	1.275822e-06	
128	6.400000e+00	1.255399e-06	
129	6.450000e+00	1.235934e-06	
130	6.500000e+00	1.217362e-06	
131	6.550000e+00	1.199625e-06	
132	6.600000e+00	1.182668e-06	
Reset re-loads circuit ***************************

Circuit: ***************************

Note: No ".plot", ".print", or ".fourier" lines; no simulations run
