
Note: Compatibility modes selected: hs

Warning: m=xx on .subckt line will override multiplier m hierarchy!


Circuit: ***************************

Doing analysis at TEMP = -40.000000 and TNOM = -40.000000


No. of Data Rows : 133
                          ***************************
                          DC transfer characteristic  Mon Jan  9 13:58:38  2023
--------------------------------------------------------------------------------
Index   v-sweep         rds             
--------------------------------------------------------------------------------
0	0.000000e+00	1.658061e-04	
1	5.000000e-02	1.087499e-04	
2	1.000000e-01	5.727298e-05	
3	1.500000e-01	2.246796e-05	
4	2.000000e-01	9.618917e-06	
5	2.500000e-01	5.792125e-06	
6	3.000000e-01	4.254359e-06	
7	3.500000e-01	3.436830e-06	
8	4.000000e-01	2.923705e-06	
9	4.500000e-01	2.568316e-06	
10	5.000000e-01	2.306136e-06	
11	5.500000e-01	2.104091e-06	
12	6.000000e-01	1.943318e-06	
13	6.500000e-01	1.812200e-06	
14	7.000000e-01	1.703156e-06	
15	7.500000e-01	1.611011e-06	
16	8.000000e-01	1.532102e-06	
17	8.500000e-01	1.463764e-06	
18	9.000000e-01	1.404005e-06	
19	9.500000e-01	1.351304e-06	
20	1.000000e+00	1.304485e-06	
21	1.050000e+00	1.262617e-06	
22	1.100000e+00	1.224958e-06	
23	1.150000e+00	1.190907e-06	
24	1.200000e+00	1.159972e-06	
25	1.250000e+00	1.131746e-06	
26	1.300000e+00	1.105892e-06	
27	1.350000e+00	1.082124e-06	
28	1.400000e+00	1.060203e-06	
29	1.450000e+00	1.039924e-06	
30	1.500000e+00	1.021109e-06	
31	1.550000e+00	1.003609e-06	
32	1.600000e+00	9.872913e-07	
33	1.650000e+00	9.720416e-07	
34	1.700000e+00	9.577596e-07	
35	1.750000e+00	9.443575e-07	
36	1.800000e+00	9.317574e-07	
37	1.850000e+00	9.198905e-07	
38	1.900000e+00	9.086956e-07	
39	1.950000e+00	8.981180e-07	
40	2.000000e+00	8.881089e-07	
41	2.050000e+00	8.786245e-07	
42	2.100000e+00	8.696253e-07	
43	2.150000e+00	8.610756e-07	
44	2.200000e+00	8.529432e-07	
45	2.250000e+00	8.451989e-07	
46	2.300000e+00	8.378161e-07	
47	2.350000e+00	8.307706e-07	
48	2.400000e+00	8.240403e-07	
49	2.450000e+00	8.176049e-07	
50	2.500000e+00	8.114458e-07	
51	2.550000e+00	8.055462e-07	
52	2.600000e+00	7.998902e-07	
53	2.650000e+00	7.944635e-07	
54	2.700000e+00	7.892528e-07	

Index   v-sweep         rds             
--------------------------------------------------------------------------------
55	2.750000e+00	7.842457e-07	
56	2.800000e+00	7.794308e-07	
57	2.850000e+00	7.747975e-07	
58	2.900000e+00	7.703361e-07	
59	2.950000e+00	7.660374e-07	
60	3.000000e+00	7.618929e-07	
61	3.050000e+00	7.578947e-07	
62	3.100000e+00	7.540355e-07	
63	3.150000e+00	7.503082e-07	
64	3.200000e+00	7.467065e-07	
65	3.250000e+00	7.432243e-07	
66	3.300000e+00	7.398560e-07	
67	3.350000e+00	7.365962e-07	
68	3.400000e+00	7.334399e-07	
69	3.450000e+00	7.303824e-07	
70	3.500000e+00	7.274194e-07	
71	3.550000e+00	7.245467e-07	
72	3.600000e+00	7.217603e-07	
73	3.650000e+00	7.190566e-07	
74	3.700000e+00	7.164320e-07	
75	3.750000e+00	7.138833e-07	
76	3.800000e+00	7.114073e-07	
77	3.850000e+00	7.090011e-07	
78	3.900000e+00	7.066619e-07	
79	3.950000e+00	7.043871e-07	
80	4.000000e+00	7.021740e-07	
81	4.050000e+00	7.000205e-07	
82	4.100000e+00	6.979241e-07	
83	4.150000e+00	6.958827e-07	
84	4.200000e+00	6.938943e-07	
85	4.250000e+00	6.919569e-07	
86	4.300000e+00	6.900687e-07	
87	4.350000e+00	6.882279e-07	
88	4.400000e+00	6.864328e-07	
89	4.450000e+00	6.846818e-07	
90	4.500000e+00	6.829734e-07	
91	4.550000e+00	6.813062e-07	
92	4.600000e+00	6.796786e-07	
93	4.650000e+00	6.780895e-07	
94	4.700000e+00	6.765374e-07	
95	4.750000e+00	6.750213e-07	
96	4.800000e+00	6.735399e-07	
97	4.850000e+00	6.720920e-07	
98	4.900000e+00	6.706767e-07	
99	4.950000e+00	6.692929e-07	
100	5.000000e+00	6.679396e-07	
101	5.050000e+00	6.666159e-07	
102	5.100000e+00	6.653208e-07	
103	5.150000e+00	6.640535e-07	
104	5.200000e+00	6.628132e-07	
105	5.250000e+00	6.615991e-07	
106	5.300000e+00	6.604103e-07	
107	5.350000e+00	6.592461e-07	
108	5.400000e+00	6.581059e-07	
109	5.450000e+00	6.569889e-07	
110	5.500000e+00	6.558944e-07	
111	5.550000e+00	6.548219e-07	
112	5.600000e+00	6.537707e-07	

Index   v-sweep         rds             
--------------------------------------------------------------------------------
113	5.650000e+00	6.527403e-07	
114	5.700000e+00	6.517300e-07	
115	5.750000e+00	6.507393e-07	
116	5.800000e+00	6.497677e-07	
117	5.850000e+00	6.488147e-07	
118	5.900000e+00	6.478797e-07	
119	5.950000e+00	6.469624e-07	
120	6.000000e+00	6.460621e-07	
121	6.050000e+00	6.451786e-07	
122	6.100000e+00	6.443113e-07	
123	6.150000e+00	6.434599e-07	
124	6.200000e+00	6.426240e-07	
125	6.250000e+00	6.418031e-07	
126	6.300000e+00	6.409968e-07	
127	6.350000e+00	6.402049e-07	
128	6.400000e+00	6.394270e-07	
129	6.450000e+00	6.386627e-07	
130	6.500000e+00	6.379117e-07	
131	6.550000e+00	6.371737e-07	
132	6.600000e+00	6.364483e-07	
Reset re-loads circuit ***************************

Circuit: ***************************

Doing analysis at TEMP = -40.000000 and TNOM = -40.000000


No. of Data Rows : 133
                          ***************************
                          DC transfer characteristic  Mon Jan  9 13:58:38  2023
--------------------------------------------------------------------------------
Index   v-sweep         rds             
--------------------------------------------------------------------------------
0	0.000000e+00	9.031482e-04	
1	5.000000e-02	8.335157e-04	
2	1.000000e-01	7.659050e-04	
3	1.500000e-01	7.002456e-04	
4	2.000000e-01	6.364690e-04	
5	2.500000e-01	5.745087e-04	
6	3.000000e-01	5.142995e-04	
7	3.500000e-01	4.557773e-04	
8	4.000000e-01	3.988779e-04	
9	4.500000e-01	3.435404e-04	
10	5.000000e-01	2.897330e-04	
11	5.500000e-01	2.375806e-04	
12	6.000000e-01	1.878145e-04	
13	6.500000e-01	1.426457e-04	
14	7.000000e-01	1.055851e-04	
15	7.500000e-01	7.852089e-05	
16	8.000000e-01	6.010264e-05	
17	8.500000e-01	4.770264e-05	
18	9.000000e-01	3.915249e-05	
19	9.500000e-01	3.304526e-05	
20	1.000000e+00	2.852584e-05	
21	1.050000e+00	2.507385e-05	
22	1.100000e+00	2.236449e-05	
23	1.150000e+00	2.018836e-05	
24	1.200000e+00	1.840598e-05	
25	1.250000e+00	1.692155e-05	
26	1.300000e+00	1.566748e-05	
27	1.350000e+00	1.459483e-05	
28	1.400000e+00	1.366743e-05	
29	1.450000e+00	1.285803e-05	
30	1.500000e+00	1.214569e-05	
31	1.550000e+00	1.151412e-05	
32	1.600000e+00	1.095045e-05	
33	1.650000e+00	1.044438e-05	
34	1.700000e+00	9.987570e-06	
35	1.750000e+00	9.573226e-06	
36	1.800000e+00	9.195725e-06	
37	1.850000e+00	8.850395e-06	
38	1.900000e+00	8.533316e-06	
39	1.950000e+00	8.241178e-06	
40	2.000000e+00	7.971165e-06	
41	2.050000e+00	7.720869e-06	
42	2.100000e+00	7.488218e-06	
43	2.150000e+00	7.271418e-06	
44	2.200000e+00	7.068910e-06	
45	2.250000e+00	6.879333e-06	
46	2.300000e+00	6.701492e-06	
47	2.350000e+00	6.534335e-06	
48	2.400000e+00	6.376931e-06	
49	2.450000e+00	6.228454e-06	
50	2.500000e+00	6.088169e-06	
51	2.550000e+00	5.955418e-06	
52	2.600000e+00	5.829614e-06	
53	2.650000e+00	5.710227e-06	
54	2.700000e+00	5.596780e-06	

Index   v-sweep         rds             
--------------------------------------------------------------------------------
55	2.750000e+00	5.488842e-06	
56	2.800000e+00	5.386023e-06	
57	2.850000e+00	5.287969e-06	
58	2.900000e+00	5.194357e-06	
59	2.950000e+00	5.104893e-06	
60	3.000000e+00	5.019309e-06	
61	3.050000e+00	4.937358e-06	
62	3.100000e+00	4.858815e-06	
63	3.150000e+00	4.783472e-06	
64	3.200000e+00	4.711138e-06	
65	3.250000e+00	4.641638e-06	
66	3.300000e+00	4.574809e-06	
67	3.350000e+00	4.510499e-06	
68	3.400000e+00	4.448571e-06	
69	3.450000e+00	4.388894e-06	
70	3.500000e+00	4.331348e-06	
71	3.550000e+00	4.275822e-06	
72	3.600000e+00	4.222212e-06	
73	3.650000e+00	4.170420e-06	
74	3.700000e+00	4.120356e-06	
75	3.750000e+00	4.071936e-06	
76	3.800000e+00	4.025079e-06	
77	3.850000e+00	3.979713e-06	
78	3.900000e+00	3.935766e-06	
79	3.950000e+00	3.893175e-06	
80	4.000000e+00	3.851876e-06	
81	4.050000e+00	3.811814e-06	
82	4.100000e+00	3.772932e-06	
83	4.150000e+00	3.735181e-06	
84	4.200000e+00	3.698511e-06	
85	4.250000e+00	3.662878e-06	
86	4.300000e+00	3.628237e-06	
87	4.350000e+00	3.594549e-06	
88	4.400000e+00	3.561775e-06	
89	4.450000e+00	3.529878e-06	
90	4.500000e+00	3.498824e-06	
91	4.550000e+00	3.468580e-06	
92	4.600000e+00	3.439115e-06	
93	4.650000e+00	3.410400e-06	
94	4.700000e+00	3.382405e-06	
95	4.750000e+00	3.355106e-06	
96	4.800000e+00	3.328476e-06	
97	4.850000e+00	3.302491e-06	
98	4.900000e+00	3.277129e-06	
99	4.950000e+00	3.252366e-06	
100	5.000000e+00	3.228184e-06	
101	5.050000e+00	3.204560e-06	
102	5.100000e+00	3.181478e-06	
103	5.150000e+00	3.158917e-06	
104	5.200000e+00	3.136862e-06	
105	5.250000e+00	3.115295e-06	
106	5.300000e+00	3.094200e-06	
107	5.350000e+00	3.073563e-06	
108	5.400000e+00	3.053368e-06	
109	5.450000e+00	3.033602e-06	
110	5.500000e+00	3.014251e-06	
111	5.550000e+00	2.995303e-06	
112	5.600000e+00	2.976746e-06	

Index   v-sweep         rds             
--------------------------------------------------------------------------------
113	5.650000e+00	2.958566e-06	
114	5.700000e+00	2.940754e-06	
115	5.750000e+00	2.923298e-06	
116	5.800000e+00	2.906188e-06	
117	5.850000e+00	2.889414e-06	
118	5.900000e+00	2.872966e-06	
119	5.950000e+00	2.856835e-06	
120	6.000000e+00	2.841011e-06	
121	6.050000e+00	2.825487e-06	
122	6.100000e+00	2.810254e-06	
123	6.150000e+00	2.795304e-06	
124	6.200000e+00	2.780629e-06	
125	6.250000e+00	2.766222e-06	
126	6.300000e+00	2.752076e-06	
127	6.350000e+00	2.738184e-06	
128	6.400000e+00	2.724539e-06	
129	6.450000e+00	2.711134e-06	
130	6.500000e+00	2.697964e-06	
131	6.550000e+00	2.685023e-06	
132	6.600000e+00	2.672304e-06	
Reset re-loads circuit ***************************

Circuit: ***************************

Doing analysis at TEMP = -40.000000 and TNOM = -40.000000


No. of Data Rows : 133
                          ***************************
                          DC transfer characteristic  Mon Jan  9 13:58:38  2023
--------------------------------------------------------------------------------
Index   v-sweep         rds             
--------------------------------------------------------------------------------
0	0.000000e+00	1.469441e-03	
1	5.000000e-02	1.395316e-03	
2	1.000000e-01	1.323286e-03	
3	1.500000e-01	1.253277e-03	
4	2.000000e-01	1.185221e-03	
5	2.500000e-01	1.119048e-03	
6	3.000000e-01	1.054690e-03	
7	3.500000e-01	9.920812e-04	
8	4.000000e-01	9.311551e-04	
9	4.500000e-01	8.718463e-04	
10	5.000000e-01	8.140884e-04	
11	5.500000e-01	7.578122e-04	
12	6.000000e-01	7.029419e-04	
13	6.500000e-01	6.493883e-04	
14	7.000000e-01	5.970384e-04	
15	7.500000e-01	5.457372e-04	
16	8.000000e-01	4.952589e-04	
17	8.500000e-01	4.452683e-04	
18	9.000000e-01	3.952915e-04	
19	9.500000e-01	3.447895e-04	
20	1.000000e+00	2.935658e-04	
21	1.050000e+00	2.426951e-04	
22	1.100000e+00	1.951781e-04	
23	1.150000e+00	1.546080e-04	
24	1.200000e+00	1.227116e-04	
25	1.250000e+00	9.883975e-05	
26	1.300000e+00	8.124820e-05	
27	1.350000e+00	6.820271e-05	
28	1.400000e+00	5.836410e-05	
29	1.450000e+00	5.079046e-05	
30	1.500000e+00	4.483867e-05	
31	1.550000e+00	4.007014e-05	
32	1.600000e+00	3.618223e-05	
33	1.650000e+00	3.296254e-05	
34	1.700000e+00	3.025917e-05	
35	1.750000e+00	2.796144e-05	
36	1.800000e+00	2.598725e-05	
37	1.850000e+00	2.427466e-05	
38	1.900000e+00	2.277622e-05	
39	1.950000e+00	2.145504e-05	
40	2.000000e+00	2.028210e-05	
41	2.050000e+00	1.923424e-05	
42	2.100000e+00	1.829284e-05	
43	2.150000e+00	1.744272e-05	
44	2.200000e+00	1.667143e-05	
45	2.250000e+00	1.596865e-05	
46	2.300000e+00	1.532576e-05	
47	2.350000e+00	1.473551e-05	
48	2.400000e+00	1.419178e-05	
49	2.450000e+00	1.368932e-05	
50	2.500000e+00	1.322368e-05	
51	2.550000e+00	1.279098e-05	
52	2.600000e+00	1.238788e-05	
53	2.650000e+00	1.201147e-05	
54	2.700000e+00	1.165921e-05	

Index   v-sweep         rds             
--------------------------------------------------------------------------------
55	2.750000e+00	1.132887e-05	
56	2.800000e+00	1.101848e-05	
57	2.850000e+00	1.072629e-05	
58	2.900000e+00	1.045078e-05	
59	2.950000e+00	1.019055e-05	
60	3.000000e+00	9.944376e-06	
61	3.050000e+00	9.711163e-06	
62	3.100000e+00	9.489916e-06	
63	3.150000e+00	9.279744e-06	
64	3.200000e+00	9.079841e-06	
65	3.250000e+00	8.889476e-06	
66	3.300000e+00	8.707986e-06	
67	3.350000e+00	8.534768e-06	
68	3.400000e+00	8.369272e-06	
69	3.450000e+00	8.210996e-06	
70	3.500000e+00	8.059480e-06	
71	3.550000e+00	7.914302e-06	
72	3.600000e+00	7.775074e-06	
73	3.650000e+00	7.641440e-06	
74	3.700000e+00	7.513071e-06	
75	3.750000e+00	7.389663e-06	
76	3.800000e+00	7.270935e-06	
77	3.850000e+00	7.156627e-06	
78	3.900000e+00	7.046499e-06	
79	3.950000e+00	6.940325e-06	
80	4.000000e+00	6.837898e-06	
81	4.050000e+00	6.739023e-06	
82	4.100000e+00	6.643521e-06	
83	4.150000e+00	6.551222e-06	
84	4.200000e+00	6.461967e-06	
85	4.250000e+00	6.375611e-06	
86	4.300000e+00	6.292014e-06	
87	4.350000e+00	6.211047e-06	
88	4.400000e+00	6.132589e-06	
89	4.450000e+00	6.056525e-06	
90	4.500000e+00	5.982748e-06	
91	4.550000e+00	5.911157e-06	
92	4.600000e+00	5.841656e-06	
93	4.650000e+00	5.774156e-06	
94	4.700000e+00	5.708573e-06	
95	4.750000e+00	5.644826e-06	
96	4.800000e+00	5.582840e-06	
97	4.850000e+00	5.522543e-06	
98	4.900000e+00	5.463868e-06	
99	4.950000e+00	5.406750e-06	
100	5.000000e+00	5.351129e-06	
101	5.050000e+00	5.296948e-06	
102	5.100000e+00	5.244151e-06	
103	5.150000e+00	5.192687e-06	
104	5.200000e+00	5.142506e-06	
105	5.250000e+00	5.093562e-06	
106	5.300000e+00	5.045809e-06	
107	5.350000e+00	4.999206e-06	
108	5.400000e+00	4.953711e-06	
109	5.450000e+00	4.909286e-06	
110	5.500000e+00	4.865895e-06	
111	5.550000e+00	4.823501e-06	
112	5.600000e+00	4.782072e-06	

Index   v-sweep         rds             
--------------------------------------------------------------------------------
113	5.650000e+00	4.741575e-06	
114	5.700000e+00	4.701979e-06	
115	5.750000e+00	4.663256e-06	
116	5.800000e+00	4.625377e-06	
117	5.850000e+00	4.588315e-06	
118	5.900000e+00	4.552045e-06	
119	5.950000e+00	4.516542e-06	
120	6.000000e+00	4.481782e-06	
121	6.050000e+00	4.447743e-06	
122	6.100000e+00	4.414402e-06	
123	6.150000e+00	4.381740e-06	
124	6.200000e+00	4.349735e-06	
125	6.250000e+00	4.318369e-06	
126	6.300000e+00	4.287622e-06	
127	6.350000e+00	4.257479e-06	
128	6.400000e+00	4.227920e-06	
129	6.450000e+00	4.198929e-06	
130	6.500000e+00	4.170492e-06	
131	6.550000e+00	4.142592e-06	
132	6.600000e+00	4.115214e-06	
Reset re-loads circuit ***************************

Circuit: ***************************

Doing analysis at TEMP = -40.000000 and TNOM = -40.000000


No. of Data Rows : 133
                          ***************************
                          DC transfer characteristic  Mon Jan  9 13:58:38  2023
--------------------------------------------------------------------------------
Index   v-sweep         rds             
--------------------------------------------------------------------------------
0	0.000000e+00	1.898042e-03	
1	5.000000e-02	1.823595e-03	
2	1.000000e-01	1.751090e-03	
3	1.500000e-01	1.680468e-03	
4	2.000000e-01	1.611668e-03	
5	2.500000e-01	1.544633e-03	
6	3.000000e-01	1.479306e-03	
7	3.500000e-01	1.415630e-03	
8	4.000000e-01	1.353551e-03	
9	4.500000e-01	1.293014e-03	
10	5.000000e-01	1.233966e-03	
11	5.500000e-01	1.176355e-03	
12	6.000000e-01	1.120132e-03	
13	6.500000e-01	1.065246e-03	
14	7.000000e-01	1.011648e-03	
15	7.500000e-01	9.592869e-04	
16	8.000000e-01	9.081103e-04	
17	8.500000e-01	8.580595e-04	
18	9.000000e-01	8.090668e-04	
19	9.500000e-01	7.610487e-04	
20	1.000000e+00	7.138964e-04	
21	1.050000e+00	6.674602e-04	
22	1.100000e+00	6.215262e-04	
23	1.150000e+00	5.757818e-04	
24	1.200000e+00	5.297738e-04	
25	1.250000e+00	4.828777e-04	
26	1.300000e+00	4.343538e-04	
27	1.350000e+00	3.836490e-04	
28	1.400000e+00	3.311014e-04	
29	1.450000e+00	2.787224e-04	
30	1.500000e+00	2.299451e-04	
31	1.550000e+00	1.878945e-04	
32	1.600000e+00	1.538455e-04	
33	1.650000e+00	1.272817e-04	
34	1.700000e+00	1.068449e-04	
35	1.750000e+00	9.109595e-05	
36	1.800000e+00	7.883474e-05	
37	1.850000e+00	6.915330e-05	
38	1.900000e+00	6.139124e-05	
39	1.950000e+00	5.507381e-05	
40	2.000000e+00	4.985898e-05	
41	2.050000e+00	4.549801e-05	
42	2.100000e+00	4.180784e-05	
43	2.150000e+00	3.865183e-05	
44	2.200000e+00	3.592663e-05	
45	2.250000e+00	3.355295e-05	
46	2.300000e+00	3.146925e-05	
47	2.350000e+00	2.962710e-05	
48	2.400000e+00	2.798803e-05	
49	2.450000e+00	2.652110e-05	
50	2.500000e+00	2.520124e-05	
51	2.550000e+00	2.400789e-05	
52	2.600000e+00	2.292410e-05	
53	2.650000e+00	2.193574e-05	
54	2.700000e+00	2.103098e-05	

Index   v-sweep         rds             
--------------------------------------------------------------------------------
55	2.750000e+00	2.019984e-05	
56	2.800000e+00	1.943385e-05	
57	2.850000e+00	1.872574e-05	
58	2.900000e+00	1.806930e-05	
59	2.950000e+00	1.745916e-05	
60	3.000000e+00	1.689065e-05	
61	3.050000e+00	1.635971e-05	
62	3.100000e+00	1.586279e-05	
63	3.150000e+00	1.539674e-05	
64	3.200000e+00	1.495882e-05	
65	3.250000e+00	1.454658e-05	
66	3.300000e+00	1.415785e-05	
67	3.350000e+00	1.379069e-05	
68	3.400000e+00	1.344338e-05	
69	3.450000e+00	1.311437e-05	
70	3.500000e+00	1.280225e-05	
71	3.550000e+00	1.250577e-05	
72	3.600000e+00	1.222380e-05	
73	3.650000e+00	1.195530e-05	
74	3.700000e+00	1.169934e-05	
75	3.750000e+00	1.145506e-05	
76	3.800000e+00	1.122170e-05	
77	3.850000e+00	1.099854e-05	
78	3.900000e+00	1.078492e-05	
79	3.950000e+00	1.058026e-05	
80	4.000000e+00	1.038401e-05	
81	4.050000e+00	1.019566e-05	
82	4.100000e+00	1.001475e-05	
83	4.150000e+00	9.840853e-06	
84	4.200000e+00	9.673562e-06	
85	4.250000e+00	9.512516e-06	
86	4.300000e+00	9.357374e-06	
87	4.350000e+00	9.207817e-06	
88	4.400000e+00	9.063552e-06	
89	4.450000e+00	8.924305e-06	
90	4.500000e+00	8.789819e-06	
91	4.550000e+00	8.659857e-06	
92	4.600000e+00	8.534195e-06	
93	4.650000e+00	8.412625e-06	
94	4.700000e+00	8.294951e-06	
95	4.750000e+00	8.180991e-06	
96	4.800000e+00	8.070572e-06	
97	4.850000e+00	7.963533e-06	
98	4.900000e+00	7.859722e-06	
99	4.950000e+00	7.758997e-06	
100	5.000000e+00	7.661223e-06	
101	5.050000e+00	7.566274e-06	
102	5.100000e+00	7.474029e-06	
103	5.150000e+00	7.384377e-06	
104	5.200000e+00	7.297209e-06	
105	5.250000e+00	7.212426e-06	
106	5.300000e+00	7.129932e-06	
107	5.350000e+00	7.049636e-06	
108	5.400000e+00	6.971453e-06	
109	5.450000e+00	6.895301e-06	
110	5.500000e+00	6.821104e-06	
111	5.550000e+00	6.748787e-06	
112	5.600000e+00	6.678282e-06	

Index   v-sweep         rds             
--------------------------------------------------------------------------------
113	5.650000e+00	6.609522e-06	
114	5.700000e+00	6.542444e-06	
115	5.750000e+00	6.476988e-06	
116	5.800000e+00	6.413098e-06	
117	5.850000e+00	6.350717e-06	
118	5.900000e+00	6.289795e-06	
119	5.950000e+00	6.230282e-06	
120	6.000000e+00	6.172131e-06	
121	6.050000e+00	6.115296e-06	
122	6.100000e+00	6.059734e-06	
123	6.150000e+00	6.005403e-06	
124	6.200000e+00	5.952265e-06	
125	6.250000e+00	5.900281e-06	
126	6.300000e+00	5.849415e-06	
127	6.350000e+00	5.799633e-06	
128	6.400000e+00	5.750900e-06	
129	6.450000e+00	5.703185e-06	
130	6.500000e+00	5.656458e-06	
131	6.550000e+00	5.610688e-06	
132	6.600000e+00	5.565848e-06	
Reset re-loads circuit ***************************

Circuit: ***************************

Doing analysis at TEMP = -40.000000 and TNOM = -40.000000


No. of Data Rows : 133
                          ***************************
                          DC transfer characteristic  Mon Jan  9 13:58:38  2023
--------------------------------------------------------------------------------
Index   v-sweep         rds             
--------------------------------------------------------------------------------
0	0.000000e+00	2.205040e-03	
1	5.000000e-02	2.133592e-03	
2	1.000000e-01	2.063829e-03	
3	1.500000e-01	1.995705e-03	
4	2.000000e-01	1.929174e-03	
5	2.500000e-01	1.864190e-03	
6	3.000000e-01	1.800709e-03	
7	3.500000e-01	1.738687e-03	
8	4.000000e-01	1.678081e-03	
9	4.500000e-01	1.618848e-03	
10	5.000000e-01	1.560947e-03	
11	5.500000e-01	1.504337e-03	
12	6.000000e-01	1.448978e-03	
13	6.500000e-01	1.394831e-03	
14	7.000000e-01	1.341858e-03	
15	7.500000e-01	1.290022e-03	
16	8.000000e-01	1.239290e-03	
17	8.500000e-01	1.189624e-03	
18	9.000000e-01	1.140993e-03	
19	9.500000e-01	1.093360e-03	
20	1.000000e+00	1.046692e-03	
21	1.050000e+00	1.000950e-03	
22	1.100000e+00	9.560948e-04	
23	1.150000e+00	9.120791e-04	
24	1.200000e+00	8.688473e-04	
25	1.250000e+00	8.263291e-04	
26	1.300000e+00	7.844328e-04	
27	1.350000e+00	7.430337e-04	
28	1.400000e+00	7.019579e-04	
29	1.450000e+00	6.609583e-04	
30	1.500000e+00	6.196826e-04	
31	1.550000e+00	5.776390e-04	
32	1.600000e+00	5.341780e-04	
33	1.650000e+00	4.885536e-04	
34	1.700000e+00	4.401714e-04	
35	1.750000e+00	3.891217e-04	
36	1.800000e+00	3.368098e-04	
37	1.850000e+00	2.860084e-04	
38	1.900000e+00	2.398297e-04	
39	1.950000e+00	2.003379e-04	
40	2.000000e+00	1.680180e-04	
41	2.050000e+00	1.422060e-04	
42	2.100000e+00	1.217684e-04	
43	2.150000e+00	1.055555e-04	
44	2.200000e+00	9.259221e-05	
45	2.250000e+00	8.211401e-05	
46	2.300000e+00	7.354268e-05	
47	2.350000e+00	6.644642e-05	
48	2.400000e+00	6.050323e-05	
49	2.450000e+00	5.547168e-05	
50	2.500000e+00	5.116924e-05	
51	2.550000e+00	4.745647e-05	
52	2.600000e+00	4.422567e-05	
53	2.650000e+00	4.139280e-05	
54	2.700000e+00	3.889152e-05	

Index   v-sweep         rds             
--------------------------------------------------------------------------------
55	2.750000e+00	3.666897e-05	
56	2.800000e+00	3.468259e-05	
57	2.850000e+00	3.289784e-05	
58	2.900000e+00	3.128640e-05	
59	2.950000e+00	2.982488e-05	
60	3.000000e+00	2.849384e-05	
61	3.050000e+00	2.727698e-05	
62	3.100000e+00	2.616054e-05	
63	3.150000e+00	2.513285e-05	
64	3.200000e+00	2.418395e-05	
65	3.250000e+00	2.330529e-05	
66	3.300000e+00	2.248950e-05	
67	3.350000e+00	2.173017e-05	
68	3.400000e+00	2.102174e-05	
69	3.450000e+00	2.035934e-05	
70	3.500000e+00	1.973870e-05	
71	3.550000e+00	1.915603e-05	
72	3.600000e+00	1.860802e-05	
73	3.650000e+00	1.809169e-05	
74	3.700000e+00	1.760442e-05	
75	3.750000e+00	1.714384e-05	
76	3.800000e+00	1.670786e-05	
77	3.850000e+00	1.629456e-05	
78	3.900000e+00	1.590225e-05	
79	3.950000e+00	1.552939e-05	
80	4.000000e+00	1.517457e-05	
81	4.050000e+00	1.483653e-05	
82	4.100000e+00	1.451413e-05	
83	4.150000e+00	1.420630e-05	
84	4.200000e+00	1.391210e-05	
85	4.250000e+00	1.363065e-05	
86	4.300000e+00	1.336113e-05	
87	4.350000e+00	1.310282e-05	
88	4.400000e+00	1.285504e-05	
89	4.450000e+00	1.261716e-05	
90	4.500000e+00	1.238860e-05	
91	4.550000e+00	1.216883e-05	
92	4.600000e+00	1.195736e-05	
93	4.650000e+00	1.175372e-05	
94	4.700000e+00	1.155750e-05	
95	4.750000e+00	1.136830e-05	
96	4.800000e+00	1.118575e-05	
97	4.850000e+00	1.100952e-05	
98	4.900000e+00	1.083927e-05	
99	4.950000e+00	1.067472e-05	
100	5.000000e+00	1.051558e-05	
101	5.050000e+00	1.036160e-05	
102	5.100000e+00	1.021252e-05	
103	5.150000e+00	1.006813e-05	
104	5.200000e+00	9.928205e-06	
105	5.250000e+00	9.792541e-06	
106	5.300000e+00	9.660951e-06	
107	5.350000e+00	9.533255e-06	
108	5.400000e+00	9.409286e-06	
109	5.450000e+00	9.288884e-06	
110	5.500000e+00	9.171899e-06	
111	5.550000e+00	9.058189e-06	
112	5.600000e+00	8.947621e-06	

Index   v-sweep         rds             
--------------------------------------------------------------------------------
113	5.650000e+00	8.840068e-06	
114	5.700000e+00	8.735411e-06	
115	5.750000e+00	8.633534e-06	
116	5.800000e+00	8.534332e-06	
117	5.850000e+00	8.437701e-06	
118	5.900000e+00	8.343544e-06	
119	5.950000e+00	8.251770e-06	
120	6.000000e+00	8.162291e-06	
121	6.050000e+00	8.075024e-06	
122	6.100000e+00	7.989889e-06	
123	6.150000e+00	7.906811e-06	
124	6.200000e+00	7.825718e-06	
125	6.250000e+00	7.746542e-06	
126	6.300000e+00	7.669216e-06	
127	6.350000e+00	7.593679e-06	
128	6.400000e+00	7.519870e-06	
129	6.450000e+00	7.447734e-06	
130	6.500000e+00	7.377215e-06	
131	6.550000e+00	7.308261e-06	
132	6.600000e+00	7.240822e-06	
Reset re-loads circuit ***************************

Circuit: ***************************

Doing analysis at TEMP = -40.000000 and TNOM = -40.000000


No. of Data Rows : 133
                          ***************************
                          DC transfer characteristic  Mon Jan  9 13:58:38  2023
--------------------------------------------------------------------------------
Index   v-sweep         rds             
--------------------------------------------------------------------------------
0	0.000000e+00	2.410623e-03	
1	5.000000e-02	2.344213e-03	
2	1.000000e-01	2.279205e-03	
3	1.500000e-01	2.215567e-03	
4	2.000000e-01	2.153263e-03	
5	2.500000e-01	2.092260e-03	
6	3.000000e-01	2.032525e-03	
7	3.500000e-01	1.974025e-03	
8	4.000000e-01	1.916730e-03	
9	4.500000e-01	1.860605e-03	
10	5.000000e-01	1.805621e-03	
11	5.500000e-01	1.751746e-03	
12	6.000000e-01	1.698950e-03	
13	6.500000e-01	1.647203e-03	
14	7.000000e-01	1.596476e-03	
15	7.500000e-01	1.546740e-03	
16	8.000000e-01	1.497969e-03	
17	8.500000e-01	1.450135e-03	
18	9.000000e-01	1.403214e-03	
19	9.500000e-01	1.357180e-03	
20	1.000000e+00	1.312009e-03	
21	1.050000e+00	1.267678e-03	
22	1.100000e+00	1.224164e-03	
23	1.150000e+00	1.181444e-03	
24	1.200000e+00	1.139496e-03	
25	1.250000e+00	1.098296e-03	
26	1.300000e+00	1.057819e-03	
27	1.350000e+00	1.018039e-03	
28	1.400000e+00	9.789261e-04	
29	1.450000e+00	9.404445e-04	
30	1.500000e+00	9.025519e-04	
31	1.550000e+00	8.651953e-04	
32	1.600000e+00	8.283058e-04	
33	1.650000e+00	7.917916e-04	
34	1.700000e+00	7.555283e-04	
35	1.750000e+00	7.193434e-04	
36	1.800000e+00	6.829967e-04	
37	1.850000e+00	6.461546e-04	
38	1.900000e+00	6.083632e-04	
39	1.950000e+00	5.690363e-04	
40	2.000000e+00	5.274978e-04	
41	2.050000e+00	4.831486e-04	
42	2.100000e+00	4.358250e-04	
43	2.150000e+00	3.862830e-04	
44	2.200000e+00	3.364463e-04	
45	2.250000e+00	2.889708e-04	
46	2.300000e+00	2.462439e-04	
47	2.350000e+00	2.095812e-04	
48	2.400000e+00	1.791368e-04	
49	2.450000e+00	1.543065e-04	
50	2.500000e+00	1.341846e-04	
51	2.550000e+00	1.178559e-04	
52	2.600000e+00	1.045251e-04	
53	2.650000e+00	9.354868e-05	
54	2.700000e+00	8.442370e-05	

Index   v-sweep         rds             
--------------------------------------------------------------------------------
55	2.750000e+00	7.676274e-05	
56	2.800000e+00	7.026865e-05	
57	2.850000e+00	6.471300e-05	
58	2.900000e+00	5.991919e-05	
59	2.950000e+00	5.574964e-05	
60	3.000000e+00	5.209627e-05	
61	3.050000e+00	4.887342e-05	
62	3.100000e+00	4.601256e-05	
63	3.150000e+00	4.345843e-05	
64	3.200000e+00	4.116606e-05	
65	3.250000e+00	3.909858e-05	
66	3.300000e+00	3.722553e-05	
67	3.350000e+00	3.552155e-05	
68	3.400000e+00	3.396538e-05	
69	3.450000e+00	3.253913e-05	
70	3.500000e+00	3.122758e-05	
71	3.550000e+00	3.001777e-05	
72	3.600000e+00	2.889857e-05	
73	3.650000e+00	2.786038e-05	
74	3.700000e+00	2.689490e-05	
75	3.750000e+00	2.599491e-05	
76	3.800000e+00	2.515407e-05	
77	3.850000e+00	2.436685e-05	
78	3.900000e+00	2.362836e-05	
79	3.950000e+00	2.293429e-05	
80	4.000000e+00	2.228081e-05	
81	4.050000e+00	2.166452e-05	
82	4.100000e+00	2.108236e-05	
83	4.150000e+00	2.053163e-05	
84	4.200000e+00	2.000988e-05	
85	4.250000e+00	1.951490e-05	
86	4.300000e+00	1.904473e-05	
87	4.350000e+00	1.859755e-05	
88	4.400000e+00	1.817174e-05	
89	4.450000e+00	1.776582e-05	
90	4.500000e+00	1.737845e-05	
91	4.550000e+00	1.700839e-05	
92	4.600000e+00	1.665453e-05	
93	4.650000e+00	1.631583e-05	
94	4.700000e+00	1.599135e-05	
95	4.750000e+00	1.568022e-05	
96	4.800000e+00	1.538163e-05	
97	4.850000e+00	1.509486e-05	
98	4.900000e+00	1.481923e-05	
99	4.950000e+00	1.455409e-05	
100	5.000000e+00	1.429887e-05	
101	5.050000e+00	1.405303e-05	
102	5.100000e+00	1.381606e-05	
103	5.150000e+00	1.358750e-05	
104	5.200000e+00	1.336691e-05	
105	5.250000e+00	1.315388e-05	
106	5.300000e+00	1.294804e-05	
107	5.350000e+00	1.274903e-05	
108	5.400000e+00	1.255652e-05	
109	5.450000e+00	1.237020e-05	
110	5.500000e+00	1.218977e-05	
111	5.550000e+00	1.201498e-05	
112	5.600000e+00	1.184555e-05	

Index   v-sweep         rds             
--------------------------------------------------------------------------------
113	5.650000e+00	1.168126e-05	
114	5.700000e+00	1.152187e-05	
115	5.750000e+00	1.136716e-05	
116	5.800000e+00	1.121694e-05	
117	5.850000e+00	1.107103e-05	
118	5.900000e+00	1.092923e-05	
119	5.950000e+00	1.079138e-05	
120	6.000000e+00	1.065732e-05	
121	6.050000e+00	1.052689e-05	
122	6.100000e+00	1.039997e-05	
123	6.150000e+00	1.027640e-05	
124	6.200000e+00	1.015606e-05	
125	6.250000e+00	1.003883e-05	
126	6.300000e+00	9.924587e-06	
127	6.350000e+00	9.813228e-06	
128	6.400000e+00	9.704645e-06	
129	6.450000e+00	9.598737e-06	
130	6.500000e+00	9.495411e-06	
131	6.550000e+00	9.394575e-06	
132	6.600000e+00	9.296144e-06	
Reset re-loads circuit ***************************

Circuit: ***************************

Note: No ".plot", ".print", or ".fourier" lines; no simulations run
