
Note: Compatibility modes selected: hs

Warning: m=xx on .subckt line will override multiplier m hierarchy!


Circuit: ***************************

Doing analysis at TEMP = -40.000000 and TNOM = -40.000000


No. of Data Rows : 133
                          ***************************
                          DC transfer characteristic  Mon Jan  9 13:58:39  2023
--------------------------------------------------------------------------------
Index   v-sweep         rds             
--------------------------------------------------------------------------------
0	0.000000e+00	3.546621e-05	
1	5.000000e-02	2.862661e-05	
2	1.000000e-01	2.201706e-05	
3	1.500000e-01	1.575544e-05	
4	2.000000e-01	1.023999e-05	
5	2.500000e-01	6.328310e-06	
6	3.000000e-01	4.297894e-06	
7	3.500000e-01	3.318701e-06	
8	4.000000e-01	2.771312e-06	
9	4.500000e-01	2.419742e-06	
10	5.000000e-01	2.173080e-06	
11	5.500000e-01	1.989852e-06	
12	6.000000e-01	1.848220e-06	
13	6.500000e-01	1.735455e-06	
14	7.000000e-01	1.643586e-06	
15	7.500000e-01	1.567344e-06	
16	8.000000e-01	1.503098e-06	
17	8.500000e-01	1.448264e-06	
18	9.000000e-01	1.400948e-06	
19	9.500000e-01	1.359732e-06	
20	1.000000e+00	1.323532e-06	
21	1.050000e+00	1.291507e-06	
22	1.100000e+00	1.262991e-06	
23	1.150000e+00	1.237452e-06	
24	1.200000e+00	1.214462e-06	
25	1.250000e+00	1.193668e-06	
26	1.300000e+00	1.174779e-06	
27	1.350000e+00	1.157555e-06	
28	1.400000e+00	1.141793e-06	
29	1.450000e+00	1.127320e-06	
30	1.500000e+00	1.113992e-06	
31	1.550000e+00	1.101682e-06	
32	1.600000e+00	1.090284e-06	
33	1.650000e+00	1.079703e-06	
34	1.700000e+00	1.069860e-06	
35	1.750000e+00	1.060684e-06	
36	1.800000e+00	1.052111e-06	
37	1.850000e+00	1.044087e-06	
38	1.900000e+00	1.036564e-06	
39	1.950000e+00	1.029499e-06	
40	2.000000e+00	1.022853e-06	
41	2.050000e+00	1.016592e-06	
42	2.100000e+00	1.010686e-06	
43	2.150000e+00	1.005106e-06	
44	2.200000e+00	9.998279e-07	
45	2.250000e+00	9.948295e-07	
46	2.300000e+00	9.900901e-07	
47	2.350000e+00	9.855913e-07	
48	2.400000e+00	9.813163e-07	
49	2.450000e+00	9.772496e-07	
50	2.500000e+00	9.733774e-07	
51	2.550000e+00	9.696868e-07	
52	2.600000e+00	9.661660e-07	
53	2.650000e+00	9.628043e-07	
54	2.700000e+00	9.595916e-07	

Index   v-sweep         rds             
--------------------------------------------------------------------------------
55	2.750000e+00	9.565188e-07	
56	2.800000e+00	9.535775e-07	
57	2.850000e+00	9.507598e-07	
58	2.900000e+00	9.480584e-07	
59	2.950000e+00	9.454667e-07	
60	3.000000e+00	9.429784e-07	
61	3.050000e+00	9.405876e-07	
62	3.100000e+00	9.382890e-07	
63	3.150000e+00	9.360776e-07	
64	3.200000e+00	9.339486e-07	
65	3.250000e+00	9.318975e-07	
66	3.300000e+00	9.299204e-07	
67	3.350000e+00	9.280133e-07	
68	3.400000e+00	9.261727e-07	
69	3.450000e+00	9.243951e-07	
70	3.500000e+00	9.226773e-07	
71	3.550000e+00	9.210164e-07	
72	3.600000e+00	9.194095e-07	
73	3.650000e+00	9.178540e-07	
74	3.700000e+00	9.163473e-07	
75	3.750000e+00	9.148871e-07	
76	3.800000e+00	9.134711e-07	
77	3.850000e+00	9.120972e-07	
78	3.900000e+00	9.107634e-07	
79	3.950000e+00	9.094679e-07	
80	4.000000e+00	9.082087e-07	
81	4.050000e+00	9.069843e-07	
82	4.100000e+00	9.057929e-07	
83	4.150000e+00	9.046330e-07	
84	4.200000e+00	9.035032e-07	
85	4.250000e+00	9.024021e-07	
86	4.300000e+00	9.013283e-07	
87	4.350000e+00	9.002805e-07	
88	4.400000e+00	8.992576e-07	
89	4.450000e+00	8.982584e-07	
90	4.500000e+00	8.972817e-07	
91	4.550000e+00	8.963266e-07	
92	4.600000e+00	8.953920e-07	
93	4.650000e+00	8.944770e-07	
94	4.700000e+00	8.935805e-07	
95	4.750000e+00	8.927018e-07	
96	4.800000e+00	8.918400e-07	
97	4.850000e+00	8.909943e-07	
98	4.900000e+00	8.901638e-07	
99	4.950000e+00	8.893478e-07	
100	5.000000e+00	8.885457e-07	
101	5.050000e+00	8.877566e-07	
102	5.100000e+00	8.869799e-07	
103	5.150000e+00	8.862150e-07	
104	5.200000e+00	8.854613e-07	
105	5.250000e+00	8.847180e-07	
106	5.300000e+00	8.839848e-07	
107	5.350000e+00	8.832609e-07	
108	5.400000e+00	8.825459e-07	
109	5.450000e+00	8.818391e-07	
110	5.500000e+00	8.811402e-07	
111	5.550000e+00	8.804486e-07	
112	5.600000e+00	8.797639e-07	

Index   v-sweep         rds             
--------------------------------------------------------------------------------
113	5.650000e+00	8.790855e-07	
114	5.700000e+00	8.784130e-07	
115	5.750000e+00	8.777460e-07	
116	5.800000e+00	8.770841e-07	
117	5.850000e+00	8.764268e-07	
118	5.900000e+00	8.757738e-07	
119	5.950000e+00	8.751246e-07	
120	6.000000e+00	8.744789e-07	
121	6.050000e+00	8.738363e-07	
122	6.100000e+00	8.731964e-07	
123	6.150000e+00	8.725590e-07	
124	6.200000e+00	8.719236e-07	
125	6.250000e+00	8.712899e-07	
126	6.300000e+00	8.706577e-07	
127	6.350000e+00	8.700264e-07	
128	6.400000e+00	8.693960e-07	
129	6.450000e+00	8.687660e-07	
130	6.500000e+00	8.681362e-07	
131	6.550000e+00	8.675063e-07	
132	6.600000e+00	8.668759e-07	
Reset re-loads circuit ***************************

Circuit: ***************************

Doing analysis at TEMP = -40.000000 and TNOM = -40.000000


No. of Data Rows : 133
                          ***************************
                          DC transfer characteristic  Mon Jan  9 13:58:39  2023
--------------------------------------------------------------------------------
Index   v-sweep         rds             
--------------------------------------------------------------------------------
0	0.000000e+00	1.018864e-04	
1	5.000000e-02	9.466482e-05	
2	1.000000e-01	8.766199e-05	
3	1.500000e-01	8.086949e-05	
4	2.000000e-01	7.427814e-05	
5	2.500000e-01	6.787838e-05	
6	3.000000e-01	6.166125e-05	
7	3.500000e-01	5.561934e-05	
8	4.000000e-01	4.974712e-05	
9	4.500000e-01	4.404046e-05	
10	5.000000e-01	3.849527e-05	
11	5.500000e-01	3.310733e-05	
12	6.000000e-01	2.788379e-05	
13	6.500000e-01	2.289620e-05	
14	7.000000e-01	1.837093e-05	
15	7.500000e-01	1.462381e-05	
16	8.000000e-01	1.178174e-05	
17	8.500000e-01	9.716997e-06	
18	9.000000e-01	8.219323e-06	
19	9.500000e-01	7.111808e-06	
20	1.000000e+00	6.271506e-06	
21	1.050000e+00	5.617466e-06	
22	1.100000e+00	5.096507e-06	
23	1.150000e+00	4.673084e-06	
24	1.200000e+00	4.322876e-06	
25	1.250000e+00	4.028824e-06	
26	1.300000e+00	3.778680e-06	
27	1.350000e+00	3.563454e-06	
28	1.400000e+00	3.376418e-06	
29	1.450000e+00	3.212447e-06	
30	1.500000e+00	3.067573e-06	
31	1.550000e+00	2.938679e-06	
32	1.600000e+00	2.823287e-06	
33	1.650000e+00	2.719401e-06	
34	1.700000e+00	2.625396e-06	
35	1.750000e+00	2.539939e-06	
36	1.800000e+00	2.461924e-06	
37	1.850000e+00	2.390426e-06	
38	1.900000e+00	2.324667e-06	
39	1.950000e+00	2.263988e-06	
40	2.000000e+00	2.207825e-06	
41	2.050000e+00	2.155696e-06	
42	2.100000e+00	2.107184e-06	
43	2.150000e+00	2.061926e-06	
44	2.200000e+00	2.019608e-06	
45	2.250000e+00	1.979954e-06	
46	2.300000e+00	1.942721e-06	
47	2.350000e+00	1.907695e-06	
48	2.400000e+00	1.874685e-06	
49	2.450000e+00	1.843524e-06	
50	2.500000e+00	1.814061e-06	
51	2.550000e+00	1.786161e-06	
52	2.600000e+00	1.759703e-06	
53	2.650000e+00	1.734579e-06	
54	2.700000e+00	1.710690e-06	

Index   v-sweep         rds             
--------------------------------------------------------------------------------
55	2.750000e+00	1.687947e-06	
56	2.800000e+00	1.666271e-06	
57	2.850000e+00	1.645587e-06	
58	2.900000e+00	1.625830e-06	
59	2.950000e+00	1.606938e-06	
60	3.000000e+00	1.588855e-06	
61	3.050000e+00	1.571531e-06	
62	3.100000e+00	1.554918e-06	
63	3.150000e+00	1.538974e-06	
64	3.200000e+00	1.523659e-06	
65	3.250000e+00	1.508937e-06	
66	3.300000e+00	1.494772e-06	
67	3.350000e+00	1.481135e-06	
68	3.400000e+00	1.467996e-06	
69	3.450000e+00	1.455328e-06	
70	3.500000e+00	1.443105e-06	
71	3.550000e+00	1.431306e-06	
72	3.600000e+00	1.419907e-06	
73	3.650000e+00	1.408889e-06	
74	3.700000e+00	1.398232e-06	
75	3.750000e+00	1.387920e-06	
76	3.800000e+00	1.377934e-06	
77	3.850000e+00	1.368261e-06	
78	3.900000e+00	1.358884e-06	
79	3.950000e+00	1.349792e-06	
80	4.000000e+00	1.340969e-06	
81	4.050000e+00	1.332406e-06	
82	4.100000e+00	1.324089e-06	
83	4.150000e+00	1.316009e-06	
84	4.200000e+00	1.308155e-06	
85	4.250000e+00	1.300518e-06	
86	4.300000e+00	1.293088e-06	
87	4.350000e+00	1.285857e-06	
88	4.400000e+00	1.278818e-06	
89	4.450000e+00	1.271961e-06	
90	4.500000e+00	1.265281e-06	
91	4.550000e+00	1.258770e-06	
92	4.600000e+00	1.252421e-06	
93	4.650000e+00	1.246229e-06	
94	4.700000e+00	1.240188e-06	
95	4.750000e+00	1.234291e-06	
96	4.800000e+00	1.228534e-06	
97	4.850000e+00	1.222912e-06	
98	4.900000e+00	1.217419e-06	
99	4.950000e+00	1.212051e-06	
100	5.000000e+00	1.206804e-06	
101	5.050000e+00	1.201673e-06	
102	5.100000e+00	1.196655e-06	
103	5.150000e+00	1.191745e-06	
104	5.200000e+00	1.186941e-06	
105	5.250000e+00	1.182237e-06	
106	5.300000e+00	1.177633e-06	
107	5.350000e+00	1.173123e-06	
108	5.400000e+00	1.168704e-06	
109	5.450000e+00	1.164375e-06	
110	5.500000e+00	1.160132e-06	
111	5.550000e+00	1.155973e-06	
112	5.600000e+00	1.151894e-06	

Index   v-sweep         rds             
--------------------------------------------------------------------------------
113	5.650000e+00	1.147894e-06	
114	5.700000e+00	1.143969e-06	
115	5.750000e+00	1.140119e-06	
116	5.800000e+00	1.136340e-06	
117	5.850000e+00	1.132630e-06	
118	5.900000e+00	1.128987e-06	
119	5.950000e+00	1.125411e-06	
120	6.000000e+00	1.121897e-06	
121	6.050000e+00	1.118445e-06	
122	6.100000e+00	1.115054e-06	
123	6.150000e+00	1.111720e-06	
124	6.200000e+00	1.108443e-06	
125	6.250000e+00	1.105221e-06	
126	6.300000e+00	1.102053e-06	
127	6.350000e+00	1.098937e-06	
128	6.400000e+00	1.095872e-06	
129	6.450000e+00	1.092856e-06	
130	6.500000e+00	1.089888e-06	
131	6.550000e+00	1.086968e-06	
132	6.600000e+00	1.084092e-06	
Reset re-loads circuit ***************************

Circuit: ***************************

Doing analysis at TEMP = -40.000000 and TNOM = -40.000000


No. of Data Rows : 133
                          ***************************
                          DC transfer characteristic  Mon Jan  9 13:58:39  2023
--------------------------------------------------------------------------------
Index   v-sweep         rds             
--------------------------------------------------------------------------------
0	0.000000e+00	1.538709e-04	
1	5.000000e-02	1.462488e-04	
2	1.000000e-01	1.388549e-04	
3	1.500000e-01	1.316805e-04	
4	2.000000e-01	1.247162e-04	
5	2.500000e-01	1.179512e-04	
6	3.000000e-01	1.113741e-04	
7	3.500000e-01	1.049727e-04	
8	4.000000e-01	9.873548e-05	
9	4.500000e-01	9.265207e-05	
10	5.000000e-01	8.671377e-05	
11	5.500000e-01	8.091384e-05	
12	6.000000e-01	7.524722e-05	
13	6.500000e-01	6.970966e-05	
14	7.000000e-01	6.429593e-05	
15	7.500000e-01	5.899698e-05	
16	8.000000e-01	5.379521e-05	
17	8.500000e-01	4.865796e-05	
18	9.000000e-01	4.353169e-05	
19	9.500000e-01	3.835050e-05	
20	1.000000e+00	3.309131e-05	
21	1.050000e+00	2.788716e-05	
22	1.100000e+00	2.306740e-05	
23	1.150000e+00	1.896669e-05	
24	1.200000e+00	1.570537e-05	
25	1.250000e+00	1.319910e-05	
26	1.300000e+00	1.128659e-05	
27	1.350000e+00	9.814561e-06	
28	1.400000e+00	8.663873e-06	
29	1.450000e+00	7.748476e-06	
30	1.500000e+00	7.007596e-06	
31	1.550000e+00	6.398291e-06	
32	1.600000e+00	5.889898e-06	
33	1.650000e+00	5.460189e-06	
34	1.700000e+00	5.092790e-06	
35	1.750000e+00	4.775441e-06	
36	1.800000e+00	4.498818e-06	
37	1.850000e+00	4.255725e-06	
38	1.900000e+00	4.040534e-06	
39	1.950000e+00	3.848788e-06	
40	2.000000e+00	3.676916e-06	
41	2.050000e+00	3.522025e-06	
42	2.100000e+00	3.381752e-06	
43	2.150000e+00	3.254148e-06	
44	2.200000e+00	3.137589e-06	
45	2.250000e+00	3.030717e-06	
46	2.300000e+00	2.932385e-06	
47	2.350000e+00	2.841618e-06	
48	2.400000e+00	2.757583e-06	
49	2.450000e+00	2.679564e-06	
50	2.500000e+00	2.606943e-06	
51	2.550000e+00	2.539181e-06	
52	2.600000e+00	2.475810e-06	
53	2.650000e+00	2.416420e-06	
54	2.700000e+00	2.360648e-06	

Index   v-sweep         rds             
--------------------------------------------------------------------------------
55	2.750000e+00	2.308176e-06	
56	2.800000e+00	2.258721e-06	
57	2.850000e+00	2.212030e-06	
58	2.900000e+00	2.167880e-06	
59	2.950000e+00	2.126068e-06	
60	3.000000e+00	2.086416e-06	
61	3.050000e+00	2.048759e-06	
62	3.100000e+00	2.012952e-06	
63	3.150000e+00	1.978862e-06	
64	3.200000e+00	1.946369e-06	
65	3.250000e+00	1.915362e-06	
66	3.300000e+00	1.885743e-06	
67	3.350000e+00	1.857419e-06	
68	3.400000e+00	1.830309e-06	
69	3.450000e+00	1.804336e-06	
70	3.500000e+00	1.779429e-06	
71	3.550000e+00	1.755524e-06	
72	3.600000e+00	1.732562e-06	
73	3.650000e+00	1.710489e-06	
74	3.700000e+00	1.689252e-06	
75	3.750000e+00	1.668806e-06	
76	3.800000e+00	1.649107e-06	
77	3.850000e+00	1.630114e-06	
78	3.900000e+00	1.611791e-06	
79	3.950000e+00	1.594102e-06	
80	4.000000e+00	1.577015e-06	
81	4.050000e+00	1.560499e-06	
82	4.100000e+00	1.544526e-06	
83	4.150000e+00	1.529070e-06	
84	4.200000e+00	1.514105e-06	
85	4.250000e+00	1.499609e-06	
86	4.300000e+00	1.485560e-06	
87	4.350000e+00	1.471936e-06	
88	4.400000e+00	1.458720e-06	
89	4.450000e+00	1.445893e-06	
90	4.500000e+00	1.433438e-06	
91	4.550000e+00	1.421338e-06	
92	4.600000e+00	1.409579e-06	
93	4.650000e+00	1.398146e-06	
94	4.700000e+00	1.387026e-06	
95	4.750000e+00	1.376206e-06	
96	4.800000e+00	1.365674e-06	
97	4.850000e+00	1.355418e-06	
98	4.900000e+00	1.345428e-06	
99	4.950000e+00	1.335693e-06	
100	5.000000e+00	1.326204e-06	
101	5.050000e+00	1.316952e-06	
102	5.100000e+00	1.307926e-06	
103	5.150000e+00	1.299120e-06	
104	5.200000e+00	1.290525e-06	
105	5.250000e+00	1.282134e-06	
106	5.300000e+00	1.273939e-06	
107	5.350000e+00	1.265934e-06	
108	5.400000e+00	1.258111e-06	
109	5.450000e+00	1.250465e-06	
110	5.500000e+00	1.242990e-06	
111	5.550000e+00	1.235680e-06	
112	5.600000e+00	1.228529e-06	

Index   v-sweep         rds             
--------------------------------------------------------------------------------
113	5.650000e+00	1.221533e-06	
114	5.700000e+00	1.214686e-06	
115	5.750000e+00	1.207983e-06	
116	5.800000e+00	1.201421e-06	
117	5.850000e+00	1.194994e-06	
118	5.900000e+00	1.188698e-06	
119	5.950000e+00	1.182530e-06	
120	6.000000e+00	1.176485e-06	
121	6.050000e+00	1.170560e-06	
122	6.100000e+00	1.164752e-06	
123	6.150000e+00	1.159056e-06	
124	6.200000e+00	1.153470e-06	
125	6.250000e+00	1.147990e-06	
126	6.300000e+00	1.142613e-06	
127	6.350000e+00	1.137337e-06	
128	6.400000e+00	1.132159e-06	
129	6.450000e+00	1.127075e-06	
130	6.500000e+00	1.122084e-06	
131	6.550000e+00	1.117182e-06	
132	6.600000e+00	1.112368e-06	
Reset re-loads circuit ***************************

Circuit: ***************************

Doing analysis at TEMP = -40.000000 and TNOM = -40.000000


No. of Data Rows : 133
                          ***************************
                          DC transfer characteristic  Mon Jan  9 13:58:39  2023
--------------------------------------------------------------------------------
Index   v-sweep         rds             
--------------------------------------------------------------------------------
0	0.000000e+00	1.924169e-04	
1	5.000000e-02	1.847551e-04	
2	1.000000e-01	1.773068e-04	
3	1.500000e-01	1.700648e-04	
4	2.000000e-01	1.630213e-04	
5	2.500000e-01	1.561676e-04	
6	3.000000e-01	1.494938e-04	
7	3.500000e-01	1.429894e-04	
8	4.000000e-01	1.366431e-04	
9	4.500000e-01	1.304437e-04	
10	5.000000e-01	1.243804e-04	
11	5.500000e-01	1.184435e-04	
12	6.000000e-01	1.126247e-04	
13	6.500000e-01	1.069176e-04	
14	7.000000e-01	1.013176e-04	
15	7.500000e-01	9.582195e-05	
16	8.000000e-01	9.042937e-05	
17	8.500000e-01	8.513951e-05	
18	9.000000e-01	7.995199e-05	
19	9.500000e-01	7.486499e-05	
20	1.000000e+00	6.987314e-05	
21	1.050000e+00	6.496445e-05	
22	1.100000e+00	6.011576e-05	
23	1.150000e+00	5.528704e-05	
24	1.200000e+00	5.041666e-05	
25	1.250000e+00	4.542750e-05	
26	1.300000e+00	4.026441e-05	
27	1.350000e+00	3.497733e-05	
28	1.400000e+00	2.979296e-05	
29	1.450000e+00	2.504782e-05	
30	1.500000e+00	2.099835e-05	
31	1.550000e+00	1.771235e-05	
32	1.600000e+00	1.511331e-05	
33	1.650000e+00	1.307066e-05	
34	1.700000e+00	1.145681e-05	
35	1.750000e+00	1.016755e-05	
36	1.800000e+00	9.123750e-06	
37	1.850000e+00	8.266983e-06	
38	1.900000e+00	7.554394e-06	
39	1.950000e+00	6.954410e-06	
40	2.000000e+00	6.443548e-06	
41	2.050000e+00	6.004135e-06	
42	2.100000e+00	5.622701e-06	
43	2.150000e+00	5.288849e-06	
44	2.200000e+00	4.994455e-06	
45	2.250000e+00	4.733095e-06	
46	2.300000e+00	4.499637e-06	
47	2.350000e+00	4.289937e-06	
48	2.400000e+00	4.100615e-06	
49	2.450000e+00	3.928894e-06	
50	2.500000e+00	3.772471e-06	
51	2.550000e+00	3.629421e-06	
52	2.600000e+00	3.498125e-06	
53	2.650000e+00	3.377212e-06	
54	2.700000e+00	3.265513e-06	

Index   v-sweep         rds             
--------------------------------------------------------------------------------
55	2.750000e+00	3.162027e-06	
56	2.800000e+00	3.065890e-06	
57	2.850000e+00	2.976356e-06	
58	2.900000e+00	2.892772e-06	
59	2.950000e+00	2.814571e-06	
60	3.000000e+00	2.741255e-06	
61	3.050000e+00	2.672382e-06	
62	3.100000e+00	2.607565e-06	
63	3.150000e+00	2.546458e-06	
64	3.200000e+00	2.488754e-06	
65	3.250000e+00	2.434177e-06	
66	3.300000e+00	2.382483e-06	
67	3.350000e+00	2.333450e-06	
68	3.400000e+00	2.286879e-06	
69	3.450000e+00	2.242590e-06	
70	3.500000e+00	2.200420e-06	
71	3.550000e+00	2.160221e-06	
72	3.600000e+00	2.121859e-06	
73	3.650000e+00	2.085212e-06	
74	3.700000e+00	2.050166e-06	
75	3.750000e+00	2.016620e-06	
76	3.800000e+00	1.984480e-06	
77	3.850000e+00	1.953659e-06	
78	3.900000e+00	1.924079e-06	
79	3.950000e+00	1.895665e-06	
80	4.000000e+00	1.868350e-06	
81	4.050000e+00	1.842072e-06	
82	4.100000e+00	1.816773e-06	
83	4.150000e+00	1.792399e-06	
84	4.200000e+00	1.768901e-06	
85	4.250000e+00	1.746232e-06	
86	4.300000e+00	1.724348e-06	
87	4.350000e+00	1.703211e-06	
88	4.400000e+00	1.682782e-06	
89	4.450000e+00	1.663026e-06	
90	4.500000e+00	1.643911e-06	
91	4.550000e+00	1.625405e-06	
92	4.600000e+00	1.607481e-06	
93	4.650000e+00	1.590111e-06	
94	4.700000e+00	1.573270e-06	
95	4.750000e+00	1.556934e-06	
96	4.800000e+00	1.541081e-06	
97	4.850000e+00	1.525689e-06	
98	4.900000e+00	1.510739e-06	
99	4.950000e+00	1.496212e-06	
100	5.000000e+00	1.482091e-06	
101	5.050000e+00	1.468357e-06	
102	5.100000e+00	1.454997e-06	
103	5.150000e+00	1.441994e-06	
104	5.200000e+00	1.429336e-06	
105	5.250000e+00	1.417007e-06	
106	5.300000e+00	1.404996e-06	
107	5.350000e+00	1.393290e-06	
108	5.400000e+00	1.381878e-06	
109	5.450000e+00	1.370749e-06	
110	5.500000e+00	1.359893e-06	
111	5.550000e+00	1.349300e-06	
112	5.600000e+00	1.338960e-06	

Index   v-sweep         rds             
--------------------------------------------------------------------------------
113	5.650000e+00	1.328865e-06	
114	5.700000e+00	1.319006e-06	
115	5.750000e+00	1.309374e-06	
116	5.800000e+00	1.299963e-06	
117	5.850000e+00	1.290765e-06	
118	5.900000e+00	1.281772e-06	
119	5.950000e+00	1.272978e-06	
120	6.000000e+00	1.264376e-06	
121	6.050000e+00	1.255961e-06	
122	6.100000e+00	1.247727e-06	
123	6.150000e+00	1.239667e-06	
124	6.200000e+00	1.231776e-06	
125	6.250000e+00	1.224049e-06	
126	6.300000e+00	1.216482e-06	
127	6.350000e+00	1.209068e-06	
128	6.400000e+00	1.201805e-06	
129	6.450000e+00	1.194687e-06	
130	6.500000e+00	1.187710e-06	
131	6.550000e+00	1.180869e-06	
132	6.600000e+00	1.174162e-06	
Reset re-loads circuit ***************************

Circuit: ***************************

Doing analysis at TEMP = -40.000000 and TNOM = -40.000000


No. of Data Rows : 133
                          ***************************
                          DC transfer characteristic  Mon Jan  9 13:58:39  2023
--------------------------------------------------------------------------------
Index   v-sweep         rds             
--------------------------------------------------------------------------------
0	0.000000e+00	2.249230e-04	
1	5.000000e-02	2.173929e-04	
2	1.000000e-01	2.100549e-04	
3	1.500000e-01	2.029033e-04	
4	2.000000e-01	1.959319e-04	
5	2.500000e-01	1.891340e-04	
6	3.000000e-01	1.825019e-04	
7	3.500000e-01	1.760275e-04	
8	4.000000e-01	1.697014e-04	
9	4.500000e-01	1.635142e-04	
10	5.000000e-01	1.574560e-04	
11	5.500000e-01	1.515170e-04	
12	6.000000e-01	1.456880e-04	
13	6.500000e-01	1.399604e-04	
14	7.000000e-01	1.343269e-04	
15	7.500000e-01	1.287817e-04	
16	8.000000e-01	1.233201e-04	
17	8.500000e-01	1.179393e-04	
18	9.000000e-01	1.126382e-04	
19	9.500000e-01	1.074166e-04	
20	1.000000e+00	1.022761e-04	
21	1.050000e+00	9.721860e-05	
22	1.100000e+00	9.224653e-05	
23	1.150000e+00	8.736181e-05	
24	1.200000e+00	8.256499e-05	
25	1.250000e+00	7.785394e-05	
26	1.300000e+00	7.322197e-05	
27	1.350000e+00	6.865521e-05	
28	1.400000e+00	6.412898e-05	
29	1.450000e+00	5.960333e-05	
30	1.500000e+00	5.501982e-05	
31	1.550000e+00	5.030550e-05	
32	1.600000e+00	4.539706e-05	
33	1.650000e+00	4.029656e-05	
34	1.700000e+00	3.513709e-05	
35	1.750000e+00	3.018165e-05	
36	1.800000e+00	2.571133e-05	
37	1.850000e+00	2.189515e-05	
38	1.900000e+00	1.875626e-05	
39	1.950000e+00	1.622205e-05	
40	2.000000e+00	1.418560e-05	
41	2.050000e+00	1.254267e-05	
42	2.100000e+00	1.120579e-05	
43	2.150000e+00	1.010629e-05	
44	2.200000e+00	9.191780e-06	
45	2.250000e+00	8.422683e-06	
46	2.300000e+00	7.769063e-06	
47	2.350000e+00	7.208147e-06	
48	2.400000e+00	6.722464e-06	
49	2.450000e+00	6.298470e-06	
50	2.500000e+00	5.925561e-06	
51	2.550000e+00	5.595346e-06	
52	2.600000e+00	5.301117e-06	
53	2.650000e+00	5.037465e-06	
54	2.700000e+00	4.799983e-06	

Index   v-sweep         rds             
--------------------------------------------------------------------------------
55	2.750000e+00	4.585054e-06	
56	2.800000e+00	4.389683e-06	
57	2.850000e+00	4.211373e-06	
58	2.900000e+00	4.048027e-06	
59	2.950000e+00	3.897871e-06	
60	3.000000e+00	3.759397e-06	
61	3.050000e+00	3.631316e-06	
62	3.100000e+00	3.512518e-06	
63	3.150000e+00	3.402043e-06	
64	3.200000e+00	3.299059e-06	
65	3.250000e+00	3.202840e-06	
66	3.300000e+00	3.112747e-06	
67	3.350000e+00	3.028221e-06	
68	3.400000e+00	2.948767e-06	
69	3.450000e+00	2.873947e-06	
70	3.500000e+00	2.803371e-06	
71	3.550000e+00	2.736692e-06	
72	3.600000e+00	2.673599e-06	
73	3.650000e+00	2.613812e-06	
74	3.700000e+00	2.557080e-06	
75	3.750000e+00	2.503178e-06	
76	3.800000e+00	2.451899e-06	
77	3.850000e+00	2.403060e-06	
78	3.900000e+00	2.356490e-06	
79	3.950000e+00	2.312036e-06	
80	4.000000e+00	2.269559e-06	
81	4.050000e+00	2.228930e-06	
82	4.100000e+00	2.190031e-06	
83	4.150000e+00	2.152756e-06	
84	4.200000e+00	2.117005e-06	
85	4.250000e+00	2.082686e-06	
86	4.300000e+00	2.049717e-06	
87	4.350000e+00	2.018019e-06	
88	4.400000e+00	1.987521e-06	
89	4.450000e+00	1.958156e-06	
90	4.500000e+00	1.929862e-06	
91	4.550000e+00	1.902582e-06	
92	4.600000e+00	1.876262e-06	
93	4.650000e+00	1.850854e-06	
94	4.700000e+00	1.826310e-06	
95	4.750000e+00	1.802587e-06	
96	4.800000e+00	1.779646e-06	
97	4.850000e+00	1.757448e-06	
98	4.900000e+00	1.735958e-06	
99	4.950000e+00	1.715142e-06	
100	5.000000e+00	1.694971e-06	
101	5.050000e+00	1.675413e-06	
102	5.100000e+00	1.656442e-06	
103	5.150000e+00	1.638032e-06	
104	5.200000e+00	1.620159e-06	
105	5.250000e+00	1.602799e-06	
106	5.300000e+00	1.585932e-06	
107	5.350000e+00	1.569535e-06	
108	5.400000e+00	1.553591e-06	
109	5.450000e+00	1.538081e-06	
110	5.500000e+00	1.522987e-06	
111	5.550000e+00	1.508293e-06	
112	5.600000e+00	1.493984e-06	

Index   v-sweep         rds             
--------------------------------------------------------------------------------
113	5.650000e+00	1.480045e-06	
114	5.700000e+00	1.466462e-06	
115	5.750000e+00	1.453221e-06	
116	5.800000e+00	1.440310e-06	
117	5.850000e+00	1.427718e-06	
118	5.900000e+00	1.415432e-06	
119	5.950000e+00	1.403441e-06	
120	6.000000e+00	1.391736e-06	
121	6.050000e+00	1.380307e-06	
122	6.100000e+00	1.369143e-06	
123	6.150000e+00	1.358237e-06	
124	6.200000e+00	1.347579e-06	
125	6.250000e+00	1.337162e-06	
126	6.300000e+00	1.326977e-06	
127	6.350000e+00	1.317017e-06	
128	6.400000e+00	1.307275e-06	
129	6.450000e+00	1.297744e-06	
130	6.500000e+00	1.288417e-06	
131	6.550000e+00	1.279288e-06	
132	6.600000e+00	1.270352e-06	
Reset re-loads circuit ***************************

Circuit: ***************************

Doing analysis at TEMP = -40.000000 and TNOM = -40.000000


No. of Data Rows : 133
                          ***************************
                          DC transfer characteristic  Mon Jan  9 13:58:39  2023
--------------------------------------------------------------------------------
Index   v-sweep         rds             
--------------------------------------------------------------------------------
0	0.000000e+00	2.446916e-04	
1	5.000000e-02	2.375965e-04	
2	1.000000e-01	2.306651e-04	
3	1.500000e-01	2.238932e-04	
4	2.000000e-01	2.172761e-04	
5	2.500000e-01	2.108089e-04	
6	3.000000e-01	2.044863e-04	
7	3.500000e-01	1.983022e-04	
8	4.000000e-01	1.922501e-04	
9	4.500000e-01	1.863229e-04	
10	5.000000e-01	1.805132e-04	
11	5.500000e-01	1.748132e-04	
12	6.000000e-01	1.692153e-04	
13	6.500000e-01	1.637118e-04	
14	7.000000e-01	1.582955e-04	
15	7.500000e-01	1.529599e-04	
16	8.000000e-01	1.476991e-04	
17	8.500000e-01	1.425082e-04	
18	9.000000e-01	1.373834e-04	
19	9.500000e-01	1.323220e-04	
20	1.000000e+00	1.273222e-04	
21	1.050000e+00	1.223838e-04	
22	1.100000e+00	1.175073e-04	
23	1.150000e+00	1.126942e-04	
24	1.200000e+00	1.079468e-04	
25	1.250000e+00	1.032679e-04	
26	1.300000e+00	9.866047e-05	
27	1.350000e+00	9.412751e-05	
28	1.400000e+00	8.967125e-05	
29	1.450000e+00	8.529281e-05	
30	1.500000e+00	8.099129e-05	
31	1.550000e+00	7.676272e-05	
32	1.600000e+00	7.259852e-05	
33	1.650000e+00	6.848332e-05	
34	1.700000e+00	6.439219e-05	
35	1.750000e+00	6.028734e-05	
36	1.800000e+00	5.611627e-05	
37	1.850000e+00	5.181536e-05	
38	1.900000e+00	4.732763e-05	
39	1.950000e+00	4.264170e-05	
40	2.000000e+00	3.784077e-05	
41	2.050000e+00	3.311649e-05	
42	2.100000e+00	2.870785e-05	
43	2.150000e+00	2.480137e-05	
44	2.200000e+00	2.147516e-05	
45	2.250000e+00	1.871168e-05	
46	2.300000e+00	1.644127e-05	
47	2.350000e+00	1.457914e-05	
48	2.400000e+00	1.304554e-05	
49	2.450000e+00	1.177319e-05	
50	2.500000e+00	1.070821e-05	
51	2.550000e+00	9.808462e-06	
52	2.600000e+00	9.041260e-06	
53	2.650000e+00	8.381283e-06	
54	2.700000e+00	7.808826e-06	

Index   v-sweep         rds             
--------------------------------------------------------------------------------
55	2.750000e+00	7.308453e-06	
56	2.800000e+00	6.867973e-06	
57	2.850000e+00	6.477682e-06	
58	2.900000e+00	6.129780e-06	
59	2.950000e+00	5.817950e-06	
60	3.000000e+00	5.537034e-06	
61	3.050000e+00	5.282782e-06	
62	3.100000e+00	5.051670e-06	
63	3.150000e+00	4.840755e-06	
64	3.200000e+00	4.647561e-06	
65	3.250000e+00	4.469993e-06	
66	3.300000e+00	4.306268e-06	
67	3.350000e+00	4.154858e-06	
68	3.400000e+00	4.014450e-06	
69	3.450000e+00	3.883906e-06	
70	3.500000e+00	3.762240e-06	
71	3.550000e+00	3.648590e-06	
72	3.600000e+00	3.542201e-06	
73	3.650000e+00	3.442408e-06	
74	3.700000e+00	3.348625e-06	
75	3.750000e+00	3.260331e-06	
76	3.800000e+00	3.177064e-06	
77	3.850000e+00	3.098413e-06	
78	3.900000e+00	3.024007e-06	
79	3.950000e+00	2.953516e-06	
80	4.000000e+00	2.886642e-06	
81	4.050000e+00	2.823117e-06	
82	4.100000e+00	2.762697e-06	
83	4.150000e+00	2.705163e-06	
84	4.200000e+00	2.650314e-06	
85	4.250000e+00	2.597968e-06	
86	4.300000e+00	2.547960e-06	
87	4.350000e+00	2.500137e-06	
88	4.400000e+00	2.454360e-06	
89	4.450000e+00	2.410502e-06	
90	4.500000e+00	2.368446e-06	
91	4.550000e+00	2.328083e-06	
92	4.600000e+00	2.289314e-06	
93	4.650000e+00	2.252047e-06	
94	4.700000e+00	2.216197e-06	
95	4.750000e+00	2.181685e-06	
96	4.800000e+00	2.148438e-06	
97	4.850000e+00	2.116388e-06	
98	4.900000e+00	2.085473e-06	
99	4.950000e+00	2.055633e-06	
100	5.000000e+00	2.026813e-06	
101	5.050000e+00	1.998964e-06	
102	5.100000e+00	1.972035e-06	
103	5.150000e+00	1.945984e-06	
104	5.200000e+00	1.920768e-06	
105	5.250000e+00	1.896348e-06	
106	5.300000e+00	1.872687e-06	
107	5.350000e+00	1.849751e-06	
108	5.400000e+00	1.827506e-06	
109	5.450000e+00	1.805923e-06	
110	5.500000e+00	1.784973e-06	
111	5.550000e+00	1.764629e-06	
112	5.600000e+00	1.744865e-06	

Index   v-sweep         rds             
--------------------------------------------------------------------------------
113	5.650000e+00	1.725656e-06	
114	5.700000e+00	1.706981e-06	
115	5.750000e+00	1.688817e-06	
116	5.800000e+00	1.671144e-06	
117	5.850000e+00	1.653942e-06	
118	5.900000e+00	1.637195e-06	
119	5.950000e+00	1.620883e-06	
120	6.000000e+00	1.604991e-06	
121	6.050000e+00	1.589502e-06	
122	6.100000e+00	1.574403e-06	
123	6.150000e+00	1.559678e-06	
124	6.200000e+00	1.545315e-06	
125	6.250000e+00	1.531301e-06	
126	6.300000e+00	1.517623e-06	
127	6.350000e+00	1.504269e-06	
128	6.400000e+00	1.491230e-06	
129	6.450000e+00	1.478494e-06	
130	6.500000e+00	1.466050e-06	
131	6.550000e+00	1.453890e-06	
132	6.600000e+00	1.442005e-06	
Reset re-loads circuit ***************************

Circuit: ***************************

Note: No ".plot", ".print", or ".fourier" lines; no simulations run
