
Note: Compatibility modes selected: hs

Warning: m=xx on .subckt line will override multiplier m hierarchy!


Circuit: ***************************

Doing analysis at TEMP = 25.000000 and TNOM = 25.000000


No. of Data Rows : 133
                          ***************************
                          DC transfer characteristic  Mon Jan  9 13:58:37  2023
--------------------------------------------------------------------------------
Index   v-sweep         rds             
--------------------------------------------------------------------------------
0	0.000000e+00	5.442855e-05	
1	5.000000e-02	4.118887e-05	
2	1.000000e-01	2.860431e-05	
3	1.500000e-01	1.728460e-05	
4	2.000000e-01	9.042156e-06	
5	2.500000e-01	5.137221e-06	
6	3.000000e-01	3.648548e-06	
7	3.500000e-01	2.956117e-06	
8	4.000000e-01	2.548702e-06	
9	4.500000e-01	2.272925e-06	
10	5.000000e-01	2.070818e-06	
11	5.500000e-01	1.915207e-06	
12	6.000000e-01	1.791279e-06	
13	6.500000e-01	1.690094e-06	
14	7.000000e-01	1.605866e-06	
15	7.500000e-01	1.534650e-06	
16	8.000000e-01	1.473655e-06	
17	8.500000e-01	1.420840e-06	
18	9.000000e-01	1.374679e-06	
19	9.500000e-01	1.334003e-06	
20	1.000000e+00	1.297903e-06	
21	1.050000e+00	1.265661e-06	
22	1.100000e+00	1.236701e-06	
23	1.150000e+00	1.210557e-06	
24	1.200000e+00	1.186845e-06	
25	1.250000e+00	1.165251e-06	
26	1.300000e+00	1.145508e-06	
27	1.350000e+00	1.127397e-06	
28	1.400000e+00	1.110727e-06	
29	1.450000e+00	1.095340e-06	
30	1.500000e+00	1.081096e-06	
31	1.550000e+00	1.067879e-06	
32	1.600000e+00	1.055584e-06	
33	1.650000e+00	1.044121e-06	
34	1.700000e+00	1.033413e-06	
35	1.750000e+00	1.023390e-06	
36	1.800000e+00	1.013992e-06	
37	1.850000e+00	1.005163e-06	
38	1.900000e+00	9.968568e-07	
39	1.950000e+00	9.890298e-07	
40	2.000000e+00	9.816438e-07	
41	2.050000e+00	9.746645e-07	
42	2.100000e+00	9.680608e-07	
43	2.150000e+00	9.618050e-07	
44	2.200000e+00	9.558716e-07	
45	2.250000e+00	9.502379e-07	
46	2.300000e+00	9.448829e-07	
47	2.350000e+00	9.397879e-07	
48	2.400000e+00	9.349353e-07	
49	2.450000e+00	9.303096e-07	
50	2.500000e+00	9.258960e-07	
51	2.550000e+00	9.216814e-07	
52	2.600000e+00	9.176535e-07	
53	2.650000e+00	9.138011e-07	
54	2.700000e+00	9.101137e-07	

Index   v-sweep         rds             
--------------------------------------------------------------------------------
55	2.750000e+00	9.065818e-07	
56	2.800000e+00	9.031964e-07	
57	2.850000e+00	8.999494e-07	
58	2.900000e+00	8.968331e-07	
59	2.950000e+00	8.938404e-07	
60	3.000000e+00	8.909646e-07	
61	3.050000e+00	8.881998e-07	
62	3.100000e+00	8.855401e-07	
63	3.150000e+00	8.829801e-07	
64	3.200000e+00	8.805149e-07	
65	3.250000e+00	8.781398e-07	
66	3.300000e+00	8.758504e-07	
67	3.350000e+00	8.736426e-07	
68	3.400000e+00	8.715125e-07	
69	3.450000e+00	8.694566e-07	
70	3.500000e+00	8.674713e-07	
71	3.550000e+00	8.655535e-07	
72	3.600000e+00	8.637002e-07	
73	3.650000e+00	8.619085e-07	
74	3.700000e+00	8.601758e-07	
75	3.750000e+00	8.584995e-07	
76	3.800000e+00	8.568771e-07	
77	3.850000e+00	8.553065e-07	
78	3.900000e+00	8.537855e-07	
79	3.950000e+00	8.523121e-07	
80	4.000000e+00	8.508843e-07	
81	4.050000e+00	8.495003e-07	
82	4.100000e+00	8.481584e-07	
83	4.150000e+00	8.468569e-07	
84	4.200000e+00	8.455943e-07	
85	4.250000e+00	8.443691e-07	
86	4.300000e+00	8.431799e-07	
87	4.350000e+00	8.420253e-07	
88	4.400000e+00	8.409040e-07	
89	4.450000e+00	8.398149e-07	
90	4.500000e+00	8.387567e-07	
91	4.550000e+00	8.377284e-07	
92	4.600000e+00	8.367289e-07	
93	4.650000e+00	8.357571e-07	
94	4.700000e+00	8.348122e-07	
95	4.750000e+00	8.338932e-07	
96	4.800000e+00	8.329992e-07	
97	4.850000e+00	8.321293e-07	
98	4.900000e+00	8.312828e-07	
99	4.950000e+00	8.304589e-07	
100	5.000000e+00	8.296568e-07	
101	5.050000e+00	8.288759e-07	
102	5.100000e+00	8.281154e-07	
103	5.150000e+00	8.273747e-07	
104	5.200000e+00	8.266531e-07	
105	5.250000e+00	8.259502e-07	
106	5.300000e+00	8.252652e-07	
107	5.350000e+00	8.245976e-07	
108	5.400000e+00	8.239469e-07	
109	5.450000e+00	8.233126e-07	
110	5.500000e+00	8.226942e-07	
111	5.550000e+00	8.220912e-07	
112	5.600000e+00	8.215032e-07	

Index   v-sweep         rds             
--------------------------------------------------------------------------------
113	5.650000e+00	8.209297e-07	
114	5.700000e+00	8.203703e-07	
115	5.750000e+00	8.198245e-07	
116	5.800000e+00	8.192921e-07	
117	5.850000e+00	8.187725e-07	
118	5.900000e+00	8.182656e-07	
119	5.950000e+00	8.177708e-07	
120	6.000000e+00	8.172878e-07	
121	6.050000e+00	8.168164e-07	
122	6.100000e+00	8.163562e-07	
123	6.150000e+00	8.159069e-07	
124	6.200000e+00	8.154682e-07	
125	6.250000e+00	8.150398e-07	
126	6.300000e+00	8.146215e-07	
127	6.350000e+00	8.142129e-07	
128	6.400000e+00	8.138138e-07	
129	6.450000e+00	8.134241e-07	
130	6.500000e+00	8.130433e-07	
131	6.550000e+00	8.126714e-07	
132	6.600000e+00	8.123080e-07	
Reset re-loads circuit ***************************

Circuit: ***************************

Doing analysis at TEMP = 25.000000 and TNOM = 25.000000


No. of Data Rows : 133
                          ***************************
                          DC transfer characteristic  Mon Jan  9 13:58:37  2023
--------------------------------------------------------------------------------
Index   v-sweep         rds             
--------------------------------------------------------------------------------
0	0.000000e+00	2.051724e-04	
1	5.000000e-02	1.896361e-04	
2	1.000000e-01	1.745960e-04	
3	1.500000e-01	1.600336e-04	
4	2.000000e-01	1.459318e-04	
5	2.500000e-01	1.322744e-04	
6	3.000000e-01	1.190470e-04	
7	3.500000e-01	1.062375e-04	
8	4.000000e-01	9.383743e-05	
9	4.500000e-01	8.184523e-05	
10	5.000000e-01	7.027320e-05	
11	5.500000e-01	5.916760e-05	
12	6.000000e-01	4.866031e-05	
13	6.500000e-01	3.906439e-05	
14	7.000000e-01	3.088904e-05	
15	7.500000e-01	2.451762e-05	
16	8.000000e-01	1.986223e-05	
17	8.500000e-01	1.652249e-05	
18	9.000000e-01	1.409371e-05	
19	9.500000e-01	1.228066e-05	
20	1.000000e+00	1.088894e-05	
21	1.050000e+00	9.792880e-06	
22	1.100000e+00	8.910130e-06	
23	1.150000e+00	8.185387e-06	
24	1.200000e+00	7.580502e-06	
25	1.250000e+00	7.068475e-06	
26	1.300000e+00	6.629728e-06	
27	1.350000e+00	6.249762e-06	
28	1.400000e+00	5.917627e-06	
29	1.450000e+00	5.624909e-06	
30	1.500000e+00	5.365046e-06	
31	1.550000e+00	5.132843e-06	
32	1.600000e+00	4.924140e-06	
33	1.650000e+00	4.735569e-06	
34	1.700000e+00	4.564371e-06	
35	1.750000e+00	4.408266e-06	
36	1.800000e+00	4.265357e-06	
37	1.850000e+00	4.134049e-06	
38	1.900000e+00	4.012993e-06	
39	1.950000e+00	3.901043e-06	
40	2.000000e+00	3.797215e-06	
41	2.050000e+00	3.700661e-06	
42	2.100000e+00	3.610648e-06	
43	2.150000e+00	3.526537e-06	
44	2.200000e+00	3.447771e-06	
45	2.250000e+00	3.373859e-06	
46	2.300000e+00	3.304368e-06	
47	2.350000e+00	3.238917e-06	
48	2.400000e+00	3.177165e-06	
49	2.450000e+00	3.118810e-06	
50	2.500000e+00	3.063582e-06	
51	2.550000e+00	3.011236e-06	
52	2.600000e+00	2.961555e-06	
53	2.650000e+00	2.914342e-06	
54	2.700000e+00	2.869419e-06	

Index   v-sweep         rds             
--------------------------------------------------------------------------------
55	2.750000e+00	2.826625e-06	
56	2.800000e+00	2.785813e-06	
57	2.850000e+00	2.746849e-06	
58	2.900000e+00	2.709612e-06	
59	2.950000e+00	2.673991e-06	
60	3.000000e+00	2.639883e-06	
61	3.050000e+00	2.607195e-06	
62	3.100000e+00	2.575841e-06	
63	3.150000e+00	2.545741e-06	
64	3.200000e+00	2.516823e-06	
65	3.250000e+00	2.489018e-06	
66	3.300000e+00	2.462265e-06	
67	3.350000e+00	2.436505e-06	
68	3.400000e+00	2.411685e-06	
69	3.450000e+00	2.387755e-06	
70	3.500000e+00	2.364668e-06	
71	3.550000e+00	2.342380e-06	
72	3.600000e+00	2.320852e-06	
73	3.650000e+00	2.300046e-06	
74	3.700000e+00	2.279925e-06	
75	3.750000e+00	2.260459e-06	
76	3.800000e+00	2.241614e-06	
77	3.850000e+00	2.223363e-06	
78	3.900000e+00	2.205679e-06	
79	3.950000e+00	2.188534e-06	
80	4.000000e+00	2.171906e-06	
81	4.050000e+00	2.155772e-06	
82	4.100000e+00	2.140110e-06	
83	4.150000e+00	2.124900e-06	
84	4.200000e+00	2.110123e-06	
85	4.250000e+00	2.095761e-06	
86	4.300000e+00	2.081798e-06	
87	4.350000e+00	2.068216e-06	
88	4.400000e+00	2.055001e-06	
89	4.450000e+00	2.042139e-06	
90	4.500000e+00	2.029615e-06	
91	4.550000e+00	2.017417e-06	
92	4.600000e+00	2.005532e-06	
93	4.650000e+00	1.993949e-06	
94	4.700000e+00	1.982656e-06	
95	4.750000e+00	1.971643e-06	
96	4.800000e+00	1.960900e-06	
97	4.850000e+00	1.950417e-06	
98	4.900000e+00	1.940185e-06	
99	4.950000e+00	1.930195e-06	
100	5.000000e+00	1.920439e-06	
101	5.050000e+00	1.910909e-06	
102	5.100000e+00	1.901598e-06	
103	5.150000e+00	1.892497e-06	
104	5.200000e+00	1.883600e-06	
105	5.250000e+00	1.874901e-06	
106	5.300000e+00	1.866393e-06	
107	5.350000e+00	1.858071e-06	
108	5.400000e+00	1.849927e-06	
109	5.450000e+00	1.841957e-06	
110	5.500000e+00	1.834155e-06	
111	5.550000e+00	1.826516e-06	
112	5.600000e+00	1.819035e-06	

Index   v-sweep         rds             
--------------------------------------------------------------------------------
113	5.650000e+00	1.811708e-06	
114	5.700000e+00	1.804530e-06	
115	5.750000e+00	1.797496e-06	
116	5.800000e+00	1.790602e-06	
117	5.850000e+00	1.783844e-06	
118	5.900000e+00	1.777219e-06	
119	5.950000e+00	1.770723e-06	
120	6.000000e+00	1.764351e-06	
121	6.050000e+00	1.758101e-06	
122	6.100000e+00	1.751969e-06	
123	6.150000e+00	1.745952e-06	
124	6.200000e+00	1.740047e-06	
125	6.250000e+00	1.734251e-06	
126	6.300000e+00	1.728561e-06	
127	6.350000e+00	1.722974e-06	
128	6.400000e+00	1.717487e-06	
129	6.450000e+00	1.712098e-06	
130	6.500000e+00	1.706805e-06	
131	6.550000e+00	1.701604e-06	
132	6.600000e+00	1.696495e-06	
Reset re-loads circuit ***************************

Circuit: ***************************

Doing analysis at TEMP = 25.000000 and TNOM = 25.000000


No. of Data Rows : 133
                          ***************************
                          DC transfer characteristic  Mon Jan  9 13:58:38  2023
--------------------------------------------------------------------------------
Index   v-sweep         rds             
--------------------------------------------------------------------------------
0	0.000000e+00	3.221224e-04	
1	5.000000e-02	3.056628e-04	
2	1.000000e-01	2.897007e-04	
3	1.500000e-01	2.742182e-04	
4	2.000000e-01	2.591980e-04	
5	2.500000e-01	2.446229e-04	
6	3.000000e-01	2.304764e-04	
7	3.500000e-01	2.167423e-04	
8	4.000000e-01	2.034050e-04	
9	4.500000e-01	1.904494e-04	
10	5.000000e-01	1.778610e-04	
11	5.500000e-01	1.656255e-04	
12	6.000000e-01	1.537284e-04	
13	6.500000e-01	1.421544e-04	
14	7.000000e-01	1.308858e-04	
15	7.500000e-01	1.199000e-04	
16	8.000000e-01	1.091658e-04	
17	8.500000e-01	9.863716e-05	
18	9.000000e-01	8.824789e-05	
19	9.500000e-01	7.792039e-05	
20	1.000000e+00	6.762584e-05	
21	1.050000e+00	5.753022e-05	
22	1.100000e+00	4.810466e-05	
23	1.150000e+00	3.992381e-05	
24	1.200000e+00	3.328085e-05	
25	1.250000e+00	2.809408e-05	
26	1.300000e+00	2.409275e-05	
27	1.350000e+00	2.098979e-05	
28	1.400000e+00	1.855082e-05	
29	1.450000e+00	1.660210e-05	
30	1.500000e+00	1.501915e-05	
31	1.550000e+00	1.371317e-05	
32	1.600000e+00	1.262038e-05	
33	1.650000e+00	1.169433e-05	
34	1.700000e+00	1.090068e-05	
35	1.750000e+00	1.021365e-05	
36	1.800000e+00	9.613571e-06	
37	1.850000e+00	9.085238e-06	
38	1.900000e+00	8.616730e-06	
39	1.950000e+00	8.198585e-06	
40	2.000000e+00	7.823211e-06	
41	2.050000e+00	7.484446e-06	
42	2.100000e+00	7.177246e-06	
43	2.150000e+00	6.897444e-06	
44	2.200000e+00	6.641568e-06	
45	2.250000e+00	6.406703e-06	
46	2.300000e+00	6.190387e-06	
47	2.350000e+00	5.990523e-06	
48	2.400000e+00	5.805319e-06	
49	2.450000e+00	5.633230e-06	
50	2.500000e+00	5.472922e-06	
51	2.550000e+00	5.323233e-06	
52	2.600000e+00	5.183149e-06	
53	2.650000e+00	5.051781e-06	
54	2.700000e+00	4.928344e-06	

Index   v-sweep         rds             
--------------------------------------------------------------------------------
55	2.750000e+00	4.812145e-06	
56	2.800000e+00	4.702571e-06	
57	2.850000e+00	4.599073e-06	
58	2.900000e+00	4.501163e-06	
59	2.950000e+00	4.408402e-06	
60	3.000000e+00	4.320397e-06	
61	3.050000e+00	4.236794e-06	
62	3.100000e+00	4.157272e-06	
63	3.150000e+00	4.081541e-06	
64	3.200000e+00	4.009337e-06	
65	3.250000e+00	3.940421e-06	
66	3.300000e+00	3.874575e-06	
67	3.350000e+00	3.811600e-06	
68	3.400000e+00	3.751311e-06	
69	3.450000e+00	3.693543e-06	
70	3.500000e+00	3.638140e-06	
71	3.550000e+00	3.584962e-06	
72	3.600000e+00	3.533877e-06	
73	3.650000e+00	3.484766e-06	
74	3.700000e+00	3.437516e-06	
75	3.750000e+00	3.392024e-06	
76	3.800000e+00	3.348195e-06	
77	3.850000e+00	3.305939e-06	
78	3.900000e+00	3.265173e-06	
79	3.950000e+00	3.225822e-06	
80	4.000000e+00	3.187812e-06	
81	4.050000e+00	3.151076e-06	
82	4.100000e+00	3.115553e-06	
83	4.150000e+00	3.081183e-06	
84	4.200000e+00	3.047911e-06	
85	4.250000e+00	3.015687e-06	
86	4.300000e+00	2.984461e-06	
87	4.350000e+00	2.954188e-06	
88	4.400000e+00	2.924826e-06	
89	4.450000e+00	2.896334e-06	
90	4.500000e+00	2.868674e-06	
91	4.550000e+00	2.841812e-06	
92	4.600000e+00	2.815712e-06	
93	4.650000e+00	2.790344e-06	
94	4.700000e+00	2.765678e-06	
95	4.750000e+00	2.741684e-06	
96	4.800000e+00	2.718336e-06	
97	4.850000e+00	2.695609e-06	
98	4.900000e+00	2.673478e-06	
99	4.950000e+00	2.651921e-06	
100	5.000000e+00	2.630915e-06	
101	5.050000e+00	2.610441e-06	
102	5.100000e+00	2.590477e-06	
103	5.150000e+00	2.571007e-06	
104	5.200000e+00	2.552011e-06	
105	5.250000e+00	2.533474e-06	
106	5.300000e+00	2.515378e-06	
107	5.350000e+00	2.497709e-06	
108	5.400000e+00	2.480451e-06	
109	5.450000e+00	2.463592e-06	
110	5.500000e+00	2.447117e-06	
111	5.550000e+00	2.431014e-06	
112	5.600000e+00	2.415270e-06	

Index   v-sweep         rds             
--------------------------------------------------------------------------------
113	5.650000e+00	2.399874e-06	
114	5.700000e+00	2.384814e-06	
115	5.750000e+00	2.370081e-06	
116	5.800000e+00	2.355663e-06	
117	5.850000e+00	2.341551e-06	
118	5.900000e+00	2.327736e-06	
119	5.950000e+00	2.314208e-06	
120	6.000000e+00	2.300958e-06	
121	6.050000e+00	2.287980e-06	
122	6.100000e+00	2.275263e-06	
123	6.150000e+00	2.262802e-06	
124	6.200000e+00	2.250587e-06	
125	6.250000e+00	2.238613e-06	
126	6.300000e+00	2.226873e-06	
127	6.350000e+00	2.215360e-06	
128	6.400000e+00	2.204067e-06	
129	6.450000e+00	2.192988e-06	
130	6.500000e+00	2.182118e-06	
131	6.550000e+00	2.171451e-06	
132	6.600000e+00	2.160982e-06	
Reset re-loads circuit ***************************

Circuit: ***************************

Doing analysis at TEMP = 25.000000 and TNOM = 25.000000


No. of Data Rows : 133
                          ***************************
                          DC transfer characteristic  Mon Jan  9 13:58:38  2023
--------------------------------------------------------------------------------
Index   v-sweep         rds             
--------------------------------------------------------------------------------
0	0.000000e+00	4.046265e-04	
1	5.000000e-02	3.883295e-04	
2	1.000000e-01	3.724802e-04	
3	1.500000e-01	3.570642e-04	
4	2.000000e-01	3.420673e-04	
5	2.500000e-01	3.274757e-04	
6	3.000000e-01	3.132755e-04	
7	3.500000e-01	2.994536e-04	
8	4.000000e-01	2.859969e-04	
9	4.500000e-01	2.728925e-04	
10	5.000000e-01	2.601281e-04	
11	5.500000e-01	2.476919e-04	
12	6.000000e-01	2.355725e-04	
13	6.500000e-01	2.237588e-04	
14	7.000000e-01	2.122403e-04	
15	7.500000e-01	2.010064e-04	
16	8.000000e-01	1.900466e-04	
17	8.500000e-01	1.793498e-04	
18	9.000000e-01	1.689037e-04	
19	9.500000e-01	1.586937e-04	
20	1.000000e+00	1.487007e-04	
21	1.050000e+00	1.388989e-04	
22	1.100000e+00	1.292507e-04	
23	1.150000e+00	1.196996e-04	
24	1.200000e+00	1.101623e-04	
25	1.250000e+00	1.005246e-04	
26	1.300000e+00	9.066124e-05	
27	1.350000e+00	8.051563e-05	
28	1.400000e+00	7.024642e-05	
29	1.450000e+00	6.031238e-05	
30	1.500000e+00	5.130287e-05	
31	1.550000e+00	4.361864e-05	
32	1.600000e+00	3.733513e-05	
33	1.650000e+00	3.230039e-05	
34	1.700000e+00	2.828252e-05	
35	1.750000e+00	2.505811e-05	
36	1.800000e+00	2.244349e-05	
37	1.850000e+00	2.029727e-05	
38	1.900000e+00	1.851341e-05	
39	1.950000e+00	1.701289e-05	
40	2.000000e+00	1.573656e-05	
41	2.050000e+00	1.463981e-05	
42	2.100000e+00	1.368862e-05	
43	2.150000e+00	1.285673e-05	
44	2.200000e+00	1.212365e-05	
45	2.250000e+00	1.147319e-05	
46	2.300000e+00	1.089244e-05	
47	2.350000e+00	1.037099e-05	
48	2.400000e+00	9.900351e-06	
49	2.450000e+00	9.473575e-06	
50	2.500000e+00	9.084892e-06	
51	2.550000e+00	8.729492e-06	
52	2.600000e+00	8.403329e-06	
53	2.650000e+00	8.102983e-06	
54	2.700000e+00	7.825539e-06	

Index   v-sweep         rds             
--------------------------------------------------------------------------------
55	2.750000e+00	7.568501e-06	
56	2.800000e+00	7.329721e-06	
57	2.850000e+00	7.107339e-06	
58	2.900000e+00	6.899736e-06	
59	2.950000e+00	6.705499e-06	
60	3.000000e+00	6.523388e-06	
61	3.050000e+00	6.352310e-06	
62	3.100000e+00	6.191301e-06	
63	3.150000e+00	6.039502e-06	
64	3.200000e+00	5.896151e-06	
65	3.250000e+00	5.760567e-06	
66	3.300000e+00	5.632138e-06	
67	3.350000e+00	5.510317e-06	
68	3.400000e+00	5.394610e-06	
69	3.450000e+00	5.284570e-06	
70	3.500000e+00	5.179793e-06	
71	3.550000e+00	5.079913e-06	
72	3.600000e+00	4.984596e-06	
73	3.650000e+00	4.893538e-06	
74	3.700000e+00	4.806461e-06	
75	3.750000e+00	4.723112e-06	
76	3.800000e+00	4.643256e-06	
77	3.850000e+00	4.566681e-06	
78	3.900000e+00	4.493188e-06	
79	3.950000e+00	4.422597e-06	
80	4.000000e+00	4.354740e-06	
81	4.050000e+00	4.289461e-06	
82	4.100000e+00	4.226618e-06	
83	4.150000e+00	4.166077e-06	
84	4.200000e+00	4.107714e-06	
85	4.250000e+00	4.051415e-06	
86	4.300000e+00	3.997073e-06	
87	4.350000e+00	3.944588e-06	
88	4.400000e+00	3.893866e-06	
89	4.450000e+00	3.844822e-06	
90	4.500000e+00	3.797373e-06	
91	4.550000e+00	3.751443e-06	
92	4.600000e+00	3.706961e-06	
93	4.650000e+00	3.663861e-06	
94	4.700000e+00	3.622079e-06	
95	4.750000e+00	3.581555e-06	
96	4.800000e+00	3.542235e-06	
97	4.850000e+00	3.504066e-06	
98	4.900000e+00	3.466999e-06	
99	4.950000e+00	3.430986e-06	
100	5.000000e+00	3.395985e-06	
101	5.050000e+00	3.361952e-06	
102	5.100000e+00	3.328850e-06	
103	5.150000e+00	3.296641e-06	
104	5.200000e+00	3.265289e-06	
105	5.250000e+00	3.234761e-06	
106	5.300000e+00	3.205026e-06	
107	5.350000e+00	3.176053e-06	
108	5.400000e+00	3.147814e-06	
109	5.450000e+00	3.120282e-06	
110	5.500000e+00	3.093431e-06	
111	5.550000e+00	3.067236e-06	
112	5.600000e+00	3.041674e-06	

Index   v-sweep         rds             
--------------------------------------------------------------------------------
113	5.650000e+00	3.016723e-06	
114	5.700000e+00	2.992361e-06	
115	5.750000e+00	2.968569e-06	
116	5.800000e+00	2.945326e-06	
117	5.850000e+00	2.922615e-06	
118	5.900000e+00	2.900418e-06	
119	5.950000e+00	2.878718e-06	
120	6.000000e+00	2.857499e-06	
121	6.050000e+00	2.836746e-06	
122	6.100000e+00	2.816443e-06	
123	6.150000e+00	2.796576e-06	
124	6.200000e+00	2.777133e-06	
125	6.250000e+00	2.758100e-06	
126	6.300000e+00	2.739465e-06	
127	6.350000e+00	2.721215e-06	
128	6.400000e+00	2.703340e-06	
129	6.450000e+00	2.685827e-06	
130	6.500000e+00	2.668668e-06	
131	6.550000e+00	2.651850e-06	
132	6.600000e+00	2.635366e-06	
Reset re-loads circuit ***************************

Circuit: ***************************

Doing analysis at TEMP = 25.000000 and TNOM = 25.000000


No. of Data Rows : 133
                          ***************************
                          DC transfer characteristic  Mon Jan  9 13:58:38  2023
--------------------------------------------------------------------------------
Index   v-sweep         rds             
--------------------------------------------------------------------------------
0	0.000000e+00	4.612999e-04	
1	5.000000e-02	4.458595e-04	
2	1.000000e-01	4.307987e-04	
3	1.500000e-01	4.161066e-04	
4	2.000000e-01	4.017725e-04	
5	2.500000e-01	3.877859e-04	
6	3.000000e-01	3.741366e-04	
7	3.500000e-01	3.608143e-04	
8	4.000000e-01	3.478091e-04	
9	4.500000e-01	3.351112e-04	
10	5.000000e-01	3.227108e-04	
11	5.500000e-01	3.105987e-04	
12	6.000000e-01	2.987658e-04	
13	6.500000e-01	2.872032e-04	
14	7.000000e-01	2.759026e-04	
15	7.500000e-01	2.648559e-04	
16	8.000000e-01	2.540554e-04	
17	8.500000e-01	2.434935e-04	
18	9.000000e-01	2.331632e-04	
19	9.500000e-01	2.230573e-04	
20	1.000000e+00	2.131688e-04	
21	1.050000e+00	2.034905e-04	
22	1.100000e+00	1.940145e-04	
23	1.150000e+00	1.847321e-04	
24	1.200000e+00	1.756329e-04	
25	1.250000e+00	1.667037e-04	
26	1.300000e+00	1.579269e-04	
27	1.350000e+00	1.492781e-04	
28	1.400000e+00	1.407219e-04	
29	1.450000e+00	1.322066e-04	
30	1.500000e+00	1.236569e-04	
31	1.550000e+00	1.149681e-04	
32	1.600000e+00	1.060108e-04	
33	1.650000e+00	9.666677e-05	
34	1.700000e+00	8.691709e-05	
35	1.750000e+00	7.695918e-05	
36	1.800000e+00	6.723380e-05	
37	1.850000e+00	5.826367e-05	
38	1.900000e+00	5.041822e-05	
39	1.950000e+00	4.381244e-05	
40	2.000000e+00	3.836574e-05	
41	2.050000e+00	3.390779e-05	
42	2.100000e+00	3.025380e-05	
43	2.150000e+00	2.723942e-05	
44	2.200000e+00	2.473049e-05	
45	2.250000e+00	2.262170e-05	
46	2.300000e+00	2.083168e-05	
47	2.350000e+00	1.929779e-05	
48	2.400000e+00	1.797164e-05	
49	2.450000e+00	1.681564e-05	
50	2.500000e+00	1.580029e-05	
51	2.550000e+00	1.490230e-05	
52	2.600000e+00	1.410306e-05	
53	2.650000e+00	1.338756e-05	
54	2.700000e+00	1.274364e-05	

Index   v-sweep         rds             
--------------------------------------------------------------------------------
55	2.750000e+00	1.216130e-05	
56	2.800000e+00	1.163229e-05	
57	2.850000e+00	1.114974e-05	
58	2.900000e+00	1.070790e-05	
59	2.950000e+00	1.030190e-05	
60	3.000000e+00	9.927616e-06	
61	3.050000e+00	9.581523e-06	
62	3.100000e+00	9.260594e-06	
63	3.150000e+00	8.962212e-06	
64	3.200000e+00	8.684108e-06	
65	3.250000e+00	8.424307e-06	
66	3.300000e+00	8.181076e-06	
67	3.350000e+00	7.952895e-06	
68	3.400000e+00	7.738422e-06	
69	3.450000e+00	7.536468e-06	
70	3.500000e+00	7.345978e-06	
71	3.550000e+00	7.166009e-06	
72	3.600000e+00	6.995721e-06	
73	3.650000e+00	6.834359e-06	
74	3.700000e+00	6.681243e-06	
75	3.750000e+00	6.535762e-06	
76	3.800000e+00	6.397362e-06	
77	3.850000e+00	6.265541e-06	
78	3.900000e+00	6.139846e-06	
79	3.950000e+00	6.019860e-06	
80	4.000000e+00	5.905206e-06	
81	4.050000e+00	5.795538e-06	
82	4.100000e+00	5.690540e-06	
83	4.150000e+00	5.589921e-06	
84	4.200000e+00	5.493415e-06	
85	4.250000e+00	5.400775e-06	
86	4.300000e+00	5.311775e-06	
87	4.350000e+00	5.226206e-06	
88	4.400000e+00	5.143875e-06	
89	4.450000e+00	5.064601e-06	
90	4.500000e+00	4.988219e-06	
91	4.550000e+00	4.914574e-06	
92	4.600000e+00	4.843522e-06	
93	4.650000e+00	4.774930e-06	
94	4.700000e+00	4.708672e-06	
95	4.750000e+00	4.644632e-06	
96	4.800000e+00	4.582702e-06	
97	4.850000e+00	4.522779e-06	
98	4.900000e+00	4.464768e-06	
99	4.950000e+00	4.408579e-06	
100	5.000000e+00	4.354129e-06	
101	5.050000e+00	4.301339e-06	
102	5.100000e+00	4.250134e-06	
103	5.150000e+00	4.200445e-06	
104	5.200000e+00	4.152206e-06	
105	5.250000e+00	4.105355e-06	
106	5.300000e+00	4.059834e-06	
107	5.350000e+00	4.015587e-06	
108	5.400000e+00	3.972562e-06	
109	5.450000e+00	3.930710e-06	
110	5.500000e+00	3.889984e-06	
111	5.550000e+00	3.850340e-06	
112	5.600000e+00	3.811736e-06	

Index   v-sweep         rds             
--------------------------------------------------------------------------------
113	5.650000e+00	3.774132e-06	
114	5.700000e+00	3.737491e-06	
115	5.750000e+00	3.701776e-06	
116	5.800000e+00	3.666954e-06	
117	5.850000e+00	3.632992e-06	
118	5.900000e+00	3.599858e-06	
119	5.950000e+00	3.567525e-06	
120	6.000000e+00	3.535964e-06	
121	6.050000e+00	3.505148e-06	
122	6.100000e+00	3.475052e-06	
123	6.150000e+00	3.445651e-06	
124	6.200000e+00	3.416922e-06	
125	6.250000e+00	3.388844e-06	
126	6.300000e+00	3.361395e-06	
127	6.350000e+00	3.334554e-06	
128	6.400000e+00	3.308303e-06	
129	6.450000e+00	3.282622e-06	
130	6.500000e+00	3.257495e-06	
131	6.550000e+00	3.232903e-06	
132	6.600000e+00	3.208831e-06	
Reset re-loads circuit ***************************

Circuit: ***************************

Doing analysis at TEMP = 25.000000 and TNOM = 25.000000


No. of Data Rows : 133
                          ***************************
                          DC transfer characteristic  Mon Jan  9 13:58:38  2023
--------------------------------------------------------------------------------
Index   v-sweep         rds             
--------------------------------------------------------------------------------
0	0.000000e+00	5.050379e-04	
1	5.000000e-02	4.906452e-04	
2	1.000000e-01	4.765685e-04	
3	1.500000e-01	4.627997e-04	
4	2.000000e-01	4.493310e-04	
5	2.500000e-01	4.361545e-04	
6	3.000000e-01	4.232627e-04	
7	3.500000e-01	4.106479e-04	
8	4.000000e-01	3.983028e-04	
9	4.500000e-01	3.862199e-04	
10	5.000000e-01	3.743921e-04	
11	5.500000e-01	3.628122e-04	
12	6.000000e-01	3.514731e-04	
13	6.500000e-01	3.403681e-04	
14	7.000000e-01	3.294906e-04	
15	7.500000e-01	3.188340e-04	
16	8.000000e-01	3.083923e-04	
17	8.500000e-01	2.981595e-04	
18	9.000000e-01	2.881299e-04	
19	9.500000e-01	2.782980e-04	
20	1.000000e+00	2.686586e-04	
21	1.050000e+00	2.592067e-04	
22	1.100000e+00	2.499375e-04	
23	1.150000e+00	2.408462e-04	
24	1.200000e+00	2.319282e-04	
25	1.250000e+00	2.231788e-04	
26	1.300000e+00	2.145930e-04	
27	1.350000e+00	2.061657e-04	
28	1.400000e+00	1.978909e-04	
29	1.450000e+00	1.897620e-04	
30	1.500000e+00	1.817704e-04	
31	1.550000e+00	1.739056e-04	
32	1.600000e+00	1.661532e-04	
33	1.650000e+00	1.584938e-04	
34	1.700000e+00	1.508996e-04	
35	1.750000e+00	1.433313e-04	
36	1.800000e+00	1.357323e-04	
37	1.850000e+00	1.280230e-04	
38	1.900000e+00	1.200983e-04	
39	1.950000e+00	1.118351e-04	
40	2.000000e+00	1.031262e-04	
41	2.050000e+00	9.395316e-05	
42	2.100000e+00	8.447322e-05	
43	2.150000e+00	7.504438e-05	
44	2.200000e+00	6.611943e-05	
45	2.250000e+00	5.807018e-05	
46	2.300000e+00	5.108002e-05	
47	2.350000e+00	4.515419e-05	
48	2.400000e+00	4.019037e-05	
49	2.450000e+00	3.604545e-05	
50	2.500000e+00	3.257574e-05	
51	2.550000e+00	2.965466e-05	
52	2.600000e+00	2.717742e-05	
53	2.650000e+00	2.505980e-05	
54	2.700000e+00	2.323502e-05	

Index   v-sweep         rds             
--------------------------------------------------------------------------------
55	2.750000e+00	2.165030e-05	
56	2.800000e+00	2.026387e-05	
57	2.850000e+00	1.904255e-05	
58	2.900000e+00	1.795974e-05	
59	2.950000e+00	1.699405e-05	
60	3.000000e+00	1.612808e-05	
61	3.050000e+00	1.534761e-05	
62	3.100000e+00	1.464092e-05	
63	3.150000e+00	1.399827e-05	
64	3.200000e+00	1.341154e-05	
65	3.250000e+00	1.287388e-05	
66	3.300000e+00	1.237950e-05	
67	3.350000e+00	1.192346e-05	
68	3.400000e+00	1.150155e-05	
69	3.450000e+00	1.111014e-05	
70	3.500000e+00	1.074607e-05	
71	3.550000e+00	1.040662e-05	
72	3.600000e+00	1.008941e-05	
73	3.650000e+00	9.792334e-06	
74	3.700000e+00	9.513568e-06	
75	3.750000e+00	9.251486e-06	
76	3.800000e+00	9.004647e-06	
77	3.850000e+00	8.771772e-06	
78	3.900000e+00	8.551720e-06	
79	3.950000e+00	8.343470e-06	
80	4.000000e+00	8.146104e-06	
81	4.050000e+00	7.958798e-06	
82	4.100000e+00	7.780809e-06	
83	4.150000e+00	7.611462e-06	
84	4.200000e+00	7.450148e-06	
85	4.250000e+00	7.296313e-06	
86	4.300000e+00	7.149452e-06	
87	4.350000e+00	7.009104e-06	
88	4.400000e+00	6.874849e-06	
89	4.450000e+00	6.746300e-06	
90	4.500000e+00	6.623103e-06	
91	4.550000e+00	6.504933e-06	
92	4.600000e+00	6.391490e-06	
93	4.650000e+00	6.282498e-06	
94	4.700000e+00	6.177701e-06	
95	4.750000e+00	6.076864e-06	
96	4.800000e+00	5.979767e-06	
97	4.850000e+00	5.886207e-06	
98	4.900000e+00	5.795995e-06	
99	4.950000e+00	5.708956e-06	
100	5.000000e+00	5.624927e-06	
101	5.050000e+00	5.543754e-06	
102	5.100000e+00	5.465296e-06	
103	5.150000e+00	5.389420e-06	
104	5.200000e+00	5.316001e-06	
105	5.250000e+00	5.244922e-06	
106	5.300000e+00	5.176075e-06	
107	5.350000e+00	5.109356e-06	
108	5.400000e+00	5.044669e-06	
109	5.450000e+00	4.981924e-06	
110	5.500000e+00	4.921035e-06	
111	5.550000e+00	4.861923e-06	
112	5.600000e+00	4.804510e-06	

Index   v-sweep         rds             
--------------------------------------------------------------------------------
113	5.650000e+00	4.748726e-06	
114	5.700000e+00	4.694504e-06	
115	5.750000e+00	4.641779e-06	
116	5.800000e+00	4.590491e-06	
117	5.850000e+00	4.540583e-06	
118	5.900000e+00	4.492001e-06	
119	5.950000e+00	4.444694e-06	
120	6.000000e+00	4.398613e-06	
121	6.050000e+00	4.353712e-06	
122	6.100000e+00	4.309948e-06	
123	6.150000e+00	4.267277e-06	
124	6.200000e+00	4.225662e-06	
125	6.250000e+00	4.185064e-06	
126	6.300000e+00	4.145447e-06	
127	6.350000e+00	4.106778e-06	
128	6.400000e+00	4.069023e-06	
129	6.450000e+00	4.032151e-06	
130	6.500000e+00	3.996133e-06	
131	6.550000e+00	3.960941e-06	
132	6.600000e+00	3.926547e-06	
Reset re-loads circuit ***************************

Circuit: ***************************

Note: No ".plot", ".print", or ".fourier" lines; no simulations run
