
Note: Compatibility modes selected: hs

Warning: m=xx on .subckt line will override multiplier m hierarchy!


Circuit: ***************************

Doing analysis at TEMP = 25.000000 and TNOM = 25.000000


No. of Data Rows : 133
                          ***************************
                          DC transfer characteristic  Mon Jan  9 13:58:38  2023
--------------------------------------------------------------------------------
Index   v-sweep         rds             
--------------------------------------------------------------------------------
0	0.000000e+00	3.239796e-05	
1	5.000000e-02	2.728528e-05	
2	1.000000e-01	2.231136e-05	
3	1.500000e-01	1.750326e-05	
4	2.000000e-01	1.294466e-05	
5	2.500000e-01	8.884663e-06	
6	3.000000e-01	5.843097e-06	
7	3.500000e-01	4.108865e-06	
8	4.000000e-01	3.233799e-06	
9	4.500000e-01	2.740166e-06	
10	5.000000e-01	2.418481e-06	
11	5.500000e-01	2.188045e-06	
12	6.000000e-01	2.013152e-06	
13	6.500000e-01	1.875271e-06	
14	7.000000e-01	1.763572e-06	
15	7.500000e-01	1.671187e-06	
16	8.000000e-01	1.593504e-06	
17	8.500000e-01	1.527288e-06	
18	9.000000e-01	1.470196e-06	
19	9.500000e-01	1.420488e-06	
20	1.000000e+00	1.376839e-06	
21	1.050000e+00	1.338223e-06	
22	1.100000e+00	1.303835e-06	
23	1.150000e+00	1.273032e-06	
24	1.200000e+00	1.245292e-06	
25	1.250000e+00	1.220193e-06	
26	1.300000e+00	1.197385e-06	
27	1.350000e+00	1.176577e-06	
28	1.400000e+00	1.157524e-06	
29	1.450000e+00	1.140021e-06	
30	1.500000e+00	1.123892e-06	
31	1.550000e+00	1.108987e-06	
32	1.600000e+00	1.095178e-06	
33	1.650000e+00	1.082351e-06	
34	1.700000e+00	1.070411e-06	
35	1.750000e+00	1.059272e-06	
36	1.800000e+00	1.048860e-06	
37	1.850000e+00	1.039108e-06	
38	1.900000e+00	1.029960e-06	
39	1.950000e+00	1.021362e-06	
40	2.000000e+00	1.013270e-06	
41	2.050000e+00	1.005643e-06	
42	2.100000e+00	9.984427e-07	
43	2.150000e+00	9.916372e-07	
44	2.200000e+00	9.851964e-07	
45	2.250000e+00	9.790935e-07	
46	2.300000e+00	9.733041e-07	
47	2.350000e+00	9.678060e-07	
48	2.400000e+00	9.625792e-07	
49	2.450000e+00	9.576054e-07	
50	2.500000e+00	9.528676e-07	
51	2.550000e+00	9.483507e-07	
52	2.600000e+00	9.440405e-07	
53	2.650000e+00	9.399241e-07	
54	2.700000e+00	9.359897e-07	

Index   v-sweep         rds             
--------------------------------------------------------------------------------
55	2.750000e+00	9.322262e-07	
56	2.800000e+00	9.286235e-07	
57	2.850000e+00	9.251724e-07	
58	2.900000e+00	9.218640e-07	
59	2.950000e+00	9.186904e-07	
60	3.000000e+00	9.156442e-07	
61	3.050000e+00	9.127183e-07	
62	3.100000e+00	9.099064e-07	
63	3.150000e+00	9.072023e-07	
64	3.200000e+00	9.046006e-07	
65	3.250000e+00	9.020959e-07	
66	3.300000e+00	8.996834e-07	
67	3.350000e+00	8.973585e-07	
68	3.400000e+00	8.951167e-07	
69	3.450000e+00	8.929543e-07	
70	3.500000e+00	8.908672e-07	
71	3.550000e+00	8.888520e-07	
72	3.600000e+00	8.869053e-07	
73	3.650000e+00	8.850239e-07	
74	3.700000e+00	8.832049e-07	
75	3.750000e+00	8.814455e-07	
76	3.800000e+00	8.797430e-07	
77	3.850000e+00	8.780949e-07	
78	3.900000e+00	8.764989e-07	
79	3.950000e+00	8.749527e-07	
80	4.000000e+00	8.734542e-07	
81	4.050000e+00	8.720013e-07	
82	4.100000e+00	8.705923e-07	
83	4.150000e+00	8.692252e-07	
84	4.200000e+00	8.678983e-07	
85	4.250000e+00	8.666101e-07	
86	4.300000e+00	8.653589e-07	
87	4.350000e+00	8.641434e-07	
88	4.400000e+00	8.629620e-07	
89	4.450000e+00	8.618134e-07	
90	4.500000e+00	8.606965e-07	
91	4.550000e+00	8.596099e-07	
92	4.600000e+00	8.585524e-07	
93	4.650000e+00	8.575231e-07	
94	4.700000e+00	8.565208e-07	
95	4.750000e+00	8.555445e-07	
96	4.800000e+00	8.545933e-07	
97	4.850000e+00	8.536661e-07	
98	4.900000e+00	8.527622e-07	
99	4.950000e+00	8.518807e-07	
100	5.000000e+00	8.510208e-07	
101	5.050000e+00	8.501816e-07	
102	5.100000e+00	8.493625e-07	
103	5.150000e+00	8.485626e-07	
104	5.200000e+00	8.477815e-07	
105	5.250000e+00	8.470183e-07	
106	5.300000e+00	8.462724e-07	
107	5.350000e+00	8.455432e-07	
108	5.400000e+00	8.448302e-07	
109	5.450000e+00	8.441327e-07	
110	5.500000e+00	8.434502e-07	
111	5.550000e+00	8.427822e-07	
112	5.600000e+00	8.421282e-07	

Index   v-sweep         rds             
--------------------------------------------------------------------------------
113	5.650000e+00	8.414877e-07	
114	5.700000e+00	8.408603e-07	
115	5.750000e+00	8.402454e-07	
116	5.800000e+00	8.396426e-07	
117	5.850000e+00	8.390515e-07	
118	5.900000e+00	8.384717e-07	
119	5.950000e+00	8.379028e-07	
120	6.000000e+00	8.373445e-07	
121	6.050000e+00	8.367963e-07	
122	6.100000e+00	8.362578e-07	
123	6.150000e+00	8.357289e-07	
124	6.200000e+00	8.352090e-07	
125	6.250000e+00	8.346979e-07	
126	6.300000e+00	8.341953e-07	
127	6.350000e+00	8.337009e-07	
128	6.400000e+00	8.332143e-07	
129	6.450000e+00	8.327353e-07	
130	6.500000e+00	8.322637e-07	
131	6.550000e+00	8.317990e-07	
132	6.600000e+00	8.313412e-07	
Reset re-loads circuit ***************************

Circuit: ***************************

Doing analysis at TEMP = 25.000000 and TNOM = 25.000000


No. of Data Rows : 133
                          ***************************
                          DC transfer characteristic  Mon Jan  9 13:58:38  2023
--------------------------------------------------------------------------------
Index   v-sweep         rds             
--------------------------------------------------------------------------------
0	0.000000e+00	8.372664e-05	
1	5.000000e-02	7.826852e-05	
2	1.000000e-01	7.295480e-05	
3	1.500000e-01	6.778107e-05	
4	2.000000e-01	6.274290e-05	
5	2.500000e-01	5.783595e-05	
6	3.000000e-01	5.305622e-05	
7	3.500000e-01	4.840038e-05	
8	4.000000e-01	4.386616e-05	
9	4.500000e-01	3.945281e-05	
10	5.000000e-01	3.516178e-05	
11	5.500000e-01	3.099818e-05	
12	6.000000e-01	2.697419e-05	
13	6.500000e-01	2.311700e-05	
14	7.000000e-01	1.948574e-05	
15	7.500000e-01	1.619215e-05	
16	8.000000e-01	1.338171e-05	
17	8.500000e-01	1.113912e-05	
18	9.000000e-01	9.425808e-06	
19	9.500000e-01	8.131216e-06	
20	1.000000e+00	7.142943e-06	
21	1.050000e+00	6.374062e-06	
22	1.100000e+00	5.763354e-06	
23	1.150000e+00	5.268702e-06	
24	1.200000e+00	4.860975e-06	
25	1.250000e+00	4.519697e-06	
26	1.300000e+00	4.230183e-06	
27	1.350000e+00	3.981691e-06	
28	1.400000e+00	3.766208e-06	
29	1.450000e+00	3.577655e-06	
30	1.500000e+00	3.411340e-06	
31	1.550000e+00	3.263591e-06	
32	1.600000e+00	3.131494e-06	
33	1.650000e+00	3.012712e-06	
34	1.700000e+00	2.905346e-06	
35	1.750000e+00	2.807842e-06	
36	1.800000e+00	2.718910e-06	
37	1.850000e+00	2.637478e-06	
38	1.900000e+00	2.562644e-06	
39	1.950000e+00	2.493643e-06	
40	2.000000e+00	2.429823e-06	
41	2.050000e+00	2.370629e-06	
42	2.100000e+00	2.315577e-06	
43	2.150000e+00	2.264251e-06	
44	2.200000e+00	2.216289e-06	
45	2.250000e+00	2.171372e-06	
46	2.300000e+00	2.129223e-06	
47	2.350000e+00	2.089594e-06	
48	2.400000e+00	2.052268e-06	
49	2.450000e+00	2.017052e-06	
50	2.500000e+00	1.983772e-06	
51	2.550000e+00	1.952275e-06	
52	2.600000e+00	1.922423e-06	
53	2.650000e+00	1.894090e-06	
54	2.700000e+00	1.867165e-06	

Index   v-sweep         rds             
--------------------------------------------------------------------------------
55	2.750000e+00	1.841545e-06	
56	2.800000e+00	1.817140e-06	
57	2.850000e+00	1.793864e-06	
58	2.900000e+00	1.771643e-06	
59	2.950000e+00	1.750406e-06	
60	3.000000e+00	1.730091e-06	
61	3.050000e+00	1.710638e-06	
62	3.100000e+00	1.691995e-06	
63	3.150000e+00	1.674111e-06	
64	3.200000e+00	1.656943e-06	
65	3.250000e+00	1.640448e-06	
66	3.300000e+00	1.624588e-06	
67	3.350000e+00	1.609327e-06	
68	3.400000e+00	1.594631e-06	
69	3.450000e+00	1.580471e-06	
70	3.500000e+00	1.566817e-06	
71	3.550000e+00	1.553643e-06	
72	3.600000e+00	1.540925e-06	
73	3.650000e+00	1.528639e-06	
74	3.700000e+00	1.516764e-06	
75	3.750000e+00	1.505279e-06	
76	3.800000e+00	1.494165e-06	
77	3.850000e+00	1.483406e-06	
78	3.900000e+00	1.472984e-06	
79	3.950000e+00	1.462884e-06	
80	4.000000e+00	1.453092e-06	
81	4.050000e+00	1.443592e-06	
82	4.100000e+00	1.434373e-06	
83	4.150000e+00	1.425423e-06	
84	4.200000e+00	1.416729e-06	
85	4.250000e+00	1.408281e-06	
86	4.300000e+00	1.400069e-06	
87	4.350000e+00	1.392082e-06	
88	4.400000e+00	1.384312e-06	
89	4.450000e+00	1.376751e-06	
90	4.500000e+00	1.369389e-06	
91	4.550000e+00	1.362219e-06	
92	4.600000e+00	1.355234e-06	
93	4.650000e+00	1.348426e-06	
94	4.700000e+00	1.341789e-06	
95	4.750000e+00	1.335317e-06	
96	4.800000e+00	1.329002e-06	
97	4.850000e+00	1.322841e-06	
98	4.900000e+00	1.316827e-06	
99	4.950000e+00	1.310954e-06	
100	5.000000e+00	1.305219e-06	
101	5.050000e+00	1.299616e-06	
102	5.100000e+00	1.294141e-06	
103	5.150000e+00	1.288788e-06	
104	5.200000e+00	1.283555e-06	
105	5.250000e+00	1.278438e-06	
106	5.300000e+00	1.273431e-06	
107	5.350000e+00	1.268533e-06	
108	5.400000e+00	1.263739e-06	
109	5.450000e+00	1.259046e-06	
110	5.500000e+00	1.254450e-06	
111	5.550000e+00	1.249950e-06	
112	5.600000e+00	1.245541e-06	

Index   v-sweep         rds             
--------------------------------------------------------------------------------
113	5.650000e+00	1.241221e-06	
114	5.700000e+00	1.236988e-06	
115	5.750000e+00	1.232838e-06	
116	5.800000e+00	1.228770e-06	
117	5.850000e+00	1.224781e-06	
118	5.900000e+00	1.220868e-06	
119	5.950000e+00	1.217029e-06	
120	6.000000e+00	1.213262e-06	
121	6.050000e+00	1.209566e-06	
122	6.100000e+00	1.205938e-06	
123	6.150000e+00	1.202376e-06	
124	6.200000e+00	1.198879e-06	
125	6.250000e+00	1.195444e-06	
126	6.300000e+00	1.192070e-06	
127	6.350000e+00	1.188755e-06	
128	6.400000e+00	1.185498e-06	
129	6.450000e+00	1.182298e-06	
130	6.500000e+00	1.179152e-06	
131	6.550000e+00	1.176059e-06	
132	6.600000e+00	1.173019e-06	
Reset re-loads circuit ***************************

Circuit: ***************************

Doing analysis at TEMP = 25.000000 and TNOM = 25.000000


No. of Data Rows : 133
                          ***************************
                          DC transfer characteristic  Mon Jan  9 13:58:38  2023
--------------------------------------------------------------------------------
Index   v-sweep         rds             
--------------------------------------------------------------------------------
0	0.000000e+00	1.242548e-04	
1	5.000000e-02	1.185931e-04	
2	1.000000e-01	1.130773e-04	
3	1.500000e-01	1.077028e-04	
4	2.000000e-01	1.024650e-04	
5	2.500000e-01	9.735928e-05	
6	3.000000e-01	9.238054e-05	
7	3.500000e-01	8.752382e-05	
8	4.000000e-01	8.278420e-05	
9	4.500000e-01	7.815705e-05	
10	5.000000e-01	7.363819e-05	
11	5.500000e-01	6.922396e-05	
12	6.000000e-01	6.491125e-05	
13	6.500000e-01	6.069751e-05	
14	7.000000e-01	5.658052e-05	
15	7.500000e-01	5.255812e-05	
16	8.000000e-01	4.862771e-05	
17	8.500000e-01	4.478540e-05	
18	9.000000e-01	4.102477e-05	
19	9.500000e-01	3.733509e-05	
20	1.000000e+00	3.370006e-05	
21	1.050000e+00	3.010133e-05	
22	1.100000e+00	2.653741e-05	
23	1.150000e+00	2.306409e-05	
24	1.200000e+00	1.981869e-05	
25	1.250000e+00	1.696168e-05	
26	1.300000e+00	1.457832e-05	
27	1.350000e+00	1.265364e-05	
28	1.400000e+00	1.111681e-05	
29	1.450000e+00	9.886437e-06	
30	1.500000e+00	8.891770e-06	
31	1.550000e+00	8.077482e-06	
32	1.600000e+00	7.402054e-06	
33	1.650000e+00	6.834691e-06	
34	1.700000e+00	6.352504e-06	
35	1.750000e+00	5.938330e-06	
36	1.800000e+00	5.579154e-06	
37	1.850000e+00	5.264977e-06	
38	1.900000e+00	4.988026e-06	
39	1.950000e+00	4.742181e-06	
40	2.000000e+00	4.522567e-06	
41	2.050000e+00	4.325262e-06	
42	2.100000e+00	4.147079e-06	
43	2.150000e+00	3.985400e-06	
44	2.200000e+00	3.838060e-06	
45	2.250000e+00	3.703252e-06	
46	2.300000e+00	3.579459e-06	
47	2.350000e+00	3.465396e-06	
48	2.400000e+00	3.359970e-06	
49	2.450000e+00	3.262242e-06	
50	2.500000e+00	3.171406e-06	
51	2.550000e+00	3.086763e-06	
52	2.600000e+00	3.007706e-06	
53	2.650000e+00	2.933701e-06	
54	2.700000e+00	2.864284e-06	

Index   v-sweep         rds             
--------------------------------------------------------------------------------
55	2.750000e+00	2.799043e-06	
56	2.800000e+00	2.737614e-06	
57	2.850000e+00	2.679675e-06	
58	2.900000e+00	2.624938e-06	
59	2.950000e+00	2.573145e-06	
60	3.000000e+00	2.524068e-06	
61	3.050000e+00	2.477498e-06	
62	3.100000e+00	2.433249e-06	
63	3.150000e+00	2.391153e-06	
64	3.200000e+00	2.351057e-06	
65	3.250000e+00	2.312822e-06	
66	3.300000e+00	2.276322e-06	
67	3.350000e+00	2.241442e-06	
68	3.400000e+00	2.208077e-06	
69	3.450000e+00	2.176131e-06	
70	3.500000e+00	2.145515e-06	
71	3.550000e+00	2.116148e-06	
72	3.600000e+00	2.087955e-06	
73	3.650000e+00	2.060868e-06	
74	3.700000e+00	2.034823e-06	
75	3.750000e+00	2.009761e-06	
76	3.800000e+00	1.985627e-06	
77	3.850000e+00	1.962372e-06	
78	3.900000e+00	1.939947e-06	
79	3.950000e+00	1.918309e-06	
80	4.000000e+00	1.897418e-06	
81	4.050000e+00	1.877236e-06	
82	4.100000e+00	1.857727e-06	
83	4.150000e+00	1.838858e-06	
84	4.200000e+00	1.820598e-06	
85	4.250000e+00	1.802919e-06	
86	4.300000e+00	1.785792e-06	
87	4.350000e+00	1.769193e-06	
88	4.400000e+00	1.753097e-06	
89	4.450000e+00	1.737482e-06	
90	4.500000e+00	1.722327e-06	
91	4.550000e+00	1.707611e-06	
92	4.600000e+00	1.693316e-06	
93	4.650000e+00	1.679424e-06	
94	4.700000e+00	1.665919e-06	
95	4.750000e+00	1.652783e-06	
96	4.800000e+00	1.640003e-06	
97	4.850000e+00	1.627565e-06	
98	4.900000e+00	1.615453e-06	
99	4.950000e+00	1.603657e-06	
100	5.000000e+00	1.592163e-06	
101	5.050000e+00	1.580961e-06	
102	5.100000e+00	1.570039e-06	
103	5.150000e+00	1.559387e-06	
104	5.200000e+00	1.548995e-06	
105	5.250000e+00	1.538854e-06	
106	5.300000e+00	1.528954e-06	
107	5.350000e+00	1.519288e-06	
108	5.400000e+00	1.509847e-06	
109	5.450000e+00	1.500623e-06	
110	5.500000e+00	1.491609e-06	
111	5.550000e+00	1.482798e-06	
112	5.600000e+00	1.474184e-06	

Index   v-sweep         rds             
--------------------------------------------------------------------------------
113	5.650000e+00	1.465759e-06	
114	5.700000e+00	1.457517e-06	
115	5.750000e+00	1.449453e-06	
116	5.800000e+00	1.441561e-06	
117	5.850000e+00	1.433836e-06	
118	5.900000e+00	1.426272e-06	
119	5.950000e+00	1.418864e-06	
120	6.000000e+00	1.411608e-06	
121	6.050000e+00	1.404499e-06	
122	6.100000e+00	1.397533e-06	
123	6.150000e+00	1.390705e-06	
124	6.200000e+00	1.384012e-06	
125	6.250000e+00	1.377449e-06	
126	6.300000e+00	1.371013e-06	
127	6.350000e+00	1.364700e-06	
128	6.400000e+00	1.358507e-06	
129	6.450000e+00	1.352430e-06	
130	6.500000e+00	1.346466e-06	
131	6.550000e+00	1.340612e-06	
132	6.600000e+00	1.334865e-06	
Reset re-loads circuit ***************************

Circuit: ***************************

Doing analysis at TEMP = 25.000000 and TNOM = 25.000000


No. of Data Rows : 133
                          ***************************
                          DC transfer characteristic  Mon Jan  9 13:58:38  2023
--------------------------------------------------------------------------------
Index   v-sweep         rds             
--------------------------------------------------------------------------------
0	0.000000e+00	1.525883e-04	
1	5.000000e-02	1.470254e-04	
2	1.000000e-01	1.415949e-04	
3	1.500000e-01	1.362929e-04	
4	2.000000e-01	1.311158e-04	
5	2.500000e-01	1.260596e-04	
6	3.000000e-01	1.211202e-04	
7	3.500000e-01	1.162933e-04	
8	4.000000e-01	1.115746e-04	
9	4.500000e-01	1.069597e-04	
10	5.000000e-01	1.024443e-04	
11	5.500000e-01	9.802426e-05	
12	6.000000e-01	9.369589e-05	
13	6.500000e-01	8.945578e-05	
14	7.000000e-01	8.530102e-05	
15	7.500000e-01	8.122917e-05	
16	8.000000e-01	7.723823e-05	
17	8.500000e-01	7.332663e-05	
18	9.000000e-01	6.949305e-05	
19	9.500000e-01	6.573633e-05	
20	1.000000e+00	6.205515e-05	
21	1.050000e+00	5.844768e-05	
22	1.100000e+00	5.491100e-05	
23	1.150000e+00	5.144024e-05	
24	1.200000e+00	4.802719e-05	
25	1.250000e+00	4.465839e-05	
26	1.300000e+00	4.131269e-05	
27	1.350000e+00	3.796012e-05	
28	1.400000e+00	3.456701e-05	
29	1.450000e+00	3.111673e-05	
30	1.500000e+00	2.764828e-05	
31	1.550000e+00	2.428148e-05	
32	1.600000e+00	2.117922e-05	
33	1.650000e+00	1.846518e-05	
34	1.700000e+00	1.617859e-05	
35	1.750000e+00	1.429045e-05	
36	1.800000e+00	1.274090e-05	
37	1.850000e+00	1.146586e-05	
38	1.900000e+00	1.040901e-05	
39	1.950000e+00	9.524737e-06	
40	2.000000e+00	8.777400e-06	
41	2.050000e+00	8.139527e-06	
42	2.100000e+00	7.589971e-06	
43	2.150000e+00	7.112375e-06	
44	2.200000e+00	6.693993e-06	
45	2.250000e+00	6.324805e-06	
46	2.300000e+00	5.996853e-06	
47	2.350000e+00	5.703763e-06	
48	2.400000e+00	5.440374e-06	
49	2.450000e+00	5.202477e-06	
50	2.500000e+00	4.986607e-06	
51	2.550000e+00	4.789888e-06	
52	2.600000e+00	4.609917e-06	
53	2.650000e+00	4.444671e-06	
54	2.700000e+00	4.292436e-06	

Index   v-sweep         rds             
--------------------------------------------------------------------------------
55	2.750000e+00	4.151752e-06	
56	2.800000e+00	4.021366e-06	
57	2.850000e+00	3.900198e-06	
58	2.900000e+00	3.787314e-06	
59	2.950000e+00	3.681900e-06	
60	3.000000e+00	3.583244e-06	
61	3.050000e+00	3.490722e-06	
62	3.100000e+00	3.403783e-06	
63	3.150000e+00	3.321941e-06	
64	3.200000e+00	3.244763e-06	
65	3.250000e+00	3.171863e-06	
66	3.300000e+00	3.102899e-06	
67	3.350000e+00	3.037561e-06	
68	3.400000e+00	2.975572e-06	
69	3.450000e+00	2.916684e-06	
70	3.500000e+00	2.860669e-06	
71	3.550000e+00	2.807324e-06	
72	3.600000e+00	2.756464e-06	
73	3.650000e+00	2.707918e-06	
74	3.700000e+00	2.661535e-06	
75	3.750000e+00	2.617172e-06	
76	3.800000e+00	2.574701e-06	
77	3.850000e+00	2.534004e-06	
78	3.900000e+00	2.494973e-06	
79	3.950000e+00	2.457507e-06	
80	4.000000e+00	2.421515e-06	
81	4.050000e+00	2.386912e-06	
82	4.100000e+00	2.353618e-06	
83	4.150000e+00	2.321562e-06	
84	4.200000e+00	2.290675e-06	
85	4.250000e+00	2.260896e-06	
86	4.300000e+00	2.232165e-06	
87	4.350000e+00	2.204428e-06	
88	4.400000e+00	2.177635e-06	
89	4.450000e+00	2.151739e-06	
90	4.500000e+00	2.126695e-06	
91	4.550000e+00	2.102462e-06	
92	4.600000e+00	2.079001e-06	
93	4.650000e+00	2.056276e-06	
94	4.700000e+00	2.034253e-06	
95	4.750000e+00	2.012900e-06	
96	4.800000e+00	1.992188e-06	
97	4.850000e+00	1.972087e-06	
98	4.900000e+00	1.952571e-06	
99	4.950000e+00	1.933616e-06	
100	5.000000e+00	1.915196e-06	
101	5.050000e+00	1.897291e-06	
102	5.100000e+00	1.879878e-06	
103	5.150000e+00	1.862939e-06	
104	5.200000e+00	1.846453e-06	
105	5.250000e+00	1.830403e-06	
106	5.300000e+00	1.814773e-06	
107	5.350000e+00	1.799545e-06	
108	5.400000e+00	1.784705e-06	
109	5.450000e+00	1.770238e-06	
110	5.500000e+00	1.756131e-06	
111	5.550000e+00	1.742370e-06	
112	5.600000e+00	1.728943e-06	

Index   v-sweep         rds             
--------------------------------------------------------------------------------
113	5.650000e+00	1.715837e-06	
114	5.700000e+00	1.703042e-06	
115	5.750000e+00	1.690547e-06	
116	5.800000e+00	1.678342e-06	
117	5.850000e+00	1.666416e-06	
118	5.900000e+00	1.654760e-06	
119	5.950000e+00	1.643366e-06	
120	6.000000e+00	1.632225e-06	
121	6.050000e+00	1.621328e-06	
122	6.100000e+00	1.610668e-06	
123	6.150000e+00	1.600237e-06	
124	6.200000e+00	1.590029e-06	
125	6.250000e+00	1.580036e-06	
126	6.300000e+00	1.570251e-06	
127	6.350000e+00	1.560669e-06	
128	6.400000e+00	1.551282e-06	
129	6.450000e+00	1.542087e-06	
130	6.500000e+00	1.533076e-06	
131	6.550000e+00	1.524244e-06	
132	6.600000e+00	1.515587e-06	
Reset re-loads circuit ***************************

Circuit: ***************************

Doing analysis at TEMP = 25.000000 and TNOM = 25.000000


No. of Data Rows : 133
                          ***************************
                          DC transfer characteristic  Mon Jan  9 13:58:38  2023
--------------------------------------------------------------------------------
Index   v-sweep         rds             
--------------------------------------------------------------------------------
0	0.000000e+00	1.771668e-04	
1	5.000000e-02	1.717783e-04	
2	1.000000e-01	1.665068e-04	
3	1.500000e-01	1.613492e-04	
4	2.000000e-01	1.563025e-04	
5	2.500000e-01	1.513638e-04	
6	3.000000e-01	1.465297e-04	
7	3.500000e-01	1.417970e-04	
8	4.000000e-01	1.371621e-04	
9	4.500000e-01	1.326215e-04	
10	5.000000e-01	1.281714e-04	
11	5.500000e-01	1.238082e-04	
12	6.000000e-01	1.195283e-04	
13	6.500000e-01	1.153284e-04	
14	7.000000e-01	1.112051e-04	
15	7.500000e-01	1.071555e-04	
16	8.000000e-01	1.031770e-04	
17	8.500000e-01	9.926746e-05	
18	9.000000e-01	9.542488e-05	
19	9.500000e-01	9.164781e-05	
20	1.000000e+00	8.793508e-05	
21	1.050000e+00	8.428589e-05	
22	1.100000e+00	8.069965e-05	
23	1.150000e+00	7.717596e-05	
24	1.200000e+00	7.371446e-05	
25	1.250000e+00	7.031468e-05	
26	1.300000e+00	6.697584e-05	
27	1.350000e+00	6.369653e-05	
28	1.400000e+00	6.047428e-05	
29	1.450000e+00	5.730487e-05	
30	1.500000e+00	5.418140e-05	
31	1.550000e+00	5.109282e-05	
32	1.600000e+00	4.802197e-05	
33	1.650000e+00	4.494349e-05	
34	1.700000e+00	4.182317e-05	
35	1.750000e+00	3.862284e-05	
36	1.800000e+00	3.531752e-05	
37	1.850000e+00	3.192621e-05	
38	1.900000e+00	2.853768e-05	
39	1.950000e+00	2.529551e-05	
40	2.000000e+00	2.233914e-05	
41	2.050000e+00	1.975039e-05	
42	2.100000e+00	1.754380e-05	
43	2.150000e+00	1.568874e-05	
44	2.200000e+00	1.413550e-05	
45	2.250000e+00	1.283215e-05	
46	2.300000e+00	1.173230e-05	
47	2.350000e+00	1.079731e-05	
48	2.400000e+00	9.996104e-06	
49	2.450000e+00	9.303982e-06	
50	2.500000e+00	8.701439e-06	
51	2.550000e+00	8.173025e-06	
52	2.600000e+00	7.706447e-06	
53	2.650000e+00	7.291858e-06	
54	2.700000e+00	6.921313e-06	

Index   v-sweep         rds             
--------------------------------------------------------------------------------
55	2.750000e+00	6.588352e-06	
56	2.800000e+00	6.287682e-06	
57	2.850000e+00	6.014932e-06	
58	2.900000e+00	5.766467e-06	
59	2.950000e+00	5.539246e-06	
60	3.000000e+00	5.330704e-06	
61	3.050000e+00	5.138665e-06	
62	3.100000e+00	4.961276e-06	
63	3.150000e+00	4.796946e-06	
64	3.200000e+00	4.644301e-06	
65	3.250000e+00	4.502155e-06	
66	3.300000e+00	4.369472e-06	
67	3.350000e+00	4.245348e-06	
68	3.400000e+00	4.128990e-06	
69	3.450000e+00	4.019698e-06	
70	3.500000e+00	3.916853e-06	
71	3.550000e+00	3.819906e-06	
72	3.600000e+00	3.728369e-06	
73	3.650000e+00	3.641804e-06	
74	3.700000e+00	3.559820e-06	
75	3.750000e+00	3.482066e-06	
76	3.800000e+00	3.408224e-06	
77	3.850000e+00	3.338009e-06	
78	3.900000e+00	3.271161e-06	
79	3.950000e+00	3.207446e-06	
80	4.000000e+00	3.146649e-06	
81	4.050000e+00	3.088576e-06	
82	4.100000e+00	3.033049e-06	
83	4.150000e+00	2.979905e-06	
84	4.200000e+00	2.928994e-06	
85	4.250000e+00	2.880179e-06	
86	4.300000e+00	2.833334e-06	
87	4.350000e+00	2.788343e-06	
88	4.400000e+00	2.745098e-06	
89	4.450000e+00	2.703500e-06	
90	4.500000e+00	2.663456e-06	
91	4.550000e+00	2.624883e-06	
92	4.600000e+00	2.587700e-06	
93	4.650000e+00	2.551835e-06	
94	4.700000e+00	2.517217e-06	
95	4.750000e+00	2.483785e-06	
96	4.800000e+00	2.451478e-06	
97	4.850000e+00	2.420240e-06	
98	4.900000e+00	2.390020e-06	
99	4.950000e+00	2.360769e-06	
100	5.000000e+00	2.332441e-06	
101	5.050000e+00	2.304993e-06	
102	5.100000e+00	2.278385e-06	
103	5.150000e+00	2.252580e-06	
104	5.200000e+00	2.227541e-06	
105	5.250000e+00	2.203236e-06	
106	5.300000e+00	2.179633e-06	
107	5.350000e+00	2.156702e-06	
108	5.400000e+00	2.134414e-06	
109	5.450000e+00	2.112744e-06	
110	5.500000e+00	2.091667e-06	
111	5.550000e+00	2.071158e-06	
112	5.600000e+00	2.051195e-06	

Index   v-sweep         rds             
--------------------------------------------------------------------------------
113	5.650000e+00	2.031756e-06	
114	5.700000e+00	2.012823e-06	
115	5.750000e+00	1.994375e-06	
116	5.800000e+00	1.976394e-06	
117	5.850000e+00	1.958863e-06	
118	5.900000e+00	1.941766e-06	
119	5.950000e+00	1.925087e-06	
120	6.000000e+00	1.908811e-06	
121	6.050000e+00	1.892923e-06	
122	6.100000e+00	1.877411e-06	
123	6.150000e+00	1.862262e-06	
124	6.200000e+00	1.847463e-06	
125	6.250000e+00	1.833002e-06	
126	6.300000e+00	1.818869e-06	
127	6.350000e+00	1.805052e-06	
128	6.400000e+00	1.791542e-06	
129	6.450000e+00	1.778328e-06	
130	6.500000e+00	1.765401e-06	
131	6.550000e+00	1.752753e-06	
132	6.600000e+00	1.740374e-06	
Reset re-loads circuit ***************************

Circuit: ***************************

Doing analysis at TEMP = 25.000000 and TNOM = 25.000000


No. of Data Rows : 133
                          ***************************
                          DC transfer characteristic  Mon Jan  9 13:58:38  2023
--------------------------------------------------------------------------------
Index   v-sweep         rds             
--------------------------------------------------------------------------------
0	0.000000e+00	1.910888e-04	
1	5.000000e-02	1.860832e-04	
2	1.000000e-01	1.811755e-04	
3	1.500000e-01	1.763633e-04	
4	2.000000e-01	1.716445e-04	
5	2.500000e-01	1.670169e-04	
6	3.000000e-01	1.624780e-04	
7	3.500000e-01	1.580254e-04	
8	4.000000e-01	1.536567e-04	
9	4.500000e-01	1.493692e-04	
10	5.000000e-01	1.451602e-04	
11	5.500000e-01	1.410268e-04	
12	6.000000e-01	1.369664e-04	
13	6.500000e-01	1.329760e-04	
14	7.000000e-01	1.290531e-04	
15	7.500000e-01	1.251950e-04	
16	8.000000e-01	1.213992e-04	
17	8.500000e-01	1.176634e-04	
18	9.000000e-01	1.139856e-04	
19	9.500000e-01	1.103638e-04	
20	1.000000e+00	1.067966e-04	
21	1.050000e+00	1.032825e-04	
22	1.100000e+00	9.982046e-05	
23	1.150000e+00	9.640971e-05	
24	1.200000e+00	9.304963e-05	
25	1.250000e+00	8.973985e-05	
26	1.300000e+00	8.648018e-05	
27	1.350000e+00	8.327055e-05	
28	1.400000e+00	8.011099e-05	
29	1.450000e+00	7.700154e-05	
30	1.500000e+00	7.394213e-05	
31	1.550000e+00	7.093254e-05	
32	1.600000e+00	6.797217e-05	
33	1.650000e+00	6.505988e-05	
34	1.700000e+00	6.219366e-05	
35	1.750000e+00	5.937018e-05	
36	1.800000e+00	5.658414e-05	
37	1.850000e+00	5.382733e-05	
38	1.900000e+00	5.108732e-05	
39	1.950000e+00	4.834580e-05	
40	2.000000e+00	4.557720e-05	
41	2.050000e+00	4.274900e-05	
42	2.100000e+00	3.982704e-05	
43	2.150000e+00	3.679013e-05	
44	2.200000e+00	3.365340e-05	
45	2.250000e+00	3.048676e-05	
46	2.300000e+00	2.740581e-05	
47	2.350000e+00	2.453170e-05	
48	2.400000e+00	2.194919e-05	
49	2.450000e+00	1.969130e-05	
50	2.500000e+00	1.774933e-05	
51	2.550000e+00	1.609150e-05	
52	2.600000e+00	1.467795e-05	
53	2.650000e+00	1.346939e-05	
54	2.700000e+00	1.243099e-05	

Index   v-sweep         rds             
--------------------------------------------------------------------------------
55	2.750000e+00	1.153336e-05	
56	2.800000e+00	1.075233e-05	
57	2.850000e+00	1.006830e-05	
58	2.900000e+00	9.465396e-06	
59	2.950000e+00	8.930766e-06	
60	3.000000e+00	8.453969e-06	
61	3.050000e+00	8.026481e-06	
62	3.100000e+00	7.641298e-06	
63	3.150000e+00	7.292634e-06	
64	3.200000e+00	6.975678e-06	
65	3.250000e+00	6.686401e-06	
66	3.300000e+00	6.421414e-06	
67	3.350000e+00	6.177846e-06	
68	3.400000e+00	5.953251e-06	
69	3.450000e+00	5.745534e-06	
70	3.500000e+00	5.552895e-06	
71	3.550000e+00	5.373774e-06	
72	3.600000e+00	5.206818e-06	
73	3.650000e+00	5.050844e-06	
74	3.700000e+00	4.904818e-06	
75	3.750000e+00	4.767829e-06	
76	3.800000e+00	4.639073e-06	
77	3.850000e+00	4.517838e-06	
78	3.900000e+00	4.403490e-06	
79	3.950000e+00	4.295464e-06	
80	4.000000e+00	4.193255e-06	
81	4.050000e+00	4.096410e-06	
82	4.100000e+00	4.004521e-06	
83	4.150000e+00	3.917220e-06	
84	4.200000e+00	3.834175e-06	
85	4.250000e+00	3.755084e-06	
86	4.300000e+00	3.679674e-06	
87	4.350000e+00	3.607695e-06	
88	4.400000e+00	3.538920e-06	
89	4.450000e+00	3.473141e-06	
90	4.500000e+00	3.410167e-06	
91	4.550000e+00	3.349825e-06	
92	4.600000e+00	3.291954e-06	
93	4.650000e+00	3.236405e-06	
94	4.700000e+00	3.183042e-06	
95	4.750000e+00	3.131741e-06	
96	4.800000e+00	3.082383e-06	
97	4.850000e+00	3.034862e-06	
98	4.900000e+00	2.989077e-06	
99	4.950000e+00	2.944935e-06	
100	5.000000e+00	2.902350e-06	
101	5.050000e+00	2.861242e-06	
102	5.100000e+00	2.821535e-06	
103	5.150000e+00	2.783159e-06	
104	5.200000e+00	2.746049e-06	
105	5.250000e+00	2.710144e-06	
106	5.300000e+00	2.675386e-06	
107	5.350000e+00	2.641721e-06	
108	5.400000e+00	2.609099e-06	
109	5.450000e+00	2.577473e-06	
110	5.500000e+00	2.546798e-06	
111	5.550000e+00	2.517032e-06	
112	5.600000e+00	2.488136e-06	

Index   v-sweep         rds             
--------------------------------------------------------------------------------
113	5.650000e+00	2.460072e-06	
114	5.700000e+00	2.432805e-06	
115	5.750000e+00	2.406303e-06	
116	5.800000e+00	2.380534e-06	
117	5.850000e+00	2.355468e-06	
118	5.900000e+00	2.331077e-06	
119	5.950000e+00	2.307334e-06	
120	6.000000e+00	2.284216e-06	
121	6.050000e+00	2.261697e-06	
122	6.100000e+00	2.239755e-06	
123	6.150000e+00	2.218368e-06	
124	6.200000e+00	2.197517e-06	
125	6.250000e+00	2.177182e-06	
126	6.300000e+00	2.157343e-06	
127	6.350000e+00	2.137985e-06	
128	6.400000e+00	2.119089e-06	
129	6.450000e+00	2.100641e-06	
130	6.500000e+00	2.082624e-06	
131	6.550000e+00	2.065024e-06	
132	6.600000e+00	2.047828e-06	
Reset re-loads circuit ***************************

Circuit: ***************************

Note: No ".plot", ".print", or ".fourier" lines; no simulations run
