
Note: Compatibility modes selected: hs

Warning: m=xx on .subckt line will override multiplier m hierarchy!


Circuit: ***************************

Doing analysis at TEMP = -40.000000 and TNOM = -40.000000


No. of Data Rows : 133
                          ***************************
                          DC transfer characteristic  Mon Jan  9 13:58:38  2023
--------------------------------------------------------------------------------
Index   v-sweep         rds             
--------------------------------------------------------------------------------
0	0.000000e+00	5.407493e-04	
1	5.000000e-02	3.546969e-04	
2	1.000000e-01	1.910040e-04	
3	1.500000e-01	8.412748e-05	
4	2.000000e-01	4.450094e-05	
5	2.500000e-01	3.119036e-05	
6	3.000000e-01	2.503724e-05	
7	3.500000e-01	2.144009e-05	
8	4.000000e-01	1.904830e-05	
9	4.500000e-01	1.733211e-05	
10	5.000000e-01	1.603734e-05	
11	5.500000e-01	1.502489e-05	
12	6.000000e-01	1.421148e-05	
13	6.500000e-01	1.354392e-05	
14	7.000000e-01	1.298651e-05	
15	7.500000e-01	1.251438e-05	
16	8.000000e-01	1.210961e-05	
17	8.500000e-01	1.175901e-05	
18	9.000000e-01	1.145258e-05	
19	9.500000e-01	1.118266e-05	
20	1.000000e+00	1.094325e-05	
21	1.050000e+00	1.072959e-05	
22	1.100000e+00	1.053786e-05	
23	1.150000e+00	1.036494e-05	
24	1.200000e+00	1.020830e-05	
25	1.250000e+00	1.006582e-05	
26	1.300000e+00	9.935733e-06	
27	1.350000e+00	9.816557e-06	
28	1.400000e+00	9.707033e-06	
29	1.450000e+00	9.606084e-06	
30	1.500000e+00	9.512790e-06	
31	1.550000e+00	9.426354e-06	
32	1.600000e+00	9.346085e-06	
33	1.650000e+00	9.271382e-06	
34	1.700000e+00	9.201717e-06	
35	1.750000e+00	9.136627e-06	
36	1.800000e+00	9.075703e-06	
37	1.850000e+00	9.018583e-06	
38	1.900000e+00	8.964944e-06	
39	1.950000e+00	8.914499e-06	
40	2.000000e+00	8.866990e-06	
41	2.050000e+00	8.822189e-06	
42	2.100000e+00	8.779886e-06	
43	2.150000e+00	8.739894e-06	
44	2.200000e+00	8.702045e-06	
45	2.250000e+00	8.666185e-06	
46	2.300000e+00	8.632174e-06	
47	2.350000e+00	8.599886e-06	
48	2.400000e+00	8.569204e-06	
49	2.450000e+00	8.540023e-06	
50	2.500000e+00	8.512246e-06	
51	2.550000e+00	8.485783e-06	
52	2.600000e+00	8.460553e-06	
53	2.650000e+00	8.436481e-06	
54	2.700000e+00	8.413496e-06	

Index   v-sweep         rds             
--------------------------------------------------------------------------------
55	2.750000e+00	8.391536e-06	
56	2.800000e+00	8.370541e-06	
57	2.850000e+00	8.350455e-06	
58	2.900000e+00	8.331228e-06	
59	2.950000e+00	8.312812e-06	
60	3.000000e+00	8.295164e-06	
61	3.050000e+00	8.278242e-06	
62	3.100000e+00	8.262008e-06	
63	3.150000e+00	8.246427e-06	
64	3.200000e+00	8.231465e-06	
65	3.250000e+00	8.217091e-06	
66	3.300000e+00	8.203276e-06	
67	3.350000e+00	8.189993e-06	
68	3.400000e+00	8.177216e-06	
69	3.450000e+00	8.164921e-06	
70	3.500000e+00	8.153085e-06	
71	3.550000e+00	8.141687e-06	
72	3.600000e+00	8.130707e-06	
73	3.650000e+00	8.120126e-06	
74	3.700000e+00	8.109926e-06	
75	3.750000e+00	8.100091e-06	
76	3.800000e+00	8.090605e-06	
77	3.850000e+00	8.081452e-06	
78	3.900000e+00	8.072619e-06	
79	3.950000e+00	8.064092e-06	
80	4.000000e+00	8.055858e-06	
81	4.050000e+00	8.047906e-06	
82	4.100000e+00	8.040224e-06	
83	4.150000e+00	8.032800e-06	
84	4.200000e+00	8.025625e-06	
85	4.250000e+00	8.018690e-06	
86	4.300000e+00	8.011983e-06	
87	4.350000e+00	8.005498e-06	
88	4.400000e+00	7.999225e-06	
89	4.450000e+00	7.993156e-06	
90	4.500000e+00	7.987285e-06	
91	4.550000e+00	7.981602e-06	
92	4.600000e+00	7.976102e-06	
93	4.650000e+00	7.970778e-06	
94	4.700000e+00	7.965623e-06	
95	4.750000e+00	7.960632e-06	
96	4.800000e+00	7.955798e-06	
97	4.850000e+00	7.951117e-06	
98	4.900000e+00	7.946582e-06	
99	4.950000e+00	7.942189e-06	
100	5.000000e+00	7.937933e-06	
101	5.050000e+00	7.933809e-06	
102	5.100000e+00	7.929813e-06	
103	5.150000e+00	7.925941e-06	
104	5.200000e+00	7.922188e-06	
105	5.250000e+00	7.918551e-06	
106	5.300000e+00	7.915025e-06	
107	5.350000e+00	7.911608e-06	
108	5.400000e+00	7.908295e-06	
109	5.450000e+00	7.905084e-06	
110	5.500000e+00	7.901971e-06	
111	5.550000e+00	7.898953e-06	
112	5.600000e+00	7.896026e-06	

Index   v-sweep         rds             
--------------------------------------------------------------------------------
113	5.650000e+00	7.893190e-06	
114	5.700000e+00	7.890439e-06	
115	5.750000e+00	7.887773e-06	
116	5.800000e+00	7.885187e-06	
117	5.850000e+00	7.882681e-06	
118	5.900000e+00	7.880251e-06	
119	5.950000e+00	7.877895e-06	
120	6.000000e+00	7.875611e-06	
121	6.050000e+00	7.873397e-06	
122	6.100000e+00	7.871251e-06	
123	6.150000e+00	7.869171e-06	
124	6.200000e+00	7.867154e-06	
125	6.250000e+00	7.865200e-06	
126	6.300000e+00	7.863306e-06	
127	6.350000e+00	7.861470e-06	
128	6.400000e+00	7.859692e-06	
129	6.450000e+00	7.857968e-06	
130	6.500000e+00	7.856299e-06	
131	6.550000e+00	7.854681e-06	
132	6.600000e+00	7.853115e-06	
Reset re-loads circuit ***************************

Circuit: ***************************

Doing analysis at TEMP = -40.000000 and TNOM = -40.000000


No. of Data Rows : 133
                          ***************************
                          DC transfer characteristic  Mon Jan  9 13:58:38  2023
--------------------------------------------------------------------------------
Index   v-sweep         rds             
--------------------------------------------------------------------------------
0	0.000000e+00	2.592839e-03	
1	5.000000e-02	2.362221e-03	
2	1.000000e-01	2.141860e-03	
3	1.500000e-01	1.931199e-03	
4	2.000000e-01	1.729696e-03	
5	2.500000e-01	1.536817e-03	
6	3.000000e-01	1.352017e-03	
7	3.500000e-01	1.174692e-03	
8	4.000000e-01	1.004096e-03	
9	4.500000e-01	8.392971e-04	
10	5.000000e-01	6.797802e-04	
11	5.500000e-01	5.284968e-04	
12	6.000000e-01	3.961798e-04	
13	6.500000e-01	2.947913e-04	
14	7.000000e-01	2.246846e-04	
15	7.500000e-01	1.776776e-04	
16	8.000000e-01	1.456025e-04	
17	8.500000e-01	1.229374e-04	
18	9.000000e-01	1.063210e-04	
19	9.500000e-01	9.372730e-05	
20	1.000000e+00	8.390575e-05	
21	1.050000e+00	7.605879e-05	
22	1.100000e+00	6.966008e-05	
23	1.150000e+00	6.435108e-05	
24	1.200000e+00	5.988043e-05	
25	1.250000e+00	5.606734e-05	
26	1.300000e+00	5.277881e-05	
27	1.350000e+00	4.991501e-05	
28	1.400000e+00	4.739966e-05	
29	1.450000e+00	4.517354e-05	
30	1.500000e+00	4.318999e-05	
31	1.550000e+00	4.141181e-05	
32	1.600000e+00	3.980899e-05	
33	1.650000e+00	3.835703e-05	
34	1.700000e+00	3.703578e-05	
35	1.750000e+00	3.582849e-05	
36	1.800000e+00	3.472115e-05	
37	1.850000e+00	3.370194e-05	
38	1.900000e+00	3.276083e-05	
39	1.950000e+00	3.188923e-05	
40	2.000000e+00	3.107977e-05	
41	2.050000e+00	3.032610e-05	
42	2.100000e+00	2.962267e-05	
43	2.150000e+00	2.896466e-05	
44	2.200000e+00	2.834784e-05	
45	2.250000e+00	2.776849e-05	
46	2.300000e+00	2.722332e-05	
47	2.350000e+00	2.670942e-05	
48	2.400000e+00	2.622418e-05	
49	2.450000e+00	2.576530e-05	
50	2.500000e+00	2.533069e-05	
51	2.550000e+00	2.491850e-05	
52	2.600000e+00	2.452705e-05	
53	2.650000e+00	2.415481e-05	
54	2.700000e+00	2.380043e-05	

Index   v-sweep         rds             
--------------------------------------------------------------------------------
55	2.750000e+00	2.346266e-05	
56	2.800000e+00	2.314036e-05	
57	2.850000e+00	2.283251e-05	
58	2.900000e+00	2.253815e-05	
59	2.950000e+00	2.225644e-05	
60	3.000000e+00	2.198657e-05	
61	3.050000e+00	2.172783e-05	
62	3.100000e+00	2.147954e-05	
63	3.150000e+00	2.124110e-05	
64	3.200000e+00	2.101192e-05	
65	3.250000e+00	2.079148e-05	
66	3.300000e+00	2.057930e-05	
67	3.350000e+00	2.037493e-05	
68	3.400000e+00	2.017795e-05	
69	3.450000e+00	1.998796e-05	
70	3.500000e+00	1.980461e-05	
71	3.550000e+00	1.962755e-05	
72	3.600000e+00	1.945647e-05	
73	3.650000e+00	1.929108e-05	
74	3.700000e+00	1.913109e-05	
75	3.750000e+00	1.897626e-05	
76	3.800000e+00	1.882633e-05	
77	3.850000e+00	1.868109e-05	
78	3.900000e+00	1.854031e-05	
79	3.950000e+00	1.840380e-05	
80	4.000000e+00	1.827137e-05	
81	4.050000e+00	1.814283e-05	
82	4.100000e+00	1.801803e-05	
83	4.150000e+00	1.789680e-05	
84	4.200000e+00	1.777899e-05	
85	4.250000e+00	1.766447e-05	
86	4.300000e+00	1.755309e-05	
87	4.350000e+00	1.744474e-05	
88	4.400000e+00	1.733929e-05	
89	4.450000e+00	1.723663e-05	
90	4.500000e+00	1.713665e-05	
91	4.550000e+00	1.703925e-05	
92	4.600000e+00	1.694433e-05	
93	4.650000e+00	1.685180e-05	
94	4.700000e+00	1.676157e-05	
95	4.750000e+00	1.667356e-05	
96	4.800000e+00	1.658768e-05	
97	4.850000e+00	1.650387e-05	
98	4.900000e+00	1.642205e-05	
99	4.950000e+00	1.634216e-05	
100	5.000000e+00	1.626411e-05	
101	5.050000e+00	1.618787e-05	
102	5.100000e+00	1.611335e-05	
103	5.150000e+00	1.604051e-05	
104	5.200000e+00	1.596929e-05	
105	5.250000e+00	1.589964e-05	
106	5.300000e+00	1.583150e-05	
107	5.350000e+00	1.576484e-05	
108	5.400000e+00	1.569960e-05	
109	5.450000e+00	1.563573e-05	
110	5.500000e+00	1.557321e-05	
111	5.550000e+00	1.551198e-05	
112	5.600000e+00	1.545201e-05	

Index   v-sweep         rds             
--------------------------------------------------------------------------------
113	5.650000e+00	1.539326e-05	
114	5.700000e+00	1.533569e-05	
115	5.750000e+00	1.527927e-05	
116	5.800000e+00	1.522397e-05	
117	5.850000e+00	1.516975e-05	
118	5.900000e+00	1.511659e-05	
119	5.950000e+00	1.506445e-05	
120	6.000000e+00	1.501330e-05	
121	6.050000e+00	1.496312e-05	
122	6.100000e+00	1.491388e-05	
123	6.150000e+00	1.486556e-05	
124	6.200000e+00	1.481812e-05	
125	6.250000e+00	1.477156e-05	
126	6.300000e+00	1.472583e-05	
127	6.350000e+00	1.468093e-05	
128	6.400000e+00	1.463683e-05	
129	6.450000e+00	1.459351e-05	
130	6.500000e+00	1.455095e-05	
131	6.550000e+00	1.450914e-05	
132	6.600000e+00	1.446804e-05	
Reset re-loads circuit ***************************

Circuit: ***************************

Doing analysis at TEMP = -40.000000 and TNOM = -40.000000


No. of Data Rows : 133
                          ***************************
                          DC transfer characteristic  Mon Jan  9 13:58:38  2023
--------------------------------------------------------------------------------
Index   v-sweep         rds             
--------------------------------------------------------------------------------
0	0.000000e+00	4.086813e-03	
1	5.000000e-02	3.837348e-03	
2	1.000000e-01	3.598195e-03	
3	1.500000e-01	3.368840e-03	
4	2.000000e-01	3.148783e-03	
5	2.500000e-01	2.937533e-03	
6	3.000000e-01	2.734612e-03	
7	3.500000e-01	2.539550e-03	
8	4.000000e-01	2.351881e-03	
9	4.500000e-01	2.171131e-03	
10	5.000000e-01	1.996792e-03	
11	5.500000e-01	1.828264e-03	
12	6.000000e-01	1.664761e-03	
13	6.500000e-01	1.505137e-03	
14	7.000000e-01	1.347629e-03	
15	7.500000e-01	1.189604e-03	
16	8.000000e-01	1.027911e-03	
17	8.500000e-01	8.614572e-04	
18	9.000000e-01	6.965556e-04	
19	9.500000e-01	5.478812e-04	
20	1.000000e+00	4.279557e-04	
21	1.050000e+00	3.384986e-04	
22	1.100000e+00	2.738211e-04	
23	1.150000e+00	2.269769e-04	
24	1.200000e+00	1.924384e-04	
25	1.250000e+00	1.663714e-04	
26	1.300000e+00	1.462250e-04	
27	1.350000e+00	1.303063e-04	
28	1.400000e+00	1.174768e-04	
29	1.450000e+00	1.069548e-04	
30	1.500000e+00	9.819216e-05	
31	1.550000e+00	9.079610e-05	
32	1.600000e+00	8.447937e-05	
33	1.650000e+00	7.902800e-05	
34	1.700000e+00	7.427979e-05	
35	1.750000e+00	7.010991e-05	
36	1.800000e+00	6.642088e-05	
37	1.850000e+00	6.313560e-05	
38	1.900000e+00	6.019236e-05	
39	1.950000e+00	5.754125e-05	
40	2.000000e+00	5.514147e-05	
41	2.050000e+00	5.295941e-05	
42	2.100000e+00	5.096712e-05	
43	2.150000e+00	4.914119e-05	
44	2.200000e+00	4.746185e-05	
45	2.250000e+00	4.591233e-05	
46	2.300000e+00	4.447832e-05	
47	2.350000e+00	4.314747e-05	
48	2.400000e+00	4.190917e-05	
49	2.450000e+00	4.075417e-05	
50	2.500000e+00	3.967441e-05	
51	2.550000e+00	3.866285e-05	
52	2.600000e+00	3.771326e-05	
53	2.650000e+00	3.682018e-05	
54	2.700000e+00	3.597874e-05	

Index   v-sweep         rds             
--------------------------------------------------------------------------------
55	2.750000e+00	3.518463e-05	
56	2.800000e+00	3.443399e-05	
57	2.850000e+00	3.372337e-05	
58	2.900000e+00	3.304968e-05	
59	2.950000e+00	3.241014e-05	
60	3.000000e+00	3.180222e-05	
61	3.050000e+00	3.122366e-05	
62	3.100000e+00	3.067239e-05	
63	3.150000e+00	3.014654e-05	
64	3.200000e+00	2.964440e-05	
65	3.250000e+00	2.916441e-05	
66	3.300000e+00	2.870515e-05	
67	3.350000e+00	2.826531e-05	
68	3.400000e+00	2.784370e-05	
69	3.450000e+00	2.743920e-05	
70	3.500000e+00	2.705081e-05	
71	3.550000e+00	2.667758e-05	
72	3.600000e+00	2.631866e-05	
73	3.650000e+00	2.597323e-05	
74	3.700000e+00	2.564056e-05	
75	3.750000e+00	2.531996e-05	
76	3.800000e+00	2.501078e-05	
77	3.850000e+00	2.471243e-05	
78	3.900000e+00	2.442435e-05	
79	3.950000e+00	2.414603e-05	
80	4.000000e+00	2.387698e-05	
81	4.050000e+00	2.361674e-05	
82	4.100000e+00	2.336490e-05	
83	4.150000e+00	2.312106e-05	
84	4.200000e+00	2.288484e-05	
85	4.250000e+00	2.265590e-05	
86	4.300000e+00	2.243391e-05	
87	4.350000e+00	2.221855e-05	
88	4.400000e+00	2.200954e-05	
89	4.450000e+00	2.180660e-05	
90	4.500000e+00	2.160947e-05	
91	4.550000e+00	2.141791e-05	
92	4.600000e+00	2.123169e-05	
93	4.650000e+00	2.105060e-05	
94	4.700000e+00	2.087441e-05	
95	4.750000e+00	2.070295e-05	
96	4.800000e+00	2.053602e-05	
97	4.850000e+00	2.037344e-05	
98	4.900000e+00	2.021506e-05	
99	4.950000e+00	2.006071e-05	
100	5.000000e+00	1.991025e-05	
101	5.050000e+00	1.976352e-05	
102	5.100000e+00	1.962040e-05	
103	5.150000e+00	1.948075e-05	
104	5.200000e+00	1.934446e-05	
105	5.250000e+00	1.921140e-05	
106	5.300000e+00	1.908146e-05	
107	5.350000e+00	1.895454e-05	
108	5.400000e+00	1.883053e-05	
109	5.450000e+00	1.870934e-05	
110	5.500000e+00	1.859087e-05	
111	5.550000e+00	1.847503e-05	
112	5.600000e+00	1.836174e-05	

Index   v-sweep         rds             
--------------------------------------------------------------------------------
113	5.650000e+00	1.825092e-05	
114	5.700000e+00	1.814249e-05	
115	5.750000e+00	1.803637e-05	
116	5.800000e+00	1.793249e-05	
117	5.850000e+00	1.783079e-05	
118	5.900000e+00	1.773120e-05	
119	5.950000e+00	1.763365e-05	
120	6.000000e+00	1.753808e-05	
121	6.050000e+00	1.744444e-05	
122	6.100000e+00	1.735267e-05	
123	6.150000e+00	1.726271e-05	
124	6.200000e+00	1.717452e-05	
125	6.250000e+00	1.708804e-05	
126	6.300000e+00	1.700322e-05	
127	6.350000e+00	1.692003e-05	
128	6.400000e+00	1.683840e-05	
129	6.450000e+00	1.675832e-05	
130	6.500000e+00	1.667972e-05	
131	6.550000e+00	1.660257e-05	
132	6.600000e+00	1.652683e-05	
Reset re-loads circuit ***************************

Circuit: ***************************

Doing analysis at TEMP = -40.000000 and TNOM = -40.000000


No. of Data Rows : 133
                          ***************************
                          DC transfer characteristic  Mon Jan  9 13:58:38  2023
--------------------------------------------------------------------------------
Index   v-sweep         rds             
--------------------------------------------------------------------------------
0	0.000000e+00	5.231976e-03	
1	5.000000e-02	4.978507e-03	
2	1.000000e-01	4.734497e-03	
3	1.500000e-01	4.499530e-03	
4	2.000000e-01	4.273201e-03	
5	2.500000e-01	4.055114e-03	
6	3.000000e-01	3.844879e-03	
7	3.500000e-01	3.642116e-03	
8	4.000000e-01	3.446454e-03	
9	4.500000e-01	3.257533e-03	
10	5.000000e-01	3.075004e-03	
11	5.500000e-01	2.898529e-03	
12	6.000000e-01	2.727768e-03	
13	6.500000e-01	2.562373e-03	
14	7.000000e-01	2.401965e-03	
15	7.500000e-01	2.246095e-03	
16	8.000000e-01	2.094191e-03	
17	8.500000e-01	1.945455e-03	
18	9.000000e-01	1.798716e-03	
19	9.500000e-01	1.652200e-03	
20	1.000000e+00	1.503283e-03	
21	1.050000e+00	1.348491e-03	
22	1.100000e+00	1.184588e-03	
23	1.150000e+00	1.011885e-03	
24	1.200000e+00	8.384569e-04	
25	1.250000e+00	6.788689e-04	
26	1.300000e+00	5.452085e-04	
27	1.350000e+00	4.406934e-04	
28	1.400000e+00	3.616891e-04	
29	1.450000e+00	3.023815e-04	
30	1.500000e+00	2.574759e-04	
31	1.550000e+00	2.229357e-04	
32	1.600000e+00	1.958833e-04	
33	1.650000e+00	1.743097e-04	
34	1.700000e+00	1.568118e-04	
35	1.750000e+00	1.423989e-04	
36	1.800000e+00	1.303612e-04	
37	1.850000e+00	1.201820e-04	
38	1.900000e+00	1.114784e-04	
39	1.950000e+00	1.039627e-04	
40	2.000000e+00	9.741497e-05	
41	2.050000e+00	9.166513e-05	
42	2.100000e+00	8.657966e-05	
43	2.150000e+00	8.205260e-05	
44	2.200000e+00	7.799892e-05	
45	2.250000e+00	7.434967e-05	
46	2.300000e+00	7.104845e-05	
47	2.350000e+00	6.804869e-05	
48	2.400000e+00	6.531165e-05	
49	2.450000e+00	6.280484e-05	
50	2.500000e+00	6.050086e-05	
51	2.550000e+00	5.837643e-05	
52	2.600000e+00	5.641164e-05	
53	2.650000e+00	5.458941e-05	
54	2.700000e+00	5.289497e-05	

Index   v-sweep         rds             
--------------------------------------------------------------------------------
55	2.750000e+00	5.131549e-05	
56	2.800000e+00	4.983981e-05	
57	2.850000e+00	4.845813e-05	
58	2.900000e+00	4.716186e-05	
59	2.950000e+00	4.594339e-05	
60	3.000000e+00	4.479600e-05	
61	3.050000e+00	4.371370e-05	
62	3.100000e+00	4.269116e-05	
63	3.150000e+00	4.172361e-05	
64	3.200000e+00	4.080677e-05	
65	3.250000e+00	3.993679e-05	
66	3.300000e+00	3.911020e-05	
67	3.350000e+00	3.832385e-05	
68	3.400000e+00	3.757490e-05	
69	3.450000e+00	3.686077e-05	
70	3.500000e+00	3.617910e-05	
71	3.550000e+00	3.552775e-05	
72	3.600000e+00	3.490474e-05	
73	3.650000e+00	3.430828e-05	
74	3.700000e+00	3.373673e-05	
75	3.750000e+00	3.318856e-05	
76	3.800000e+00	3.266238e-05	
77	3.850000e+00	3.215689e-05	
78	3.900000e+00	3.167092e-05	
79	3.950000e+00	3.120335e-05	
80	4.000000e+00	3.075318e-05	
81	4.050000e+00	3.031945e-05	
82	4.100000e+00	2.990128e-05	
83	4.150000e+00	2.949786e-05	
84	4.200000e+00	2.910842e-05	
85	4.250000e+00	2.873226e-05	
86	4.300000e+00	2.836872e-05	
87	4.350000e+00	2.801716e-05	
88	4.400000e+00	2.767702e-05	
89	4.450000e+00	2.734775e-05	
90	4.500000e+00	2.702884e-05	
91	4.550000e+00	2.671982e-05	
92	4.600000e+00	2.642023e-05	
93	4.650000e+00	2.612966e-05	
94	4.700000e+00	2.584770e-05	
95	4.750000e+00	2.557398e-05	
96	4.800000e+00	2.530815e-05	
97	4.850000e+00	2.504988e-05	
98	4.900000e+00	2.479885e-05	
99	4.950000e+00	2.455477e-05	
100	5.000000e+00	2.431735e-05	
101	5.050000e+00	2.408633e-05	
102	5.100000e+00	2.386145e-05	
103	5.150000e+00	2.364249e-05	
104	5.200000e+00	2.342920e-05	
105	5.250000e+00	2.322138e-05	
106	5.300000e+00	2.301882e-05	
107	5.350000e+00	2.282133e-05	
108	5.400000e+00	2.262872e-05	
109	5.450000e+00	2.244082e-05	
110	5.500000e+00	2.225746e-05	
111	5.550000e+00	2.207849e-05	
112	5.600000e+00	2.190374e-05	

Index   v-sweep         rds             
--------------------------------------------------------------------------------
113	5.650000e+00	2.173307e-05	
114	5.700000e+00	2.156635e-05	
115	5.750000e+00	2.140345e-05	
116	5.800000e+00	2.124423e-05	
117	5.850000e+00	2.108858e-05	
118	5.900000e+00	2.093638e-05	
119	5.950000e+00	2.078752e-05	
120	6.000000e+00	2.064189e-05	
121	6.050000e+00	2.049940e-05	
122	6.100000e+00	2.035995e-05	
123	6.150000e+00	2.022344e-05	
124	6.200000e+00	2.008978e-05	
125	6.250000e+00	1.995890e-05	
126	6.300000e+00	1.983070e-05	
127	6.350000e+00	1.970511e-05	
128	6.400000e+00	1.958205e-05	
129	6.450000e+00	1.946144e-05	
130	6.500000e+00	1.934323e-05	
131	6.550000e+00	1.922734e-05	
132	6.600000e+00	1.911370e-05	
Reset re-loads circuit ***************************

Circuit: ***************************

Doing analysis at TEMP = -40.000000 and TNOM = -40.000000


No. of Data Rows : 133
                          ***************************
                          DC transfer characteristic  Mon Jan  9 13:58:38  2023
--------------------------------------------------------------------------------
Index   v-sweep         rds             
--------------------------------------------------------------------------------
0	0.000000e+00	6.072755e-03	
1	5.000000e-02	5.826939e-03	
2	1.000000e-01	5.589311e-03	
3	1.500000e-01	5.359555e-03	
4	2.000000e-01	5.137363e-03	
5	2.500000e-01	4.922433e-03	
6	3.000000e-01	4.714467e-03	
7	3.500000e-01	4.513174e-03	
8	4.000000e-01	4.318265e-03	
9	4.500000e-01	4.129462e-03	
10	5.000000e-01	3.946491e-03	
11	5.500000e-01	3.769091e-03	
12	6.000000e-01	3.597009e-03	
13	6.500000e-01	3.430002e-03	
14	7.000000e-01	3.267835e-03	
15	7.500000e-01	3.110278e-03	
16	8.000000e-01	2.957101e-03	
17	8.500000e-01	2.808062e-03	
18	9.000000e-01	2.662896e-03	
19	9.500000e-01	2.521290e-03	
20	1.000000e+00	2.382854e-03	
21	1.050000e+00	2.247066e-03	
22	1.100000e+00	2.113190e-03	
23	1.150000e+00	1.980152e-03	
24	1.200000e+00	1.846368e-03	
25	1.250000e+00	1.709542e-03	
26	1.300000e+00	1.566580e-03	
27	1.350000e+00	1.414069e-03	
28	1.400000e+00	1.250054e-03	
29	1.450000e+00	1.077315e-03	
30	1.500000e+00	9.055167e-04	
31	1.550000e+00	7.479101e-04	
32	1.600000e+00	6.141908e-04	
33	1.650000e+00	5.068900e-04	
34	1.700000e+00	4.232555e-04	
35	1.750000e+00	3.586038e-04	
36	1.800000e+00	3.083970e-04	
37	1.850000e+00	2.689672e-04	
38	1.900000e+00	2.375635e-04	
39	1.950000e+00	2.121824e-04	
40	2.000000e+00	1.913742e-04	
41	2.050000e+00	1.740861e-04	
42	2.100000e+00	1.595459e-04	
43	2.150000e+00	1.471801e-04	
44	2.200000e+00	1.365573e-04	
45	2.250000e+00	1.273485e-04	
46	2.300000e+00	1.192998e-04	
47	2.350000e+00	1.122125e-04	
48	2.400000e+00	1.059296e-04	
49	2.450000e+00	1.003257e-04	
50	2.500000e+00	9.529932e-05	
51	2.550000e+00	9.076790e-05	
52	2.600000e+00	8.666352e-05	
53	2.650000e+00	8.292992e-05	
54	2.700000e+00	7.952009e-05	

Index   v-sweep         rds             
--------------------------------------------------------------------------------
55	2.750000e+00	7.639452e-05	
56	2.800000e+00	7.351977e-05	
57	2.850000e+00	7.086736e-05	
58	2.900000e+00	6.841290e-05	
59	2.950000e+00	6.613539e-05	
60	3.000000e+00	6.401666e-05	
61	3.050000e+00	6.204091e-05	
62	3.100000e+00	6.019435e-05	
63	3.150000e+00	5.846488e-05	
64	3.200000e+00	5.684185e-05	
65	3.250000e+00	5.531585e-05	
66	3.300000e+00	5.387855e-05	
67	3.350000e+00	5.252251e-05	
68	3.400000e+00	5.124111e-05	
69	3.450000e+00	5.002842e-05	
70	3.500000e+00	4.887911e-05	
71	3.550000e+00	4.778840e-05	
72	3.600000e+00	4.675195e-05	
73	3.650000e+00	4.576586e-05	
74	3.700000e+00	4.482658e-05	
75	3.750000e+00	4.393087e-05	
76	3.800000e+00	4.307581e-05	
77	3.850000e+00	4.225870e-05	
78	3.900000e+00	4.147711e-05	
79	3.950000e+00	4.072878e-05	
80	4.000000e+00	4.001165e-05	
81	4.050000e+00	3.932382e-05	
82	4.100000e+00	3.866355e-05	
83	4.150000e+00	3.802923e-05	
84	4.200000e+00	3.741936e-05	
85	4.250000e+00	3.683258e-05	
86	4.300000e+00	3.626760e-05	
87	4.350000e+00	3.572324e-05	
88	4.400000e+00	3.519841e-05	
89	4.450000e+00	3.469207e-05	
90	4.500000e+00	3.420327e-05	
91	4.550000e+00	3.373113e-05	
92	4.600000e+00	3.327481e-05	
93	4.650000e+00	3.283354e-05	
94	4.700000e+00	3.240659e-05	
95	4.750000e+00	3.199329e-05	
96	4.800000e+00	3.159299e-05	
97	4.850000e+00	3.120510e-05	
98	4.900000e+00	3.082905e-05	
99	4.950000e+00	3.046432e-05	
100	5.000000e+00	3.011040e-05	
101	5.050000e+00	2.976683e-05	
102	5.100000e+00	2.943317e-05	
103	5.150000e+00	2.910900e-05	
104	5.200000e+00	2.879393e-05	
105	5.250000e+00	2.848758e-05	
106	5.300000e+00	2.818960e-05	
107	5.350000e+00	2.789966e-05	
108	5.400000e+00	2.761744e-05	
109	5.450000e+00	2.734265e-05	
110	5.500000e+00	2.707500e-05	
111	5.550000e+00	2.681421e-05	
112	5.600000e+00	2.656005e-05	

Index   v-sweep         rds             
--------------------------------------------------------------------------------
113	5.650000e+00	2.631225e-05	
114	5.700000e+00	2.607059e-05	
115	5.750000e+00	2.583486e-05	
116	5.800000e+00	2.560483e-05	
117	5.850000e+00	2.538032e-05	
118	5.900000e+00	2.516112e-05	
119	5.950000e+00	2.494707e-05	
120	6.000000e+00	2.473798e-05	
121	6.050000e+00	2.453369e-05	
122	6.100000e+00	2.433404e-05	
123	6.150000e+00	2.413888e-05	
124	6.200000e+00	2.394807e-05	
125	6.250000e+00	2.376147e-05	
126	6.300000e+00	2.357894e-05	
127	6.350000e+00	2.340036e-05	
128	6.400000e+00	2.322561e-05	
129	6.450000e+00	2.305456e-05	
130	6.500000e+00	2.288712e-05	
131	6.550000e+00	2.272316e-05	
132	6.600000e+00	2.256259e-05	
Reset re-loads circuit ***************************

Circuit: ***************************

Doing analysis at TEMP = -40.000000 and TNOM = -40.000000


No. of Data Rows : 133
                          ***************************
                          DC transfer characteristic  Mon Jan  9 13:58:38  2023
--------------------------------------------------------------------------------
Index   v-sweep         rds             
--------------------------------------------------------------------------------
0	0.000000e+00	6.617642e-03	
1	5.000000e-02	6.387999e-03	
2	1.000000e-01	6.165153e-03	
3	1.500000e-01	5.948873e-03	
4	2.000000e-01	5.738933e-03	
5	2.500000e-01	5.535113e-03	
6	3.000000e-01	5.337196e-03	
7	3.500000e-01	5.144966e-03	
8	4.000000e-01	4.958213e-03	
9	4.500000e-01	4.776729e-03	
10	5.000000e-01	4.600309e-03	
11	5.500000e-01	4.428754e-03	
12	6.000000e-01	4.261873e-03	
13	6.500000e-01	4.099480e-03	
14	7.000000e-01	3.941395e-03	
15	7.500000e-01	3.787449e-03	
16	8.000000e-01	3.637477e-03	
17	8.500000e-01	3.491322e-03	
18	9.000000e-01	3.348832e-03	
19	9.500000e-01	3.209855e-03	
20	1.000000e+00	3.074239e-03	
21	1.050000e+00	2.941821e-03	
22	1.100000e+00	2.812426e-03	
23	1.150000e+00	2.685847e-03	
24	1.200000e+00	2.561834e-03	
25	1.250000e+00	2.440062e-03	
26	1.300000e+00	2.320091e-03	
27	1.350000e+00	2.201308e-03	
28	1.400000e+00	2.082832e-03	
29	1.450000e+00	1.963390e-03	
30	1.500000e+00	1.841164e-03	
31	1.550000e+00	1.713681e-03	
32	1.600000e+00	1.577945e-03	
33	1.650000e+00	1.431247e-03	
34	1.700000e+00	1.273083e-03	
35	1.750000e+00	1.107634e-03	
36	1.800000e+00	9.443127e-04	
37	1.850000e+00	7.942330e-04	
38	1.900000e+00	6.650932e-04	
39	1.950000e+00	5.590689e-04	
40	2.000000e+00	4.742501e-04	
41	2.050000e+00	4.070163e-04	
42	2.100000e+00	3.536297e-04	
43	2.150000e+00	3.109026e-04	
44	2.200000e+00	2.763325e-04	
45	2.250000e+00	2.480252e-04	
46	2.300000e+00	2.245658e-04	
47	2.350000e+00	2.048990e-04	
48	2.400000e+00	1.882330e-04	
49	2.450000e+00	1.739691e-04	
50	2.500000e+00	1.616493e-04	
51	2.550000e+00	1.509201e-04	
52	2.600000e+00	1.415051e-04	
53	2.650000e+00	1.331861e-04	
54	2.700000e+00	1.257890e-04	

Index   v-sweep         rds             
--------------------------------------------------------------------------------
55	2.750000e+00	1.191738e-04	
56	2.800000e+00	1.132265e-04	
57	2.850000e+00	1.078537e-04	
58	2.900000e+00	1.029782e-04	
59	2.950000e+00	9.853581e-05	
60	3.000000e+00	9.447257e-05	
61	3.050000e+00	9.074303e-05	
62	3.100000e+00	8.730857e-05	
63	3.150000e+00	8.413620e-05	
64	3.200000e+00	8.119760e-05	
65	3.250000e+00	7.846831e-05	
66	3.300000e+00	7.592712e-05	
67	3.350000e+00	7.355554e-05	
68	3.400000e+00	7.133742e-05	
69	3.450000e+00	6.925855e-05	
70	3.500000e+00	6.730640e-05	
71	3.550000e+00	6.546988e-05	
72	3.600000e+00	6.373917e-05	
73	3.650000e+00	6.210547e-05	
74	3.700000e+00	6.056097e-05	
75	3.750000e+00	5.909863e-05	
76	3.800000e+00	5.771215e-05	
77	3.850000e+00	5.639583e-05	
78	3.900000e+00	5.514454e-05	
79	3.950000e+00	5.395363e-05	
80	4.000000e+00	5.281886e-05	
81	4.050000e+00	5.173641e-05	
82	4.100000e+00	5.070277e-05	
83	4.150000e+00	4.971474e-05	
84	4.200000e+00	4.876939e-05	
85	4.250000e+00	4.786404e-05	
86	4.300000e+00	4.699623e-05	
87	4.350000e+00	4.616370e-05	
88	4.400000e+00	4.536434e-05	
89	4.450000e+00	4.459623e-05	
90	4.500000e+00	4.385760e-05	
91	4.550000e+00	4.314678e-05	
92	4.600000e+00	4.246225e-05	
93	4.650000e+00	4.180260e-05	
94	4.700000e+00	4.116649e-05	
95	4.750000e+00	4.055271e-05	
96	4.800000e+00	3.996010e-05	
97	4.850000e+00	3.938760e-05	
98	4.900000e+00	3.883421e-05	
99	4.950000e+00	3.829901e-05	
100	5.000000e+00	3.778111e-05	
101	5.050000e+00	3.727970e-05	
102	5.100000e+00	3.679401e-05	
103	5.150000e+00	3.632332e-05	
104	5.200000e+00	3.586696e-05	
105	5.250000e+00	3.542429e-05	
106	5.300000e+00	3.499471e-05	
107	5.350000e+00	3.457766e-05	
108	5.400000e+00	3.417260e-05	
109	5.450000e+00	3.377904e-05	
110	5.500000e+00	3.339649e-05	
111	5.550000e+00	3.302451e-05	
112	5.600000e+00	3.266267e-05	

Index   v-sweep         rds             
--------------------------------------------------------------------------------
113	5.650000e+00	3.231058e-05	
114	5.700000e+00	3.196785e-05	
115	5.750000e+00	3.163412e-05	
116	5.800000e+00	3.130905e-05	
117	5.850000e+00	3.099232e-05	
118	5.900000e+00	3.068361e-05	
119	5.950000e+00	3.038264e-05	
120	6.000000e+00	3.008912e-05	
121	6.050000e+00	2.980279e-05	
122	6.100000e+00	2.952340e-05	
123	6.150000e+00	2.925070e-05	
124	6.200000e+00	2.898447e-05	
125	6.250000e+00	2.872448e-05	
126	6.300000e+00	2.847053e-05	
127	6.350000e+00	2.822241e-05	
128	6.400000e+00	2.797994e-05	
129	6.450000e+00	2.774294e-05	
130	6.500000e+00	2.751122e-05	
131	6.550000e+00	2.728462e-05	
132	6.600000e+00	2.706299e-05	
Reset re-loads circuit ***************************

Circuit: ***************************

Note: No ".plot", ".print", or ".fourier" lines; no simulations run
