
Note: Compatibility modes selected: hs

Warning: m=xx on .subckt line will override multiplier m hierarchy!


Circuit: ***************************

Doing analysis at TEMP = 125.000000 and TNOM = 125.000000


No. of Data Rows : 133
                          ***************************
                          DC transfer characteristic  Mon Jan  9 13:58:39  2023
--------------------------------------------------------------------------------
Index   v-sweep         rds             
--------------------------------------------------------------------------------
0	0.000000e+00	6.189388e-04	
1	5.000000e-02	5.051019e-04	
2	1.000000e-01	3.954174e-04	
3	1.500000e-01	2.910160e-04	
4	2.000000e-01	1.957525e-04	
5	2.500000e-01	1.202552e-04	
6	3.000000e-01	7.655944e-05	
7	3.500000e-01	5.739222e-05	
8	4.000000e-01	4.839066e-05	
9	4.500000e-01	4.309405e-05	
10	5.000000e-01	3.943635e-05	
11	5.500000e-01	3.668024e-05	
12	6.000000e-01	3.449902e-05	
13	6.500000e-01	3.271873e-05	
14	7.000000e-01	3.123407e-05	
15	7.500000e-01	2.997570e-05	
16	8.000000e-01	2.889525e-05	
17	8.500000e-01	2.795763e-05	
18	9.000000e-01	2.713655e-05	
19	9.500000e-01	2.641191e-05	
20	1.000000e+00	2.576800e-05	
21	1.050000e+00	2.519236e-05	
22	1.100000e+00	2.467497e-05	
23	1.150000e+00	2.420769e-05	
24	1.200000e+00	2.378381e-05	
25	1.250000e+00	2.339776e-05	
26	1.300000e+00	2.304489e-05	
27	1.350000e+00	2.272127e-05	
28	1.400000e+00	2.242356e-05	
29	1.450000e+00	2.214891e-05	
30	1.500000e+00	2.189488e-05	
31	1.550000e+00	2.165933e-05	
32	1.600000e+00	2.144043e-05	
33	1.650000e+00	2.123656e-05	
34	1.700000e+00	2.104633e-05	
35	1.750000e+00	2.086848e-05	
36	1.800000e+00	2.070192e-05	
37	1.850000e+00	2.054568e-05	
38	1.900000e+00	2.039889e-05	
39	1.950000e+00	2.026078e-05	
40	2.000000e+00	2.013066e-05	
41	2.050000e+00	2.000789e-05	
42	2.100000e+00	1.989193e-05	
43	2.150000e+00	1.978227e-05	
44	2.200000e+00	1.967845e-05	
45	2.250000e+00	1.958005e-05	
46	2.300000e+00	1.948669e-05	
47	2.350000e+00	1.939804e-05	
48	2.400000e+00	1.931378e-05	
49	2.450000e+00	1.923362e-05	
50	2.500000e+00	1.915730e-05	
51	2.550000e+00	1.908457e-05	
52	2.600000e+00	1.901522e-05	
53	2.650000e+00	1.894904e-05	
54	2.700000e+00	1.888583e-05	

Index   v-sweep         rds             
--------------------------------------------------------------------------------
55	2.750000e+00	1.882544e-05	
56	2.800000e+00	1.876768e-05	
57	2.850000e+00	1.871242e-05	
58	2.900000e+00	1.865951e-05	
59	2.950000e+00	1.860883e-05	
60	3.000000e+00	1.856026e-05	
61	3.050000e+00	1.851367e-05	
62	3.100000e+00	1.846898e-05	
63	3.150000e+00	1.842608e-05	
64	3.200000e+00	1.838488e-05	
65	3.250000e+00	1.834530e-05	
66	3.300000e+00	1.830725e-05	
67	3.350000e+00	1.827066e-05	
68	3.400000e+00	1.823547e-05	
69	3.450000e+00	1.820160e-05	
70	3.500000e+00	1.816899e-05	
71	3.550000e+00	1.813759e-05	
72	3.600000e+00	1.810734e-05	
73	3.650000e+00	1.807818e-05	
74	3.700000e+00	1.805008e-05	
75	3.750000e+00	1.802298e-05	
76	3.800000e+00	1.799684e-05	
77	3.850000e+00	1.797161e-05	
78	3.900000e+00	1.794727e-05	
79	3.950000e+00	1.792377e-05	
80	4.000000e+00	1.790108e-05	
81	4.050000e+00	1.787916e-05	
82	4.100000e+00	1.785799e-05	
83	4.150000e+00	1.783753e-05	
84	4.200000e+00	1.781776e-05	
85	4.250000e+00	1.779865e-05	
86	4.300000e+00	1.778017e-05	
87	4.350000e+00	1.776229e-05	
88	4.400000e+00	1.774501e-05	
89	4.450000e+00	1.772828e-05	
90	4.500000e+00	1.771210e-05	
91	4.550000e+00	1.769644e-05	
92	4.600000e+00	1.768129e-05	
93	4.650000e+00	1.766662e-05	
94	4.700000e+00	1.765241e-05	
95	4.750000e+00	1.763866e-05	
96	4.800000e+00	1.762535e-05	
97	4.850000e+00	1.761245e-05	
98	4.900000e+00	1.759996e-05	
99	4.950000e+00	1.758786e-05	
100	5.000000e+00	1.757613e-05	
101	5.050000e+00	1.756477e-05	
102	5.100000e+00	1.755377e-05	
103	5.150000e+00	1.754310e-05	
104	5.200000e+00	1.753277e-05	
105	5.250000e+00	1.752275e-05	
106	5.300000e+00	1.751305e-05	
107	5.350000e+00	1.750364e-05	
108	5.400000e+00	1.749452e-05	
109	5.450000e+00	1.748568e-05	
110	5.500000e+00	1.747711e-05	
111	5.550000e+00	1.746880e-05	
112	5.600000e+00	1.746075e-05	

Index   v-sweep         rds             
--------------------------------------------------------------------------------
113	5.650000e+00	1.745294e-05	
114	5.700000e+00	1.744537e-05	
115	5.750000e+00	1.743803e-05	
116	5.800000e+00	1.743092e-05	
117	5.850000e+00	1.742403e-05	
118	5.900000e+00	1.741734e-05	
119	5.950000e+00	1.741086e-05	
120	6.000000e+00	1.740458e-05	
121	6.050000e+00	1.739849e-05	
122	6.100000e+00	1.739259e-05	
123	6.150000e+00	1.738687e-05	
124	6.200000e+00	1.738132e-05	
125	6.250000e+00	1.737595e-05	
126	6.300000e+00	1.737074e-05	
127	6.350000e+00	1.736570e-05	
128	6.400000e+00	1.736081e-05	
129	6.450000e+00	1.735607e-05	
130	6.500000e+00	1.735148e-05	
131	6.550000e+00	1.734704e-05	
132	6.600000e+00	1.734273e-05	
Reset re-loads circuit ***************************

Circuit: ***************************

Doing analysis at TEMP = 125.000000 and TNOM = 125.000000


No. of Data Rows : 133
                          ***************************
                          DC transfer characteristic  Mon Jan  9 13:58:39  2023
--------------------------------------------------------------------------------
Index   v-sweep         rds             
--------------------------------------------------------------------------------
0	0.000000e+00	1.886001e-03	
1	5.000000e-02	1.753947e-03	
2	1.000000e-01	1.625796e-03	
3	1.500000e-01	1.501418e-03	
4	2.000000e-01	1.380694e-03	
5	2.500000e-01	1.263514e-03	
6	3.000000e-01	1.149780e-03	
7	3.500000e-01	1.039415e-03	
8	4.000000e-01	9.323719e-04	
9	4.500000e-01	8.286575e-04	
10	5.000000e-01	7.283783e-04	
11	5.500000e-01	6.318387e-04	
12	6.000000e-01	5.397478e-04	
13	6.500000e-01	4.535981e-04	
14	7.000000e-01	3.760656e-04	
15	7.500000e-01	3.105268e-04	
16	8.000000e-01	2.588645e-04	
17	8.500000e-01	2.198958e-04	
18	9.000000e-01	1.906971e-04	
19	9.500000e-01	1.684638e-04	
20	1.000000e+00	1.511363e-04	
21	1.050000e+00	1.373178e-04	
22	1.100000e+00	1.260694e-04	
23	1.150000e+00	1.167493e-04	
24	1.200000e+00	1.089085e-04	
25	1.250000e+00	1.022255e-04	
26	1.300000e+00	9.646420e-05	
27	1.350000e+00	9.144830e-05	
28	1.400000e+00	8.704329e-05	
29	1.450000e+00	8.314499e-05	
30	1.500000e+00	7.967150e-05	
31	1.550000e+00	7.655756e-05	
32	1.600000e+00	7.375056e-05	
33	1.650000e+00	7.120765e-05	
34	1.700000e+00	6.889355e-05	
35	1.750000e+00	6.677897e-05	
36	1.800000e+00	6.483941e-05	
37	1.850000e+00	6.305419e-05	
38	1.900000e+00	6.140577e-05	
39	1.950000e+00	5.987915e-05	
40	2.000000e+00	5.846144e-05	
41	2.050000e+00	5.714150e-05	
42	2.100000e+00	5.590965e-05	
43	2.150000e+00	5.475746e-05	
44	2.200000e+00	5.367751e-05	
45	2.250000e+00	5.266330e-05	
46	2.300000e+00	5.170907e-05	
47	2.350000e+00	5.080970e-05	
48	2.400000e+00	4.996066e-05	
49	2.450000e+00	4.915789e-05	
50	2.500000e+00	4.839774e-05	
51	2.550000e+00	4.767696e-05	
52	2.600000e+00	4.699261e-05	
53	2.650000e+00	4.634202e-05	
54	2.700000e+00	4.572279e-05	

Index   v-sweep         rds             
--------------------------------------------------------------------------------
55	2.750000e+00	4.513274e-05	
56	2.800000e+00	4.456988e-05	
57	2.850000e+00	4.403241e-05	
58	2.900000e+00	4.351866e-05	
59	2.950000e+00	4.302712e-05	
60	3.000000e+00	4.255641e-05	
61	3.050000e+00	4.210526e-05	
62	3.100000e+00	4.167247e-05	
63	3.150000e+00	4.125698e-05	
64	3.200000e+00	4.085779e-05	
65	3.250000e+00	4.047397e-05	
66	3.300000e+00	4.010466e-05	
67	3.350000e+00	3.974907e-05	
68	3.400000e+00	3.940647e-05	
69	3.450000e+00	3.907617e-05	
70	3.500000e+00	3.875752e-05	
71	3.550000e+00	3.844995e-05	
72	3.600000e+00	3.815288e-05	
73	3.650000e+00	3.786580e-05	
74	3.700000e+00	3.758822e-05	
75	3.750000e+00	3.731970e-05	
76	3.800000e+00	3.705980e-05	
77	3.850000e+00	3.680812e-05	
78	3.900000e+00	3.656429e-05	
79	3.950000e+00	3.632796e-05	
80	4.000000e+00	3.609879e-05	
81	4.050000e+00	3.587646e-05	
82	4.100000e+00	3.566069e-05	
83	4.150000e+00	3.545119e-05	
84	4.200000e+00	3.524770e-05	
85	4.250000e+00	3.504998e-05	
86	4.300000e+00	3.485778e-05	
87	4.350000e+00	3.467089e-05	
88	4.400000e+00	3.448909e-05	
89	4.450000e+00	3.431218e-05	
90	4.500000e+00	3.413998e-05	
91	4.550000e+00	3.397230e-05	
92	4.600000e+00	3.380897e-05	
93	4.650000e+00	3.364983e-05	
94	4.700000e+00	3.349473e-05	
95	4.750000e+00	3.334352e-05	
96	4.800000e+00	3.319605e-05	
97	4.850000e+00	3.305220e-05	
98	4.900000e+00	3.291184e-05	
99	4.950000e+00	3.277484e-05	
100	5.000000e+00	3.264110e-05	
101	5.050000e+00	3.251049e-05	
102	5.100000e+00	3.238292e-05	
103	5.150000e+00	3.225829e-05	
104	5.200000e+00	3.213649e-05	
105	5.250000e+00	3.201743e-05	
106	5.300000e+00	3.190103e-05	
107	5.350000e+00	3.178721e-05	
108	5.400000e+00	3.167587e-05	
109	5.450000e+00	3.156695e-05	
110	5.500000e+00	3.146036e-05	
111	5.550000e+00	3.135604e-05	
112	5.600000e+00	3.125392e-05	

Index   v-sweep         rds             
--------------------------------------------------------------------------------
113	5.650000e+00	3.115393e-05	
114	5.700000e+00	3.105601e-05	
115	5.750000e+00	3.096010e-05	
116	5.800000e+00	3.086614e-05	
117	5.850000e+00	3.077407e-05	
118	5.900000e+00	3.068384e-05	
119	5.950000e+00	3.059540e-05	
120	6.000000e+00	3.050869e-05	
121	6.050000e+00	3.042367e-05	
122	6.100000e+00	3.034029e-05	
123	6.150000e+00	3.025851e-05	
124	6.200000e+00	3.017829e-05	
125	6.250000e+00	3.009957e-05	
126	6.300000e+00	3.002233e-05	
127	6.350000e+00	2.994652e-05	
128	6.400000e+00	2.987211e-05	
129	6.450000e+00	2.979905e-05	
130	6.500000e+00	2.972732e-05	
131	6.550000e+00	2.965688e-05	
132	6.600000e+00	2.958769e-05	
Reset re-loads circuit ***************************

Circuit: ***************************

Doing analysis at TEMP = 125.000000 and TNOM = 125.000000


No. of Data Rows : 133
                          ***************************
                          DC transfer characteristic  Mon Jan  9 13:58:39  2023
--------------------------------------------------------------------------------
Index   v-sweep         rds             
--------------------------------------------------------------------------------
0	0.000000e+00	2.806359e-03	
1	5.000000e-02	2.670406e-03	
2	1.000000e-01	2.538160e-03	
3	1.500000e-01	2.409504e-03	
4	2.000000e-01	2.284324e-03	
5	2.500000e-01	2.162510e-03	
6	3.000000e-01	2.043956e-03	
7	3.500000e-01	1.928559e-03	
8	4.000000e-01	1.816219e-03	
9	4.500000e-01	1.706842e-03	
10	5.000000e-01	1.600337e-03	
11	5.500000e-01	1.496620e-03	
12	6.000000e-01	1.395610e-03	
13	6.500000e-01	1.297234e-03	
14	7.000000e-01	1.201423e-03	
15	7.500000e-01	1.108113e-03	
16	8.000000e-01	1.017248e-03	
17	8.500000e-01	9.287786e-04	
18	9.000000e-01	8.426664e-04	
19	9.500000e-01	7.589036e-04	
20	1.000000e+00	6.775750e-04	
21	1.050000e+00	5.990467e-04	
22	1.100000e+00	5.243480e-04	
23	1.150000e+00	4.554631e-04	
24	1.200000e+00	3.947519e-04	
25	1.250000e+00	3.435853e-04	
26	1.300000e+00	3.017150e-04	
27	1.350000e+00	2.678349e-04	
28	1.400000e+00	2.403711e-04	
29	1.450000e+00	2.179134e-04	
30	1.500000e+00	1.993360e-04	
31	1.550000e+00	1.837808e-04	
32	1.600000e+00	1.706026e-04	
33	1.650000e+00	1.593164e-04	
34	1.700000e+00	1.495545e-04	
35	1.750000e+00	1.410357e-04	
36	1.800000e+00	1.335416e-04	
37	1.850000e+00	1.269013e-04	
38	1.900000e+00	1.209791e-04	
39	1.950000e+00	1.156660e-04	
40	2.000000e+00	1.108738e-04	
41	2.050000e+00	1.065305e-04	
42	2.100000e+00	1.025764e-04	
43	2.150000e+00	9.896205e-05	
44	2.200000e+00	9.564578e-05	
45	2.250000e+00	9.259254e-05	
46	2.300000e+00	8.977249e-05	
47	2.350000e+00	8.716012e-05	
48	2.400000e+00	8.473348e-05	
49	2.450000e+00	8.247360e-05	
50	2.500000e+00	8.036398e-05	
51	2.550000e+00	7.839024e-05	
52	2.600000e+00	7.653975e-05	
53	2.650000e+00	7.480141e-05	
54	2.700000e+00	7.316538e-05	

Index   v-sweep         rds             
--------------------------------------------------------------------------------
55	2.750000e+00	7.162297e-05	
56	2.800000e+00	7.016641e-05	
57	2.850000e+00	6.878879e-05	
58	2.900000e+00	6.748390e-05	
59	2.950000e+00	6.624617e-05	
60	3.000000e+00	6.507058e-05	
61	3.050000e+00	6.395261e-05	
62	3.100000e+00	6.288815e-05	
63	3.150000e+00	6.187348e-05	
64	3.200000e+00	6.090521e-05	
65	3.250000e+00	5.998025e-05	
66	3.300000e+00	5.909578e-05	
67	3.350000e+00	5.824922e-05	
68	3.400000e+00	5.743820e-05	
69	3.450000e+00	5.666056e-05	
70	3.500000e+00	5.591428e-05	
71	3.550000e+00	5.519752e-05	
72	3.600000e+00	5.450858e-05	
73	3.650000e+00	5.384588e-05	
74	3.700000e+00	5.320797e-05	
75	3.750000e+00	5.259348e-05	
76	3.800000e+00	5.200118e-05	
77	3.850000e+00	5.142988e-05	
78	3.900000e+00	5.087849e-05	
79	3.950000e+00	5.034602e-05	
80	4.000000e+00	4.983150e-05	
81	4.050000e+00	4.933405e-05	
82	4.100000e+00	4.885285e-05	
83	4.150000e+00	4.838711e-05	
84	4.200000e+00	4.793613e-05	
85	4.250000e+00	4.749920e-05	
86	4.300000e+00	4.707569e-05	
87	4.350000e+00	4.666501e-05	
88	4.400000e+00	4.626657e-05	
89	4.450000e+00	4.587986e-05	
90	4.500000e+00	4.550436e-05	
91	4.550000e+00	4.513960e-05	
92	4.600000e+00	4.478514e-05	
93	4.650000e+00	4.444054e-05	
94	4.700000e+00	4.410541e-05	
95	4.750000e+00	4.377937e-05	
96	4.800000e+00	4.346205e-05	
97	4.850000e+00	4.315313e-05	
98	4.900000e+00	4.285227e-05	
99	4.950000e+00	4.255918e-05	
100	5.000000e+00	4.227354e-05	
101	5.050000e+00	4.199510e-05	
102	5.100000e+00	4.172359e-05	
103	5.150000e+00	4.145876e-05	
104	5.200000e+00	4.120036e-05	
105	5.250000e+00	4.094818e-05	
106	5.300000e+00	4.070199e-05	
107	5.350000e+00	4.046159e-05	
108	5.400000e+00	4.022678e-05	
109	5.450000e+00	3.999738e-05	
110	5.500000e+00	3.977319e-05	
111	5.550000e+00	3.955406e-05	
112	5.600000e+00	3.933982e-05	

Index   v-sweep         rds             
--------------------------------------------------------------------------------
113	5.650000e+00	3.913031e-05	
114	5.700000e+00	3.892537e-05	
115	5.750000e+00	3.872487e-05	
116	5.800000e+00	3.852867e-05	
117	5.850000e+00	3.833663e-05	
118	5.900000e+00	3.814863e-05	
119	5.950000e+00	3.796454e-05	
120	6.000000e+00	3.778425e-05	
121	6.050000e+00	3.760765e-05	
122	6.100000e+00	3.743462e-05	
123	6.150000e+00	3.726507e-05	
124	6.200000e+00	3.709890e-05	
125	6.250000e+00	3.693600e-05	
126	6.300000e+00	3.677629e-05	
127	6.350000e+00	3.661968e-05	
128	6.400000e+00	3.646607e-05	
129	6.450000e+00	3.631540e-05	
130	6.500000e+00	3.616758e-05	
131	6.550000e+00	3.602252e-05	
132	6.600000e+00	3.588017e-05	
Reset re-loads circuit ***************************

Circuit: ***************************

Doing analysis at TEMP = 125.000000 and TNOM = 125.000000


No. of Data Rows : 133
                          ***************************
                          DC transfer characteristic  Mon Jan  9 13:58:39  2023
--------------------------------------------------------------------------------
Index   v-sweep         rds             
--------------------------------------------------------------------------------
0	0.000000e+00	3.473029e-03	
1	5.000000e-02	3.340829e-03	
2	1.000000e-01	3.211863e-03	
3	1.500000e-01	3.086039e-03	
4	2.000000e-01	2.963267e-03	
5	2.500000e-01	2.843463e-03	
6	3.000000e-01	2.726539e-03	
7	3.500000e-01	2.612415e-03	
8	4.000000e-01	2.501010e-03	
9	4.500000e-01	2.392244e-03	
10	5.000000e-01	2.286042e-03	
11	5.500000e-01	2.182331e-03	
12	6.000000e-01	2.081040e-03	
13	6.500000e-01	1.982099e-03	
14	7.000000e-01	1.885445e-03	
15	7.500000e-01	1.791012e-03	
16	8.000000e-01	1.698742e-03	
17	8.500000e-01	1.608572e-03	
18	9.000000e-01	1.520446e-03	
19	9.500000e-01	1.434304e-03	
20	1.000000e+00	1.350082e-03	
21	1.050000e+00	1.267712e-03	
22	1.100000e+00	1.187113e-03	
23	1.150000e+00	1.108178e-03	
24	1.200000e+00	1.030767e-03	
25	1.250000e+00	9.546726e-04	
26	1.300000e+00	8.796110e-04	
27	1.350000e+00	8.052341e-04	
28	1.400000e+00	7.312856e-04	
29	1.450000e+00	6.580135e-04	
30	1.500000e+00	5.867173e-04	
31	1.550000e+00	5.197646e-04	
32	1.600000e+00	4.595976e-04	
33	1.650000e+00	4.075640e-04	
34	1.700000e+00	3.636545e-04	
35	1.750000e+00	3.269966e-04	
36	1.800000e+00	2.964210e-04	
37	1.850000e+00	2.707962e-04	
38	1.900000e+00	2.491562e-04	
39	1.950000e+00	2.307212e-04	
40	2.000000e+00	2.148764e-04	
41	2.050000e+00	2.011407e-04	
42	2.100000e+00	1.891371e-04	
43	2.150000e+00	1.785690e-04	
44	2.200000e+00	1.692010e-04	
45	2.250000e+00	1.608447e-04	
46	2.300000e+00	1.533482e-04	
47	2.350000e+00	1.465879e-04	
48	2.400000e+00	1.404621e-04	
49	2.450000e+00	1.348869e-04	
50	2.500000e+00	1.297923e-04	
51	2.550000e+00	1.251194e-04	
52	2.600000e+00	1.208186e-04	
53	2.650000e+00	1.168477e-04	
54	2.700000e+00	1.131704e-04	

Index   v-sweep         rds             
--------------------------------------------------------------------------------
55	2.750000e+00	1.097556e-04	
56	2.800000e+00	1.065764e-04	
57	2.850000e+00	1.036096e-04	
58	2.900000e+00	1.008345e-04	
59	2.950000e+00	9.823352e-05	
60	3.000000e+00	9.579074e-05	
61	3.050000e+00	9.349228e-05	
62	3.100000e+00	9.132581e-05	
63	3.150000e+00	8.928036e-05	
64	3.200000e+00	8.734614e-05	
65	3.250000e+00	8.551436e-05	
66	3.300000e+00	8.377716e-05	
67	3.350000e+00	8.212743e-05	
68	3.400000e+00	8.055878e-05	
69	3.450000e+00	7.906540e-05	
70	3.500000e+00	7.764205e-05	
71	3.550000e+00	7.628393e-05	
72	3.600000e+00	7.498669e-05	
73	3.650000e+00	7.374636e-05	
74	3.700000e+00	7.255928e-05	
75	3.750000e+00	7.142213e-05	
76	3.800000e+00	7.033183e-05	
77	3.850000e+00	6.928558e-05	
78	3.900000e+00	6.828076e-05	
79	3.950000e+00	6.731497e-05	
80	4.000000e+00	6.638601e-05	
81	4.050000e+00	6.549182e-05	
82	4.100000e+00	6.463050e-05	
83	4.150000e+00	6.380026e-05	
84	4.200000e+00	6.299949e-05	
85	4.250000e+00	6.222664e-05	
86	4.300000e+00	6.148028e-05	
87	4.350000e+00	6.075909e-05	
88	4.400000e+00	6.006183e-05	
89	4.450000e+00	5.938733e-05	
90	4.500000e+00	5.873451e-05	
91	4.550000e+00	5.810234e-05	
92	4.600000e+00	5.748987e-05	
93	4.650000e+00	5.689619e-05	
94	4.700000e+00	5.632047e-05	
95	4.750000e+00	5.576191e-05	
96	4.800000e+00	5.521976e-05	
97	4.850000e+00	5.469331e-05	
98	4.900000e+00	5.418190e-05	
99	4.950000e+00	5.368491e-05	
100	5.000000e+00	5.320173e-05	
101	5.050000e+00	5.273181e-05	
102	5.100000e+00	5.227461e-05	
103	5.150000e+00	5.182963e-05	
104	5.200000e+00	5.139640e-05	
105	5.250000e+00	5.097447e-05	
106	5.300000e+00	5.056339e-05	
107	5.350000e+00	5.016278e-05	
108	5.400000e+00	4.977223e-05	
109	5.450000e+00	4.939139e-05	
110	5.500000e+00	4.901989e-05	
111	5.550000e+00	4.865742e-05	
112	5.600000e+00	4.830365e-05	

Index   v-sweep         rds             
--------------------------------------------------------------------------------
113	5.650000e+00	4.795827e-05	
114	5.700000e+00	4.762100e-05	
115	5.750000e+00	4.729157e-05	
116	5.800000e+00	4.696971e-05	
117	5.850000e+00	4.665517e-05	
118	5.900000e+00	4.634770e-05	
119	5.950000e+00	4.604709e-05	
120	6.000000e+00	4.575311e-05	
121	6.050000e+00	4.546555e-05	
122	6.100000e+00	4.518421e-05	
123	6.150000e+00	4.490889e-05	
124	6.200000e+00	4.463942e-05	
125	6.250000e+00	4.437561e-05	
126	6.300000e+00	4.411730e-05	
127	6.350000e+00	4.386431e-05	
128	6.400000e+00	4.361650e-05	
129	6.450000e+00	4.337372e-05	
130	6.500000e+00	4.313581e-05	
131	6.550000e+00	4.290264e-05	
132	6.600000e+00	4.267408e-05	
Reset re-loads circuit ***************************

Circuit: ***************************

Doing analysis at TEMP = 125.000000 and TNOM = 125.000000


No. of Data Rows : 133
                          ***************************
                          DC transfer characteristic  Mon Jan  9 13:58:40  2023
--------------------------------------------------------------------------------
Index   v-sweep         rds             
--------------------------------------------------------------------------------
0	0.000000e+00	3.923479e-03	
1	5.000000e-02	3.799936e-03	
2	1.000000e-01	3.679072e-03	
3	1.500000e-01	3.560820e-03	
4	2.000000e-01	3.445114e-03	
5	2.500000e-01	3.331891e-03	
6	3.000000e-01	3.221089e-03	
7	3.500000e-01	3.112646e-03	
8	4.000000e-01	3.006503e-03	
9	4.500000e-01	2.902601e-03	
10	5.000000e-01	2.800882e-03	
11	5.500000e-01	2.701290e-03	
12	6.000000e-01	2.603772e-03	
13	6.500000e-01	2.508272e-03	
14	7.000000e-01	2.414741e-03	
15	7.500000e-01	2.323128e-03	
16	8.000000e-01	2.233386e-03	
17	8.500000e-01	2.145467e-03	
18	9.000000e-01	2.059328e-03	
19	9.500000e-01	1.974924e-03	
20	1.000000e+00	1.892213e-03	
21	1.050000e+00	1.811154e-03	
22	1.100000e+00	1.731706e-03	
23	1.150000e+00	1.653828e-03	
24	1.200000e+00	1.577477e-03	
25	1.250000e+00	1.502608e-03	
26	1.300000e+00	1.429172e-03	
27	1.350000e+00	1.357108e-03	
28	1.400000e+00	1.286344e-03	
29	1.450000e+00	1.216783e-03	
30	1.500000e+00	1.148290e-03	
31	1.550000e+00	1.080670e-03	
32	1.600000e+00	1.013646e-03	
33	1.650000e+00	9.468276e-04	
34	1.700000e+00	8.797356e-04	
35	1.750000e+00	8.119360e-04	
36	1.800000e+00	7.433912e-04	
37	1.850000e+00	6.749441e-04	
38	1.900000e+00	6.084922e-04	
39	1.950000e+00	5.464104e-04	
40	2.000000e+00	4.905653e-04	
41	2.050000e+00	4.417545e-04	
42	2.100000e+00	3.998181e-04	
43	2.150000e+00	3.640511e-04	
44	2.200000e+00	3.335633e-04	
45	2.250000e+00	3.074844e-04	
46	2.300000e+00	2.850501e-04	
47	2.350000e+00	2.656226e-04	
48	2.400000e+00	2.486821e-04	
49	2.450000e+00	2.338090e-04	
50	2.500000e+00	2.206655e-04	
51	2.550000e+00	2.089790e-04	
52	2.600000e+00	1.985285e-04	
53	2.650000e+00	1.891335e-04	
54	2.700000e+00	1.806459e-04	

Index   v-sweep         rds             
--------------------------------------------------------------------------------
55	2.750000e+00	1.729434e-04	
56	2.800000e+00	1.659239e-04	
57	2.850000e+00	1.595021e-04	
58	2.900000e+00	1.536060e-04	
59	2.950000e+00	1.481746e-04	
60	3.000000e+00	1.431557e-04	
61	3.050000e+00	1.385046e-04	
62	3.100000e+00	1.341828e-04	
63	3.150000e+00	1.301569e-04	
64	3.200000e+00	1.263978e-04	
65	3.250000e+00	1.228800e-04	
66	3.300000e+00	1.195814e-04	
67	3.350000e+00	1.164821e-04	
68	3.400000e+00	1.135648e-04	
69	3.450000e+00	1.108140e-04	
70	3.500000e+00	1.082160e-04	
71	3.550000e+00	1.057585e-04	
72	3.600000e+00	1.034304e-04	
73	3.650000e+00	1.012220e-04	
74	3.700000e+00	9.912412e-05	
75	3.750000e+00	9.712888e-05	
76	3.800000e+00	9.522892e-05	
77	3.850000e+00	9.341763e-05	
78	3.900000e+00	9.168897e-05	
79	3.950000e+00	9.003745e-05	
80	4.000000e+00	8.845804e-05	
81	4.050000e+00	8.694616e-05	
82	4.100000e+00	8.549759e-05	
83	4.150000e+00	8.410845e-05	
84	4.200000e+00	8.277519e-05	
85	4.250000e+00	8.149451e-05	
86	4.300000e+00	8.026338e-05	
87	4.350000e+00	7.907900e-05	
88	4.400000e+00	7.793876e-05	
89	4.450000e+00	7.684027e-05	
90	4.500000e+00	7.578128e-05	
91	4.550000e+00	7.475971e-05	
92	4.600000e+00	7.377362e-05	
93	4.650000e+00	7.282121e-05	
94	4.700000e+00	7.190080e-05	
95	4.750000e+00	7.101080e-05	
96	4.800000e+00	7.014975e-05	
97	4.850000e+00	6.931627e-05	
98	4.900000e+00	6.850905e-05	
99	4.950000e+00	6.772690e-05	
100	5.000000e+00	6.696866e-05	
101	5.050000e+00	6.623327e-05	
102	5.100000e+00	6.551972e-05	
103	5.150000e+00	6.482706e-05	
104	5.200000e+00	6.415439e-05	
105	5.250000e+00	6.350088e-05	
106	5.300000e+00	6.286572e-05	
107	5.350000e+00	6.224816e-05	
108	5.400000e+00	6.164749e-05	
109	5.450000e+00	6.106303e-05	
110	5.500000e+00	6.049415e-05	
111	5.550000e+00	5.994023e-05	
112	5.600000e+00	5.940072e-05	

Index   v-sweep         rds             
--------------------------------------------------------------------------------
113	5.650000e+00	5.887506e-05	
114	5.700000e+00	5.836273e-05	
115	5.750000e+00	5.786325e-05	
116	5.800000e+00	5.737614e-05	
117	5.850000e+00	5.690097e-05	
118	5.900000e+00	5.643730e-05	
119	5.950000e+00	5.598475e-05	
120	6.000000e+00	5.554291e-05	
121	6.050000e+00	5.511143e-05	
122	6.100000e+00	5.468996e-05	
123	6.150000e+00	5.427816e-05	
124	6.200000e+00	5.387572e-05	
125	6.250000e+00	5.348232e-05	
126	6.300000e+00	5.309768e-05	
127	6.350000e+00	5.272152e-05	
128	6.400000e+00	5.235357e-05	
129	6.450000e+00	5.199358e-05	
130	6.500000e+00	5.164130e-05	
131	6.550000e+00	5.129649e-05	
132	6.600000e+00	5.095894e-05	
Reset re-loads circuit ***************************

Circuit: ***************************

Doing analysis at TEMP = 125.000000 and TNOM = 125.000000


No. of Data Rows : 133
                          ***************************
                          DC transfer characteristic  Mon Jan  9 13:58:40  2023
--------------------------------------------------------------------------------
Index   v-sweep         rds             
--------------------------------------------------------------------------------
0	0.000000e+00	4.206886e-03	
1	5.000000e-02	4.094299e-03	
2	1.000000e-01	3.983868e-03	
3	1.500000e-01	3.875546e-03	
4	2.000000e-01	3.769288e-03	
5	2.500000e-01	3.665047e-03	
6	3.000000e-01	3.562779e-03	
7	3.500000e-01	3.462441e-03	
8	4.000000e-01	3.363989e-03	
9	4.500000e-01	3.267382e-03	
10	5.000000e-01	3.172577e-03	
11	5.500000e-01	3.079535e-03	
12	6.000000e-01	2.988215e-03	
13	6.500000e-01	2.898577e-03	
14	7.000000e-01	2.810584e-03	
15	7.500000e-01	2.724199e-03	
16	8.000000e-01	2.639384e-03	
17	8.500000e-01	2.556106e-03	
18	9.000000e-01	2.474329e-03	
19	9.500000e-01	2.394020e-03	
20	1.000000e+00	2.315148e-03	
21	1.050000e+00	2.237682e-03	
22	1.100000e+00	2.161590e-03	
23	1.150000e+00	2.086844e-03	
24	1.200000e+00	2.013416e-03	
25	1.250000e+00	1.941277e-03	
26	1.300000e+00	1.870399e-03	
27	1.350000e+00	1.800757e-03	
28	1.400000e+00	1.732322e-03	
29	1.450000e+00	1.665065e-03	
30	1.500000e+00	1.598957e-03	
31	1.550000e+00	1.533966e-03	
32	1.600000e+00	1.470054e-03	
33	1.650000e+00	1.407178e-03	
34	1.700000e+00	1.345283e-03	
35	1.750000e+00	1.284299e-03	
36	1.800000e+00	1.224128e-03	
37	1.850000e+00	1.164635e-03	
38	1.900000e+00	1.105625e-03	
39	1.950000e+00	1.046824e-03	
40	2.000000e+00	9.878556e-04	
41	2.050000e+00	9.282539e-04	
42	2.100000e+00	8.675551e-04	
43	2.150000e+00	8.055364e-04	
44	2.200000e+00	7.425804e-04	
45	2.250000e+00	6.799283e-04	
46	2.300000e+00	6.194788e-04	
47	2.350000e+00	5.631385e-04	
48	2.400000e+00	5.121986e-04	
49	2.450000e+00	4.671350e-04	
50	2.500000e+00	4.277789e-04	
51	2.550000e+00	3.936013e-04	
52	2.600000e+00	3.639407e-04	
53	2.650000e+00	3.381374e-04	
54	2.700000e+00	3.155953e-04	

Index   v-sweep         rds             
--------------------------------------------------------------------------------
55	2.750000e+00	2.958015e-04	
56	2.800000e+00	2.783260e-04	
57	2.850000e+00	2.628123e-04	
58	2.900000e+00	2.489665e-04	
59	2.950000e+00	2.365460e-04	
60	3.000000e+00	2.253504e-04	
61	3.050000e+00	2.152132e-04	
62	3.100000e+00	2.059954e-04	
63	3.150000e+00	1.975807e-04	
64	3.200000e+00	1.898710e-04	
65	3.250000e+00	1.827830e-04	
66	3.300000e+00	1.762458e-04	
67	3.350000e+00	1.701986e-04	
68	3.400000e+00	1.645892e-04	
69	3.450000e+00	1.593724e-04	
70	3.500000e+00	1.545089e-04	
71	3.550000e+00	1.499644e-04	
72	3.600000e+00	1.457088e-04	
73	3.650000e+00	1.417158e-04	
74	3.700000e+00	1.379619e-04	
75	3.750000e+00	1.344266e-04	
76	3.800000e+00	1.310914e-04	
77	3.850000e+00	1.279400e-04	
78	3.900000e+00	1.249577e-04	
79	3.950000e+00	1.221314e-04	
80	4.000000e+00	1.194491e-04	
81	4.050000e+00	1.169004e-04	
82	4.100000e+00	1.144754e-04	
83	4.150000e+00	1.121654e-04	
84	4.200000e+00	1.099626e-04	
85	4.250000e+00	1.078597e-04	
86	4.300000e+00	1.058500e-04	
87	4.350000e+00	1.039275e-04	
88	4.400000e+00	1.020868e-04	
89	4.450000e+00	1.003227e-04	
90	4.500000e+00	9.863060e-05	
91	4.550000e+00	9.700618e-05	
92	4.600000e+00	9.544548e-05	
93	4.650000e+00	9.394485e-05	
94	4.700000e+00	9.250090e-05	
95	4.750000e+00	9.111051e-05	
96	4.800000e+00	8.977076e-05	
97	4.850000e+00	8.847895e-05	
98	4.900000e+00	8.723257e-05	
99	4.950000e+00	8.602928e-05	
100	5.000000e+00	8.486689e-05	
101	5.050000e+00	8.374337e-05	
102	5.100000e+00	8.265682e-05	
103	5.150000e+00	8.160544e-05	
104	5.200000e+00	8.058757e-05	
105	5.250000e+00	7.960165e-05	
106	5.300000e+00	7.864620e-05	
107	5.350000e+00	7.771985e-05	
108	5.400000e+00	7.682130e-05	
109	5.450000e+00	7.594933e-05	
110	5.500000e+00	7.510278e-05	
111	5.550000e+00	7.428058e-05	
112	5.600000e+00	7.348170e-05	

Index   v-sweep         rds             
--------------------------------------------------------------------------------
113	5.650000e+00	7.270517e-05	
114	5.700000e+00	7.195008e-05	
115	5.750000e+00	7.121556e-05	
116	5.800000e+00	7.050081e-05	
117	5.850000e+00	6.980504e-05	
118	5.900000e+00	6.912752e-05	
119	5.950000e+00	6.846755e-05	
120	6.000000e+00	6.782448e-05	
121	6.050000e+00	6.719768e-05	
122	6.100000e+00	6.658656e-05	
123	6.150000e+00	6.599053e-05	
124	6.200000e+00	6.540907e-05	
125	6.250000e+00	6.484167e-05	
126	6.300000e+00	6.428782e-05	
127	6.350000e+00	6.374708e-05	
128	6.400000e+00	6.321898e-05	
129	6.450000e+00	6.270312e-05	
130	6.500000e+00	6.219908e-05	
131	6.550000e+00	6.170647e-05	
132	6.600000e+00	6.122493e-05	
Reset re-loads circuit ***************************

Circuit: ***************************

Note: No ".plot", ".print", or ".fourier" lines; no simulations run
