
Note: Compatibility modes selected: hs

Warning: m=xx on .subckt line will override multiplier m hierarchy!


Circuit: ***************************

Doing analysis at TEMP = 125.000000 and TNOM = 125.000000


No. of Data Rows : 133
                          ***************************
                          DC transfer characteristic  Mon Jan  9 13:58:39  2023
--------------------------------------------------------------------------------
Index   v-sweep         rds             
--------------------------------------------------------------------------------
0	0.000000e+00	2.461200e-04	
1	5.000000e-02	2.013590e-04	
2	1.000000e-01	1.579363e-04	
3	1.500000e-01	1.162621e-04	
4	2.000000e-01	7.771971e-05	
5	2.500000e-01	4.628828e-05	
6	3.000000e-01	2.728598e-05	
7	3.500000e-01	1.886797e-05	
8	4.000000e-01	1.511331e-05	
9	4.500000e-01	1.304250e-05	
10	5.000000e-01	1.167760e-05	
11	5.500000e-01	1.067853e-05	
12	6.000000e-01	9.901818e-06	
13	6.500000e-01	9.274960e-06	
14	7.000000e-01	8.755974e-06	
15	7.500000e-01	8.318159e-06	
16	8.000000e-01	7.943386e-06	
17	8.500000e-01	7.618753e-06	
18	9.000000e-01	7.334755e-06	
19	9.500000e-01	7.084198e-06	
20	1.000000e+00	6.861520e-06	
21	1.050000e+00	6.662340e-06	
22	1.100000e+00	6.483158e-06	
23	1.150000e+00	6.321140e-06	
24	1.200000e+00	6.173966e-06	
25	1.250000e+00	6.039716e-06	
26	1.300000e+00	5.916789e-06	
27	1.350000e+00	5.803837e-06	
28	1.400000e+00	5.699717e-06	
29	1.450000e+00	5.603455e-06	
30	1.500000e+00	5.514214e-06	
31	1.550000e+00	5.431272e-06	
32	1.600000e+00	5.354002e-06	
33	1.650000e+00	5.281856e-06	
34	1.700000e+00	5.214356e-06	
35	1.750000e+00	5.151080e-06	
36	1.800000e+00	5.091656e-06	
37	1.850000e+00	5.035754e-06	
38	1.900000e+00	4.983080e-06	
39	1.950000e+00	4.933372e-06	
40	2.000000e+00	4.886395e-06	
41	2.050000e+00	4.841938e-06	
42	2.100000e+00	4.799812e-06	
43	2.150000e+00	4.759846e-06	
44	2.200000e+00	4.721883e-06	
45	2.250000e+00	4.685783e-06	
46	2.300000e+00	4.651419e-06	
47	2.350000e+00	4.618674e-06	
48	2.400000e+00	4.587440e-06	
49	2.450000e+00	4.557621e-06	
50	2.500000e+00	4.529127e-06	
51	2.550000e+00	4.501877e-06	
52	2.600000e+00	4.475794e-06	
53	2.650000e+00	4.450809e-06	
54	2.700000e+00	4.426857e-06	

Index   v-sweep         rds             
--------------------------------------------------------------------------------
55	2.750000e+00	4.403881e-06	
56	2.800000e+00	4.381823e-06	
57	2.850000e+00	4.360634e-06	
58	2.900000e+00	4.340266e-06	
59	2.950000e+00	4.320675e-06	
60	3.000000e+00	4.301820e-06	
61	3.050000e+00	4.283663e-06	
62	3.100000e+00	4.266168e-06	
63	3.150000e+00	4.249303e-06	
64	3.200000e+00	4.233035e-06	
65	3.250000e+00	4.217337e-06	
66	3.300000e+00	4.202180e-06	
67	3.350000e+00	4.187539e-06	
68	3.400000e+00	4.173389e-06	
69	3.450000e+00	4.159710e-06	
70	3.500000e+00	4.146478e-06	
71	3.550000e+00	4.133674e-06	
72	3.600000e+00	4.121280e-06	
73	3.650000e+00	4.109277e-06	
74	3.700000e+00	4.097648e-06	
75	3.750000e+00	4.086379e-06	
76	3.800000e+00	4.075453e-06	
77	3.850000e+00	4.064857e-06	
78	3.900000e+00	4.054577e-06	
79	3.950000e+00	4.044601e-06	
80	4.000000e+00	4.034915e-06	
81	4.050000e+00	4.025510e-06	
82	4.100000e+00	4.016374e-06	
83	4.150000e+00	4.007497e-06	
84	4.200000e+00	3.998868e-06	
85	4.250000e+00	3.990480e-06	
86	4.300000e+00	3.982322e-06	
87	4.350000e+00	3.974386e-06	
88	4.400000e+00	3.966664e-06	
89	4.450000e+00	3.959149e-06	
90	4.500000e+00	3.951833e-06	
91	4.550000e+00	3.944710e-06	
92	4.600000e+00	3.937771e-06	
93	4.650000e+00	3.931012e-06	
94	4.700000e+00	3.924426e-06	
95	4.750000e+00	3.918008e-06	
96	4.800000e+00	3.911751e-06	
97	4.850000e+00	3.905650e-06	
98	4.900000e+00	3.899700e-06	
99	4.950000e+00	3.893897e-06	
100	5.000000e+00	3.888235e-06	
101	5.050000e+00	3.882710e-06	
102	5.100000e+00	3.877318e-06	
103	5.150000e+00	3.872055e-06	
104	5.200000e+00	3.866916e-06	
105	5.250000e+00	3.861898e-06	
106	5.300000e+00	3.856998e-06	
107	5.350000e+00	3.852211e-06	
108	5.400000e+00	3.847534e-06	
109	5.450000e+00	3.842964e-06	
110	5.500000e+00	3.838498e-06	
111	5.550000e+00	3.834133e-06	
112	5.600000e+00	3.829865e-06	

Index   v-sweep         rds             
--------------------------------------------------------------------------------
113	5.650000e+00	3.825693e-06	
114	5.700000e+00	3.821613e-06	
115	5.750000e+00	3.817623e-06	
116	5.800000e+00	3.813721e-06	
117	5.850000e+00	3.809903e-06	
118	5.900000e+00	3.806168e-06	
119	5.950000e+00	3.802513e-06	
120	6.000000e+00	3.798936e-06	
121	6.050000e+00	3.795435e-06	
122	6.100000e+00	3.792008e-06	
123	6.150000e+00	3.788654e-06	
124	6.200000e+00	3.785369e-06	
125	6.250000e+00	3.782153e-06	
126	6.300000e+00	3.779004e-06	
127	6.350000e+00	3.775919e-06	
128	6.400000e+00	3.772897e-06	
129	6.450000e+00	3.769937e-06	
130	6.500000e+00	3.767038e-06	
131	6.550000e+00	3.764196e-06	
132	6.600000e+00	3.761412e-06	
Reset re-loads circuit ***************************

Circuit: ***************************

Doing analysis at TEMP = 125.000000 and TNOM = 125.000000


No. of Data Rows : 133
                          ***************************
                          DC transfer characteristic  Mon Jan  9 13:58:40  2023
--------------------------------------------------------------------------------
Index   v-sweep         rds             
--------------------------------------------------------------------------------
0	0.000000e+00	7.726911e-04	
1	5.000000e-02	7.213700e-04	
2	1.000000e-01	6.713054e-04	
3	1.500000e-01	6.224631e-04	
4	2.000000e-01	5.748108e-04	
5	2.500000e-01	5.283190e-04	
6	3.000000e-01	4.829614e-04	
7	3.500000e-01	4.387169e-04	
8	4.000000e-01	3.955726e-04	
9	4.500000e-01	3.535295e-04	
10	5.000000e-01	3.126145e-04	
11	5.500000e-01	2.729048e-04	
12	6.000000e-01	2.345814e-04	
13	6.500000e-01	1.980384e-04	
14	7.000000e-01	1.640669e-04	
15	7.500000e-01	1.339802e-04	
16	8.000000e-01	1.092015e-04	
17	8.500000e-01	9.021481e-05	
18	9.000000e-01	7.619969e-05	
19	9.500000e-01	6.583143e-05	
20	1.000000e+00	5.798525e-05	
21	1.050000e+00	5.188410e-05	
22	1.100000e+00	4.701901e-05	
23	1.150000e+00	4.305472e-05	
24	1.200000e+00	3.976485e-05	
25	1.250000e+00	3.699215e-05	
26	1.300000e+00	3.462436e-05	
27	1.350000e+00	3.257931e-05	
28	1.400000e+00	3.079558e-05	
29	1.450000e+00	2.922634e-05	
30	1.500000e+00	2.783529e-05	
31	1.550000e+00	2.659384e-05	
32	1.600000e+00	2.547922e-05	
33	1.650000e+00	2.447302e-05	
34	1.700000e+00	2.356024e-05	
35	1.750000e+00	2.272851e-05	
36	1.800000e+00	2.196755e-05	
37	1.850000e+00	2.126875e-05	
38	1.900000e+00	2.062482e-05	
39	1.950000e+00	2.002958e-05	
40	2.000000e+00	1.947774e-05	
41	2.050000e+00	1.896475e-05	
42	2.100000e+00	1.848667e-05	
43	2.150000e+00	1.804008e-05	
44	2.200000e+00	1.762198e-05	
45	2.250000e+00	1.722975e-05	
46	2.300000e+00	1.686107e-05	
47	2.350000e+00	1.651391e-05	
48	2.400000e+00	1.618643e-05	
49	2.450000e+00	1.587703e-05	
50	2.500000e+00	1.558427e-05	
51	2.550000e+00	1.530683e-05	
52	2.600000e+00	1.504357e-05	
53	2.650000e+00	1.479342e-05	
54	2.700000e+00	1.455545e-05	

Index   v-sweep         rds             
--------------------------------------------------------------------------------
55	2.750000e+00	1.432879e-05	
56	2.800000e+00	1.411265e-05	
57	2.850000e+00	1.390634e-05	
58	2.900000e+00	1.370919e-05	
59	2.950000e+00	1.352062e-05	
60	3.000000e+00	1.334009e-05	
61	3.050000e+00	1.316710e-05	
62	3.100000e+00	1.300118e-05	
63	3.150000e+00	1.284192e-05	
64	3.200000e+00	1.268893e-05	
65	3.250000e+00	1.254185e-05	
66	3.300000e+00	1.240035e-05	
67	3.350000e+00	1.226411e-05	
68	3.400000e+00	1.213286e-05	
69	3.450000e+00	1.200632e-05	
70	3.500000e+00	1.188426e-05	
71	3.550000e+00	1.176644e-05	
72	3.600000e+00	1.165264e-05	
73	3.650000e+00	1.154267e-05	
74	3.700000e+00	1.143634e-05	
75	3.750000e+00	1.133346e-05	
76	3.800000e+00	1.123389e-05	
77	3.850000e+00	1.113746e-05	
78	3.900000e+00	1.104404e-05	
79	3.950000e+00	1.095347e-05	
80	4.000000e+00	1.086564e-05	
81	4.050000e+00	1.078043e-05	
82	4.100000e+00	1.069772e-05	
83	4.150000e+00	1.061740e-05	
84	4.200000e+00	1.053938e-05	
85	4.250000e+00	1.046355e-05	
86	4.300000e+00	1.038984e-05	
87	4.350000e+00	1.031814e-05	
88	4.400000e+00	1.024839e-05	
89	4.450000e+00	1.018051e-05	
90	4.500000e+00	1.011442e-05	
91	4.550000e+00	1.005005e-05	
92	4.600000e+00	9.987341e-06	
93	4.650000e+00	9.926228e-06	
94	4.700000e+00	9.866654e-06	
95	4.750000e+00	9.808560e-06	
96	4.800000e+00	9.751895e-06	
97	4.850000e+00	9.696606e-06	
98	4.900000e+00	9.642646e-06	
99	4.950000e+00	9.589968e-06	
100	5.000000e+00	9.538527e-06	
101	5.050000e+00	9.488282e-06	
102	5.100000e+00	9.439193e-06	
103	5.150000e+00	9.391220e-06	
104	5.200000e+00	9.344328e-06	
105	5.250000e+00	9.298480e-06	
106	5.300000e+00	9.253644e-06	
107	5.350000e+00	9.209786e-06	
108	5.400000e+00	9.166876e-06	
109	5.450000e+00	9.124885e-06	
110	5.500000e+00	9.083784e-06	
111	5.550000e+00	9.043545e-06	
112	5.600000e+00	9.004144e-06	

Index   v-sweep         rds             
--------------------------------------------------------------------------------
113	5.650000e+00	8.965553e-06	
114	5.700000e+00	8.927750e-06	
115	5.750000e+00	8.890711e-06	
116	5.800000e+00	8.854415e-06	
117	5.850000e+00	8.818839e-06	
118	5.900000e+00	8.783962e-06	
119	5.950000e+00	8.749766e-06	
120	6.000000e+00	8.716232e-06	
121	6.050000e+00	8.683340e-06	
122	6.100000e+00	8.651072e-06	
123	6.150000e+00	8.619413e-06	
124	6.200000e+00	8.588346e-06	
125	6.250000e+00	8.557854e-06	
126	6.300000e+00	8.527923e-06	
127	6.350000e+00	8.498537e-06	
128	6.400000e+00	8.469682e-06	
129	6.450000e+00	8.441345e-06	
130	6.500000e+00	8.413513e-06	
131	6.550000e+00	8.386172e-06	
132	6.600000e+00	8.359310e-06	
Reset re-loads circuit ***************************

Circuit: ***************************

Doing analysis at TEMP = 125.000000 and TNOM = 125.000000


No. of Data Rows : 133
                          ***************************
                          DC transfer characteristic  Mon Jan  9 13:58:40  2023
--------------------------------------------------------------------------------
Index   v-sweep         rds             
--------------------------------------------------------------------------------
0	0.000000e+00	1.161372e-03	
1	5.000000e-02	1.108997e-03	
2	1.000000e-01	1.057822e-03	
3	1.500000e-01	1.007817e-03	
4	2.000000e-01	9.589496e-04	
5	2.500000e-01	9.111891e-04	
6	3.000000e-01	8.645059e-04	
7	3.500000e-01	8.188715e-04	
8	4.000000e-01	7.742579e-04	
9	4.500000e-01	7.306383e-04	
10	5.000000e-01	6.879871e-04	
11	5.500000e-01	6.462798e-04	
12	6.000000e-01	6.054932e-04	
13	6.500000e-01	5.656054e-04	
14	7.000000e-01	5.265962e-04	
15	7.500000e-01	4.884474e-04	
16	8.000000e-01	4.511428e-04	
17	8.500000e-01	4.146699e-04	
18	9.000000e-01	3.790210e-04	
19	9.500000e-01	3.441979e-04	
20	1.000000e+00	3.102215e-04	
21	1.050000e+00	2.771560e-04	
22	1.100000e+00	2.451660e-04	
23	1.150000e+00	2.146229e-04	
24	1.200000e+00	1.862099e-04	
25	1.250000e+00	1.608194e-04	
26	1.300000e+00	1.391299e-04	
27	1.350000e+00	1.212432e-04	
28	1.400000e+00	1.067533e-04	
29	1.450000e+00	9.504676e-05	
30	1.500000e+00	8.552729e-05	
31	1.550000e+00	7.770198e-05	
32	1.600000e+00	7.119024e-05	
33	1.650000e+00	6.570546e-05	
34	1.700000e+00	6.103275e-05	
35	1.750000e+00	5.701016e-05	
36	1.800000e+00	5.351445e-05	
37	1.850000e+00	5.045073e-05	
38	1.900000e+00	4.774503e-05	
39	1.950000e+00	4.533906e-05	
40	2.000000e+00	4.318628e-05	
41	2.050000e+00	4.124922e-05	
42	2.100000e+00	3.949734e-05	
43	2.150000e+00	3.790555e-05	
44	2.200000e+00	3.645305e-05	
45	2.250000e+00	3.512249e-05	
46	2.300000e+00	3.389923e-05	
47	2.350000e+00	3.277090e-05	
48	2.400000e+00	3.172693e-05	
49	2.450000e+00	3.075826e-05	
50	2.500000e+00	2.985708e-05	
51	2.550000e+00	2.901661e-05	
52	2.600000e+00	2.823096e-05	
53	2.650000e+00	2.749495e-05	
54	2.700000e+00	2.680406e-05	

Index   v-sweep         rds             
--------------------------------------------------------------------------------
55	2.750000e+00	2.615429e-05	
56	2.800000e+00	2.554208e-05	
57	2.850000e+00	2.496428e-05	
58	2.900000e+00	2.441810e-05	
59	2.950000e+00	2.390102e-05	
60	3.000000e+00	2.341078e-05	
61	3.050000e+00	2.294536e-05	
62	3.100000e+00	2.250293e-05	
63	3.150000e+00	2.208184e-05	
64	3.200000e+00	2.168059e-05	
65	3.250000e+00	2.129780e-05	
66	3.300000e+00	2.093226e-05	
67	3.350000e+00	2.058281e-05	
68	3.400000e+00	2.024844e-05	
69	3.450000e+00	1.992818e-05	
70	3.500000e+00	1.962117e-05	
71	3.550000e+00	1.932660e-05	
72	3.600000e+00	1.904374e-05	
73	3.650000e+00	1.877191e-05	
74	3.700000e+00	1.851048e-05	
75	3.750000e+00	1.825887e-05	
76	3.800000e+00	1.801653e-05	
77	3.850000e+00	1.778297e-05	
78	3.900000e+00	1.755773e-05	
79	3.950000e+00	1.734036e-05	
80	4.000000e+00	1.713046e-05	
81	4.050000e+00	1.692766e-05	
82	4.100000e+00	1.673161e-05	
83	4.150000e+00	1.654197e-05	
84	4.200000e+00	1.635845e-05	
85	4.250000e+00	1.618074e-05	
86	4.300000e+00	1.600859e-05	
87	4.350000e+00	1.584173e-05	
88	4.400000e+00	1.567993e-05	
89	4.450000e+00	1.552296e-05	
90	4.500000e+00	1.537062e-05	
91	4.550000e+00	1.522269e-05	
92	4.600000e+00	1.507900e-05	
93	4.650000e+00	1.493936e-05	
94	4.700000e+00	1.480362e-05	
95	4.750000e+00	1.467160e-05	
96	4.800000e+00	1.454316e-05	
97	4.850000e+00	1.441816e-05	
98	4.900000e+00	1.429647e-05	
99	4.950000e+00	1.417795e-05	
100	5.000000e+00	1.406248e-05	
101	5.050000e+00	1.394995e-05	
102	5.100000e+00	1.384026e-05	
103	5.150000e+00	1.373328e-05	
104	5.200000e+00	1.362894e-05	
105	5.250000e+00	1.352713e-05	
106	5.300000e+00	1.342776e-05	
107	5.350000e+00	1.333075e-05	
108	5.400000e+00	1.323601e-05	
109	5.450000e+00	1.314347e-05	
110	5.500000e+00	1.305306e-05	
111	5.550000e+00	1.296470e-05	
112	5.600000e+00	1.287832e-05	

Index   v-sweep         rds             
--------------------------------------------------------------------------------
113	5.650000e+00	1.279387e-05	
114	5.700000e+00	1.271127e-05	
115	5.750000e+00	1.263048e-05	
116	5.800000e+00	1.255142e-05	
117	5.850000e+00	1.247405e-05	
118	5.900000e+00	1.239832e-05	
119	5.950000e+00	1.232418e-05	
120	6.000000e+00	1.225157e-05	
121	6.050000e+00	1.218045e-05	
122	6.100000e+00	1.211078e-05	
123	6.150000e+00	1.204252e-05	
124	6.200000e+00	1.197562e-05	
125	6.250000e+00	1.191004e-05	
126	6.300000e+00	1.184575e-05	
127	6.350000e+00	1.178271e-05	
128	6.400000e+00	1.172089e-05	
129	6.450000e+00	1.166024e-05	
130	6.500000e+00	1.160075e-05	
131	6.550000e+00	1.154238e-05	
132	6.600000e+00	1.148509e-05	
Reset re-loads circuit ***************************

Circuit: ***************************

Doing analysis at TEMP = 125.000000 and TNOM = 125.000000


No. of Data Rows : 133
                          ***************************
                          DC transfer characteristic  Mon Jan  9 13:58:40  2023
--------------------------------------------------------------------------------
Index   v-sweep         rds             
--------------------------------------------------------------------------------
0	0.000000e+00	1.458783e-03	
1	5.000000e-02	1.407756e-03	
2	1.000000e-01	1.357791e-03	
3	1.500000e-01	1.308862e-03	
4	2.000000e-01	1.260943e-03	
5	2.500000e-01	1.214011e-03	
6	3.000000e-01	1.168041e-03	
7	3.500000e-01	1.123009e-03	
8	4.000000e-01	1.078892e-03	
9	4.500000e-01	1.035669e-03	
10	5.000000e-01	9.933160e-04	
11	5.500000e-01	9.518130e-04	
12	6.000000e-01	9.111390e-04	
13	6.500000e-01	8.712739e-04	
14	7.000000e-01	8.321980e-04	
15	7.500000e-01	7.938928e-04	
16	8.000000e-01	7.563397e-04	
17	8.500000e-01	7.195210e-04	
18	9.000000e-01	6.834194e-04	
19	9.500000e-01	6.480176e-04	
20	1.000000e+00	6.132984e-04	
21	1.050000e+00	5.792441e-04	
22	1.100000e+00	5.458359e-04	
23	1.150000e+00	5.130531e-04	
24	1.200000e+00	4.808709e-04	
25	1.250000e+00	4.492585e-04	
26	1.300000e+00	4.181751e-04	
27	1.350000e+00	3.875644e-04	
28	1.400000e+00	3.573521e-04	
29	1.450000e+00	3.274521e-04	
30	1.500000e+00	2.978082e-04	
31	1.550000e+00	2.685028e-04	
32	1.600000e+00	2.399237e-04	
33	1.650000e+00	2.128339e-04	
34	1.700000e+00	1.881430e-04	
35	1.750000e+00	1.664935e-04	
36	1.800000e+00	1.480436e-04	
37	1.850000e+00	1.325593e-04	
38	1.900000e+00	1.196227e-04	
39	1.950000e+00	1.087880e-04	
40	2.000000e+00	9.965607e-05	
41	2.050000e+00	9.189693e-05	
42	2.100000e+00	8.524698e-05	
43	2.150000e+00	7.949873e-05	
44	2.200000e+00	7.448929e-05	
45	2.250000e+00	7.009045e-05	
46	2.300000e+00	6.620060e-05	
47	2.350000e+00	6.273867e-05	
48	2.400000e+00	5.963937e-05	
49	2.450000e+00	5.684972e-05	
50	2.500000e+00	5.432634e-05	
51	2.550000e+00	5.203345e-05	
52	2.600000e+00	4.994128e-05	
53	2.650000e+00	4.802491e-05	
54	2.700000e+00	4.626334e-05	

Index   v-sweep         rds             
--------------------------------------------------------------------------------
55	2.750000e+00	4.463874e-05	
56	2.800000e+00	4.313587e-05	
57	2.850000e+00	4.174167e-05	
58	2.900000e+00	4.044487e-05	
59	2.950000e+00	3.923568e-05	
60	3.000000e+00	3.810558e-05	
61	3.050000e+00	3.704712e-05	
62	3.100000e+00	3.605372e-05	
63	3.150000e+00	3.511962e-05	
64	3.200000e+00	3.423968e-05	
65	3.250000e+00	3.340936e-05	
66	3.300000e+00	3.262460e-05	
67	3.350000e+00	3.188177e-05	
68	3.400000e+00	3.117761e-05	
69	3.450000e+00	3.050920e-05	
70	3.500000e+00	2.987389e-05	
71	3.550000e+00	2.926930e-05	
72	3.600000e+00	2.869327e-05	
73	3.650000e+00	2.814382e-05	
74	3.700000e+00	2.761917e-05	
75	3.750000e+00	2.711769e-05	
76	3.800000e+00	2.663787e-05	
77	3.850000e+00	2.617835e-05	
78	3.900000e+00	2.573788e-05	
79	3.950000e+00	2.531530e-05	
80	4.000000e+00	2.490954e-05	
81	4.050000e+00	2.451963e-05	
82	4.100000e+00	2.414467e-05	
83	4.150000e+00	2.378380e-05	
84	4.200000e+00	2.343626e-05	
85	4.250000e+00	2.310132e-05	
86	4.300000e+00	2.277832e-05	
87	4.350000e+00	2.246662e-05	
88	4.400000e+00	2.216565e-05	
89	4.450000e+00	2.187488e-05	
90	4.500000e+00	2.159378e-05	
91	4.550000e+00	2.132189e-05	
92	4.600000e+00	2.105877e-05	
93	4.650000e+00	2.080399e-05	
94	4.700000e+00	2.055718e-05	
95	4.750000e+00	2.031797e-05	
96	4.800000e+00	2.008601e-05	
97	4.850000e+00	1.986098e-05	
98	4.900000e+00	1.964258e-05	
99	4.950000e+00	1.943052e-05	
100	5.000000e+00	1.922453e-05	
101	5.050000e+00	1.902436e-05	
102	5.100000e+00	1.882976e-05	
103	5.150000e+00	1.864051e-05	
104	5.200000e+00	1.845639e-05	
105	5.250000e+00	1.827721e-05	
106	5.300000e+00	1.810275e-05	
107	5.350000e+00	1.793285e-05	
108	5.400000e+00	1.776733e-05	
109	5.450000e+00	1.760603e-05	
110	5.500000e+00	1.744878e-05	
111	5.550000e+00	1.729543e-05	
112	5.600000e+00	1.714586e-05	

Index   v-sweep         rds             
--------------------------------------------------------------------------------
113	5.650000e+00	1.699992e-05	
114	5.700000e+00	1.685748e-05	
115	5.750000e+00	1.671842e-05	
116	5.800000e+00	1.658262e-05	
117	5.850000e+00	1.644998e-05	
118	5.900000e+00	1.632039e-05	
119	5.950000e+00	1.619374e-05	
120	6.000000e+00	1.606994e-05	
121	6.050000e+00	1.594889e-05	
122	6.100000e+00	1.583052e-05	
123	6.150000e+00	1.571472e-05	
124	6.200000e+00	1.560142e-05	
125	6.250000e+00	1.549055e-05	
126	6.300000e+00	1.538203e-05	
127	6.350000e+00	1.527578e-05	
128	6.400000e+00	1.517174e-05	
129	6.450000e+00	1.506984e-05	
130	6.500000e+00	1.497002e-05	
131	6.550000e+00	1.487222e-05	
132	6.600000e+00	1.477638e-05	
Reset re-loads circuit ***************************

Circuit: ***************************

Doing analysis at TEMP = 125.000000 and TNOM = 125.000000


No. of Data Rows : 133
                          ***************************
                          DC transfer characteristic  Mon Jan  9 13:58:40  2023
--------------------------------------------------------------------------------
Index   v-sweep         rds             
--------------------------------------------------------------------------------
0	0.000000e+00	1.653696e-03	
1	5.000000e-02	1.606078e-03	
2	1.000000e-01	1.559343e-03	
3	1.500000e-01	1.513474e-03	
4	2.000000e-01	1.468451e-03	
5	2.500000e-01	1.424255e-03	
6	3.000000e-01	1.380869e-03	
7	3.500000e-01	1.338276e-03	
8	4.000000e-01	1.296457e-03	
9	4.500000e-01	1.255397e-03	
10	5.000000e-01	1.215078e-03	
11	5.500000e-01	1.175483e-03	
12	6.000000e-01	1.136598e-03	
13	6.500000e-01	1.098407e-03	
14	7.000000e-01	1.060893e-03	
15	7.500000e-01	1.024044e-03	
16	8.000000e-01	9.878430e-04	
17	8.500000e-01	9.522775e-04	
18	9.000000e-01	9.173336e-04	
19	9.500000e-01	8.829980e-04	
20	1.000000e+00	8.492579e-04	
21	1.050000e+00	8.161007e-04	
22	1.100000e+00	7.835139e-04	
23	1.150000e+00	7.514856e-04	
24	1.200000e+00	7.200035e-04	
25	1.250000e+00	6.890553e-04	
26	1.300000e+00	6.586285e-04	
27	1.350000e+00	6.287095e-04	
28	1.400000e+00	5.992838e-04	
29	1.450000e+00	5.703345e-04	
30	1.500000e+00	5.418415e-04	
31	1.550000e+00	5.137792e-04	
32	1.600000e+00	4.861138e-04	
33	1.650000e+00	4.587986e-04	
34	1.700000e+00	4.317679e-04	
35	1.750000e+00	4.049295e-04	
36	1.800000e+00	3.781603e-04	
37	1.850000e+00	3.513160e-04	
38	1.900000e+00	3.242782e-04	
39	1.950000e+00	2.970644e-04	
40	2.000000e+00	2.699777e-04	
41	2.050000e+00	2.436714e-04	
42	2.100000e+00	2.189867e-04	
43	2.150000e+00	1.966319e-04	
44	2.200000e+00	1.769595e-04	
45	2.250000e+00	1.599642e-04	
46	2.300000e+00	1.454135e-04	
47	2.350000e+00	1.329812e-04	
48	2.400000e+00	1.223336e-04	
49	2.450000e+00	1.131697e-04	
50	2.500000e+00	1.052342e-04	
51	2.550000e+00	9.831685e-05	
52	2.600000e+00	9.224691e-05	
53	2.650000e+00	8.688621e-05	
54	2.700000e+00	8.212294e-05	

Index   v-sweep         rds             
--------------------------------------------------------------------------------
55	2.750000e+00	7.786631e-05	
56	2.800000e+00	7.404219e-05	
57	2.850000e+00	7.058968e-05	
58	2.900000e+00	6.745843e-05	
59	2.950000e+00	6.460654e-05	
60	3.000000e+00	6.199894e-05	
61	3.050000e+00	5.960604e-05	
62	3.100000e+00	5.740279e-05	
63	3.150000e+00	5.536781e-05	
64	3.200000e+00	5.348276e-05	
65	3.250000e+00	5.173187e-05	
66	3.300000e+00	5.010144e-05	
67	3.350000e+00	4.857959e-05	
68	3.400000e+00	4.715591e-05	
69	3.450000e+00	4.582129e-05	
70	3.500000e+00	4.456769e-05	
71	3.550000e+00	4.338800e-05	
72	3.600000e+00	4.227593e-05	
73	3.650000e+00	4.122585e-05	
74	3.700000e+00	4.023277e-05	
75	3.750000e+00	3.929219e-05	
76	3.800000e+00	3.840008e-05	
77	3.850000e+00	3.755281e-05	
78	3.900000e+00	3.674710e-05	
79	3.950000e+00	3.597999e-05	
80	4.000000e+00	3.524878e-05	
81	4.050000e+00	3.455101e-05	
82	4.100000e+00	3.388446e-05	
83	4.150000e+00	3.324709e-05	
84	4.200000e+00	3.263704e-05	
85	4.250000e+00	3.205258e-05	
86	4.300000e+00	3.149216e-05	
87	4.350000e+00	3.095432e-05	
88	4.400000e+00	3.043774e-05	
89	4.450000e+00	2.994118e-05	
90	4.500000e+00	2.946351e-05	
91	4.550000e+00	2.900367e-05	
92	4.600000e+00	2.856069e-05	
93	4.650000e+00	2.813366e-05	
94	4.700000e+00	2.772174e-05	
95	4.750000e+00	2.732415e-05	
96	4.800000e+00	2.694015e-05	
97	4.850000e+00	2.656907e-05	
98	4.900000e+00	2.621026e-05	
99	4.950000e+00	2.586313e-05	
100	5.000000e+00	2.552712e-05	
101	5.050000e+00	2.520171e-05	
102	5.100000e+00	2.488640e-05	
103	5.150000e+00	2.458075e-05	
104	5.200000e+00	2.428431e-05	
105	5.250000e+00	2.399667e-05	
106	5.300000e+00	2.371746e-05	
107	5.350000e+00	2.344631e-05	
108	5.400000e+00	2.318288e-05	
109	5.450000e+00	2.292685e-05	
110	5.500000e+00	2.267791e-05	
111	5.550000e+00	2.243578e-05	
112	5.600000e+00	2.220018e-05	

Index   v-sweep         rds             
--------------------------------------------------------------------------------
113	5.650000e+00	2.197086e-05	
114	5.700000e+00	2.174757e-05	
115	5.750000e+00	2.153008e-05	
116	5.800000e+00	2.131817e-05	
117	5.850000e+00	2.111164e-05	
118	5.900000e+00	2.091027e-05	
119	5.950000e+00	2.071389e-05	
120	6.000000e+00	2.052232e-05	
121	6.050000e+00	2.033538e-05	
122	6.100000e+00	2.015291e-05	
123	6.150000e+00	1.997476e-05	
124	6.200000e+00	1.980077e-05	
125	6.250000e+00	1.963082e-05	
126	6.300000e+00	1.946476e-05	
127	6.350000e+00	1.930246e-05	
128	6.400000e+00	1.914380e-05	
129	6.450000e+00	1.898867e-05	
130	6.500000e+00	1.883695e-05	
131	6.550000e+00	1.868853e-05	
132	6.600000e+00	1.854332e-05	
Reset re-loads circuit ***************************

Circuit: ***************************

Doing analysis at TEMP = 125.000000 and TNOM = 125.000000


No. of Data Rows : 133
                          ***************************
                          DC transfer characteristic  Mon Jan  9 13:58:40  2023
--------------------------------------------------------------------------------
Index   v-sweep         rds             
--------------------------------------------------------------------------------
0	0.000000e+00	1.778220e-03	
1	5.000000e-02	1.734836e-03	
2	1.000000e-01	1.692166e-03	
3	1.500000e-01	1.650197e-03	
4	2.000000e-01	1.608916e-03	
5	2.500000e-01	1.568309e-03	
6	3.000000e-01	1.528364e-03	
7	3.500000e-01	1.489068e-03	
8	4.000000e-01	1.450408e-03	
9	4.500000e-01	1.412372e-03	
10	5.000000e-01	1.374948e-03	
11	5.500000e-01	1.338124e-03	
12	6.000000e-01	1.301888e-03	
13	6.500000e-01	1.266230e-03	
14	7.000000e-01	1.231136e-03	
15	7.500000e-01	1.196598e-03	
16	8.000000e-01	1.162603e-03	
17	8.500000e-01	1.129141e-03	
18	9.000000e-01	1.096202e-03	
19	9.500000e-01	1.063775e-03	
20	1.000000e+00	1.031852e-03	
21	1.050000e+00	1.000423e-03	
22	1.100000e+00	9.694770e-04	
23	1.150000e+00	9.390066e-04	
24	1.200000e+00	9.090025e-04	
25	1.250000e+00	8.794560e-04	
26	1.300000e+00	8.503587e-04	
27	1.350000e+00	8.217022e-04	
28	1.400000e+00	7.934784e-04	
29	1.450000e+00	7.656790e-04	
30	1.500000e+00	7.382958e-04	
31	1.550000e+00	7.113204e-04	
32	1.600000e+00	6.847440e-04	
33	1.650000e+00	6.585573e-04	
34	1.700000e+00	6.327502e-04	
35	1.750000e+00	6.073112e-04	
36	1.800000e+00	5.822267e-04	
37	1.850000e+00	5.574803e-04	
38	1.900000e+00	5.330507e-04	
39	1.950000e+00	5.089100e-04	
40	2.000000e+00	4.850199e-04	
41	2.050000e+00	4.613272e-04	
42	2.100000e+00	4.377574e-04	
43	2.150000e+00	4.142083e-04	
44	2.200000e+00	3.905472e-04	
45	2.250000e+00	3.666208e-04	
46	2.300000e+00	3.422967e-04	
47	2.350000e+00	3.175507e-04	
48	2.400000e+00	2.925834e-04	
49	2.450000e+00	2.678843e-04	
50	2.500000e+00	2.441463e-04	
51	2.550000e+00	2.220450e-04	
52	2.600000e+00	2.020365e-04	
53	2.650000e+00	1.842905e-04	
54	2.700000e+00	1.687465e-04	

Index   v-sweep         rds             
--------------------------------------------------------------------------------
55	2.750000e+00	1.552102e-04	
56	2.800000e+00	1.434349e-04	
57	2.850000e+00	1.331710e-04	
58	2.900000e+00	1.241902e-04	
59	2.950000e+00	1.162948e-04	
60	3.000000e+00	1.093174e-04	
61	3.050000e+00	1.031186e-04	
62	3.100000e+00	9.758290e-05	
63	3.150000e+00	9.261471e-05	
64	3.200000e+00	8.813474e-05	
65	3.250000e+00	8.407703e-05	
66	3.300000e+00	8.038643e-05	
67	3.350000e+00	7.701665e-05	
68	3.400000e+00	7.392863e-05	
69	3.450000e+00	7.108918e-05	
70	3.500000e+00	6.847005e-05	
71	3.550000e+00	6.604698e-05	
72	3.600000e+00	6.379910e-05	
73	3.650000e+00	6.170834e-05	
74	3.700000e+00	5.975901e-05	
75	3.750000e+00	5.793739e-05	
76	3.800000e+00	5.623146e-05	
77	3.850000e+00	5.463067e-05	
78	3.900000e+00	5.312568e-05	
79	3.950000e+00	5.170820e-05	
80	4.000000e+00	5.037090e-05	
81	4.050000e+00	4.910721e-05	
82	4.100000e+00	4.791126e-05	
83	4.150000e+00	4.677778e-05	
84	4.200000e+00	4.570204e-05	
85	4.250000e+00	4.467977e-05	
86	4.300000e+00	4.370710e-05	
87	4.350000e+00	4.278052e-05	
88	4.400000e+00	4.189687e-05	
89	4.450000e+00	4.105323e-05	
90	4.500000e+00	4.024696e-05	
91	4.550000e+00	3.947565e-05	
92	4.600000e+00	3.873709e-05	
93	4.650000e+00	3.802924e-05	
94	4.700000e+00	3.735024e-05	
95	4.750000e+00	3.669836e-05	
96	4.800000e+00	3.607202e-05	
97	4.850000e+00	3.546976e-05	
98	4.900000e+00	3.489022e-05	
99	4.950000e+00	3.433214e-05	
100	5.000000e+00	3.379436e-05	
101	5.050000e+00	3.327580e-05	
102	5.100000e+00	3.277544e-05	
103	5.150000e+00	3.229236e-05	
104	5.200000e+00	3.182568e-05	
105	5.250000e+00	3.137457e-05	
106	5.300000e+00	3.093828e-05	
107	5.350000e+00	3.051610e-05	
108	5.400000e+00	3.010735e-05	
109	5.450000e+00	2.971140e-05	
110	5.500000e+00	2.932768e-05	
111	5.550000e+00	2.895561e-05	
112	5.600000e+00	2.859470e-05	

Index   v-sweep         rds             
--------------------------------------------------------------------------------
113	5.650000e+00	2.824444e-05	
114	5.700000e+00	2.790437e-05	
115	5.750000e+00	2.757406e-05	
116	5.800000e+00	2.725311e-05	
117	5.850000e+00	2.694111e-05	
118	5.900000e+00	2.663771e-05	
119	5.950000e+00	2.634256e-05	
120	6.000000e+00	2.605534e-05	
121	6.050000e+00	2.577572e-05	
122	6.100000e+00	2.550343e-05	
123	6.150000e+00	2.523817e-05	
124	6.200000e+00	2.497968e-05	
125	6.250000e+00	2.472772e-05	
126	6.300000e+00	2.448204e-05	
127	6.350000e+00	2.424242e-05	
128	6.400000e+00	2.400864e-05	
129	6.450000e+00	2.378049e-05	
130	6.500000e+00	2.355778e-05	
131	6.550000e+00	2.334032e-05	
132	6.600000e+00	2.312793e-05	
Reset re-loads circuit ***************************

Circuit: ***************************

Note: No ".plot", ".print", or ".fourier" lines; no simulations run
