
Note: Compatibility modes selected: hs

Warning: m=xx on .subckt line will override multiplier m hierarchy!


Circuit: ***************************

Doing analysis at TEMP = -40.000000 and TNOM = -40.000000


No. of Data Rows : 133
                          ***************************
                          DC transfer characteristic  Mon Jan  9 13:58:38  2023
--------------------------------------------------------------------------------
Index   v-sweep         rds             
--------------------------------------------------------------------------------
0	0.000000e+00	3.507243e-05	
1	5.000000e-02	2.588456e-05	
2	1.000000e-01	1.692358e-05	
3	1.500000e-01	8.798508e-06	
4	2.000000e-01	3.227838e-06	
5	2.500000e-01	1.020413e-06	
6	3.000000e-01	4.000449e-07	
7	3.500000e-01	2.108207e-07	
8	4.000000e-01	1.399228e-07	
9	4.500000e-01	1.081498e-07	
10	5.000000e-01	9.182788e-08	
11	5.500000e-01	8.253070e-08	
12	6.000000e-01	7.679589e-08	
13	6.500000e-01	7.302945e-08	
14	7.000000e-01	7.042786e-08	
15	7.500000e-01	6.855526e-08	
16	8.000000e-01	6.716049e-08	
17	8.500000e-01	6.609135e-08	
18	9.000000e-01	6.525161e-08	
19	9.500000e-01	6.457812e-08	
20	1.000000e+00	6.402815e-08	
21	1.050000e+00	6.357193e-08	
22	1.100000e+00	6.318826e-08	
23	1.150000e+00	6.286167e-08	
24	1.200000e+00	6.258068e-08	
25	1.250000e+00	6.233661e-08	
26	1.300000e+00	6.212280e-08	
27	1.350000e+00	6.193406e-08	
28	1.400000e+00	6.176631e-08	
29	1.450000e+00	6.161627e-08	
30	1.500000e+00	6.148131e-08	
31	1.550000e+00	6.135930e-08	
32	1.600000e+00	6.124847e-08	
33	1.650000e+00	6.114736e-08	
34	1.700000e+00	6.105476e-08	
35	1.750000e+00	6.096963e-08	
36	1.800000e+00	6.089112e-08	
37	1.850000e+00	6.081847e-08	
38	1.900000e+00	6.075107e-08	
39	1.950000e+00	6.068835e-08	
40	2.000000e+00	6.062985e-08	
41	2.050000e+00	6.057516e-08	
42	2.100000e+00	6.052391e-08	
43	2.150000e+00	6.047579e-08	
44	2.200000e+00	6.043052e-08	
45	2.250000e+00	6.038786e-08	
46	2.300000e+00	6.034758e-08	
47	2.350000e+00	6.030949e-08	
48	2.400000e+00	6.027342e-08	
49	2.450000e+00	6.023921e-08	
50	2.500000e+00	6.020672e-08	
51	2.550000e+00	6.017582e-08	
52	2.600000e+00	6.014640e-08	
53	2.650000e+00	6.011835e-08	
54	2.700000e+00	6.009159e-08	

Index   v-sweep         rds             
--------------------------------------------------------------------------------
55	2.750000e+00	6.006602e-08	
56	2.800000e+00	6.004157e-08	
57	2.850000e+00	6.001816e-08	
58	2.900000e+00	5.999573e-08	
59	2.950000e+00	5.997422e-08	
60	3.000000e+00	5.995357e-08	
61	3.050000e+00	5.993374e-08	
62	3.100000e+00	5.991467e-08	
63	3.150000e+00	5.989633e-08	
64	3.200000e+00	5.987867e-08	
65	3.250000e+00	5.986165e-08	
66	3.300000e+00	5.984525e-08	
67	3.350000e+00	5.982942e-08	
68	3.400000e+00	5.981414e-08	
69	3.450000e+00	5.979938e-08	
70	3.500000e+00	5.978512e-08	
71	3.550000e+00	5.977133e-08	
72	3.600000e+00	5.975798e-08	
73	3.650000e+00	5.974506e-08	
74	3.700000e+00	5.973255e-08	
75	3.750000e+00	5.972042e-08	
76	3.800000e+00	5.970867e-08	
77	3.850000e+00	5.969726e-08	
78	3.900000e+00	5.968620e-08	
79	3.950000e+00	5.967546e-08	
80	4.000000e+00	5.966503e-08	
81	4.050000e+00	5.965489e-08	
82	4.100000e+00	5.964504e-08	
83	4.150000e+00	5.963546e-08	
84	4.200000e+00	5.962614e-08	
85	4.250000e+00	5.961708e-08	
86	4.300000e+00	5.960825e-08	
87	4.350000e+00	5.959966e-08	
88	4.400000e+00	5.959129e-08	
89	4.450000e+00	5.958313e-08	
90	4.500000e+00	5.957518e-08	
91	4.550000e+00	5.956743e-08	
92	4.600000e+00	5.955987e-08	
93	4.650000e+00	5.955249e-08	
94	4.700000e+00	5.954530e-08	
95	4.750000e+00	5.953827e-08	
96	4.800000e+00	5.953141e-08	
97	4.850000e+00	5.952471e-08	
98	4.900000e+00	5.951817e-08	
99	4.950000e+00	5.951177e-08	
100	5.000000e+00	5.950552e-08	
101	5.050000e+00	5.949941e-08	
102	5.100000e+00	5.949343e-08	
103	5.150000e+00	5.948758e-08	
104	5.200000e+00	5.948187e-08	
105	5.250000e+00	5.947627e-08	
106	5.300000e+00	5.947079e-08	
107	5.350000e+00	5.946543e-08	
108	5.400000e+00	5.946018e-08	
109	5.450000e+00	5.945504e-08	
110	5.500000e+00	5.945000e-08	
111	5.550000e+00	5.944506e-08	
112	5.600000e+00	5.944023e-08	

Index   v-sweep         rds             
--------------------------------------------------------------------------------
113	5.650000e+00	5.943549e-08	
114	5.700000e+00	5.943084e-08	
115	5.750000e+00	5.942628e-08	
116	5.800000e+00	5.942181e-08	
117	5.850000e+00	5.941743e-08	
118	5.900000e+00	5.941313e-08	
119	5.950000e+00	5.940891e-08	
120	6.000000e+00	5.940477e-08	
121	6.050000e+00	5.940071e-08	
122	6.100000e+00	5.939672e-08	
123	6.150000e+00	5.939280e-08	
124	6.200000e+00	5.938896e-08	
125	6.250000e+00	5.938518e-08	
126	6.300000e+00	5.938147e-08	
127	6.350000e+00	5.937782e-08	
128	6.400000e+00	5.937424e-08	
129	6.450000e+00	5.937072e-08	
130	6.500000e+00	5.936727e-08	
131	6.550000e+00	5.936387e-08	
132	6.600000e+00	5.936052e-08	
Reset re-loads circuit ***************************

Circuit: ***************************

Doing analysis at TEMP = -40.000000 and TNOM = -40.000000


No. of Data Rows : 133
                          ***************************
                          DC transfer characteristic  Mon Jan  9 13:58:39  2023
--------------------------------------------------------------------------------
Index   v-sweep         rds             
--------------------------------------------------------------------------------
0	0.000000e+00	1.838885e-04	
1	5.000000e-02	1.739650e-04	
2	1.000000e-01	1.640679e-04	
3	1.500000e-01	1.541974e-04	
4	2.000000e-01	1.443535e-04	
5	2.500000e-01	1.345367e-04	
6	3.000000e-01	1.247473e-04	
7	3.500000e-01	1.149861e-04	
8	4.000000e-01	1.052542e-04	
9	4.500000e-01	9.555376e-05	
10	5.000000e-01	8.588812e-05	
11	5.500000e-01	7.626340e-05	
12	6.000000e-01	6.669074e-05	
13	6.500000e-01	5.719125e-05	
14	7.000000e-01	4.780658e-05	
15	7.500000e-01	3.862082e-05	
16	8.000000e-01	2.980310e-05	
17	8.500000e-01	2.167051e-05	
18	9.000000e-01	1.470993e-05	
19	9.500000e-01	9.400353e-06	
20	1.000000e+00	5.850755e-06	
21	1.050000e+00	3.708456e-06	
22	1.100000e+00	2.471734e-06	
23	1.150000e+00	1.753664e-06	
24	1.200000e+00	1.322442e-06	
25	1.250000e+00	1.051843e-06	
26	1.300000e+00	8.742770e-07	
27	1.350000e+00	7.528356e-07	
28	1.400000e+00	6.666638e-07	
29	1.450000e+00	6.035175e-07	
30	1.500000e+00	5.559305e-07	
31	1.550000e+00	5.191865e-07	
32	1.600000e+00	4.902076e-07	
33	1.650000e+00	4.669260e-07	
34	1.700000e+00	4.479155e-07	
35	1.750000e+00	4.321685e-07	
36	1.800000e+00	4.189582e-07	
37	1.850000e+00	4.077502e-07	
38	1.900000e+00	3.981444e-07	
39	1.950000e+00	3.898368e-07	
40	2.000000e+00	3.825931e-07	
41	2.050000e+00	3.762302e-07	
42	2.100000e+00	3.706032e-07	
43	2.150000e+00	3.655967e-07	
44	2.200000e+00	3.611171e-07	
45	2.250000e+00	3.570885e-07	
46	2.300000e+00	3.534483e-07	
47	2.350000e+00	3.501447e-07	
48	2.400000e+00	3.471346e-07	
49	2.450000e+00	3.443817e-07	
50	2.500000e+00	3.418553e-07	
51	2.550000e+00	3.395293e-07	
52	2.600000e+00	3.373814e-07	
53	2.650000e+00	3.353923e-07	
54	2.700000e+00	3.335455e-07	

Index   v-sweep         rds             
--------------------------------------------------------------------------------
55	2.750000e+00	3.318266e-07	
56	2.800000e+00	3.302231e-07	
57	2.850000e+00	3.287238e-07	
58	2.900000e+00	3.273193e-07	
59	2.950000e+00	3.260009e-07	
60	3.000000e+00	3.247610e-07	
61	3.050000e+00	3.235931e-07	
62	3.100000e+00	3.224911e-07	
63	3.150000e+00	3.214497e-07	
64	3.200000e+00	3.204641e-07	
65	3.250000e+00	3.195300e-07	
66	3.300000e+00	3.186435e-07	
67	3.350000e+00	3.178011e-07	
68	3.400000e+00	3.169997e-07	
69	3.450000e+00	3.162363e-07	
70	3.500000e+00	3.155084e-07	
71	3.550000e+00	3.148136e-07	
72	3.600000e+00	3.141497e-07	
73	3.650000e+00	3.135146e-07	
74	3.700000e+00	3.129067e-07	
75	3.750000e+00	3.123241e-07	
76	3.800000e+00	3.117655e-07	
77	3.850000e+00	3.112292e-07	
78	3.900000e+00	3.107141e-07	
79	3.950000e+00	3.102188e-07	
80	4.000000e+00	3.097424e-07	
81	4.050000e+00	3.092837e-07	
82	4.100000e+00	3.088418e-07	
83	4.150000e+00	3.084158e-07	
84	4.200000e+00	3.080049e-07	
85	4.250000e+00	3.076082e-07	
86	4.300000e+00	3.072251e-07	
87	4.350000e+00	3.068549e-07	
88	4.400000e+00	3.064969e-07	
89	4.450000e+00	3.061505e-07	
90	4.500000e+00	3.058152e-07	
91	4.550000e+00	3.054906e-07	
92	4.600000e+00	3.051760e-07	
93	4.650000e+00	3.048710e-07	
94	4.700000e+00	3.045752e-07	
95	4.750000e+00	3.042882e-07	
96	4.800000e+00	3.040096e-07	
97	4.850000e+00	3.037391e-07	
98	4.900000e+00	3.034763e-07	
99	4.950000e+00	3.032208e-07	
100	5.000000e+00	3.029724e-07	
101	5.050000e+00	3.027308e-07	
102	5.100000e+00	3.024958e-07	
103	5.150000e+00	3.022670e-07	
104	5.200000e+00	3.020441e-07	
105	5.250000e+00	3.018271e-07	
106	5.300000e+00	3.016157e-07	
107	5.350000e+00	3.014096e-07	
108	5.400000e+00	3.012086e-07	
109	5.450000e+00	3.010126e-07	
110	5.500000e+00	3.008214e-07	
111	5.550000e+00	3.006348e-07	
112	5.600000e+00	3.004526e-07	

Index   v-sweep         rds             
--------------------------------------------------------------------------------
113	5.650000e+00	3.002747e-07	
114	5.700000e+00	3.001010e-07	
115	5.750000e+00	2.999313e-07	
116	5.800000e+00	2.997654e-07	
117	5.850000e+00	2.996033e-07	
118	5.900000e+00	2.994448e-07	
119	5.950000e+00	2.992897e-07	
120	6.000000e+00	2.991381e-07	
121	6.050000e+00	2.989897e-07	
122	6.100000e+00	2.988445e-07	
123	6.150000e+00	2.987024e-07	
124	6.200000e+00	2.985632e-07	
125	6.250000e+00	2.984269e-07	
126	6.300000e+00	2.982934e-07	
127	6.350000e+00	2.981626e-07	
128	6.400000e+00	2.980345e-07	
129	6.450000e+00	2.979089e-07	
130	6.500000e+00	2.977857e-07	
131	6.550000e+00	2.976650e-07	
132	6.600000e+00	2.975466e-07	
Reset re-loads circuit ***************************

Circuit: ***************************

Doing analysis at TEMP = -40.000000 and TNOM = -40.000000


No. of Data Rows : 133
                          ***************************
                          DC transfer characteristic  Mon Jan  9 13:58:39  2023
--------------------------------------------------------------------------------
Index   v-sweep         rds             
--------------------------------------------------------------------------------
0	0.000000e+00	3.110247e-04	
1	5.000000e-02	3.016865e-04	
2	1.000000e-01	2.923748e-04	
3	1.500000e-01	2.830894e-04	
4	2.000000e-01	2.738303e-04	
5	2.500000e-01	2.645974e-04	
6	3.000000e-01	2.553905e-04	
7	3.500000e-01	2.462097e-04	
8	4.000000e-01	2.370547e-04	
9	4.500000e-01	2.279255e-04	
10	5.000000e-01	2.188221e-04	
11	5.500000e-01	2.097443e-04	
12	6.000000e-01	2.006920e-04	
13	6.500000e-01	1.916652e-04	
14	7.000000e-01	1.826639e-04	
15	7.500000e-01	1.736879e-04	
16	8.000000e-01	1.647372e-04	
17	8.500000e-01	1.558119e-04	
18	9.000000e-01	1.469120e-04	
19	9.500000e-01	1.380377e-04	
20	1.000000e+00	1.291892e-04	
21	1.050000e+00	1.203671e-04	
22	1.100000e+00	1.115723e-04	
23	1.150000e+00	1.028063e-04	
24	1.200000e+00	9.407152e-05	
25	1.250000e+00	8.537243e-05	
26	1.300000e+00	7.671657e-05	
27	1.350000e+00	6.811726e-05	
28	1.400000e+00	5.959823e-05	
29	1.450000e+00	5.120198e-05	
30	1.500000e+00	4.300384e-05	
31	1.550000e+00	3.513220e-05	
32	1.600000e+00	2.778781e-05	
33	1.650000e+00	2.123729e-05	
34	1.700000e+00	1.574565e-05	
35	1.750000e+00	1.145715e-05	
36	1.800000e+00	8.319278e-06	
37	1.850000e+00	6.125723e-06	
38	1.900000e+00	4.624765e-06	
39	1.950000e+00	3.598576e-06	
40	2.000000e+00	2.887976e-06	
41	2.050000e+00	2.385972e-06	
42	2.100000e+00	2.023123e-06	
43	2.150000e+00	1.754703e-06	
44	2.200000e+00	1.551686e-06	
45	2.250000e+00	1.394949e-06	
46	2.300000e+00	1.271654e-06	
47	2.350000e+00	1.173012e-06	
48	2.400000e+00	1.092882e-06	
49	2.450000e+00	1.026892e-06	
50	2.500000e+00	9.718749e-07	
51	2.550000e+00	9.254938e-07	
52	2.600000e+00	8.859997e-07	
53	2.650000e+00	8.520637e-07	
54	2.700000e+00	8.226629e-07	

Index   v-sweep         rds             
--------------------------------------------------------------------------------
55	2.750000e+00	7.969997e-07	
56	2.800000e+00	7.744453e-07	
57	2.850000e+00	7.544989e-07	
58	2.900000e+00	7.367573e-07	
59	2.950000e+00	7.208933e-07	
60	3.000000e+00	7.066390e-07	
61	3.050000e+00	6.937732e-07	
62	3.100000e+00	6.821122e-07	
63	3.150000e+00	6.715020e-07	
64	3.200000e+00	6.618131e-07	
65	3.250000e+00	6.529357e-07	
66	3.300000e+00	6.447762e-07	
67	3.350000e+00	6.372546e-07	
68	3.400000e+00	6.303017e-07	
69	3.450000e+00	6.238578e-07	
70	3.500000e+00	6.178713e-07	
71	3.550000e+00	6.122967e-07	
72	3.600000e+00	6.070946e-07	
73	3.650000e+00	6.022300e-07	
74	3.700000e+00	5.976723e-07	
75	3.750000e+00	5.933942e-07	
76	3.800000e+00	5.893716e-07	
77	3.850000e+00	5.855830e-07	
78	3.900000e+00	5.820091e-07	
79	3.950000e+00	5.786328e-07	
80	4.000000e+00	5.754385e-07	
81	4.050000e+00	5.724124e-07	
82	4.100000e+00	5.695418e-07	
83	4.150000e+00	5.668155e-07	
84	4.200000e+00	5.642230e-07	
85	4.250000e+00	5.617550e-07	
86	4.300000e+00	5.594030e-07	
87	4.350000e+00	5.571591e-07	
88	4.400000e+00	5.550164e-07	
89	4.450000e+00	5.529681e-07	
90	4.500000e+00	5.510085e-07	
91	4.550000e+00	5.491319e-07	
92	4.600000e+00	5.473333e-07	
93	4.650000e+00	5.456081e-07	
94	4.700000e+00	5.439519e-07	
95	4.750000e+00	5.423608e-07	
96	4.800000e+00	5.408310e-07	
97	4.850000e+00	5.393593e-07	
98	4.900000e+00	5.379423e-07	
99	4.950000e+00	5.365773e-07	
100	5.000000e+00	5.352613e-07	
101	5.050000e+00	5.339919e-07	
102	5.100000e+00	5.327666e-07	
103	5.150000e+00	5.315833e-07	
104	5.200000e+00	5.304399e-07	
105	5.250000e+00	5.293344e-07	
106	5.300000e+00	5.282650e-07	
107	5.350000e+00	5.272300e-07	
108	5.400000e+00	5.262278e-07	
109	5.450000e+00	5.252569e-07	
110	5.500000e+00	5.243158e-07	
111	5.550000e+00	5.234032e-07	
112	5.600000e+00	5.225179e-07	

Index   v-sweep         rds             
--------------------------------------------------------------------------------
113	5.650000e+00	5.216587e-07	
114	5.700000e+00	5.208245e-07	
115	5.750000e+00	5.200142e-07	
116	5.800000e+00	5.192268e-07	
117	5.850000e+00	5.184613e-07	
118	5.900000e+00	5.177169e-07	
119	5.950000e+00	5.169928e-07	
120	6.000000e+00	5.162881e-07	
121	6.050000e+00	5.156020e-07	
122	6.100000e+00	5.149339e-07	
123	6.150000e+00	5.142831e-07	
124	6.200000e+00	5.136488e-07	
125	6.250000e+00	5.130306e-07	
126	6.300000e+00	5.124277e-07	
127	6.350000e+00	5.118397e-07	
128	6.400000e+00	5.112660e-07	
129	6.450000e+00	5.107062e-07	
130	6.500000e+00	5.101596e-07	
131	6.550000e+00	5.096258e-07	
132	6.600000e+00	5.091045e-07	
Reset re-loads circuit ***************************

Circuit: ***************************

Doing analysis at TEMP = -40.000000 and TNOM = -40.000000


No. of Data Rows : 133
                          ***************************
                          DC transfer characteristic  Mon Jan  9 13:58:39  2023
--------------------------------------------------------------------------------
Index   v-sweep         rds             
--------------------------------------------------------------------------------
0	0.000000e+00	4.133740e-04	
1	5.000000e-02	4.048299e-04	
2	1.000000e-01	3.963097e-04	
3	1.500000e-01	3.878132e-04	
4	2.000000e-01	3.793404e-04	
5	2.500000e-01	3.708911e-04	
6	3.000000e-01	3.624653e-04	
7	3.500000e-01	3.540629e-04	
8	4.000000e-01	3.456838e-04	
9	4.500000e-01	3.373279e-04	
10	5.000000e-01	3.289952e-04	
11	5.500000e-01	3.206855e-04	
12	6.000000e-01	3.123987e-04	
13	6.500000e-01	3.041348e-04	
14	7.000000e-01	2.958936e-04	
15	7.500000e-01	2.876752e-04	
16	8.000000e-01	2.794793e-04	
17	8.500000e-01	2.713059e-04	
18	9.000000e-01	2.631549e-04	
19	9.500000e-01	2.550262e-04	
20	1.000000e+00	2.469196e-04	
21	1.050000e+00	2.388352e-04	
22	1.100000e+00	2.307727e-04	
23	1.150000e+00	2.227321e-04	
24	1.200000e+00	2.147132e-04	
25	1.250000e+00	2.067159e-04	
26	1.300000e+00	1.987402e-04	
27	1.350000e+00	1.907857e-04	
28	1.400000e+00	1.828524e-04	
29	1.450000e+00	1.749402e-04	
30	1.500000e+00	1.670488e-04	
31	1.550000e+00	1.591780e-04	
32	1.600000e+00	1.513278e-04	
33	1.650000e+00	1.434979e-04	
34	1.700000e+00	1.356882e-04	
35	1.750000e+00	1.278986e-04	
36	1.800000e+00	1.201290e-04	
37	1.850000e+00	1.123795e-04	
38	1.900000e+00	1.046508e-04	
39	1.950000e+00	9.694379e-05	
40	2.000000e+00	8.926065e-05	
41	2.050000e+00	8.160533e-05	
42	2.100000e+00	7.398506e-05	
43	2.150000e+00	6.641279e-05	
44	2.200000e+00	5.891134e-05	
45	2.250000e+00	5.151997e-05	
46	2.300000e+00	4.430391e-05	
47	2.350000e+00	3.736508e-05	
48	2.400000e+00	3.084805e-05	
49	2.450000e+00	2.492905e-05	
50	2.500000e+00	1.977779e-05	
51	2.550000e+00	1.550163e-05	
52	2.600000e+00	1.210669e-05	
53	2.650000e+00	9.504223e-06	
54	2.700000e+00	7.552651e-06	

Index   v-sweep         rds             
--------------------------------------------------------------------------------
55	2.750000e+00	6.102578e-06	
56	2.800000e+00	5.024079e-06	
57	2.850000e+00	4.215573e-06	
58	2.900000e+00	3.602153e-06	
59	2.950000e+00	3.130174e-06	
60	3.000000e+00	2.761646e-06	
61	3.050000e+00	2.469680e-06	
62	3.100000e+00	2.235129e-06	
63	3.150000e+00	2.044220e-06	
64	3.200000e+00	1.886935e-06	
65	3.250000e+00	1.755892e-06	
66	3.300000e+00	1.645584e-06	
67	3.350000e+00	1.551850e-06	
68	3.400000e+00	1.471505e-06	
69	3.450000e+00	1.402090e-06	
70	3.500000e+00	1.341678e-06	
71	3.550000e+00	1.288749e-06	
72	3.600000e+00	1.242087e-06	
73	3.650000e+00	1.200716e-06	
74	3.700000e+00	1.163842e-06	
75	3.750000e+00	1.130816e-06	
76	3.800000e+00	1.101102e-06	
77	3.850000e+00	1.074255e-06	
78	3.900000e+00	1.049902e-06	
79	3.950000e+00	1.027733e-06	
80	4.000000e+00	1.007480e-06	
81	4.050000e+00	9.889204e-07	
82	4.100000e+00	9.718604e-07	
83	4.150000e+00	9.561346e-07	
84	4.200000e+00	9.416003e-07	
85	4.250000e+00	9.281335e-07	
86	4.300000e+00	9.156263e-07	
87	4.350000e+00	9.039846e-07	
88	4.400000e+00	8.931254e-07	
89	4.450000e+00	8.829760e-07	
90	4.500000e+00	8.734719e-07	
91	4.550000e+00	8.645563e-07	
92	4.600000e+00	8.561782e-07	
93	4.650000e+00	8.482924e-07	
94	4.700000e+00	8.408586e-07	
95	4.750000e+00	8.338405e-07	
96	4.800000e+00	8.272055e-07	
97	4.850000e+00	8.209242e-07	
98	4.900000e+00	8.149702e-07	
99	4.950000e+00	8.093193e-07	
100	5.000000e+00	8.039499e-07	
101	5.050000e+00	7.988421e-07	
102	5.100000e+00	7.939780e-07	
103	5.150000e+00	7.893410e-07	
104	5.200000e+00	7.849162e-07	
105	5.250000e+00	7.806898e-07	
106	5.300000e+00	7.766492e-07	
107	5.350000e+00	7.727827e-07	
108	5.400000e+00	7.690797e-07	
109	5.450000e+00	7.655303e-07	
110	5.500000e+00	7.621254e-07	
111	5.550000e+00	7.588568e-07	
112	5.600000e+00	7.557165e-07	

Index   v-sweep         rds             
--------------------------------------------------------------------------------
113	5.650000e+00	7.526973e-07	
114	5.700000e+00	7.497927e-07	
115	5.750000e+00	7.469963e-07	
116	5.800000e+00	7.443024e-07	
117	5.850000e+00	7.417057e-07	
118	5.900000e+00	7.392010e-07	
119	5.950000e+00	7.367837e-07	
120	6.000000e+00	7.344494e-07	
121	6.050000e+00	7.321941e-07	
122	6.100000e+00	7.300138e-07	
123	6.150000e+00	7.279050e-07	
124	6.200000e+00	7.258644e-07	
125	6.250000e+00	7.238887e-07	
126	6.300000e+00	7.219749e-07	
127	6.350000e+00	7.201203e-07	
128	6.400000e+00	7.183223e-07	
129	6.450000e+00	7.165783e-07	
130	6.500000e+00	7.148859e-07	
131	6.550000e+00	7.132431e-07	
132	6.600000e+00	7.116476e-07	
Reset re-loads circuit ***************************

Circuit: ***************************

Doing analysis at TEMP = -40.000000 and TNOM = -40.000000


No. of Data Rows : 133
                          ***************************
                          DC transfer characteristic  Mon Jan  9 13:58:39  2023
--------------------------------------------------------------------------------
Index   v-sweep         rds             
--------------------------------------------------------------------------------
0	0.000000e+00	4.901082e-04	
1	5.000000e-02	4.824470e-04	
2	1.000000e-01	4.748059e-04	
3	1.500000e-01	4.671850e-04	
4	2.000000e-01	4.595841e-04	
5	2.500000e-01	4.520031e-04	
6	3.000000e-01	4.444420e-04	
7	3.500000e-01	4.369007e-04	
8	4.000000e-01	4.293792e-04	
9	4.500000e-01	4.218774e-04	
10	5.000000e-01	4.143952e-04	
11	5.500000e-01	4.069326e-04	
12	6.000000e-01	3.994894e-04	
13	6.500000e-01	3.920657e-04	
14	7.000000e-01	3.846613e-04	
15	7.500000e-01	3.772762e-04	
16	8.000000e-01	3.699103e-04	
17	8.500000e-01	3.625636e-04	
18	9.000000e-01	3.552359e-04	
19	9.500000e-01	3.479272e-04	
20	1.000000e+00	3.406375e-04	
21	1.050000e+00	3.333667e-04	
22	1.100000e+00	3.261146e-04	
23	1.150000e+00	3.188813e-04	
24	1.200000e+00	3.116666e-04	
25	1.250000e+00	3.044705e-04	
26	1.300000e+00	2.972928e-04	
27	1.350000e+00	2.901336e-04	
28	1.400000e+00	2.829928e-04	
29	1.450000e+00	2.758701e-04	
30	1.500000e+00	2.687657e-04	
31	1.550000e+00	2.616793e-04	
32	1.600000e+00	2.546109e-04	
33	1.650000e+00	2.475604e-04	
34	1.700000e+00	2.405277e-04	
35	1.750000e+00	2.335127e-04	
36	1.800000e+00	2.265152e-04	
37	1.850000e+00	2.195352e-04	
38	1.900000e+00	2.125724e-04	
39	1.950000e+00	2.056268e-04	
40	2.000000e+00	1.986982e-04	
41	2.050000e+00	1.917864e-04	
42	2.100000e+00	1.848912e-04	
43	2.150000e+00	1.780124e-04	
44	2.200000e+00	1.711497e-04	
45	2.250000e+00	1.643030e-04	
46	2.300000e+00	1.574717e-04	
47	2.350000e+00	1.506557e-04	
48	2.400000e+00	1.438545e-04	
49	2.450000e+00	1.370676e-04	
50	2.500000e+00	1.302946e-04	
51	2.550000e+00	1.235349e-04	
52	2.600000e+00	1.167879e-04	
53	2.650000e+00	1.100531e-04	
54	2.700000e+00	1.033301e-04	

Index   v-sweep         rds             
--------------------------------------------------------------------------------
55	2.750000e+00	9.661851e-05	
56	2.800000e+00	8.991875e-05	
57	2.850000e+00	8.323209e-05	
58	2.900000e+00	7.656166e-05	
59	2.950000e+00	6.991388e-05	
60	3.000000e+00	6.330081e-05	
61	3.050000e+00	5.674383e-05	
62	3.100000e+00	5.027890e-05	
63	3.150000e+00	4.396299e-05	
64	3.200000e+00	3.787973e-05	
65	3.250000e+00	3.213964e-05	
66	3.300000e+00	2.686909e-05	
67	3.350000e+00	2.218563e-05	
68	3.400000e+00	1.816727e-05	
69	3.450000e+00	1.483175e-05	
70	3.500000e+00	1.213729e-05	
71	3.550000e+00	1.000178e-05	
72	3.600000e+00	8.327168e-06	
73	3.650000e+00	7.018344e-06	
74	3.700000e+00	5.993110e-06	
75	3.750000e+00	5.185131e-06	
76	3.800000e+00	4.542968e-06	
77	3.850000e+00	4.027601e-06	
78	3.900000e+00	3.609725e-06	
79	3.950000e+00	3.267385e-06	
80	4.000000e+00	2.984092e-06	
81	4.050000e+00	2.747394e-06	
82	4.100000e+00	2.547821e-06	
83	4.150000e+00	2.378107e-06	
84	4.200000e+00	2.232630e-06	
85	4.250000e+00	2.107000e-06	
86	4.300000e+00	1.997759e-06	
87	4.350000e+00	1.902158e-06	
88	4.400000e+00	1.817995e-06	
89	4.450000e+00	1.743491e-06	
90	4.500000e+00	1.677197e-06	
91	4.550000e+00	1.617924e-06	
92	4.600000e+00	1.564693e-06	
93	4.650000e+00	1.516687e-06	
94	4.700000e+00	1.473224e-06	
95	4.750000e+00	1.433731e-06	
96	4.800000e+00	1.397722e-06	
97	4.850000e+00	1.364785e-06	
98	4.900000e+00	1.334565e-06	
99	4.950000e+00	1.306760e-06	
100	5.000000e+00	1.281109e-06	
101	5.050000e+00	1.257385e-06	
102	5.100000e+00	1.235390e-06	
103	5.150000e+00	1.214953e-06	
104	5.200000e+00	1.195922e-06	
105	5.250000e+00	1.178164e-06	
106	5.300000e+00	1.161563e-06	
107	5.350000e+00	1.146015e-06	
108	5.400000e+00	1.131428e-06	
109	5.450000e+00	1.117719e-06	
110	5.500000e+00	1.104815e-06	
111	5.550000e+00	1.092651e-06	
112	5.600000e+00	1.081168e-06	

Index   v-sweep         rds             
--------------------------------------------------------------------------------
113	5.650000e+00	1.070312e-06	
114	5.700000e+00	1.060036e-06	
115	5.750000e+00	1.050297e-06	
116	5.800000e+00	1.041055e-06	
117	5.850000e+00	1.032275e-06	
118	5.900000e+00	1.023924e-06	
119	5.950000e+00	1.015974e-06	
120	6.000000e+00	1.008396e-06	
121	6.050000e+00	1.001168e-06	
122	6.100000e+00	9.942644e-07	
123	6.150000e+00	9.876665e-07	
124	6.200000e+00	9.813547e-07	
125	6.250000e+00	9.753115e-07	
126	6.300000e+00	9.695207e-07	
127	6.350000e+00	9.639673e-07	
128	6.400000e+00	9.586377e-07	
129	6.450000e+00	9.535189e-07	
130	6.500000e+00	9.485992e-07	
131	6.550000e+00	9.438675e-07	
132	6.600000e+00	9.393137e-07	
Reset re-loads circuit ***************************

Circuit: ***************************

Doing analysis at TEMP = -40.000000 and TNOM = -40.000000


No. of Data Rows : 133
                          ***************************
                          DC transfer characteristic  Mon Jan  9 13:58:39  2023
--------------------------------------------------------------------------------
Index   v-sweep         rds             
--------------------------------------------------------------------------------
0	0.000000e+00	5.440039e-04	
1	5.000000e-02	5.372358e-04	
2	1.000000e-01	5.304841e-04	
3	1.500000e-01	5.237488e-04	
4	2.000000e-01	5.170298e-04	
5	2.500000e-01	5.103272e-04	
6	3.000000e-01	5.036407e-04	
7	3.500000e-01	4.969705e-04	
8	4.000000e-01	4.903163e-04	
9	4.500000e-01	4.836783e-04	
10	5.000000e-01	4.770563e-04	
11	5.500000e-01	4.704503e-04	
12	6.000000e-01	4.638602e-04	
13	6.500000e-01	4.572860e-04	
14	7.000000e-01	4.507277e-04	
15	7.500000e-01	4.441851e-04	
16	8.000000e-01	4.376583e-04	
17	8.500000e-01	4.311472e-04	
18	9.000000e-01	4.246517e-04	
19	9.500000e-01	4.181719e-04	
20	1.000000e+00	4.117075e-04	
21	1.050000e+00	4.052587e-04	
22	1.100000e+00	3.988253e-04	
23	1.150000e+00	3.924073e-04	
24	1.200000e+00	3.860046e-04	
25	1.250000e+00	3.796172e-04	
26	1.300000e+00	3.732451e-04	
27	1.350000e+00	3.668882e-04	
28	1.400000e+00	3.605464e-04	
29	1.450000e+00	3.542197e-04	
30	1.500000e+00	3.479080e-04	
31	1.550000e+00	3.416113e-04	
32	1.600000e+00	3.353296e-04	
33	1.650000e+00	3.290627e-04	
34	1.700000e+00	3.228107e-04	
35	1.750000e+00	3.165734e-04	
36	1.800000e+00	3.103509e-04	
37	1.850000e+00	3.041430e-04	
38	1.900000e+00	2.979497e-04	
39	1.950000e+00	2.917709e-04	
40	2.000000e+00	2.856066e-04	
41	2.050000e+00	2.794568e-04	
42	2.100000e+00	2.733212e-04	
43	2.150000e+00	2.672000e-04	
44	2.200000e+00	2.610929e-04	
45	2.250000e+00	2.550000e-04	
46	2.300000e+00	2.489211e-04	
47	2.350000e+00	2.428562e-04	
48	2.400000e+00	2.368051e-04	
49	2.450000e+00	2.307679e-04	
50	2.500000e+00	2.247443e-04	
51	2.550000e+00	2.187342e-04	
52	2.600000e+00	2.127376e-04	
53	2.650000e+00	2.067543e-04	
54	2.700000e+00	2.007842e-04	

Index   v-sweep         rds             
--------------------------------------------------------------------------------
55	2.750000e+00	1.948271e-04	
56	2.800000e+00	1.888827e-04	
57	2.850000e+00	1.829510e-04	
58	2.900000e+00	1.770317e-04	
59	2.950000e+00	1.711246e-04	
60	3.000000e+00	1.652292e-04	
61	3.050000e+00	1.593454e-04	
62	3.100000e+00	1.534727e-04	
63	3.150000e+00	1.476107e-04	
64	3.200000e+00	1.417589e-04	
65	3.250000e+00	1.359167e-04	
66	3.300000e+00	1.300834e-04	
67	3.350000e+00	1.242583e-04	
68	3.400000e+00	1.184405e-04	
69	3.450000e+00	1.126289e-04	
70	3.500000e+00	1.068226e-04	
71	3.550000e+00	1.010204e-04	
72	3.600000e+00	9.522107e-05	
73	3.650000e+00	8.942366e-05	
74	3.700000e+00	8.362760e-05	
75	3.750000e+00	7.783327e-05	
76	3.800000e+00	7.204276e-05	
77	3.850000e+00	6.626129e-05	
78	3.900000e+00	6.049927e-05	
79	3.950000e+00	5.477536e-05	
80	4.000000e+00	4.912041e-05	
81	4.050000e+00	4.358174e-05	
82	4.100000e+00	3.822593e-05	
83	4.150000e+00	3.313748e-05	
84	4.200000e+00	2.841035e-05	
85	4.250000e+00	2.413218e-05	
86	4.300000e+00	2.036584e-05	
87	4.350000e+00	1.713634e-05	
88	4.400000e+00	1.442888e-05	
89	4.450000e+00	1.219761e-05	
90	4.500000e+00	1.037924e-05	
91	4.550000e+00	8.905790e-06	
92	4.600000e+00	7.713196e-06	
93	4.650000e+00	6.745707e-06	
94	4.700000e+00	5.957127e-06	
95	4.750000e+00	5.310328e-06	
96	4.800000e+00	4.775989e-06	
97	4.850000e+00	4.331173e-06	
98	4.900000e+00	3.957997e-06	
99	4.950000e+00	3.642512e-06	
100	5.000000e+00	3.373809e-06	
101	5.050000e+00	3.143311e-06	
102	5.100000e+00	2.944243e-06	
103	5.150000e+00	2.771212e-06	
104	5.200000e+00	2.619902e-06	
105	5.250000e+00	2.486836e-06	
106	5.300000e+00	2.369187e-06	
107	5.350000e+00	2.264650e-06	
108	5.400000e+00	2.171328e-06	
109	5.450000e+00	2.087651e-06	
110	5.500000e+00	2.012314e-06	
111	5.550000e+00	1.944221e-06	
112	5.600000e+00	1.882453e-06	

Index   v-sweep         rds             
--------------------------------------------------------------------------------
113	5.650000e+00	1.826231e-06	
114	5.700000e+00	1.774892e-06	
115	5.750000e+00	1.727869e-06	
116	5.800000e+00	1.684677e-06	
117	5.850000e+00	1.644896e-06	
118	5.900000e+00	1.608163e-06	
119	5.950000e+00	1.574162e-06	
120	6.000000e+00	1.542619e-06	
121	6.050000e+00	1.513292e-06	
122	6.100000e+00	1.485970e-06	
123	6.150000e+00	1.460464e-06	
124	6.200000e+00	1.436611e-06	
125	6.250000e+00	1.414264e-06	
126	6.300000e+00	1.393291e-06	
127	6.350000e+00	1.373578e-06	
128	6.400000e+00	1.355019e-06	
129	6.450000e+00	1.337521e-06	
130	6.500000e+00	1.321001e-06	
131	6.550000e+00	1.305382e-06	
132	6.600000e+00	1.290598e-06	
Reset re-loads circuit ***************************

Circuit: ***************************

Note: No ".plot", ".print", or ".fourier" lines; no simulations run
