
Note: Compatibility modes selected: hs

Warning: m=xx on .subckt line will override multiplier m hierarchy!


Circuit: ***************************

Doing analysis at TEMP = 125.000000 and TNOM = 125.000000


No. of Data Rows : 133
                          ***************************
                          DC transfer characteristic  Mon Jan  9 13:58:40  2023
--------------------------------------------------------------------------------
Index   v-sweep         rds             
--------------------------------------------------------------------------------
0	0.000000e+00	3.152218e-06	
1	5.000000e-02	2.743766e-06	
2	1.000000e-01	2.337053e-06	
3	1.500000e-01	1.932732e-06	
4	2.000000e-01	1.532371e-06	
5	2.500000e-01	1.140091e-06	
6	3.000000e-01	7.673456e-07	
7	3.500000e-01	4.433306e-07	
8	4.000000e-01	2.149822e-07	
9	4.500000e-01	9.650667e-08	
10	5.000000e-01	4.690741e-08	
11	5.500000e-01	2.660938e-08	
12	6.000000e-01	1.756267e-08	
13	6.500000e-01	1.307227e-08	
14	7.000000e-01	1.061448e-08	
15	7.500000e-01	9.154786e-09	
16	8.000000e-01	8.227998e-09	
17	8.500000e-01	7.606489e-09	
18	9.000000e-01	7.170470e-09	
19	9.500000e-01	6.852871e-09	
20	1.000000e+00	6.614103e-09	
21	1.050000e+00	6.429723e-09	
22	1.100000e+00	6.284037e-09	
23	1.150000e+00	6.166625e-09	
24	1.200000e+00	6.070360e-09	
25	1.250000e+00	5.990241e-09	
26	1.300000e+00	5.922674e-09	
27	1.350000e+00	5.865025e-09	
28	1.400000e+00	5.815326e-09	
29	1.450000e+00	5.772085e-09	
30	1.500000e+00	5.734149e-09	
31	1.550000e+00	5.700619e-09	
32	1.600000e+00	5.670784e-09	
33	1.650000e+00	5.644074e-09	
34	1.700000e+00	5.620030e-09	
35	1.750000e+00	5.598276e-09	
36	1.800000e+00	5.578502e-09	
37	1.850000e+00	5.560453e-09	
38	1.900000e+00	5.543912e-09	
39	1.950000e+00	5.528701e-09	
40	2.000000e+00	5.514664e-09	
41	2.050000e+00	5.501671e-09	
42	2.100000e+00	5.489611e-09	
43	2.150000e+00	5.478386e-09	
44	2.200000e+00	5.467912e-09	
45	2.250000e+00	5.458116e-09	
46	2.300000e+00	5.448935e-09	
47	2.350000e+00	5.440312e-09	
48	2.400000e+00	5.432197e-09	
49	2.450000e+00	5.424547e-09	
50	2.500000e+00	5.417323e-09	
51	2.550000e+00	5.410491e-09	
52	2.600000e+00	5.404018e-09	
53	2.650000e+00	5.397877e-09	
54	2.700000e+00	5.392044e-09	

Index   v-sweep         rds             
--------------------------------------------------------------------------------
55	2.750000e+00	5.386495e-09	
56	2.800000e+00	5.381210e-09	
57	2.850000e+00	5.376171e-09	
58	2.900000e+00	5.371361e-09	
59	2.950000e+00	5.366765e-09	
60	3.000000e+00	5.362368e-09	
61	3.050000e+00	5.358158e-09	
62	3.100000e+00	5.354123e-09	
63	3.150000e+00	5.350252e-09	
64	3.200000e+00	5.346536e-09	
65	3.250000e+00	5.342965e-09	
66	3.300000e+00	5.339531e-09	
67	3.350000e+00	5.336227e-09	
68	3.400000e+00	5.333044e-09	
69	3.450000e+00	5.329977e-09	
70	3.500000e+00	5.327020e-09	
71	3.550000e+00	5.324165e-09	
72	3.600000e+00	5.321409e-09	
73	3.650000e+00	5.318746e-09	
74	3.700000e+00	5.316172e-09	
75	3.750000e+00	5.313681e-09	
76	3.800000e+00	5.311271e-09	
77	3.850000e+00	5.308937e-09	
78	3.900000e+00	5.306676e-09	
79	3.950000e+00	5.304484e-09	
80	4.000000e+00	5.302358e-09	
81	4.050000e+00	5.300296e-09	
82	4.100000e+00	5.298294e-09	
83	4.150000e+00	5.296350e-09	
84	4.200000e+00	5.294461e-09	
85	4.250000e+00	5.292626e-09	
86	4.300000e+00	5.290841e-09	
87	4.350000e+00	5.289105e-09	
88	4.400000e+00	5.287416e-09	
89	4.450000e+00	5.285772e-09	
90	4.500000e+00	5.284171e-09	
91	4.550000e+00	5.282611e-09	
92	4.600000e+00	5.281092e-09	
93	4.650000e+00	5.279611e-09	
94	4.700000e+00	5.278167e-09	
95	4.750000e+00	5.276758e-09	
96	4.800000e+00	5.275384e-09	
97	4.850000e+00	5.274043e-09	
98	4.900000e+00	5.272734e-09	
99	4.950000e+00	5.271455e-09	
100	5.000000e+00	5.270207e-09	
101	5.050000e+00	5.268987e-09	
102	5.100000e+00	5.267795e-09	
103	5.150000e+00	5.266629e-09	
104	5.200000e+00	5.265490e-09	
105	5.250000e+00	5.264375e-09	
106	5.300000e+00	5.263285e-09	
107	5.350000e+00	5.262218e-09	
108	5.400000e+00	5.261174e-09	
109	5.450000e+00	5.260152e-09	
110	5.500000e+00	5.259152e-09	
111	5.550000e+00	5.258172e-09	
112	5.600000e+00	5.257212e-09	

Index   v-sweep         rds             
--------------------------------------------------------------------------------
113	5.650000e+00	5.256271e-09	
114	5.700000e+00	5.255349e-09	
115	5.750000e+00	5.254446e-09	
116	5.800000e+00	5.253561e-09	
117	5.850000e+00	5.252692e-09	
118	5.900000e+00	5.251841e-09	
119	5.950000e+00	5.251005e-09	
120	6.000000e+00	5.250186e-09	
121	6.050000e+00	5.249382e-09	
122	6.100000e+00	5.248593e-09	
123	6.150000e+00	5.247818e-09	
124	6.200000e+00	5.247058e-09	
125	6.250000e+00	5.246311e-09	
126	6.300000e+00	5.245578e-09	
127	6.350000e+00	5.244858e-09	
128	6.400000e+00	5.244150e-09	
129	6.450000e+00	5.243455e-09	
130	6.500000e+00	5.242772e-09	
131	6.550000e+00	5.242101e-09	
132	6.600000e+00	5.241441e-09	
Reset re-loads circuit ***************************

Circuit: ***************************

Doing analysis at TEMP = 125.000000 and TNOM = 125.000000


No. of Data Rows : 133
                          ***************************
                          DC transfer characteristic  Mon Jan  9 13:58:40  2023
--------------------------------------------------------------------------------
Index   v-sweep         rds             
--------------------------------------------------------------------------------
0	0.000000e+00	9.446802e-06	
1	5.000000e-02	9.028294e-06	
2	1.000000e-01	8.610968e-06	
3	1.500000e-01	8.194823e-06	
4	2.000000e-01	7.779860e-06	
5	2.500000e-01	7.366079e-06	
6	3.000000e-01	6.953484e-06	
7	3.500000e-01	6.542082e-06	
8	4.000000e-01	6.131885e-06	
9	4.500000e-01	5.722908e-06	
10	5.000000e-01	5.315181e-06	
11	5.500000e-01	4.908746e-06	
12	6.000000e-01	4.503671e-06	
13	6.500000e-01	4.100068e-06	
14	7.000000e-01	3.698118e-06	
15	7.500000e-01	3.298130e-06	
16	8.000000e-01	2.900641e-06	
17	8.500000e-01	2.506619e-06	
18	9.000000e-01	2.117854e-06	
19	9.500000e-01	1.737714e-06	
20	1.000000e+00	1.372470e-06	
21	1.050000e+00	1.033077e-06	
22	1.100000e+00	7.357941e-07	
23	1.150000e+00	4.977508e-07	
24	1.200000e+00	3.266872e-07	
25	1.250000e+00	2.150154e-07	
26	1.300000e+00	1.461632e-07	
27	1.350000e+00	1.043065e-07	
28	1.400000e+00	7.844456e-08	
29	1.450000e+00	6.195093e-08	
30	1.500000e+00	5.103620e-08	
31	1.550000e+00	4.354299e-08	
32	1.600000e+00	3.822010e-08	
33	1.650000e+00	3.432100e-08	
34	1.700000e+00	3.138607e-08	
35	1.750000e+00	2.912335e-08	
36	1.800000e+00	2.734174e-08	
37	1.850000e+00	2.591272e-08	
38	1.900000e+00	2.474762e-08	
39	1.950000e+00	2.378385e-08	
40	2.000000e+00	2.297632e-08	
41	2.050000e+00	2.229191e-08	
42	2.100000e+00	2.170586e-08	
43	2.150000e+00	2.119940e-08	
44	2.200000e+00	2.075807e-08	
45	2.250000e+00	2.037059e-08	
46	2.300000e+00	2.002806e-08	
47	2.350000e+00	1.972338e-08	
48	2.400000e+00	1.945083e-08	
49	2.450000e+00	1.920575e-08	
50	2.500000e+00	1.898430e-08	
51	2.550000e+00	1.878334e-08	
52	2.600000e+00	1.860022e-08	
53	2.650000e+00	1.843273e-08	
54	2.700000e+00	1.827899e-08	

Index   v-sweep         rds             
--------------------------------------------------------------------------------
55	2.750000e+00	1.813743e-08	
56	2.800000e+00	1.800668e-08	
57	2.850000e+00	1.788557e-08	
58	2.900000e+00	1.777309e-08	
59	2.950000e+00	1.766838e-08	
60	3.000000e+00	1.757066e-08	
61	3.050000e+00	1.747928e-08	
62	3.100000e+00	1.739364e-08	
63	3.150000e+00	1.731322e-08	
64	3.200000e+00	1.723758e-08	
65	3.250000e+00	1.716630e-08	
66	3.300000e+00	1.709902e-08	
67	3.350000e+00	1.703541e-08	
68	3.400000e+00	1.697520e-08	
69	3.450000e+00	1.691811e-08	
70	3.500000e+00	1.686391e-08	
71	3.550000e+00	1.681239e-08	
72	3.600000e+00	1.676336e-08	
73	3.650000e+00	1.671664e-08	
74	3.700000e+00	1.667208e-08	
75	3.750000e+00	1.662952e-08	
76	3.800000e+00	1.658885e-08	
77	3.850000e+00	1.654993e-08	
78	3.900000e+00	1.651266e-08	
79	3.950000e+00	1.647694e-08	
80	4.000000e+00	1.644267e-08	
81	4.050000e+00	1.640976e-08	
82	4.100000e+00	1.637814e-08	
83	4.150000e+00	1.634773e-08	
84	4.200000e+00	1.631846e-08	
85	4.250000e+00	1.629028e-08	
86	4.300000e+00	1.626312e-08	
87	4.350000e+00	1.623693e-08	
88	4.400000e+00	1.621166e-08	
89	4.450000e+00	1.618726e-08	
90	4.500000e+00	1.616368e-08	
91	4.550000e+00	1.614089e-08	
92	4.600000e+00	1.611885e-08	
93	4.650000e+00	1.609752e-08	
94	4.700000e+00	1.607687e-08	
95	4.750000e+00	1.605686e-08	
96	4.800000e+00	1.603747e-08	
97	4.850000e+00	1.601866e-08	
98	4.900000e+00	1.600042e-08	
99	4.950000e+00	1.598272e-08	
100	5.000000e+00	1.596553e-08	
101	5.050000e+00	1.594883e-08	
102	5.100000e+00	1.593261e-08	
103	5.150000e+00	1.591683e-08	
104	5.200000e+00	1.590149e-08	
105	5.250000e+00	1.588657e-08	
106	5.300000e+00	1.587204e-08	
107	5.350000e+00	1.585790e-08	
108	5.400000e+00	1.584412e-08	
109	5.450000e+00	1.583070e-08	
110	5.500000e+00	1.581762e-08	
111	5.550000e+00	1.580487e-08	
112	5.600000e+00	1.579244e-08	

Index   v-sweep         rds             
--------------------------------------------------------------------------------
113	5.650000e+00	1.578030e-08	
114	5.700000e+00	1.576847e-08	
115	5.750000e+00	1.575691e-08	
116	5.800000e+00	1.574563e-08	
117	5.850000e+00	1.573461e-08	
118	5.900000e+00	1.572385e-08	
119	5.950000e+00	1.571333e-08	
120	6.000000e+00	1.570305e-08	
121	6.050000e+00	1.569300e-08	
122	6.100000e+00	1.568317e-08	
123	6.150000e+00	1.567355e-08	
124	6.200000e+00	1.566415e-08	
125	6.250000e+00	1.565494e-08	
126	6.300000e+00	1.564593e-08	
127	6.350000e+00	1.563711e-08	
128	6.400000e+00	1.562847e-08	
129	6.450000e+00	1.562001e-08	
130	6.500000e+00	1.561172e-08	
131	6.550000e+00	1.560359e-08	
132	6.600000e+00	1.559563e-08	
Reset re-loads circuit ***************************

Circuit: ***************************

Doing analysis at TEMP = 125.000000 and TNOM = 125.000000


No. of Data Rows : 133
                          ***************************
                          DC transfer characteristic  Mon Jan  9 13:58:40  2023
--------------------------------------------------------------------------------
Index   v-sweep         rds             
--------------------------------------------------------------------------------
0	0.000000e+00	1.472467e-05	
1	5.000000e-02	1.433312e-05	
2	1.000000e-01	1.394264e-05	
3	1.500000e-01	1.355321e-05	
4	2.000000e-01	1.316485e-05	
5	2.500000e-01	1.277754e-05	
6	3.000000e-01	1.239128e-05	
7	3.500000e-01	1.200606e-05	
8	4.000000e-01	1.162189e-05	
9	4.500000e-01	1.123876e-05	
10	5.000000e-01	1.085667e-05	
11	5.500000e-01	1.047561e-05	
12	6.000000e-01	1.009559e-05	
13	6.500000e-01	9.716590e-06	
14	7.000000e-01	9.338618e-06	
15	7.500000e-01	8.961670e-06	
16	8.000000e-01	8.585744e-06	
17	8.500000e-01	8.210839e-06	
18	9.000000e-01	7.836955e-06	
19	9.500000e-01	7.464092e-06	
20	1.000000e+00	7.092253e-06	
21	1.050000e+00	6.721442e-06	
22	1.100000e+00	6.351668e-06	
23	1.150000e+00	5.982941e-06	
24	1.200000e+00	5.615283e-06	
25	1.250000e+00	5.248723e-06	
26	1.300000e+00	4.883308e-06	
27	1.350000e+00	4.519112e-06	
28	1.400000e+00	4.156249e-06	
29	1.450000e+00	3.794904e-06	
30	1.500000e+00	3.435375e-06	
31	1.550000e+00	3.078157e-06	
32	1.600000e+00	2.724074e-06	
33	1.650000e+00	2.374525e-06	
34	1.700000e+00	2.031864e-06	
35	1.750000e+00	1.699978e-06	
36	1.800000e+00	1.384955e-06	
37	1.850000e+00	1.095362e-06	
38	1.900000e+00	8.412051e-07	
39	1.950000e+00	6.308704e-07	
40	2.000000e+00	4.673675e-07	
41	2.050000e+00	3.469827e-07	
42	2.100000e+00	2.615219e-07	
43	2.150000e+00	2.018368e-07	
44	2.200000e+00	1.601364e-07	
45	2.250000e+00	1.306617e-07	
46	2.300000e+00	1.094543e-07	
47	2.350000e+00	9.388000e-08	
48	2.400000e+00	8.220046e-08	
49	2.450000e+00	7.326273e-08	
50	2.500000e+00	6.629244e-08	
51	2.550000e+00	6.076108e-08	
52	2.600000e+00	5.630148e-08	
53	2.650000e+00	5.265401e-08	
54	2.700000e+00	4.963181e-08	

Index   v-sweep         rds             
--------------------------------------------------------------------------------
55	2.750000e+00	4.709818e-08	
56	2.800000e+00	4.495149e-08	
57	2.850000e+00	4.311510e-08	
58	2.900000e+00	4.153042e-08	
59	2.950000e+00	4.015205e-08	
60	3.000000e+00	3.894445e-08	
61	3.050000e+00	3.787943e-08	
62	3.100000e+00	3.693447e-08	
63	3.150000e+00	3.609134e-08	
64	3.200000e+00	3.533522e-08	
65	3.250000e+00	3.465392e-08	
66	3.300000e+00	3.403733e-08	
67	3.350000e+00	3.347704e-08	
68	3.400000e+00	3.296600e-08	
69	3.450000e+00	3.249823e-08	
70	3.500000e+00	3.206867e-08	
71	3.550000e+00	3.167299e-08	
72	3.600000e+00	3.130747e-08	
73	3.650000e+00	3.096890e-08	
74	3.700000e+00	3.065452e-08	
75	3.750000e+00	3.036189e-08	
76	3.800000e+00	3.008890e-08	
77	3.850000e+00	2.983370e-08	
78	3.900000e+00	2.959465e-08	
79	3.950000e+00	2.937030e-08	
80	4.000000e+00	2.915939e-08	
81	4.050000e+00	2.896076e-08	
82	4.100000e+00	2.877339e-08	
83	4.150000e+00	2.859639e-08	
84	4.200000e+00	2.842893e-08	
85	4.250000e+00	2.827029e-08	
86	4.300000e+00	2.811978e-08	
87	4.350000e+00	2.797683e-08	
88	4.400000e+00	2.784088e-08	
89	4.450000e+00	2.771145e-08	
90	4.500000e+00	2.758808e-08	
91	4.550000e+00	2.747037e-08	
92	4.600000e+00	2.735795e-08	
93	4.650000e+00	2.725046e-08	
94	4.700000e+00	2.714761e-08	
95	4.750000e+00	2.704909e-08	
96	4.800000e+00	2.695466e-08	
97	4.850000e+00	2.686405e-08	
98	4.900000e+00	2.677706e-08	
99	4.950000e+00	2.669346e-08	
100	5.000000e+00	2.661307e-08	
101	5.050000e+00	2.653571e-08	
102	5.100000e+00	2.646122e-08	
103	5.150000e+00	2.638943e-08	
104	5.200000e+00	2.632021e-08	
105	5.250000e+00	2.625342e-08	
106	5.300000e+00	2.618895e-08	
107	5.350000e+00	2.612666e-08	
108	5.400000e+00	2.606646e-08	
109	5.450000e+00	2.600824e-08	
110	5.500000e+00	2.595191e-08	
111	5.550000e+00	2.589737e-08	
112	5.600000e+00	2.584455e-08	

Index   v-sweep         rds             
--------------------------------------------------------------------------------
113	5.650000e+00	2.579337e-08	
114	5.700000e+00	2.574375e-08	
115	5.750000e+00	2.569562e-08	
116	5.800000e+00	2.564892e-08	
117	5.850000e+00	2.560358e-08	
118	5.900000e+00	2.555955e-08	
119	5.950000e+00	2.551677e-08	
120	6.000000e+00	2.547519e-08	
121	6.050000e+00	2.543476e-08	
122	6.100000e+00	2.539543e-08	
123	6.150000e+00	2.535717e-08	
124	6.200000e+00	2.531992e-08	
125	6.250000e+00	2.528364e-08	
126	6.300000e+00	2.524831e-08	
127	6.350000e+00	2.521389e-08	
128	6.400000e+00	2.518033e-08	
129	6.450000e+00	2.514761e-08	
130	6.500000e+00	2.511570e-08	
131	6.550000e+00	2.508457e-08	
132	6.600000e+00	2.505419e-08	
Reset re-loads circuit ***************************

Circuit: ***************************

Doing analysis at TEMP = 125.000000 and TNOM = 125.000000


No. of Data Rows : 133
                          ***************************
                          DC transfer characteristic  Mon Jan  9 13:58:40  2023
--------------------------------------------------------------------------------
Index   v-sweep         rds             
--------------------------------------------------------------------------------
0	0.000000e+00	1.890231e-05	
1	5.000000e-02	1.854554e-05	
2	1.000000e-01	1.818968e-05	
3	1.500000e-01	1.783473e-05	
4	2.000000e-01	1.748069e-05	
5	2.500000e-01	1.712755e-05	
6	3.000000e-01	1.677530e-05	
7	3.500000e-01	1.642395e-05	
8	4.000000e-01	1.607349e-05	
9	4.500000e-01	1.572393e-05	
10	5.000000e-01	1.537524e-05	
11	5.500000e-01	1.502745e-05	
12	6.000000e-01	1.468053e-05	
13	6.500000e-01	1.433449e-05	
14	7.000000e-01	1.398932e-05	
15	7.500000e-01	1.364503e-05	
16	8.000000e-01	1.330160e-05	
17	8.500000e-01	1.295904e-05	
18	9.000000e-01	1.261735e-05	
19	9.500000e-01	1.227651e-05	
20	1.000000e+00	1.193653e-05	
21	1.050000e+00	1.159740e-05	
22	1.100000e+00	1.125913e-05	
23	1.150000e+00	1.092170e-05	
24	1.200000e+00	1.058512e-05	
25	1.250000e+00	1.024938e-05	
26	1.300000e+00	9.914474e-06	
27	1.350000e+00	9.580407e-06	
28	1.400000e+00	9.247172e-06	
29	1.450000e+00	8.914767e-06	
30	1.500000e+00	8.583189e-06	
31	1.550000e+00	8.252434e-06	
32	1.600000e+00	7.922499e-06	
33	1.650000e+00	7.593383e-06	
34	1.700000e+00	7.265083e-06	
35	1.750000e+00	6.937597e-06	
36	1.800000e+00	6.610925e-06	
37	1.850000e+00	6.285068e-06	
38	1.900000e+00	5.960028e-06	
39	1.950000e+00	5.635812e-06	
40	2.000000e+00	5.312433e-06	
41	2.050000e+00	4.989911e-06	
42	2.100000e+00	4.668282e-06	
43	2.150000e+00	4.347603e-06	
44	2.200000e+00	4.027969e-06	
45	2.250000e+00	3.709532e-06	
46	2.300000e+00	3.392542e-06	
47	2.350000e+00	3.077410e-06	
48	2.400000e+00	2.764805e-06	
49	2.450000e+00	2.455819e-06	
50	2.500000e+00	2.152208e-06	
51	2.550000e+00	1.856710e-06	
52	2.600000e+00	1.573372e-06	
53	2.650000e+00	1.307673e-06	
54	2.700000e+00	1.066075e-06	

Index   v-sweep         rds             
--------------------------------------------------------------------------------
55	2.750000e+00	8.547153e-07	
56	2.800000e+00	6.775631e-07	
57	2.850000e+00	5.350698e-07	
58	2.900000e+00	4.242426e-07	
59	2.950000e+00	3.399640e-07	
60	3.000000e+00	2.765759e-07	
61	3.050000e+00	2.289628e-07	
62	3.100000e+00	1.929947e-07	
63	3.150000e+00	1.655468e-07	
64	3.200000e+00	1.443359e-07	
65	3.250000e+00	1.277201e-07	
66	3.300000e+00	1.145233e-07	
67	3.350000e+00	1.039009e-07	
68	3.400000e+00	9.524128e-08	
69	3.450000e+00	8.809720e-08	
70	3.500000e+00	8.213798e-08	
71	3.550000e+00	7.711617e-08	
72	3.600000e+00	7.284443e-08	
73	3.650000e+00	6.917924e-08	
74	3.700000e+00	6.600944e-08	
75	3.750000e+00	6.324802e-08	
76	3.800000e+00	6.082615e-08	
77	3.850000e+00	5.868892e-08	
78	3.900000e+00	5.679206e-08	
79	3.950000e+00	5.509964e-08	
80	4.000000e+00	5.358221e-08	
81	4.050000e+00	5.221550e-08	
82	4.100000e+00	5.097934e-08	
83	4.150000e+00	4.985685e-08	
84	4.200000e+00	4.883385e-08	
85	4.250000e+00	4.789832e-08	
86	4.300000e+00	4.704003e-08	
87	4.350000e+00	4.625025e-08	
88	4.400000e+00	4.552145e-08	
89	4.450000e+00	4.484714e-08	
90	4.500000e+00	4.422169e-08	
91	4.550000e+00	4.364019e-08	
92	4.600000e+00	4.309835e-08	
93	4.650000e+00	4.259240e-08	
94	4.700000e+00	4.211904e-08	
95	4.750000e+00	4.167531e-08	
96	4.800000e+00	4.125863e-08	
97	4.850000e+00	4.086668e-08	
98	4.900000e+00	4.049740e-08	
99	4.950000e+00	4.014894e-08	
100	5.000000e+00	3.981964e-08	
101	5.050000e+00	3.950802e-08	
102	5.100000e+00	3.921273e-08	
103	5.150000e+00	3.893256e-08	
104	5.200000e+00	3.866642e-08	
105	5.250000e+00	3.841330e-08	
106	5.300000e+00	3.817229e-08	
107	5.350000e+00	3.794258e-08	
108	5.400000e+00	3.772341e-08	
109	5.450000e+00	3.751408e-08	
110	5.500000e+00	3.731397e-08	
111	5.550000e+00	3.712250e-08	
112	5.600000e+00	3.693913e-08	

Index   v-sweep         rds             
--------------------------------------------------------------------------------
113	5.650000e+00	3.676336e-08	
114	5.700000e+00	3.659476e-08	
115	5.750000e+00	3.643289e-08	
116	5.800000e+00	3.627738e-08	
117	5.850000e+00	3.612786e-08	
118	5.900000e+00	3.598400e-08	
119	5.950000e+00	3.584549e-08	
120	6.000000e+00	3.571205e-08	
121	6.050000e+00	3.558340e-08	
122	6.100000e+00	3.545931e-08	
123	6.150000e+00	3.533953e-08	
124	6.200000e+00	3.522385e-08	
125	6.250000e+00	3.511207e-08	
126	6.300000e+00	3.500400e-08	
127	6.350000e+00	3.489945e-08	
128	6.400000e+00	3.479827e-08	
129	6.450000e+00	3.470029e-08	
130	6.500000e+00	3.460537e-08	
131	6.550000e+00	3.451337e-08	
132	6.600000e+00	3.442415e-08	
Reset re-loads circuit ***************************

Circuit: ***************************

Doing analysis at TEMP = 125.000000 and TNOM = 125.000000


No. of Data Rows : 133
                          ***************************
                          DC transfer characteristic  Mon Jan  9 13:58:40  2023
--------------------------------------------------------------------------------
Index   v-sweep         rds             
--------------------------------------------------------------------------------
0	0.000000e+00	2.211300e-05	
1	5.000000e-02	2.179296e-05	
2	1.000000e-01	2.147367e-05	
3	1.500000e-01	2.115514e-05	
4	2.000000e-01	2.083736e-05	
5	2.500000e-01	2.052032e-05	
6	3.000000e-01	2.020403e-05	
7	3.500000e-01	1.988847e-05	
8	4.000000e-01	1.957366e-05	
9	4.500000e-01	1.925959e-05	
10	5.000000e-01	1.894625e-05	
11	5.500000e-01	1.863365e-05	
12	6.000000e-01	1.832177e-05	
13	6.500000e-01	1.801063e-05	
14	7.000000e-01	1.770021e-05	
15	7.500000e-01	1.739052e-05	
16	8.000000e-01	1.708154e-05	
17	8.500000e-01	1.677329e-05	
18	9.000000e-01	1.646575e-05	
19	9.500000e-01	1.615893e-05	
20	1.000000e+00	1.585283e-05	
21	1.050000e+00	1.554743e-05	
22	1.100000e+00	1.524274e-05	
23	1.150000e+00	1.493876e-05	
24	1.200000e+00	1.463548e-05	
25	1.250000e+00	1.433290e-05	
26	1.300000e+00	1.403102e-05	
27	1.350000e+00	1.372984e-05	
28	1.400000e+00	1.342935e-05	
29	1.450000e+00	1.312956e-05	
30	1.500000e+00	1.283045e-05	
31	1.550000e+00	1.253203e-05	
32	1.600000e+00	1.223430e-05	
33	1.650000e+00	1.193725e-05	
34	1.700000e+00	1.164088e-05	
35	1.750000e+00	1.134518e-05	
36	1.800000e+00	1.105017e-05	
37	1.850000e+00	1.075582e-05	
38	1.900000e+00	1.046214e-05	
39	1.950000e+00	1.016913e-05	
40	2.000000e+00	9.876775e-06	
41	2.050000e+00	9.585084e-06	
42	2.100000e+00	9.294049e-06	
43	2.150000e+00	9.003667e-06	
44	2.200000e+00	8.713933e-06	
45	2.250000e+00	8.424845e-06	
46	2.300000e+00	8.136396e-06	
47	2.350000e+00	7.848583e-06	
48	2.400000e+00	7.561401e-06	
49	2.450000e+00	7.274845e-06	
50	2.500000e+00	6.988908e-06	
51	2.550000e+00	6.703585e-06	
52	2.600000e+00	6.418869e-06	
53	2.650000e+00	6.134754e-06	
54	2.700000e+00	5.851233e-06	

Index   v-sweep         rds             
--------------------------------------------------------------------------------
55	2.750000e+00	5.568301e-06	
56	2.800000e+00	5.285953e-06	
57	2.850000e+00	5.004189e-06	
58	2.900000e+00	4.723011e-06	
59	2.950000e+00	4.442434e-06	
60	3.000000e+00	4.162485e-06	
61	3.050000e+00	3.883223e-06	
62	3.100000e+00	3.604746e-06	
63	3.150000e+00	3.327228e-06	
64	3.200000e+00	3.050964e-06	
65	3.250000e+00	2.776437e-06	
66	3.300000e+00	2.504433e-06	
67	3.350000e+00	2.236196e-06	
68	3.400000e+00	1.973618e-06	
69	3.450000e+00	1.719437e-06	
70	3.500000e+00	1.477325e-06	
71	3.550000e+00	1.251706e-06	
72	3.600000e+00	1.047144e-06	
73	3.650000e+00	8.673846e-07	
74	3.700000e+00	7.143917e-07	
75	3.750000e+00	5.879062e-07	
76	3.800000e+00	4.857228e-07	
77	3.850000e+00	4.044543e-07	
78	3.900000e+00	3.403510e-07	
79	3.950000e+00	2.898858e-07	
80	4.000000e+00	2.500440e-07	
81	4.050000e+00	2.183955e-07	
82	4.100000e+00	1.930483e-07	
83	4.150000e+00	1.725574e-07	
84	4.200000e+00	1.558294e-07	
85	4.250000e+00	1.420381e-07	
86	4.300000e+00	1.305582e-07	
87	4.350000e+00	1.209141e-07	
88	4.400000e+00	1.127411e-07	
89	4.450000e+00	1.057579e-07	
90	4.500000e+00	9.974534e-08	
91	4.550000e+00	9.453134e-08	
92	4.600000e+00	8.997964e-08	
93	4.650000e+00	8.598144e-08	
94	4.700000e+00	8.244913e-08	
95	4.750000e+00	7.931167e-08	
96	4.800000e+00	7.651097e-08	
97	4.850000e+00	7.399924e-08	
98	4.900000e+00	7.173686e-08	
99	4.950000e+00	6.969082e-08	
100	5.000000e+00	6.783338e-08	
101	5.050000e+00	6.614119e-08	
102	5.100000e+00	6.459439e-08	
103	5.150000e+00	6.317607e-08	
104	5.200000e+00	6.187173e-08	
105	5.250000e+00	6.066890e-08	
106	5.300000e+00	5.955677e-08	
107	5.350000e+00	5.852598e-08	
108	5.400000e+00	5.756835e-08	
109	5.450000e+00	5.667673e-08	
110	5.500000e+00	5.584484e-08	
111	5.550000e+00	5.506715e-08	
112	5.600000e+00	5.433875e-08	

Index   v-sweep         rds             
--------------------------------------------------------------------------------
113	5.650000e+00	5.365532e-08	
114	5.700000e+00	5.301298e-08	
115	5.750000e+00	5.240829e-08	
116	5.800000e+00	5.183817e-08	
117	5.850000e+00	5.129985e-08	
118	5.900000e+00	5.079084e-08	
119	5.950000e+00	5.030891e-08	
120	6.000000e+00	4.985203e-08	
121	6.050000e+00	4.941837e-08	
122	6.100000e+00	4.900625e-08	
123	6.150000e+00	4.861418e-08	
124	6.200000e+00	4.824077e-08	
125	6.250000e+00	4.788476e-08	
126	6.300000e+00	4.754501e-08	
127	6.350000e+00	4.722047e-08	
128	6.400000e+00	4.691016e-08	
129	6.450000e+00	4.661319e-08	
130	6.500000e+00	4.632876e-08	
131	6.550000e+00	4.605611e-08	
132	6.600000e+00	4.579453e-08	
Reset re-loads circuit ***************************

Circuit: ***************************

Doing analysis at TEMP = 125.000000 and TNOM = 125.000000


No. of Data Rows : 133
                          ***************************
                          DC transfer characteristic  Mon Jan  9 13:58:40  2023
--------------------------------------------------------------------------------
Index   v-sweep         rds             
--------------------------------------------------------------------------------
0	0.000000e+00	2.447629e-05	
1	5.000000e-02	2.419225e-05	
2	1.000000e-01	2.390883e-05	
3	1.500000e-01	2.362602e-05	
4	2.000000e-01	2.334381e-05	
5	2.500000e-01	2.306221e-05	
6	3.000000e-01	2.278122e-05	
7	3.500000e-01	2.250083e-05	
8	4.000000e-01	2.222104e-05	
9	4.500000e-01	2.194185e-05	
10	5.000000e-01	2.166325e-05	
11	5.500000e-01	2.138526e-05	
12	6.000000e-01	2.110786e-05	
13	6.500000e-01	2.083105e-05	
14	7.000000e-01	2.055483e-05	
15	7.500000e-01	2.027920e-05	
16	8.000000e-01	2.000416e-05	
17	8.500000e-01	1.972970e-05	
18	9.000000e-01	1.945583e-05	
19	9.500000e-01	1.918255e-05	
20	1.000000e+00	1.890984e-05	
21	1.050000e+00	1.863772e-05	
22	1.100000e+00	1.836617e-05	
23	1.150000e+00	1.809520e-05	
24	1.200000e+00	1.782480e-05	
25	1.250000e+00	1.755498e-05	
26	1.300000e+00	1.728572e-05	
27	1.350000e+00	1.701704e-05	
28	1.400000e+00	1.674893e-05	
29	1.450000e+00	1.648138e-05	
30	1.500000e+00	1.621440e-05	
31	1.550000e+00	1.594798e-05	
32	1.600000e+00	1.568212e-05	
33	1.650000e+00	1.541682e-05	
34	1.700000e+00	1.515209e-05	
35	1.750000e+00	1.488790e-05	
36	1.800000e+00	1.462427e-05	
37	1.850000e+00	1.436120e-05	
38	1.900000e+00	1.409868e-05	
39	1.950000e+00	1.383670e-05	
40	2.000000e+00	1.357528e-05	
41	2.050000e+00	1.331440e-05	
42	2.100000e+00	1.305406e-05	
43	2.150000e+00	1.279427e-05	
44	2.200000e+00	1.253502e-05	
45	2.250000e+00	1.227630e-05	
46	2.300000e+00	1.201813e-05	
47	2.350000e+00	1.176049e-05	
48	2.400000e+00	1.150338e-05	
49	2.450000e+00	1.124680e-05	
50	2.500000e+00	1.099075e-05	
51	2.550000e+00	1.073522e-05	
52	2.600000e+00	1.048022e-05	
53	2.650000e+00	1.022574e-05	
54	2.700000e+00	9.971779e-06	

Index   v-sweep         rds             
--------------------------------------------------------------------------------
55	2.750000e+00	9.718333e-06	
56	2.800000e+00	9.465398e-06	
57	2.850000e+00	9.212973e-06	
58	2.900000e+00	8.961053e-06	
59	2.950000e+00	8.709634e-06	
60	3.000000e+00	8.458714e-06	
61	3.050000e+00	8.208286e-06	
62	3.100000e+00	7.958347e-06	
63	3.150000e+00	7.708890e-06	
64	3.200000e+00	7.459910e-06	
65	3.250000e+00	7.211400e-06	
66	3.300000e+00	6.963352e-06	
67	3.350000e+00	6.715758e-06	
68	3.400000e+00	6.468609e-06	
69	3.450000e+00	6.221894e-06	
70	3.500000e+00	5.975601e-06	
71	3.550000e+00	5.729717e-06	
72	3.600000e+00	5.484228e-06	
73	3.650000e+00	5.239119e-06	
74	3.700000e+00	4.994372e-06	
75	3.750000e+00	4.749973e-06	
76	3.800000e+00	4.505905e-06	
77	3.850000e+00	4.262157e-06	
78	3.900000e+00	4.018729e-06	
79	3.950000e+00	3.775632e-06	
80	4.000000e+00	3.532909e-06	
81	4.050000e+00	3.290648e-06	
82	4.100000e+00	3.049017e-06	
83	4.150000e+00	2.808312e-06	
84	4.200000e+00	2.569024e-06	
85	4.250000e+00	2.331941e-06	
86	4.300000e+00	2.098270e-06	
87	4.350000e+00	1.869771e-06	
88	4.400000e+00	1.648845e-06	
89	4.450000e+00	1.438504e-06	
90	4.500000e+00	1.242133e-06	
91	4.550000e+00	1.063007e-06	
92	4.600000e+00	9.036744e-07	
93	4.650000e+00	7.654379e-07	
94	4.700000e+00	6.481569e-07	
95	4.750000e+00	5.504320e-07	
96	4.800000e+00	4.700387e-07	
97	4.850000e+00	4.044036e-07	
98	4.900000e+00	3.509782e-07	
99	4.950000e+00	3.074622e-07	
100	5.000000e+00	2.718972e-07	
101	5.050000e+00	2.426772e-07	
102	5.100000e+00	2.185150e-07	
103	5.150000e+00	1.983925e-07	
104	5.200000e+00	1.815097e-07	
105	5.250000e+00	1.672393e-07	
106	5.300000e+00	1.550884e-07	
107	5.350000e+00	1.446688e-07	
108	5.400000e+00	1.356732e-07	
109	5.450000e+00	1.278569e-07	
110	5.500000e+00	1.210239e-07	
111	5.550000e+00	1.150162e-07	
112	5.600000e+00	1.097056e-07	

Index   v-sweep         rds             
--------------------------------------------------------------------------------
113	5.650000e+00	1.049875e-07	
114	5.700000e+00	1.007758e-07	
115	5.750000e+00	9.699937e-08	
116	5.800000e+00	9.359907e-08	
117	5.850000e+00	9.052541e-08	
118	5.900000e+00	8.773675e-08	
119	5.950000e+00	8.519788e-08	
120	6.000000e+00	8.287888e-08	
121	6.050000e+00	8.075418e-08	
122	6.100000e+00	7.880187e-08	
123	6.150000e+00	7.700305e-08	
124	6.200000e+00	7.534136e-08	
125	6.250000e+00	7.380260e-08	
126	6.300000e+00	7.237436e-08	
127	6.350000e+00	7.104581e-08	
128	6.400000e+00	6.980741e-08	
129	6.450000e+00	6.865076e-08	
130	6.500000e+00	6.756844e-08	
131	6.550000e+00	6.655386e-08	
132	6.600000e+00	6.560116e-08	
Reset re-loads circuit ***************************

Circuit: ***************************

Note: No ".plot", ".print", or ".fourier" lines; no simulations run
