
Note: Compatibility modes selected: hs

Warning: m=xx on .subckt line will override multiplier m hierarchy!


Circuit: ***************************

Doing analysis at TEMP = -40.000000 and TNOM = -40.000000


No. of Data Rows : 133
                          ***************************
                          DC transfer characteristic  Mon Jan  9 13:58:38  2023
--------------------------------------------------------------------------------
Index   v-sweep         rds             
--------------------------------------------------------------------------------
0	0.000000e+00	3.392504e-04	
1	5.000000e-02	2.242469e-04	
2	1.000000e-01	1.200133e-04	
3	1.500000e-01	4.796771e-05	
4	2.000000e-01	2.043641e-05	
5	2.500000e-01	1.218115e-05	
6	3.000000e-01	8.892648e-06	
7	3.500000e-01	7.157558e-06	
8	4.000000e-01	6.074026e-06	
9	4.500000e-01	5.326160e-06	
10	5.000000e-01	4.775807e-06	
11	5.500000e-01	4.352475e-06	
12	6.000000e-01	4.016108e-06	
13	6.500000e-01	3.742104e-06	
14	7.000000e-01	3.514446e-06	
15	7.500000e-01	3.322222e-06	
16	8.000000e-01	3.157723e-06	
17	8.500000e-01	3.015342e-06	
18	9.000000e-01	2.890896e-06	
19	9.500000e-01	2.781199e-06	
20	1.000000e+00	2.683780e-06	
21	1.050000e+00	2.596694e-06	
22	1.100000e+00	2.518386e-06	
23	1.150000e+00	2.447598e-06	
24	1.200000e+00	2.383303e-06	
25	1.250000e+00	2.324653e-06	
26	1.300000e+00	2.270941e-06	
27	1.350000e+00	2.221573e-06	
28	1.400000e+00	2.176048e-06	
29	1.450000e+00	2.133938e-06	
30	1.500000e+00	2.094875e-06	
31	1.550000e+00	2.058546e-06	
32	1.600000e+00	2.024674e-06	
33	1.650000e+00	1.993023e-06	
34	1.700000e+00	1.963384e-06	
35	1.750000e+00	1.935573e-06	
36	1.800000e+00	1.909428e-06	
37	1.850000e+00	1.884806e-06	
38	1.900000e+00	1.861580e-06	
39	1.950000e+00	1.839636e-06	
40	2.000000e+00	1.818873e-06	
41	2.050000e+00	1.799199e-06	
42	2.100000e+00	1.780532e-06	
43	2.150000e+00	1.762799e-06	
44	2.200000e+00	1.745932e-06	
45	2.250000e+00	1.729870e-06	
46	2.300000e+00	1.714558e-06	
47	2.350000e+00	1.699947e-06	
48	2.400000e+00	1.685989e-06	
49	2.450000e+00	1.672644e-06	
50	2.500000e+00	1.659871e-06	
51	2.550000e+00	1.647637e-06	
52	2.600000e+00	1.635909e-06	
53	2.650000e+00	1.624656e-06	
54	2.700000e+00	1.613851e-06	

Index   v-sweep         rds             
--------------------------------------------------------------------------------
55	2.750000e+00	1.603468e-06	
56	2.800000e+00	1.593484e-06	
57	2.850000e+00	1.583876e-06	
58	2.900000e+00	1.574625e-06	
59	2.950000e+00	1.565712e-06	
60	3.000000e+00	1.557118e-06	
61	3.050000e+00	1.548828e-06	
62	3.100000e+00	1.540825e-06	
63	3.150000e+00	1.533097e-06	
64	3.200000e+00	1.525628e-06	
65	3.250000e+00	1.518408e-06	
66	3.300000e+00	1.511423e-06	
67	3.350000e+00	1.504664e-06	
68	3.400000e+00	1.498119e-06	
69	3.450000e+00	1.491779e-06	
70	3.500000e+00	1.485635e-06	
71	3.550000e+00	1.479677e-06	
72	3.600000e+00	1.473899e-06	
73	3.650000e+00	1.468293e-06	
74	3.700000e+00	1.462850e-06	
75	3.750000e+00	1.457564e-06	
76	3.800000e+00	1.452430e-06	
77	3.850000e+00	1.447440e-06	
78	3.900000e+00	1.442588e-06	
79	3.950000e+00	1.437871e-06	
80	4.000000e+00	1.433281e-06	
81	4.050000e+00	1.428814e-06	
82	4.100000e+00	1.424466e-06	
83	4.150000e+00	1.420232e-06	
84	4.200000e+00	1.416108e-06	
85	4.250000e+00	1.412090e-06	
86	4.300000e+00	1.408173e-06	
87	4.350000e+00	1.404355e-06	
88	4.400000e+00	1.400631e-06	
89	4.450000e+00	1.396999e-06	
90	4.500000e+00	1.393455e-06	
91	4.550000e+00	1.389997e-06	
92	4.600000e+00	1.386621e-06	
93	4.650000e+00	1.383324e-06	
94	4.700000e+00	1.380104e-06	
95	4.750000e+00	1.376958e-06	
96	4.800000e+00	1.373885e-06	
97	4.850000e+00	1.370881e-06	
98	4.900000e+00	1.367945e-06	
99	4.950000e+00	1.365073e-06	
100	5.000000e+00	1.362265e-06	
101	5.050000e+00	1.359519e-06	
102	5.100000e+00	1.356831e-06	
103	5.150000e+00	1.354202e-06	
104	5.200000e+00	1.351628e-06	
105	5.250000e+00	1.349108e-06	
106	5.300000e+00	1.346641e-06	
107	5.350000e+00	1.344225e-06	
108	5.400000e+00	1.341858e-06	
109	5.450000e+00	1.339540e-06	
110	5.500000e+00	1.337268e-06	
111	5.550000e+00	1.335042e-06	
112	5.600000e+00	1.332860e-06	

Index   v-sweep         rds             
--------------------------------------------------------------------------------
113	5.650000e+00	1.330721e-06	
114	5.700000e+00	1.328624e-06	
115	5.750000e+00	1.326568e-06	
116	5.800000e+00	1.324551e-06	
117	5.850000e+00	1.322572e-06	
118	5.900000e+00	1.320631e-06	
119	5.950000e+00	1.318726e-06	
120	6.000000e+00	1.316857e-06	
121	6.050000e+00	1.315023e-06	
122	6.100000e+00	1.313222e-06	
123	6.150000e+00	1.311454e-06	
124	6.200000e+00	1.309718e-06	
125	6.250000e+00	1.308013e-06	
126	6.300000e+00	1.306339e-06	
127	6.350000e+00	1.304695e-06	
128	6.400000e+00	1.303079e-06	
129	6.450000e+00	1.301491e-06	
130	6.500000e+00	1.299932e-06	
131	6.550000e+00	1.298399e-06	
132	6.600000e+00	1.296892e-06	
Reset re-loads circuit ***************************

Circuit: ***************************

Doing analysis at TEMP = -40.000000 and TNOM = -40.000000


No. of Data Rows : 133
                          ***************************
                          DC transfer characteristic  Mon Jan  9 13:58:39  2023
--------------------------------------------------------------------------------
Index   v-sweep         rds             
--------------------------------------------------------------------------------
0	0.000000e+00	1.808165e-03	
1	5.000000e-02	1.668372e-03	
2	1.000000e-01	1.532657e-03	
3	1.500000e-01	1.400876e-03	
4	2.000000e-01	1.272892e-03	
5	2.500000e-01	1.148569e-03	
6	3.000000e-01	1.027775e-03	
7	3.500000e-01	9.103793e-04	
8	4.000000e-01	7.962504e-04	
9	4.500000e-01	6.852628e-04	
10	5.000000e-01	5.773511e-04	
11	5.500000e-01	4.727774e-04	
12	6.000000e-01	3.730712e-04	
13	6.500000e-01	2.828063e-04	
14	7.000000e-01	2.090742e-04	
15	7.500000e-01	1.554599e-04	
16	8.000000e-01	1.190561e-04	
17	8.500000e-01	9.455940e-05	
18	9.000000e-01	7.766157e-05	
19	9.500000e-01	6.558353e-05	
20	1.000000e+00	5.663932e-05	
21	1.050000e+00	4.980324e-05	
22	1.100000e+00	4.443483e-05	
23	1.150000e+00	4.012094e-05	
24	1.200000e+00	3.658617e-05	
25	1.250000e+00	3.364130e-05	
26	1.300000e+00	3.115266e-05	
27	1.350000e+00	2.902351e-05	
28	1.400000e+00	2.718229e-05	
29	1.450000e+00	2.557500e-05	
30	1.500000e+00	2.416022e-05	
31	1.550000e+00	2.290567e-05	
32	1.600000e+00	2.178584e-05	
33	1.650000e+00	2.078032e-05	
34	1.700000e+00	1.987260e-05	
35	1.750000e+00	1.904916e-05	
36	1.800000e+00	1.829888e-05	
37	1.850000e+00	1.761248e-05	
38	1.900000e+00	1.698219e-05	
39	1.950000e+00	1.640144e-05	
40	2.000000e+00	1.586464e-05	
41	2.050000e+00	1.536701e-05	
42	2.100000e+00	1.490443e-05	
43	2.150000e+00	1.447335e-05	
44	2.200000e+00	1.407066e-05	
45	2.250000e+00	1.369368e-05	
46	2.300000e+00	1.334002e-05	
47	2.350000e+00	1.300759e-05	
48	2.400000e+00	1.269454e-05	
49	2.450000e+00	1.239924e-05	
50	2.500000e+00	1.212023e-05	
51	2.550000e+00	1.185619e-05	
52	2.600000e+00	1.160596e-05	
53	2.650000e+00	1.136849e-05	
54	2.700000e+00	1.114282e-05	

Index   v-sweep         rds             
--------------------------------------------------------------------------------
55	2.750000e+00	1.092811e-05	
56	2.800000e+00	1.072358e-05	
57	2.850000e+00	1.052853e-05	
58	2.900000e+00	1.034230e-05	
59	2.950000e+00	1.016433e-05	
60	3.000000e+00	9.994064e-06	
61	3.050000e+00	9.831028e-06	
62	3.100000e+00	9.674769e-06	
63	3.150000e+00	9.524874e-06	
64	3.200000e+00	9.380964e-06	
65	3.250000e+00	9.242689e-06	
66	3.300000e+00	9.109725e-06	
67	3.350000e+00	8.981773e-06	
68	3.400000e+00	8.858557e-06	
69	3.450000e+00	8.739819e-06	
70	3.500000e+00	8.625320e-06	
71	3.550000e+00	8.514839e-06	
72	3.600000e+00	8.408168e-06	
73	3.650000e+00	8.305114e-06	
74	3.700000e+00	8.205498e-06	
75	3.750000e+00	8.109150e-06	
76	3.800000e+00	8.015914e-06	
77	3.850000e+00	7.925641e-06	
78	3.900000e+00	7.838193e-06	
79	3.950000e+00	7.753440e-06	
80	4.000000e+00	7.671260e-06	
81	4.050000e+00	7.591538e-06	
82	4.100000e+00	7.514166e-06	
83	4.150000e+00	7.439042e-06	
84	4.200000e+00	7.366071e-06	
85	4.250000e+00	7.295160e-06	
86	4.300000e+00	7.226226e-06	
87	4.350000e+00	7.159186e-06	
88	4.400000e+00	7.093964e-06	
89	4.450000e+00	7.030488e-06	
90	4.500000e+00	6.968688e-06	
91	4.550000e+00	6.908501e-06	
92	4.600000e+00	6.849863e-06	
93	4.650000e+00	6.792716e-06	
94	4.700000e+00	6.737005e-06	
95	4.750000e+00	6.682676e-06	
96	4.800000e+00	6.629678e-06	
97	4.850000e+00	6.577965e-06	
98	4.900000e+00	6.527490e-06	
99	4.950000e+00	6.478209e-06	
100	5.000000e+00	6.430081e-06	
101	5.050000e+00	6.383067e-06	
102	5.100000e+00	6.337128e-06	
103	5.150000e+00	6.292228e-06	
104	5.200000e+00	6.248333e-06	
105	5.250000e+00	6.205410e-06	
106	5.300000e+00	6.163427e-06	
107	5.350000e+00	6.122353e-06	
108	5.400000e+00	6.082161e-06	
109	5.450000e+00	6.042822e-06	
110	5.500000e+00	6.004309e-06	
111	5.550000e+00	5.966598e-06	
112	5.600000e+00	5.929663e-06	

Index   v-sweep         rds             
--------------------------------------------------------------------------------
113	5.650000e+00	5.893481e-06	
114	5.700000e+00	5.858030e-06	
115	5.750000e+00	5.823288e-06	
116	5.800000e+00	5.789234e-06	
117	5.850000e+00	5.755848e-06	
118	5.900000e+00	5.723111e-06	
119	5.950000e+00	5.691005e-06	
120	6.000000e+00	5.659512e-06	
121	6.050000e+00	5.628614e-06	
122	6.100000e+00	5.598295e-06	
123	6.150000e+00	5.568539e-06	
124	6.200000e+00	5.539332e-06	
125	6.250000e+00	5.510657e-06	
126	6.300000e+00	5.482501e-06	
127	6.350000e+00	5.454851e-06	
128	6.400000e+00	5.427692e-06	
129	6.450000e+00	5.401012e-06	
130	6.500000e+00	5.374800e-06	
131	6.550000e+00	5.349041e-06	
132	6.600000e+00	5.323727e-06	
Reset re-loads circuit ***************************

Circuit: ***************************

Doing analysis at TEMP = -40.000000 and TNOM = -40.000000


No. of Data Rows : 133
                          ***************************
                          DC transfer characteristic  Mon Jan  9 13:58:39  2023
--------------------------------------------------------------------------------
Index   v-sweep         rds             
--------------------------------------------------------------------------------
0	0.000000e+00	2.937892e-03	
1	5.000000e-02	2.789178e-03	
2	1.000000e-01	2.644681e-03	
3	1.500000e-01	2.504255e-03	
4	2.000000e-01	2.367760e-03	
5	2.500000e-01	2.235055e-03	
6	3.000000e-01	2.106005e-03	
7	3.500000e-01	1.980474e-03	
8	4.000000e-01	1.858329e-03	
9	4.500000e-01	1.739438e-03	
10	5.000000e-01	1.623666e-03	
11	5.500000e-01	1.510873e-03	
12	6.000000e-01	1.400903e-03	
13	6.500000e-01	1.293576e-03	
14	7.000000e-01	1.188656e-03	
15	7.500000e-01	1.085825e-03	
16	8.000000e-01	9.846135e-04	
17	8.500000e-01	8.843266e-04	
18	9.000000e-01	7.839896e-04	
19	9.500000e-01	6.825252e-04	
20	1.000000e+00	5.796518e-04	
21	1.050000e+00	4.778134e-04	
22	1.100000e+00	3.833110e-04	
23	1.150000e+00	3.032515e-04	
24	1.200000e+00	2.406932e-04	
25	1.250000e+00	1.940284e-04	
26	1.300000e+00	1.596766e-04	
27	1.350000e+00	1.341952e-04	
28	1.400000e+00	1.149604e-04	
29	1.450000e+00	1.001372e-04	
30	1.500000e+00	8.847485e-05	
31	1.550000e+00	7.912091e-05	
32	1.600000e+00	7.148680e-05	
33	1.650000e+00	6.515912e-05	
34	1.700000e+00	5.984192e-05	
35	1.750000e+00	5.531937e-05	
36	1.800000e+00	5.143117e-05	
37	1.850000e+00	4.805628e-05	
38	1.900000e+00	4.510191e-05	
39	1.950000e+00	4.249586e-05	
40	2.000000e+00	4.018124e-05	
41	2.050000e+00	3.811271e-05	
42	2.100000e+00	3.625370e-05	
43	2.150000e+00	3.457444e-05	
44	2.200000e+00	3.305045e-05	
45	2.250000e+00	3.166148e-05	
46	2.300000e+00	3.039057e-05	
47	2.350000e+00	2.922348e-05	
48	2.400000e+00	2.814814e-05	
49	2.450000e+00	2.715427e-05	
50	2.500000e+00	2.623303e-05	
51	2.550000e+00	2.537684e-05	
52	2.600000e+00	2.457909e-05	
53	2.650000e+00	2.383407e-05	
54	2.700000e+00	2.313675e-05	

Index   v-sweep         rds             
--------------------------------------------------------------------------------
55	2.750000e+00	2.248274e-05	
56	2.800000e+00	2.186815e-05	
57	2.850000e+00	2.128955e-05	
58	2.900000e+00	2.074390e-05	
59	2.950000e+00	2.022847e-05	
60	3.000000e+00	1.974085e-05	
61	3.050000e+00	1.927885e-05	
62	3.100000e+00	1.884052e-05	
63	3.150000e+00	1.842410e-05	
64	3.200000e+00	1.802799e-05	
65	3.250000e+00	1.765076e-05	
66	3.300000e+00	1.729109e-05	
67	3.350000e+00	1.694779e-05	
68	3.400000e+00	1.661977e-05	
69	3.450000e+00	1.630604e-05	
70	3.500000e+00	1.600570e-05	
71	3.550000e+00	1.571790e-05	
72	3.600000e+00	1.544189e-05	
73	3.650000e+00	1.517695e-05	
74	3.700000e+00	1.492244e-05	
75	3.750000e+00	1.467775e-05	
76	3.800000e+00	1.444233e-05	
77	3.850000e+00	1.421566e-05	
78	3.900000e+00	1.399728e-05	
79	3.950000e+00	1.378672e-05	
80	4.000000e+00	1.358359e-05	
81	4.050000e+00	1.338750e-05	
82	4.100000e+00	1.319809e-05	
83	4.150000e+00	1.301502e-05	
84	4.200000e+00	1.283799e-05	
85	4.250000e+00	1.266670e-05	
86	4.300000e+00	1.250088e-05	
87	4.350000e+00	1.234027e-05	
88	4.400000e+00	1.218463e-05	
89	4.450000e+00	1.203374e-05	
90	4.500000e+00	1.188738e-05	
91	4.550000e+00	1.174536e-05	
92	4.600000e+00	1.160747e-05	
93	4.650000e+00	1.147355e-05	
94	4.700000e+00	1.134344e-05	
95	4.750000e+00	1.121696e-05	
96	4.800000e+00	1.109397e-05	
97	4.850000e+00	1.097433e-05	
98	4.900000e+00	1.085791e-05	
99	4.950000e+00	1.074458e-05	
100	5.000000e+00	1.063421e-05	
101	5.050000e+00	1.052670e-05	
102	5.100000e+00	1.042193e-05	
103	5.150000e+00	1.031980e-05	
104	5.200000e+00	1.022022e-05	
105	5.250000e+00	1.012310e-05	
106	5.300000e+00	1.002833e-05	
107	5.350000e+00	9.935845e-06	
108	5.400000e+00	9.845558e-06	
109	5.450000e+00	9.757393e-06	
110	5.500000e+00	9.671277e-06	
111	5.550000e+00	9.587140e-06	
112	5.600000e+00	9.504916e-06	

Index   v-sweep         rds             
--------------------------------------------------------------------------------
113	5.650000e+00	9.424542e-06	
114	5.700000e+00	9.345955e-06	
115	5.750000e+00	9.269099e-06	
116	5.800000e+00	9.193917e-06	
117	5.850000e+00	9.120357e-06	
118	5.900000e+00	9.048366e-06	
119	5.950000e+00	8.977897e-06	
120	6.000000e+00	8.908903e-06	
121	6.050000e+00	8.841338e-06	
122	6.100000e+00	8.775159e-06	
123	6.150000e+00	8.710326e-06	
124	6.200000e+00	8.646797e-06	
125	6.250000e+00	8.584535e-06	
126	6.300000e+00	8.523504e-06	
127	6.350000e+00	8.463667e-06	
128	6.400000e+00	8.404992e-06	
129	6.450000e+00	8.347444e-06	
130	6.500000e+00	8.290993e-06	
131	6.550000e+00	8.235609e-06	
132	6.600000e+00	8.181261e-06	
Reset re-loads circuit ***************************

Circuit: ***************************

Doing analysis at TEMP = -40.000000 and TNOM = -40.000000


No. of Data Rows : 133
                          ***************************
                          DC transfer characteristic  Mon Jan  9 13:58:39  2023
--------------------------------------------------------------------------------
Index   v-sweep         rds             
--------------------------------------------------------------------------------
0	0.000000e+00	3.788919e-03	
1	5.000000e-02	3.639758e-03	
2	1.000000e-01	3.494500e-03	
3	1.500000e-01	3.353023e-03	
4	2.000000e-01	3.215208e-03	
5	2.500000e-01	3.080939e-03	
6	3.000000e-01	2.950100e-03	
7	3.500000e-01	2.822578e-03	
8	4.000000e-01	2.698262e-03	
9	4.500000e-01	2.577044e-03	
10	5.000000e-01	2.458817e-03	
11	5.500000e-01	2.343478e-03	
12	6.000000e-01	2.230924e-03	
13	6.500000e-01	2.121055e-03	
14	7.000000e-01	2.013771e-03	
15	7.500000e-01	1.908970e-03	
16	8.000000e-01	1.806544e-03	
17	8.500000e-01	1.706373e-03	
18	9.000000e-01	1.608319e-03	
19	9.500000e-01	1.512209e-03	
20	1.000000e+00	1.417816e-03	
21	1.050000e+00	1.324830e-03	
22	1.100000e+00	1.232803e-03	
23	1.150000e+00	1.141082e-03	
24	1.200000e+00	1.048719e-03	
25	1.250000e+00	9.544266e-04	
26	1.300000e+00	8.567161e-04	
27	1.350000e+00	7.545943e-04	
28	1.400000e+00	6.490618e-04	
29	1.450000e+00	5.445846e-04	
30	1.500000e+00	4.482095e-04	
31	1.550000e+00	3.658831e-04	
32	1.600000e+00	2.996617e-04	
33	1.650000e+00	2.481838e-04	
34	1.700000e+00	2.086292e-04	
35	1.750000e+00	1.781417e-04	
36	1.800000e+00	1.543828e-04	
37	1.850000e+00	1.355979e-04	
38	1.900000e+00	1.205155e-04	
39	1.950000e+00	1.082229e-04	
40	2.000000e+00	9.806203e-05	
41	2.050000e+00	8.955436e-05	
42	2.100000e+00	8.234713e-05	
43	2.150000e+00	7.617682e-05	
44	2.200000e+00	7.084377e-05	
45	2.250000e+00	6.619471e-05	
46	2.300000e+00	6.211044e-05	
47	2.350000e+00	5.849712e-05	
48	2.400000e+00	5.528007e-05	
49	2.450000e+00	5.239924e-05	
50	2.500000e+00	4.980582e-05	
51	2.550000e+00	4.745985e-05	
52	2.600000e+00	4.532828e-05	
53	2.650000e+00	4.338361e-05	
54	2.700000e+00	4.160275e-05	

Index   v-sweep         rds             
--------------------------------------------------------------------------------
55	2.750000e+00	3.996621e-05	
56	2.800000e+00	3.845744e-05	
57	2.850000e+00	3.706226e-05	
58	2.900000e+00	3.576852e-05	
59	2.950000e+00	3.456570e-05	
60	3.000000e+00	3.344467e-05	
61	3.050000e+00	3.239747e-05	
62	3.100000e+00	3.141713e-05	
63	3.150000e+00	3.049753e-05	
64	3.200000e+00	2.963325e-05	
65	3.250000e+00	2.881950e-05	
66	3.300000e+00	2.805203e-05	
67	3.350000e+00	2.732703e-05	
68	3.400000e+00	2.664111e-05	
69	3.450000e+00	2.599123e-05	
70	3.500000e+00	2.537463e-05	
71	3.550000e+00	2.478885e-05	
72	3.600000e+00	2.423166e-05	
73	3.650000e+00	2.370102e-05	
74	3.700000e+00	2.319511e-05	
75	3.750000e+00	2.271224e-05	
76	3.800000e+00	2.225088e-05	
77	3.850000e+00	2.180965e-05	
78	3.900000e+00	2.138726e-05	
79	3.950000e+00	2.098254e-05	
80	4.000000e+00	2.059440e-05	
81	4.050000e+00	2.022186e-05	
82	4.100000e+00	1.986401e-05	
83	4.150000e+00	1.951999e-05	
84	4.200000e+00	1.918902e-05	
85	4.250000e+00	1.887039e-05	
86	4.300000e+00	1.856341e-05	
87	4.350000e+00	1.826746e-05	
88	4.400000e+00	1.798197e-05	
89	4.450000e+00	1.770639e-05	
90	4.500000e+00	1.744021e-05	
91	4.550000e+00	1.718297e-05	
92	4.600000e+00	1.693423e-05	
93	4.650000e+00	1.669358e-05	
94	4.700000e+00	1.646062e-05	
95	4.750000e+00	1.623501e-05	
96	4.800000e+00	1.601639e-05	
97	4.850000e+00	1.580445e-05	
98	4.900000e+00	1.559890e-05	
99	4.950000e+00	1.539945e-05	
100	5.000000e+00	1.520583e-05	
101	5.050000e+00	1.501780e-05	
102	5.100000e+00	1.483512e-05	
103	5.150000e+00	1.465756e-05	
104	5.200000e+00	1.448492e-05	
105	5.250000e+00	1.431699e-05	
106	5.300000e+00	1.415359e-05	
107	5.350000e+00	1.399454e-05	
108	5.400000e+00	1.383967e-05	
109	5.450000e+00	1.368881e-05	
110	5.500000e+00	1.354183e-05	
111	5.550000e+00	1.339856e-05	
112	5.600000e+00	1.325888e-05	

Index   v-sweep         rds             
--------------------------------------------------------------------------------
113	5.650000e+00	1.312265e-05	
114	5.700000e+00	1.298975e-05	
115	5.750000e+00	1.286006e-05	
116	5.800000e+00	1.273347e-05	
117	5.850000e+00	1.260987e-05	
118	5.900000e+00	1.248915e-05	
119	5.950000e+00	1.237122e-05	
120	6.000000e+00	1.225599e-05	
121	6.050000e+00	1.214336e-05	
122	6.100000e+00	1.203325e-05	
123	6.150000e+00	1.192559e-05	
124	6.200000e+00	1.182028e-05	
125	6.250000e+00	1.171725e-05	
126	6.300000e+00	1.161644e-05	
127	6.350000e+00	1.151778e-05	
128	6.400000e+00	1.142119e-05	
129	6.450000e+00	1.132662e-05	
130	6.500000e+00	1.123400e-05	
131	6.550000e+00	1.114328e-05	
132	6.600000e+00	1.105441e-05	
Reset re-loads circuit ***************************

Circuit: ***************************

Doing analysis at TEMP = -40.000000 and TNOM = -40.000000


No. of Data Rows : 133
                          ***************************
                          DC transfer characteristic  Mon Jan  9 13:58:39  2023
--------------------------------------------------------------------------------
Index   v-sweep         rds             
--------------------------------------------------------------------------------
0	0.000000e+00	4.409060e-03	
1	5.000000e-02	4.265785e-03	
2	1.000000e-01	4.125898e-03	
3	1.500000e-01	3.989307e-03	
4	2.000000e-01	3.855917e-03	
5	2.500000e-01	3.725638e-03	
6	3.000000e-01	3.598382e-03	
7	3.500000e-01	3.474058e-03	
8	4.000000e-01	3.352582e-03	
9	4.500000e-01	3.233867e-03	
10	5.000000e-01	3.117828e-03	
11	5.500000e-01	3.004385e-03	
12	6.000000e-01	2.893456e-03	
13	6.500000e-01	2.784964e-03	
14	7.000000e-01	2.678832e-03	
15	7.500000e-01	2.574987e-03	
16	8.000000e-01	2.473359e-03	
17	8.500000e-01	2.373875e-03	
18	9.000000e-01	2.276469e-03	
19	9.500000e-01	2.181069e-03	
20	1.000000e+00	2.087606e-03	
21	1.050000e+00	1.996002e-03	
22	1.100000e+00	1.906175e-03	
23	1.150000e+00	1.818029e-03	
24	1.200000e+00	1.731450e-03	
25	1.250000e+00	1.646291e-03	
26	1.300000e+00	1.562363e-03	
27	1.350000e+00	1.479406e-03	
28	1.400000e+00	1.397057e-03	
29	1.450000e+00	1.314800e-03	
30	1.500000e+00	1.231901e-03	
31	1.550000e+00	1.147336e-03	
32	1.600000e+00	1.059769e-03	
33	1.650000e+00	9.676975e-04	
34	1.700000e+00	8.700114e-04	
35	1.750000e+00	7.671246e-04	
36	1.800000e+00	6.622005e-04	
37	1.850000e+00	5.610360e-04	
38	1.900000e+00	4.697849e-04	
39	1.950000e+00	3.922499e-04	
40	2.000000e+00	3.290708e-04	
41	2.050000e+00	2.787314e-04	
42	2.100000e+00	2.389071e-04	
43	2.150000e+00	2.073124e-04	
44	2.200000e+00	1.820344e-04	
45	2.250000e+00	1.615841e-04	
46	2.300000e+00	1.448387e-04	
47	2.350000e+00	1.309611e-04	
48	2.400000e+00	1.193270e-04	
49	2.450000e+00	1.094684e-04	
50	2.500000e+00	1.010312e-04	
51	2.550000e+00	9.374449e-05	
52	2.600000e+00	8.739913e-05	
53	2.650000e+00	8.183159e-05	
54	2.700000e+00	7.691276e-05	

Index   v-sweep         rds             
--------------------------------------------------------------------------------
55	2.750000e+00	7.253961e-05	
56	2.800000e+00	6.862917e-05	
57	2.850000e+00	6.511400e-05	
58	2.900000e+00	6.193880e-05	
59	2.950000e+00	5.905787e-05	
60	3.000000e+00	5.643317e-05	
61	3.050000e+00	5.403279e-05	
62	3.100000e+00	5.182981e-05	
63	3.150000e+00	4.980137e-05	
64	3.200000e+00	4.792793e-05	
65	3.250000e+00	4.619272e-05	
66	3.300000e+00	4.458128e-05	
67	3.350000e+00	4.308104e-05	
68	3.400000e+00	4.168108e-05	
69	3.450000e+00	4.037181e-05	
70	3.500000e+00	3.914485e-05	
71	3.550000e+00	3.799277e-05	
72	3.600000e+00	3.690903e-05	
73	3.650000e+00	3.588779e-05	
74	3.700000e+00	3.492387e-05	
75	3.750000e+00	3.401264e-05	
76	3.800000e+00	3.314994e-05	
77	3.850000e+00	3.233204e-05	
78	3.900000e+00	3.155558e-05	
79	3.950000e+00	3.081751e-05	
80	4.000000e+00	3.011510e-05	
81	4.050000e+00	2.944584e-05	
82	4.100000e+00	2.880746e-05	
83	4.150000e+00	2.819789e-05	
84	4.200000e+00	2.761525e-05	
85	4.250000e+00	2.705780e-05	
86	4.300000e+00	2.652396e-05	
87	4.350000e+00	2.601227e-05	
88	4.400000e+00	2.552139e-05	
89	4.450000e+00	2.505010e-05	
90	4.500000e+00	2.459724e-05	
91	4.550000e+00	2.416177e-05	
92	4.600000e+00	2.374271e-05	
93	4.650000e+00	2.333916e-05	
94	4.700000e+00	2.295028e-05	
95	4.750000e+00	2.257529e-05	
96	4.800000e+00	2.221346e-05	
97	4.850000e+00	2.186413e-05	
98	4.900000e+00	2.152665e-05	
99	4.950000e+00	2.120044e-05	
100	5.000000e+00	2.088495e-05	
101	5.050000e+00	2.057966e-05	
102	5.100000e+00	2.028410e-05	
103	5.150000e+00	1.999780e-05	
104	5.200000e+00	1.972034e-05	
105	5.250000e+00	1.945133e-05	
106	5.300000e+00	1.919039e-05	
107	5.350000e+00	1.893715e-05	
108	5.400000e+00	1.869130e-05	
109	5.450000e+00	1.845251e-05	
110	5.500000e+00	1.822050e-05	
111	5.550000e+00	1.799497e-05	
112	5.600000e+00	1.777566e-05	

Index   v-sweep         rds             
--------------------------------------------------------------------------------
113	5.650000e+00	1.756233e-05	
114	5.700000e+00	1.735473e-05	
115	5.750000e+00	1.715265e-05	
116	5.800000e+00	1.695586e-05	
117	5.850000e+00	1.676417e-05	
118	5.900000e+00	1.657738e-05	
119	5.950000e+00	1.639532e-05	
120	6.000000e+00	1.621780e-05	
121	6.050000e+00	1.604466e-05	
122	6.100000e+00	1.587576e-05	
123	6.150000e+00	1.571093e-05	
124	6.200000e+00	1.555003e-05	
125	6.250000e+00	1.539293e-05	
126	6.300000e+00	1.523951e-05	
127	6.350000e+00	1.508962e-05	
128	6.400000e+00	1.494317e-05	
129	6.450000e+00	1.480003e-05	
130	6.500000e+00	1.466009e-05	
131	6.550000e+00	1.452326e-05	
132	6.600000e+00	1.438944e-05	
Reset re-loads circuit ***************************

Circuit: ***************************

Doing analysis at TEMP = -40.000000 and TNOM = -40.000000


No. of Data Rows : 133
                          ***************************
                          DC transfer characteristic  Mon Jan  9 13:58:39  2023
--------------------------------------------------------------------------------
Index   v-sweep         rds             
--------------------------------------------------------------------------------
0	0.000000e+00	4.822679e-03	
1	5.000000e-02	4.689475e-03	
2	1.000000e-01	4.559093e-03	
3	1.500000e-01	4.431464e-03	
4	2.000000e-01	4.306517e-03	
5	2.500000e-01	4.184187e-03	
6	3.000000e-01	4.064407e-03	
7	3.500000e-01	3.947111e-03	
8	4.000000e-01	3.832235e-03	
9	4.500000e-01	3.719714e-03	
10	5.000000e-01	3.609485e-03	
11	5.500000e-01	3.501487e-03	
12	6.000000e-01	3.395658e-03	
13	6.500000e-01	3.291938e-03	
14	7.000000e-01	3.190269e-03	
15	7.500000e-01	3.090594e-03	
16	8.000000e-01	2.992857e-03	
17	8.500000e-01	2.897007e-03	
18	9.000000e-01	2.802990e-03	
19	9.500000e-01	2.710757e-03	
20	1.000000e+00	2.620260e-03	
21	1.050000e+00	2.531451e-03	
22	1.100000e+00	2.444284e-03	
23	1.150000e+00	2.358713e-03	
24	1.200000e+00	2.274692e-03	
25	1.250000e+00	2.192174e-03	
26	1.300000e+00	2.111107e-03	
27	1.350000e+00	2.031438e-03	
28	1.400000e+00	1.953104e-03	
29	1.450000e+00	1.876033e-03	
30	1.500000e+00	1.800138e-03	
31	1.550000e+00	1.725308e-03	
32	1.600000e+00	1.651401e-03	
33	1.650000e+00	1.578224e-03	
34	1.700000e+00	1.505519e-03	
35	1.750000e+00	1.432926e-03	
36	1.800000e+00	1.359942e-03	
37	1.850000e+00	1.285872e-03	
38	1.900000e+00	1.209772e-03	
39	1.950000e+00	1.130434e-03	
40	2.000000e+00	1.046491e-03	
41	2.050000e+00	9.567917e-04	
42	2.100000e+00	8.611719e-04	
43	2.150000e+00	7.614225e-04	
44	2.200000e+00	6.616682e-04	
45	2.250000e+00	5.673097e-04	
46	2.300000e+00	4.829567e-04	
47	2.350000e+00	4.109554e-04	
48	2.400000e+00	3.513729e-04	
49	2.450000e+00	3.028697e-04	
50	2.500000e+00	2.635925e-04	
51	2.550000e+00	2.317189e-04	
52	2.600000e+00	2.056848e-04	
53	2.650000e+00	1.842334e-04	
54	2.700000e+00	1.663855e-04	

Index   v-sweep         rds             
--------------------------------------------------------------------------------
55	2.750000e+00	1.513881e-04	
56	2.800000e+00	1.386642e-04	
57	2.850000e+00	1.277701e-04	
58	2.900000e+00	1.183626e-04	
59	2.950000e+00	1.101742e-04	
60	3.000000e+00	1.029948e-04	
61	3.050000e+00	9.665746e-05	
62	3.100000e+00	9.102875e-05	
63	3.150000e+00	8.600086e-05	
64	3.200000e+00	8.148608e-05	
65	3.250000e+00	7.741239e-05	
66	3.300000e+00	7.372025e-05	
67	3.350000e+00	7.036010e-05	
68	3.400000e+00	6.729035e-05	
69	3.450000e+00	6.447593e-05	
70	3.500000e+00	6.188706e-05	
71	3.550000e+00	5.949833e-05	
72	3.600000e+00	5.728790e-05	
73	3.650000e+00	5.523698e-05	
74	3.700000e+00	5.332924e-05	
75	3.750000e+00	5.155050e-05	
76	3.800000e+00	4.988833e-05	
77	3.850000e+00	4.833185e-05	
78	3.900000e+00	4.687146e-05	
79	3.950000e+00	4.549867e-05	
80	4.000000e+00	4.420594e-05	
81	4.050000e+00	4.298659e-05	
82	4.100000e+00	4.183462e-05	
83	4.150000e+00	4.074467e-05	
84	4.200000e+00	3.971194e-05	
85	4.250000e+00	3.873209e-05	
86	4.300000e+00	3.780122e-05	
87	4.350000e+00	3.691577e-05	
88	4.400000e+00	3.607256e-05	
89	4.450000e+00	3.526865e-05	
90	4.500000e+00	3.450139e-05	
91	4.550000e+00	3.376836e-05	
92	4.600000e+00	3.306734e-05	
93	4.650000e+00	3.239630e-05	
94	4.700000e+00	3.175337e-05	
95	4.750000e+00	3.113685e-05	
96	4.800000e+00	3.054515e-05	
97	4.850000e+00	2.997682e-05	
98	4.900000e+00	2.943051e-05	
99	4.950000e+00	2.890498e-05	
100	5.000000e+00	2.839907e-05	
101	5.050000e+00	2.791172e-05	
102	5.100000e+00	2.744193e-05	
103	5.150000e+00	2.698878e-05	
104	5.200000e+00	2.655140e-05	
105	5.250000e+00	2.612900e-05	
106	5.300000e+00	2.572083e-05	
107	5.350000e+00	2.532619e-05	
108	5.400000e+00	2.494441e-05	
109	5.450000e+00	2.457489e-05	
110	5.500000e+00	2.421706e-05	
111	5.550000e+00	2.387037e-05	
112	5.600000e+00	2.353431e-05	

Index   v-sweep         rds             
--------------------------------------------------------------------------------
113	5.650000e+00	2.320842e-05	
114	5.700000e+00	2.289223e-05	
115	5.750000e+00	2.258534e-05	
116	5.800000e+00	2.228734e-05	
117	5.850000e+00	2.199785e-05	
118	5.900000e+00	2.171653e-05	
119	5.950000e+00	2.144303e-05	
120	6.000000e+00	2.117705e-05	
121	6.050000e+00	2.091827e-05	
122	6.100000e+00	2.066642e-05	
123	6.150000e+00	2.042122e-05	
124	6.200000e+00	2.018243e-05	
125	6.250000e+00	1.994980e-05	
126	6.300000e+00	1.972310e-05	
127	6.350000e+00	1.950211e-05	
128	6.400000e+00	1.928662e-05	
129	6.450000e+00	1.907644e-05	
130	6.500000e+00	1.887137e-05	
131	6.550000e+00	1.867125e-05	
132	6.600000e+00	1.847589e-05	
Reset re-loads circuit ***************************

Circuit: ***************************

Note: No ".plot", ".print", or ".fourier" lines; no simulations run
