
Note: Compatibility modes selected: hs

Warning: m=xx on .subckt line will override multiplier m hierarchy!


Circuit: ***************************

Doing analysis at TEMP = 25.000000 and TNOM = 25.000000


No. of Data Rows : 133
                          ***************************
                          DC transfer characteristic  Mon Jan  9 13:58:37  2023
--------------------------------------------------------------------------------
Index   v-sweep         rds             
--------------------------------------------------------------------------------
0	0.000000e+00	2.601739e-04	
1	5.000000e-02	1.933728e-04	
2	1.000000e-01	1.303529e-04	
3	1.500000e-01	7.507803e-05	
4	2.000000e-01	3.799712e-05	
5	2.500000e-01	2.221330e-05	
6	3.000000e-01	1.623991e-05	
7	3.500000e-01	1.333736e-05	
8	4.000000e-01	1.157757e-05	
9	4.500000e-01	1.036783e-05	
10	5.000000e-01	9.473999e-06	
11	5.500000e-01	8.782562e-06	
12	6.000000e-01	8.230273e-06	
13	6.500000e-01	7.778438e-06	
14	7.000000e-01	7.401782e-06	
15	7.500000e-01	7.082977e-06	
16	8.000000e-01	6.809701e-06	
17	8.500000e-01	6.572926e-06	
18	9.000000e-01	6.365872e-06	
19	9.500000e-01	6.183349e-06	
20	1.000000e+00	6.021308e-06	
21	1.050000e+00	5.876546e-06	
22	1.100000e+00	5.746494e-06	
23	1.150000e+00	5.629066e-06	
24	1.200000e+00	5.522553e-06	
25	1.250000e+00	5.425539e-06	
26	1.300000e+00	5.336842e-06	
27	1.350000e+00	5.255468e-06	
28	1.400000e+00	5.180573e-06	
29	1.450000e+00	5.111438e-06	
30	1.500000e+00	5.047446e-06	
31	1.550000e+00	4.988064e-06	
32	1.600000e+00	4.932829e-06	
33	1.650000e+00	4.881340e-06	
34	1.700000e+00	4.833242e-06	
35	1.750000e+00	4.788226e-06	
36	1.800000e+00	4.746018e-06	
37	1.850000e+00	4.706375e-06	
38	1.900000e+00	4.669082e-06	
39	1.950000e+00	4.633945e-06	
40	2.000000e+00	4.600792e-06	
41	2.050000e+00	4.569470e-06	
42	2.100000e+00	4.539838e-06	
43	2.150000e+00	4.511771e-06	
44	2.200000e+00	4.485156e-06	
45	2.250000e+00	4.459889e-06	
46	2.300000e+00	4.435877e-06	
47	2.350000e+00	4.413034e-06	
48	2.400000e+00	4.391283e-06	
49	2.450000e+00	4.370553e-06	
50	2.500000e+00	4.350777e-06	
51	2.550000e+00	4.331897e-06	
52	2.600000e+00	4.313858e-06	
53	2.650000e+00	4.296608e-06	
54	2.700000e+00	4.280100e-06	

Index   v-sweep         rds             
--------------------------------------------------------------------------------
55	2.750000e+00	4.264293e-06	
56	2.800000e+00	4.249145e-06	
57	2.850000e+00	4.234619e-06	
58	2.900000e+00	4.220681e-06	
59	2.950000e+00	4.207300e-06	
60	3.000000e+00	4.194445e-06	
61	3.050000e+00	4.182089e-06	
62	3.100000e+00	4.170206e-06	
63	3.150000e+00	4.158772e-06	
64	3.200000e+00	4.147764e-06	
65	3.250000e+00	4.137161e-06	
66	3.300000e+00	4.126943e-06	
67	3.350000e+00	4.117093e-06	
68	3.400000e+00	4.107592e-06	
69	3.450000e+00	4.098425e-06	
70	3.500000e+00	4.089575e-06	
71	3.550000e+00	4.081029e-06	
72	3.600000e+00	4.072773e-06	
73	3.650000e+00	4.064794e-06	
74	3.700000e+00	4.057079e-06	
75	3.750000e+00	4.049619e-06	
76	3.800000e+00	4.042401e-06	
77	3.850000e+00	4.035415e-06	
78	3.900000e+00	4.028653e-06	
79	3.950000e+00	4.022104e-06	
80	4.000000e+00	4.015760e-06	
81	4.050000e+00	4.009614e-06	
82	4.100000e+00	4.003656e-06	
83	4.150000e+00	3.997880e-06	
84	4.200000e+00	3.992278e-06	
85	4.250000e+00	3.986844e-06	
86	4.300000e+00	3.981572e-06	
87	4.350000e+00	3.976456e-06	
88	4.400000e+00	3.971489e-06	
89	4.450000e+00	3.966666e-06	
90	4.500000e+00	3.961983e-06	
91	4.550000e+00	3.957433e-06	
92	4.600000e+00	3.953013e-06	
93	4.650000e+00	3.948717e-06	
94	4.700000e+00	3.944542e-06	
95	4.750000e+00	3.940483e-06	
96	4.800000e+00	3.936536e-06	
97	4.850000e+00	3.932697e-06	
98	4.900000e+00	3.928964e-06	
99	4.950000e+00	3.925331e-06	
100	5.000000e+00	3.921797e-06	
101	5.050000e+00	3.918357e-06	
102	5.100000e+00	3.915009e-06	
103	5.150000e+00	3.911749e-06	
104	5.200000e+00	3.908576e-06	
105	5.250000e+00	3.905486e-06	
106	5.300000e+00	3.902476e-06	
107	5.350000e+00	3.899544e-06	
108	5.400000e+00	3.896689e-06	
109	5.450000e+00	3.893906e-06	
110	5.500000e+00	3.891195e-06	
111	5.550000e+00	3.888553e-06	
112	5.600000e+00	3.885977e-06	

Index   v-sweep         rds             
--------------------------------------------------------------------------------
113	5.650000e+00	3.883467e-06	
114	5.700000e+00	3.881020e-06	
115	5.750000e+00	3.878634e-06	
116	5.800000e+00	3.876308e-06	
117	5.850000e+00	3.874039e-06	
118	5.900000e+00	3.871827e-06	
119	5.950000e+00	3.869669e-06	
120	6.000000e+00	3.867564e-06	
121	6.050000e+00	3.865510e-06	
122	6.100000e+00	3.863507e-06	
123	6.150000e+00	3.861553e-06	
124	6.200000e+00	3.859646e-06	
125	6.250000e+00	3.857785e-06	
126	6.300000e+00	3.855969e-06	
127	6.350000e+00	3.854197e-06	
128	6.400000e+00	3.852467e-06	
129	6.450000e+00	3.850779e-06	
130	6.500000e+00	3.849131e-06	
131	6.550000e+00	3.847522e-06	
132	6.600000e+00	3.845952e-06	
Reset re-loads circuit ***************************

Circuit: ***************************

Doing analysis at TEMP = 25.000000 and TNOM = 25.000000


No. of Data Rows : 133
                          ***************************
                          DC transfer characteristic  Mon Jan  9 13:58:37  2023
--------------------------------------------------------------------------------
Index   v-sweep         rds             
--------------------------------------------------------------------------------
0	0.000000e+00	1.029480e-03	
1	5.000000e-02	9.492624e-04	
2	1.000000e-01	8.717891e-04	
3	1.500000e-01	7.969514e-04	
4	2.000000e-01	7.246467e-04	
5	2.500000e-01	6.547793e-04	
6	3.000000e-01	5.872620e-04	
7	3.500000e-01	5.220200e-04	
8	4.000000e-01	4.589963e-04	
9	4.500000e-01	3.981676e-04	
10	5.000000e-01	3.395855e-04	
11	5.500000e-01	2.835019e-04	
12	6.000000e-01	2.307144e-04	
13	6.500000e-01	1.831482e-04	
14	7.000000e-01	1.436229e-04	
15	7.500000e-01	1.136470e-04	
16	8.000000e-01	9.212050e-05	
17	8.500000e-01	7.677737e-05	
18	9.000000e-01	6.562522e-05	
19	9.500000e-01	5.728579e-05	
20	1.000000e+00	5.086953e-05	
21	1.050000e+00	4.580496e-05	
22	1.100000e+00	4.171783e-05	
23	1.150000e+00	3.835645e-05	
24	1.200000e+00	3.554683e-05	
25	1.250000e+00	3.316552e-05	
26	1.300000e+00	3.112280e-05	
27	1.350000e+00	2.935210e-05	
28	1.400000e+00	2.780304e-05	
29	1.450000e+00	2.643684e-05	
30	1.500000e+00	2.522322e-05	
31	1.550000e+00	2.413817e-05	
32	1.600000e+00	2.316246e-05	
33	1.650000e+00	2.228046e-05	
34	1.700000e+00	2.147940e-05	
35	1.750000e+00	2.074870e-05	
36	1.800000e+00	2.007953e-05	
37	1.850000e+00	1.946451e-05	
38	1.900000e+00	1.889734e-05	
39	1.950000e+00	1.837270e-05	
40	2.000000e+00	1.788600e-05	
41	2.050000e+00	1.743330e-05	
42	2.100000e+00	1.701118e-05	
43	2.150000e+00	1.661666e-05	
44	2.200000e+00	1.624715e-05	
45	2.250000e+00	1.590034e-05	
46	2.300000e+00	1.557424e-05	
47	2.350000e+00	1.526704e-05	
48	2.400000e+00	1.497716e-05	
49	2.450000e+00	1.470319e-05	
50	2.500000e+00	1.444387e-05	
51	2.550000e+00	1.419805e-05	
52	2.600000e+00	1.396472e-05	
53	2.650000e+00	1.374296e-05	
54	2.700000e+00	1.353193e-05	

Index   v-sweep         rds             
--------------------------------------------------------------------------------
55	2.750000e+00	1.333088e-05	
56	2.800000e+00	1.313912e-05	
57	2.850000e+00	1.295604e-05	
58	2.900000e+00	1.278105e-05	
59	2.950000e+00	1.261364e-05	
60	3.000000e+00	1.245333e-05	
61	3.050000e+00	1.229968e-05	
62	3.100000e+00	1.215228e-05	
63	3.150000e+00	1.201078e-05	
64	3.200000e+00	1.187482e-05	
65	3.250000e+00	1.174409e-05	
66	3.300000e+00	1.161829e-05	
67	3.350000e+00	1.149716e-05	
68	3.400000e+00	1.138044e-05	
69	3.450000e+00	1.126789e-05	
70	3.500000e+00	1.115931e-05	
71	3.550000e+00	1.105448e-05	
72	3.600000e+00	1.095322e-05	
73	3.650000e+00	1.085534e-05	
74	3.700000e+00	1.076069e-05	
75	3.750000e+00	1.066911e-05	
76	3.800000e+00	1.058045e-05	
77	3.850000e+00	1.049458e-05	
78	3.900000e+00	1.041137e-05	
79	3.950000e+00	1.033070e-05	
80	4.000000e+00	1.025246e-05	
81	4.050000e+00	1.017654e-05	
82	4.100000e+00	1.010283e-05	
83	4.150000e+00	1.003125e-05	
84	4.200000e+00	9.961709e-06	
85	4.250000e+00	9.894116e-06	
86	4.300000e+00	9.828395e-06	
87	4.350000e+00	9.764469e-06	
88	4.400000e+00	9.702268e-06	
89	4.450000e+00	9.641723e-06	
90	4.500000e+00	9.582771e-06	
91	4.550000e+00	9.525349e-06	
92	4.600000e+00	9.469401e-06	
93	4.650000e+00	9.414871e-06	
94	4.700000e+00	9.361707e-06	
95	4.750000e+00	9.309859e-06	
96	4.800000e+00	9.259279e-06	
97	4.850000e+00	9.209923e-06	
98	4.900000e+00	9.161747e-06	
99	4.950000e+00	9.114711e-06	
100	5.000000e+00	9.068774e-06	
101	5.050000e+00	9.023901e-06	
102	5.100000e+00	8.980055e-06	
103	5.150000e+00	8.937201e-06	
104	5.200000e+00	8.895308e-06	
105	5.250000e+00	8.854344e-06	
106	5.300000e+00	8.814279e-06	
107	5.350000e+00	8.775084e-06	
108	5.400000e+00	8.736733e-06	
109	5.450000e+00	8.699198e-06	
110	5.500000e+00	8.662455e-06	
111	5.550000e+00	8.626480e-06	
112	5.600000e+00	8.591249e-06	

Index   v-sweep         rds             
--------------------------------------------------------------------------------
113	5.650000e+00	8.556739e-06	
114	5.700000e+00	8.522931e-06	
115	5.750000e+00	8.489802e-06	
116	5.800000e+00	8.457333e-06	
117	5.850000e+00	8.425506e-06	
118	5.900000e+00	8.394301e-06	
119	5.950000e+00	8.363702e-06	
120	6.000000e+00	8.333692e-06	
121	6.050000e+00	8.304253e-06	
122	6.100000e+00	8.275371e-06	
123	6.150000e+00	8.247030e-06	
124	6.200000e+00	8.219215e-06	
125	6.250000e+00	8.191913e-06	
126	6.300000e+00	8.165110e-06	
127	6.350000e+00	8.138793e-06	
128	6.400000e+00	8.112949e-06	
129	6.450000e+00	8.087566e-06	
130	6.500000e+00	8.062631e-06	
131	6.550000e+00	8.038135e-06	
132	6.600000e+00	8.014065e-06	
Reset re-loads circuit ***************************

Circuit: ***************************

Doing analysis at TEMP = 25.000000 and TNOM = 25.000000


No. of Data Rows : 133
                          ***************************
                          DC transfer characteristic  Mon Jan  9 13:58:37  2023
--------------------------------------------------------------------------------
Index   v-sweep         rds             
--------------------------------------------------------------------------------
0	0.000000e+00	1.597034e-03	
1	5.000000e-02	1.512293e-03	
2	1.000000e-01	1.430264e-03	
3	1.500000e-01	1.350846e-03	
4	2.000000e-01	1.273937e-03	
5	2.500000e-01	1.199442e-03	
6	3.000000e-01	1.127265e-03	
7	3.500000e-01	1.057316e-03	
8	4.000000e-01	9.895053e-04	
9	4.500000e-01	9.237482e-04	
10	5.000000e-01	8.599601e-04	
11	5.500000e-01	7.980567e-04	
12	6.000000e-01	7.379501e-04	
13	6.500000e-01	6.795419e-04	
14	7.000000e-01	6.227120e-04	
15	7.500000e-01	5.672990e-04	
16	8.000000e-01	5.130686e-04	
17	8.500000e-01	4.596759e-04	
18	9.000000e-01	4.066674e-04	
19	9.500000e-01	3.536900e-04	
20	1.000000e+00	3.011773e-04	
21	1.050000e+00	2.512180e-04	
22	1.100000e+00	2.070422e-04	
23	1.150000e+00	1.708378e-04	
24	1.200000e+00	1.426144e-04	
25	1.250000e+00	1.210263e-04	
26	1.300000e+00	1.044743e-04	
27	1.350000e+00	9.161624e-05	
28	1.400000e+00	8.145534e-05	
29	1.450000e+00	7.328283e-05	
30	1.500000e+00	6.659889e-05	
31	1.550000e+00	6.104867e-05	
32	1.600000e+00	5.637674e-05	
33	1.650000e+00	5.239631e-05	
34	1.700000e+00	4.896847e-05	
35	1.750000e+00	4.598823e-05	
36	1.800000e+00	4.337507e-05	
37	1.850000e+00	4.106630e-05	
38	1.900000e+00	3.901252e-05	
39	1.950000e+00	3.717431e-05	
40	2.000000e+00	3.551987e-05	
41	2.050000e+00	3.402328e-05	
42	2.100000e+00	3.266325e-05	
43	2.150000e+00	3.142208e-05	
44	2.200000e+00	3.028501e-05	
45	2.250000e+00	2.923958e-05	
46	2.300000e+00	2.827524e-05	
47	2.350000e+00	2.738298e-05	
48	2.400000e+00	2.655508e-05	
49	2.450000e+00	2.578487e-05	
50	2.500000e+00	2.506657e-05	
51	2.550000e+00	2.439513e-05	
52	2.600000e+00	2.376614e-05	
53	2.650000e+00	2.317574e-05	
54	2.700000e+00	2.262049e-05	

Index   v-sweep         rds             
--------------------------------------------------------------------------------
55	2.750000e+00	2.209736e-05	
56	2.800000e+00	2.160368e-05	
57	2.850000e+00	2.113702e-05	
58	2.900000e+00	2.069525e-05	
59	2.950000e+00	2.027643e-05	
60	3.000000e+00	1.987884e-05	
61	3.050000e+00	1.950091e-05	
62	3.100000e+00	1.914122e-05	
63	3.150000e+00	1.879849e-05	
64	3.200000e+00	1.847155e-05	
65	3.250000e+00	1.815935e-05	
66	3.300000e+00	1.786092e-05	
67	3.350000e+00	1.757536e-05	
68	3.400000e+00	1.730188e-05	
69	3.450000e+00	1.703971e-05	
70	3.500000e+00	1.678818e-05	
71	3.550000e+00	1.654666e-05	
72	3.600000e+00	1.631457e-05	
73	3.650000e+00	1.609136e-05	
74	3.700000e+00	1.587653e-05	
75	3.750000e+00	1.566964e-05	
76	3.800000e+00	1.547024e-05	
77	3.850000e+00	1.527794e-05	
78	3.900000e+00	1.509237e-05	
79	3.950000e+00	1.491319e-05	
80	4.000000e+00	1.474007e-05	
81	4.050000e+00	1.457271e-05	
82	4.100000e+00	1.441083e-05	
83	4.150000e+00	1.425417e-05	
84	4.200000e+00	1.410248e-05	
85	4.250000e+00	1.395553e-05	
86	4.300000e+00	1.381310e-05	
87	4.350000e+00	1.367499e-05	
88	4.400000e+00	1.354101e-05	
89	4.450000e+00	1.341097e-05	
90	4.500000e+00	1.328471e-05	
91	4.550000e+00	1.316206e-05	
92	4.600000e+00	1.304287e-05	
93	4.650000e+00	1.292701e-05	
94	4.700000e+00	1.281433e-05	
95	4.750000e+00	1.270470e-05	
96	4.800000e+00	1.259801e-05	
97	4.850000e+00	1.249414e-05	
98	4.900000e+00	1.239298e-05	
99	4.950000e+00	1.229442e-05	
100	5.000000e+00	1.219837e-05	
101	5.050000e+00	1.210474e-05	
102	5.100000e+00	1.201344e-05	
103	5.150000e+00	1.192438e-05	
104	5.200000e+00	1.183747e-05	
105	5.250000e+00	1.175266e-05	
106	5.300000e+00	1.166985e-05	
107	5.350000e+00	1.158899e-05	
108	5.400000e+00	1.151000e-05	
109	5.450000e+00	1.143283e-05	
110	5.500000e+00	1.135741e-05	
111	5.550000e+00	1.128368e-05	
112	5.600000e+00	1.121159e-05	

Index   v-sweep         rds             
--------------------------------------------------------------------------------
113	5.650000e+00	1.114109e-05	
114	5.700000e+00	1.107212e-05	
115	5.750000e+00	1.100464e-05	
116	5.800000e+00	1.093860e-05	
117	5.850000e+00	1.087395e-05	
118	5.900000e+00	1.081066e-05	
119	5.950000e+00	1.074867e-05	
120	6.000000e+00	1.068796e-05	
121	6.050000e+00	1.062849e-05	
122	6.100000e+00	1.057021e-05	
123	6.150000e+00	1.051310e-05	
124	6.200000e+00	1.045712e-05	
125	6.250000e+00	1.040223e-05	
126	6.300000e+00	1.034841e-05	
127	6.350000e+00	1.029563e-05	
128	6.400000e+00	1.024386e-05	
129	6.450000e+00	1.019306e-05	
130	6.500000e+00	1.014322e-05	
131	6.550000e+00	1.009431e-05	
132	6.600000e+00	1.004630e-05	
Reset re-loads circuit ***************************

Circuit: ***************************

Doing analysis at TEMP = 25.000000 and TNOM = 25.000000


No. of Data Rows : 133
                          ***************************
                          DC transfer characteristic  Mon Jan  9 13:58:38  2023
--------------------------------------------------------------------------------
Index   v-sweep         rds             
--------------------------------------------------------------------------------
0	0.000000e+00	2.027944e-03	
1	5.000000e-02	1.943446e-03	
2	1.000000e-01	1.861398e-03	
3	1.500000e-01	1.781716e-03	
4	2.000000e-01	1.704319e-03	
5	2.500000e-01	1.629128e-03	
6	3.000000e-01	1.556066e-03	
7	3.500000e-01	1.485059e-03	
8	4.000000e-01	1.416031e-03	
9	4.500000e-01	1.348912e-03	
10	5.000000e-01	1.283633e-03	
11	5.500000e-01	1.220128e-03	
12	6.000000e-01	1.158330e-03	
13	6.500000e-01	1.098179e-03	
14	7.000000e-01	1.039611e-03	
15	7.500000e-01	9.825646e-04	
16	8.000000e-01	9.269754e-04	
17	8.500000e-01	8.727725e-04	
18	9.000000e-01	8.198736e-04	
19	9.500000e-01	7.681762e-04	
20	1.000000e+00	7.175421e-04	
21	1.050000e+00	6.677743e-04	
22	1.100000e+00	6.185805e-04	
23	1.150000e+00	5.695246e-04	
24	1.200000e+00	5.199918e-04	
25	1.250000e+00	4.692530e-04	
26	1.300000e+00	4.168277e-04	
27	1.350000e+00	3.632698e-04	
28	1.400000e+00	3.108316e-04	
29	1.450000e+00	2.628000e-04	
30	1.500000e+00	2.216742e-04	
31	1.550000e+00	1.881256e-04	
32	1.600000e+00	1.614221e-04	
33	1.650000e+00	1.402946e-04	
34	1.700000e+00	1.234925e-04	
35	1.750000e+00	1.099861e-04	
36	1.800000e+00	9.898793e-05	
37	1.850000e+00	8.991246e-05	
38	1.900000e+00	8.232749e-05	
39	1.950000e+00	7.591272e-05	
40	2.000000e+00	7.042857e-05	
41	2.050000e+00	6.569387e-05	
42	2.100000e+00	6.156984e-05	
43	2.150000e+00	5.794889e-05	
44	2.200000e+00	5.474664e-05	
45	2.250000e+00	5.189608e-05	
46	2.300000e+00	4.934350e-05	
47	2.350000e+00	4.704538e-05	
48	2.400000e+00	4.496613e-05	
49	2.450000e+00	4.307639e-05	
50	2.500000e+00	4.135177e-05	
51	2.550000e+00	3.977182e-05	
52	2.600000e+00	3.831930e-05	
53	2.650000e+00	3.697957e-05	
54	2.700000e+00	3.574014e-05	

Index   v-sweep         rds             
--------------------------------------------------------------------------------
55	2.750000e+00	3.459026e-05	
56	2.800000e+00	3.352066e-05	
57	2.850000e+00	3.252330e-05	
58	2.900000e+00	3.159116e-05	
59	2.950000e+00	3.071811e-05	
60	3.000000e+00	2.989873e-05	
61	3.050000e+00	2.912828e-05	
62	3.100000e+00	2.840252e-05	
63	3.150000e+00	2.771771e-05	
64	3.200000e+00	2.707049e-05	
65	3.250000e+00	2.645788e-05	
66	3.300000e+00	2.587720e-05	
67	3.350000e+00	2.532601e-05	
68	3.400000e+00	2.480216e-05	
69	3.450000e+00	2.430366e-05	
70	3.500000e+00	2.382872e-05	
71	3.550000e+00	2.337573e-05	
72	3.600000e+00	2.294321e-05	
73	3.650000e+00	2.252981e-05	
74	3.700000e+00	2.213429e-05	
75	3.750000e+00	2.175552e-05	
76	3.800000e+00	2.139248e-05	
77	3.850000e+00	2.104420e-05	
78	3.900000e+00	2.070980e-05	
79	3.950000e+00	2.038848e-05	
80	4.000000e+00	2.007949e-05	
81	4.050000e+00	1.978213e-05	
82	4.100000e+00	1.949577e-05	
83	4.150000e+00	1.921981e-05	
84	4.200000e+00	1.895369e-05	
85	4.250000e+00	1.869690e-05	
86	4.300000e+00	1.844896e-05	
87	4.350000e+00	1.820943e-05	
88	4.400000e+00	1.797788e-05	
89	4.450000e+00	1.775392e-05	
90	4.500000e+00	1.753720e-05	
91	4.550000e+00	1.732736e-05	
92	4.600000e+00	1.712409e-05	
93	4.650000e+00	1.692708e-05	
94	4.700000e+00	1.673606e-05	
95	4.750000e+00	1.655075e-05	
96	4.800000e+00	1.637091e-05	
97	4.850000e+00	1.619629e-05	
98	4.900000e+00	1.602668e-05	
99	4.950000e+00	1.586187e-05	
100	5.000000e+00	1.570165e-05	
101	5.050000e+00	1.554584e-05	
102	5.100000e+00	1.539426e-05	
103	5.150000e+00	1.524675e-05	
104	5.200000e+00	1.510314e-05	
105	5.250000e+00	1.496328e-05	
106	5.300000e+00	1.482704e-05	
107	5.350000e+00	1.469426e-05	
108	5.400000e+00	1.456483e-05	
109	5.450000e+00	1.443863e-05	
110	5.500000e+00	1.431552e-05	
111	5.550000e+00	1.419542e-05	
112	5.600000e+00	1.407819e-05	

Index   v-sweep         rds             
--------------------------------------------------------------------------------
113	5.650000e+00	1.396376e-05	
114	5.700000e+00	1.385202e-05	
115	5.750000e+00	1.374287e-05	
116	5.800000e+00	1.363624e-05	
117	5.850000e+00	1.353203e-05	
118	5.900000e+00	1.343017e-05	
119	5.950000e+00	1.333058e-05	
120	6.000000e+00	1.323319e-05	
121	6.050000e+00	1.313792e-05	
122	6.100000e+00	1.304472e-05	
123	6.150000e+00	1.295351e-05	
124	6.200000e+00	1.286424e-05	
125	6.250000e+00	1.277685e-05	
126	6.300000e+00	1.269127e-05	
127	6.350000e+00	1.260746e-05	
128	6.400000e+00	1.252536e-05	
129	6.450000e+00	1.244492e-05	
130	6.500000e+00	1.236610e-05	
131	6.550000e+00	1.228884e-05	
132	6.600000e+00	1.221311e-05	
Reset re-loads circuit ***************************

Circuit: ***************************

Doing analysis at TEMP = 25.000000 and TNOM = 25.000000


No. of Data Rows : 133
                          ***************************
                          DC transfer characteristic  Mon Jan  9 13:58:38  2023
--------------------------------------------------------------------------------
Index   v-sweep         rds             
--------------------------------------------------------------------------------
0	0.000000e+00	2.318074e-03	
1	5.000000e-02	2.237889e-03	
2	1.000000e-01	2.159776e-03	
3	1.500000e-01	2.083674e-03	
4	2.000000e-01	2.009521e-03	
5	2.500000e-01	1.937259e-03	
6	3.000000e-01	1.866829e-03	
7	3.500000e-01	1.798174e-03	
8	4.000000e-01	1.731239e-03	
9	4.500000e-01	1.665968e-03	
10	5.000000e-01	1.602309e-03	
11	5.500000e-01	1.540209e-03	
12	6.000000e-01	1.479618e-03	
13	6.500000e-01	1.420488e-03	
14	7.000000e-01	1.362772e-03	
15	7.500000e-01	1.306424e-03	
16	8.000000e-01	1.251401e-03	
17	8.500000e-01	1.197660e-03	
18	9.000000e-01	1.145159e-03	
19	9.500000e-01	1.093856e-03	
20	1.000000e+00	1.043708e-03	
21	1.050000e+00	9.946683e-04	
22	1.100000e+00	9.466867e-04	
23	1.150000e+00	8.997024e-04	
24	1.200000e+00	8.536407e-04	
25	1.250000e+00	8.084031e-04	
26	1.300000e+00	7.638539e-04	
27	1.350000e+00	7.197986e-04	
28	1.400000e+00	6.759532e-04	
29	1.450000e+00	6.319033e-04	
30	1.500000e+00	5.870691e-04	
31	1.550000e+00	5.407244e-04	
32	1.600000e+00	4.921844e-04	
33	1.650000e+00	4.412950e-04	
34	1.700000e+00	3.891042e-04	
35	1.750000e+00	3.380491e-04	
36	1.800000e+00	2.910498e-04	
37	1.850000e+00	2.501556e-04	
38	1.900000e+00	2.159703e-04	
39	1.950000e+00	1.880068e-04	
40	2.000000e+00	1.652986e-04	
41	2.050000e+00	1.468211e-04	
42	2.100000e+00	1.316781e-04	
43	2.150000e+00	1.191479e-04	
44	2.200000e+00	1.086706e-04	
45	2.250000e+00	9.981775e-05	
46	2.300000e+00	9.226240e-05	
47	2.350000e+00	8.575387e-05	
48	2.400000e+00	8.009863e-05	
49	2.450000e+00	7.514588e-05	
50	2.500000e+00	7.077697e-05	
51	2.550000e+00	6.689762e-05	
52	2.600000e+00	6.343221e-05	
53	2.650000e+00	6.031951e-05	
54	2.700000e+00	5.750952e-05	

Index   v-sweep         rds             
--------------------------------------------------------------------------------
55	2.750000e+00	5.496105e-05	
56	2.800000e+00	5.263991e-05	
57	2.850000e+00	5.051752e-05	
58	2.900000e+00	4.856982e-05	
59	2.950000e+00	4.677643e-05	
60	3.000000e+00	4.511996e-05	
61	3.050000e+00	4.358553e-05	
62	3.100000e+00	4.216028e-05	
63	3.150000e+00	4.083311e-05	
64	3.200000e+00	3.959435e-05	
65	3.250000e+00	3.843552e-05	
66	3.300000e+00	3.734923e-05	
67	3.350000e+00	3.632892e-05	
68	3.400000e+00	3.536882e-05	
69	3.450000e+00	3.446380e-05	
70	3.500000e+00	3.360929e-05	
71	3.550000e+00	3.280120e-05	
72	3.600000e+00	3.203590e-05	
73	3.650000e+00	3.131008e-05	
74	3.700000e+00	3.062080e-05	
75	3.750000e+00	2.996537e-05	
76	3.800000e+00	2.934139e-05	
77	3.850000e+00	2.874666e-05	
78	3.900000e+00	2.817918e-05	
79	3.950000e+00	2.763713e-05	
80	4.000000e+00	2.711885e-05	
81	4.050000e+00	2.662282e-05	
82	4.100000e+00	2.614765e-05	
83	4.150000e+00	2.569205e-05	
84	4.200000e+00	2.525484e-05	
85	4.250000e+00	2.483495e-05	
86	4.300000e+00	2.443136e-05	
87	4.350000e+00	2.404315e-05	
88	4.400000e+00	2.366946e-05	
89	4.450000e+00	2.330951e-05	
90	4.500000e+00	2.296254e-05	
91	4.550000e+00	2.262787e-05	
92	4.600000e+00	2.230486e-05	
93	4.650000e+00	2.199292e-05	
94	4.700000e+00	2.169150e-05	
95	4.750000e+00	2.140006e-05	
96	4.800000e+00	2.111813e-05	
97	4.850000e+00	2.084526e-05	
98	4.900000e+00	2.058101e-05	
99	4.950000e+00	2.032498e-05	
100	5.000000e+00	2.007681e-05	
101	5.050000e+00	1.983613e-05	
102	5.100000e+00	1.960262e-05	
103	5.150000e+00	1.937597e-05	
104	5.200000e+00	1.915587e-05	
105	5.250000e+00	1.894206e-05	
106	5.300000e+00	1.873426e-05	
107	5.350000e+00	1.853224e-05	
108	5.400000e+00	1.833575e-05	
109	5.450000e+00	1.814458e-05	
110	5.500000e+00	1.795851e-05	
111	5.550000e+00	1.777736e-05	
112	5.600000e+00	1.760092e-05	

Index   v-sweep         rds             
--------------------------------------------------------------------------------
113	5.650000e+00	1.742901e-05	
114	5.700000e+00	1.726148e-05	
115	5.750000e+00	1.709816e-05	
116	5.800000e+00	1.693889e-05	
117	5.850000e+00	1.678353e-05	
118	5.900000e+00	1.663194e-05	
119	5.950000e+00	1.648399e-05	
120	6.000000e+00	1.633954e-05	
121	6.050000e+00	1.619849e-05	
122	6.100000e+00	1.606072e-05	
123	6.150000e+00	1.592611e-05	
124	6.200000e+00	1.579456e-05	
125	6.250000e+00	1.566597e-05	
126	6.300000e+00	1.554025e-05	
127	6.350000e+00	1.541730e-05	
128	6.400000e+00	1.529704e-05	
129	6.450000e+00	1.517938e-05	
130	6.500000e+00	1.506424e-05	
131	6.550000e+00	1.495155e-05	
132	6.600000e+00	1.484123e-05	
Reset re-loads circuit ***************************

Circuit: ***************************

Doing analysis at TEMP = 25.000000 and TNOM = 25.000000


No. of Data Rows : 133
                          ***************************
                          DC transfer characteristic  Mon Jan  9 13:58:38  2023
--------------------------------------------------------------------------------
Index   v-sweep         rds             
--------------------------------------------------------------------------------
0	0.000000e+00	2.514988e-03	
1	5.000000e-02	2.440883e-03	
2	1.000000e-01	2.368480e-03	
3	1.500000e-01	2.297732e-03	
4	2.000000e-01	2.228596e-03	
5	2.500000e-01	2.161029e-03	
6	3.000000e-01	2.094989e-03	
7	3.500000e-01	2.030433e-03	
8	4.000000e-01	1.967322e-03	
9	4.500000e-01	1.905614e-03	
10	5.000000e-01	1.845271e-03	
11	5.500000e-01	1.786253e-03	
12	6.000000e-01	1.728523e-03	
13	6.500000e-01	1.672044e-03	
14	7.000000e-01	1.616780e-03	
15	7.500000e-01	1.562696e-03	
16	8.000000e-01	1.509760e-03	
17	8.500000e-01	1.457938e-03	
18	9.000000e-01	1.407199e-03	
19	9.500000e-01	1.357514e-03	
20	1.000000e+00	1.308853e-03	
21	1.050000e+00	1.261188e-03	
22	1.100000e+00	1.214491e-03	
23	1.150000e+00	1.168734e-03	
24	1.200000e+00	1.123889e-03	
25	1.250000e+00	1.079927e-03	
26	1.300000e+00	1.036816e-03	
27	1.350000e+00	9.945223e-04	
28	1.400000e+00	9.530042e-04	
29	1.450000e+00	9.122124e-04	
30	1.500000e+00	8.720839e-04	
31	1.550000e+00	8.325353e-04	
32	1.600000e+00	7.934517e-04	
33	1.650000e+00	7.546713e-04	
34	1.700000e+00	7.159625e-04	
35	1.750000e+00	6.769940e-04	
36	1.800000e+00	6.373036e-04	
37	1.850000e+00	5.962871e-04	
38	1.900000e+00	5.532633e-04	
39	1.950000e+00	5.077054e-04	
40	2.000000e+00	4.596851e-04	
41	2.050000e+00	4.103350e-04	
42	2.100000e+00	3.618295e-04	
43	2.150000e+00	3.166272e-04	
44	2.200000e+00	2.765073e-04	
45	2.250000e+00	2.421515e-04	
46	2.300000e+00	2.133503e-04	
47	2.350000e+00	1.894276e-04	
48	2.400000e+00	1.695758e-04	
49	2.450000e+00	1.530343e-04	
50	2.500000e+00	1.391562e-04	
51	2.550000e+00	1.274175e-04	
52	2.600000e+00	1.174033e-04	
53	2.650000e+00	1.087878e-04	
54	2.700000e+00	1.013154e-04	

Index   v-sweep         rds             
--------------------------------------------------------------------------------
55	2.750000e+00	9.478521e-05	
56	2.800000e+00	8.903784e-05	
57	2.850000e+00	8.394630e-05	
58	2.900000e+00	7.940850e-05	
59	2.950000e+00	7.534173e-05	
60	3.000000e+00	7.167842e-05	
61	3.050000e+00	6.836296e-05	
62	3.100000e+00	6.534927e-05	
63	3.150000e+00	6.259886e-05	
64	3.200000e+00	6.007937e-05	
65	3.250000e+00	5.776344e-05	
66	3.300000e+00	5.562780e-05	
67	3.350000e+00	5.365253e-05	
68	3.400000e+00	5.182049e-05	
69	3.450000e+00	5.011687e-05	
70	3.500000e+00	4.852880e-05	
71	3.550000e+00	4.704507e-05	
72	3.600000e+00	4.565585e-05	
73	3.650000e+00	4.435247e-05	
74	3.700000e+00	4.312732e-05	
75	3.750000e+00	4.197362e-05	
76	3.800000e+00	4.088536e-05	
77	3.850000e+00	3.985719e-05	
78	3.900000e+00	3.888429e-05	
79	3.950000e+00	3.796238e-05	
80	4.000000e+00	3.708757e-05	
81	4.050000e+00	3.625637e-05	
82	4.100000e+00	3.546563e-05	
83	4.150000e+00	3.471249e-05	
84	4.200000e+00	3.399434e-05	
85	4.250000e+00	3.330882e-05	
86	4.300000e+00	3.265377e-05	
87	4.350000e+00	3.202721e-05	
88	4.400000e+00	3.142734e-05	
89	4.450000e+00	3.085250e-05	
90	4.500000e+00	3.030117e-05	
91	4.550000e+00	2.977193e-05	
92	4.600000e+00	2.926349e-05	
93	4.650000e+00	2.877467e-05	
94	4.700000e+00	2.830435e-05	
95	4.750000e+00	2.785150e-05	
96	4.800000e+00	2.741518e-05	
97	4.850000e+00	2.699451e-05	
98	4.900000e+00	2.658866e-05	
99	4.950000e+00	2.619686e-05	
100	5.000000e+00	2.581841e-05	
101	5.050000e+00	2.545264e-05	
102	5.100000e+00	2.509893e-05	
103	5.150000e+00	2.475669e-05	
104	5.200000e+00	2.442537e-05	
105	5.250000e+00	2.410448e-05	
106	5.300000e+00	2.379352e-05	
107	5.350000e+00	2.349205e-05	
108	5.400000e+00	2.319964e-05	
109	5.450000e+00	2.291590e-05	
110	5.500000e+00	2.264045e-05	
111	5.550000e+00	2.237293e-05	
112	5.600000e+00	2.211302e-05	

Index   v-sweep         rds             
--------------------------------------------------------------------------------
113	5.650000e+00	2.186039e-05	
114	5.700000e+00	2.161475e-05	
115	5.750000e+00	2.137581e-05	
116	5.800000e+00	2.114332e-05	
117	5.850000e+00	2.091701e-05	
118	5.900000e+00	2.069665e-05	
119	5.950000e+00	2.048201e-05	
120	6.000000e+00	2.027288e-05	
121	6.050000e+00	2.006905e-05	
122	6.100000e+00	1.987032e-05	
123	6.150000e+00	1.967652e-05	
124	6.200000e+00	1.948746e-05	
125	6.250000e+00	1.930298e-05	
126	6.300000e+00	1.912292e-05	
127	6.350000e+00	1.894712e-05	
128	6.400000e+00	1.877544e-05	
129	6.450000e+00	1.860775e-05	
130	6.500000e+00	1.844391e-05	
131	6.550000e+00	1.828379e-05	
132	6.600000e+00	1.812727e-05	
Reset re-loads circuit ***************************

Circuit: ***************************

Note: No ".plot", ".print", or ".fourier" lines; no simulations run
