
Note: Compatibility modes selected: hs

Warning: m=xx on .subckt line will override multiplier m hierarchy!


Circuit: ***************************

Doing analysis at TEMP = 25.000000 and TNOM = 25.000000


No. of Data Rows : 133
                          ***************************
                          DC transfer characteristic  Mon Jan  9 13:58:37  2023
--------------------------------------------------------------------------------
Index   v-sweep         rds             
--------------------------------------------------------------------------------
0	0.000000e+00	3.456908e-04	
1	5.000000e-02	2.617662e-04	
2	1.000000e-01	1.825138e-04	
3	1.500000e-01	1.119986e-04	
4	2.000000e-01	6.177830e-05	
5	2.500000e-01	3.841718e-05	
6	3.000000e-01	2.922466e-05	
7	3.500000e-01	2.468446e-05	
8	4.000000e-01	2.188699e-05	
9	4.500000e-01	1.993906e-05	
10	5.000000e-01	1.848714e-05	
11	5.500000e-01	1.735770e-05	
12	6.000000e-01	1.645256e-05	
13	6.500000e-01	1.571076e-05	
14	7.000000e-01	1.509201e-05	
15	7.500000e-01	1.456841e-05	
16	8.000000e-01	1.411996e-05	
17	8.500000e-01	1.373193e-05	
18	9.000000e-01	1.339318e-05	
19	9.500000e-01	1.309518e-05	
20	1.000000e+00	1.283122e-05	
21	1.050000e+00	1.259600e-05	
22	1.100000e+00	1.238525e-05	
23	1.150000e+00	1.219551e-05	
24	1.200000e+00	1.202393e-05	
25	1.250000e+00	1.186814e-05	
26	1.300000e+00	1.172617e-05	
27	1.350000e+00	1.159637e-05	
28	1.400000e+00	1.147732e-05	
29	1.450000e+00	1.136782e-05	
30	1.500000e+00	1.126684e-05	
31	1.550000e+00	1.117350e-05	
32	1.600000e+00	1.108701e-05	
33	1.650000e+00	1.100670e-05	
34	1.700000e+00	1.093199e-05	
35	1.750000e+00	1.086236e-05	
36	1.800000e+00	1.079734e-05	
37	1.850000e+00	1.073654e-05	
38	1.900000e+00	1.067959e-05	
39	1.950000e+00	1.062618e-05	
40	2.000000e+00	1.057601e-05	
41	2.050000e+00	1.052882e-05	
42	2.100000e+00	1.048440e-05	
43	2.150000e+00	1.044252e-05	
44	2.200000e+00	1.040300e-05	
45	2.250000e+00	1.036566e-05	
46	2.300000e+00	1.033036e-05	
47	2.350000e+00	1.029695e-05	
48	2.400000e+00	1.026530e-05	
49	2.450000e+00	1.023529e-05	
50	2.500000e+00	1.020682e-05	
51	2.550000e+00	1.017979e-05	
52	2.600000e+00	1.015410e-05	
53	2.650000e+00	1.012967e-05	
54	2.700000e+00	1.010643e-05	

Index   v-sweep         rds             
--------------------------------------------------------------------------------
55	2.750000e+00	1.008430e-05	
56	2.800000e+00	1.006321e-05	
57	2.850000e+00	1.004312e-05	
58	2.900000e+00	1.002395e-05	
59	2.950000e+00	1.000566e-05	
60	3.000000e+00	9.988201e-06	
61	3.050000e+00	9.971524e-06	
62	3.100000e+00	9.955587e-06	
63	3.150000e+00	9.940352e-06	
64	3.200000e+00	9.925782e-06	
65	3.250000e+00	9.911842e-06	
66	3.300000e+00	9.898501e-06	
67	3.350000e+00	9.885727e-06	
68	3.400000e+00	9.873492e-06	
69	3.450000e+00	9.861771e-06	
70	3.500000e+00	9.850538e-06	
71	3.550000e+00	9.839769e-06	
72	3.600000e+00	9.829443e-06	
73	3.650000e+00	9.819538e-06	
74	3.700000e+00	9.810036e-06	
75	3.750000e+00	9.800918e-06	
76	3.800000e+00	9.792165e-06	
77	3.850000e+00	9.783763e-06	
78	3.900000e+00	9.775694e-06	
79	3.950000e+00	9.767945e-06	
80	4.000000e+00	9.760501e-06	
81	4.050000e+00	9.753349e-06	
82	4.100000e+00	9.746477e-06	
83	4.150000e+00	9.739873e-06	
84	4.200000e+00	9.733525e-06	
85	4.250000e+00	9.727422e-06	
86	4.300000e+00	9.721555e-06	
87	4.350000e+00	9.715914e-06	
88	4.400000e+00	9.710489e-06	
89	4.450000e+00	9.705272e-06	
90	4.500000e+00	9.700253e-06	
91	4.550000e+00	9.695426e-06	
92	4.600000e+00	9.690783e-06	
93	4.650000e+00	9.686316e-06	
94	4.700000e+00	9.682018e-06	
95	4.750000e+00	9.677883e-06	
96	4.800000e+00	9.673904e-06	
97	4.850000e+00	9.670075e-06	
98	4.900000e+00	9.666391e-06	
99	4.950000e+00	9.662845e-06	
100	5.000000e+00	9.659433e-06	
101	5.050000e+00	9.656149e-06	
102	5.100000e+00	9.652989e-06	
103	5.150000e+00	9.649947e-06	
104	5.200000e+00	9.647020e-06	
105	5.250000e+00	9.644202e-06	
106	5.300000e+00	9.641490e-06	
107	5.350000e+00	9.638879e-06	
108	5.400000e+00	9.636367e-06	
109	5.450000e+00	9.633948e-06	
110	5.500000e+00	9.631620e-06	
111	5.550000e+00	9.629379e-06	
112	5.600000e+00	9.627222e-06	

Index   v-sweep         rds             
--------------------------------------------------------------------------------
113	5.650000e+00	9.625145e-06	
114	5.700000e+00	9.623146e-06	
115	5.750000e+00	9.621221e-06	
116	5.800000e+00	9.619368e-06	
117	5.850000e+00	9.617583e-06	
118	5.900000e+00	9.615865e-06	
119	5.950000e+00	9.614210e-06	
120	6.000000e+00	9.612617e-06	
121	6.050000e+00	9.611082e-06	
122	6.100000e+00	9.609603e-06	
123	6.150000e+00	9.608178e-06	
124	6.200000e+00	9.606806e-06	
125	6.250000e+00	9.605482e-06	
126	6.300000e+00	9.604207e-06	
127	6.350000e+00	9.602977e-06	
128	6.400000e+00	9.601791e-06	
129	6.450000e+00	9.600646e-06	
130	6.500000e+00	9.599542e-06	
131	6.550000e+00	9.598476e-06	
132	6.600000e+00	9.597446e-06	
Reset re-loads circuit ***************************

Circuit: ***************************

Doing analysis at TEMP = 25.000000 and TNOM = 25.000000


No. of Data Rows : 133
                          ***************************
                          DC transfer characteristic  Mon Jan  9 13:58:38  2023
--------------------------------------------------------------------------------
Index   v-sweep         rds             
--------------------------------------------------------------------------------
0	0.000000e+00	1.227862e-03	
1	5.000000e-02	1.130260e-03	
2	1.000000e-01	1.036161e-03	
3	1.500000e-01	9.454251e-04	
4	2.000000e-01	8.579172e-04	
5	2.500000e-01	7.735135e-04	
6	3.000000e-01	6.921048e-04	
7	3.500000e-01	6.136041e-04	
8	4.000000e-01	5.379594e-04	
9	4.500000e-01	4.651817e-04	
10	5.000000e-01	3.954207e-04	
11	5.500000e-01	3.291799e-04	
12	6.000000e-01	2.678358e-04	
13	6.500000e-01	2.141542e-04	
14	7.000000e-01	1.710693e-04	
15	7.500000e-01	1.389988e-04	
16	8.000000e-01	1.158422e-04	
17	8.500000e-01	9.900485e-05	
18	9.000000e-01	8.646964e-05	
19	9.500000e-01	7.687936e-05	
20	1.000000e+00	6.935108e-05	
21	1.050000e+00	6.330602e-05	
22	1.100000e+00	5.835628e-05	
23	1.150000e+00	5.423501e-05	
24	1.200000e+00	5.075388e-05	
25	1.250000e+00	4.777670e-05	
26	1.300000e+00	4.520289e-05	
27	1.350000e+00	4.295665e-05	
28	1.400000e+00	4.097988e-05	
29	1.450000e+00	3.922735e-05	
30	1.500000e+00	3.766333e-05	
31	1.550000e+00	3.625924e-05	
32	1.600000e+00	3.499198e-05	
33	1.650000e+00	3.384266e-05	
34	1.700000e+00	3.279571e-05	
35	1.750000e+00	3.183814e-05	
36	1.800000e+00	3.095909e-05	
37	1.850000e+00	3.014937e-05	
38	1.900000e+00	2.940116e-05	
39	1.950000e+00	2.870778e-05	
40	2.000000e+00	2.806346e-05	
41	2.050000e+00	2.746323e-05	
42	2.100000e+00	2.690276e-05	
43	2.150000e+00	2.637826e-05	
44	2.200000e+00	2.588641e-05	
45	2.250000e+00	2.542428e-05	
46	2.300000e+00	2.498929e-05	
47	2.350000e+00	2.457914e-05	
48	2.400000e+00	2.419179e-05	
49	2.450000e+00	2.382539e-05	
50	2.500000e+00	2.347833e-05	
51	2.550000e+00	2.314912e-05	
52	2.600000e+00	2.283644e-05	
53	2.650000e+00	2.253908e-05	
54	2.700000e+00	2.225596e-05	

Index   v-sweep         rds             
--------------------------------------------------------------------------------
55	2.750000e+00	2.198610e-05	
56	2.800000e+00	2.172859e-05	
57	2.850000e+00	2.148262e-05	
58	2.900000e+00	2.124744e-05	
59	2.950000e+00	2.102236e-05	
60	3.000000e+00	2.080675e-05	
61	3.050000e+00	2.060004e-05	
62	3.100000e+00	2.040169e-05	
63	3.150000e+00	2.021121e-05	
64	3.200000e+00	2.002815e-05	
65	3.250000e+00	1.985210e-05	
66	3.300000e+00	1.968265e-05	
67	3.350000e+00	1.951946e-05	
68	3.400000e+00	1.936218e-05	
69	3.450000e+00	1.921051e-05	
70	3.500000e+00	1.906416e-05	
71	3.550000e+00	1.892285e-05	
72	3.600000e+00	1.878633e-05	
73	3.650000e+00	1.865436e-05	
74	3.700000e+00	1.852674e-05	
75	3.750000e+00	1.840324e-05	
76	3.800000e+00	1.828368e-05	
77	3.850000e+00	1.816787e-05	
78	3.900000e+00	1.805564e-05	
79	3.950000e+00	1.794683e-05	
80	4.000000e+00	1.784129e-05	
81	4.050000e+00	1.773888e-05	
82	4.100000e+00	1.763946e-05	
83	4.150000e+00	1.754290e-05	
84	4.200000e+00	1.744910e-05	
85	4.250000e+00	1.735792e-05	
86	4.300000e+00	1.726926e-05	
87	4.350000e+00	1.718303e-05	
88	4.400000e+00	1.709913e-05	
89	4.450000e+00	1.701746e-05	
90	4.500000e+00	1.693795e-05	
91	4.550000e+00	1.686050e-05	
92	4.600000e+00	1.678504e-05	
93	4.650000e+00	1.671149e-05	
94	4.700000e+00	1.663979e-05	
95	4.750000e+00	1.656986e-05	
96	4.800000e+00	1.650165e-05	
97	4.850000e+00	1.643510e-05	
98	4.900000e+00	1.637013e-05	
99	4.950000e+00	1.630671e-05	
100	5.000000e+00	1.624477e-05	
101	5.050000e+00	1.618427e-05	
102	5.100000e+00	1.612516e-05	
103	5.150000e+00	1.606738e-05	
104	5.200000e+00	1.601091e-05	
105	5.250000e+00	1.595569e-05	
106	5.300000e+00	1.590168e-05	
107	5.350000e+00	1.584885e-05	
108	5.400000e+00	1.579716e-05	
109	5.450000e+00	1.574658e-05	
110	5.500000e+00	1.569706e-05	
111	5.550000e+00	1.564858e-05	
112	5.600000e+00	1.560111e-05	

Index   v-sweep         rds             
--------------------------------------------------------------------------------
113	5.650000e+00	1.555461e-05	
114	5.700000e+00	1.550906e-05	
115	5.750000e+00	1.546442e-05	
116	5.800000e+00	1.542068e-05	
117	5.850000e+00	1.537780e-05	
118	5.900000e+00	1.533576e-05	
119	5.950000e+00	1.529455e-05	
120	6.000000e+00	1.525412e-05	
121	6.050000e+00	1.521447e-05	
122	6.100000e+00	1.517557e-05	
123	6.150000e+00	1.513740e-05	
124	6.200000e+00	1.509994e-05	
125	6.250000e+00	1.506317e-05	
126	6.300000e+00	1.502707e-05	
127	6.350000e+00	1.499163e-05	
128	6.400000e+00	1.495683e-05	
129	6.450000e+00	1.492265e-05	
130	6.500000e+00	1.488907e-05	
131	6.550000e+00	1.485609e-05	
132	6.600000e+00	1.482368e-05	
Reset re-loads circuit ***************************

Circuit: ***************************

Doing analysis at TEMP = 25.000000 and TNOM = 25.000000


No. of Data Rows : 133
                          ***************************
                          DC transfer characteristic  Mon Jan  9 13:58:38  2023
--------------------------------------------------------------------------------
Index   v-sweep         rds             
--------------------------------------------------------------------------------
0	0.000000e+00	1.884411e-03	
1	5.000000e-02	1.781580e-03	
2	1.000000e-01	1.682193e-03	
3	1.500000e-01	1.586115e-03	
4	2.000000e-01	1.493215e-03	
5	2.500000e-01	1.403363e-03	
6	3.000000e-01	1.316433e-03	
7	3.500000e-01	1.232302e-03	
8	4.000000e-01	1.150853e-03	
9	4.500000e-01	1.071971e-03	
10	5.000000e-01	9.955474e-04	
11	5.500000e-01	9.214745e-04	
12	6.000000e-01	8.496382e-04	
13	6.500000e-01	7.799083e-04	
14	7.000000e-01	7.121160e-04	
15	7.500000e-01	6.460188e-04	
16	8.000000e-01	5.812475e-04	
17	8.500000e-01	5.172694e-04	
18	9.000000e-01	4.535255e-04	
19	9.500000e-01	3.901009e-04	
20	1.000000e+00	3.289156e-04	
21	1.050000e+00	2.737267e-04	
22	1.100000e+00	2.276749e-04	
23	1.150000e+00	1.913252e-04	
24	1.200000e+00	1.633047e-04	
25	1.250000e+00	1.417138e-04	
26	1.300000e+00	1.248824e-04	
27	1.350000e+00	1.115453e-04	
28	1.400000e+00	1.007939e-04	
29	1.450000e+00	9.198352e-05	
30	1.500000e+00	8.465496e-05	
31	1.550000e+00	7.847665e-05	
32	1.600000e+00	7.320556e-05	
33	1.650000e+00	6.866063e-05	
34	1.700000e+00	6.470479e-05	
35	1.750000e+00	6.123271e-05	
36	1.800000e+00	5.816229e-05	
37	1.850000e+00	5.542873e-05	
38	1.900000e+00	5.298028e-05	
39	1.950000e+00	5.077510e-05	
40	2.000000e+00	4.877911e-05	
41	2.050000e+00	4.696421e-05	
42	2.100000e+00	4.530709e-05	
43	2.150000e+00	4.378823e-05	
44	2.200000e+00	4.239119e-05	
45	2.250000e+00	4.110201e-05	
46	2.300000e+00	3.990877e-05	
47	2.350000e+00	3.880123e-05	
48	2.400000e+00	3.777055e-05	
49	2.450000e+00	3.680906e-05	
50	2.500000e+00	3.591008e-05	
51	2.550000e+00	3.506775e-05	
52	2.600000e+00	3.427691e-05	
53	2.650000e+00	3.353301e-05	
54	2.700000e+00	3.283203e-05	

Index   v-sweep         rds             
--------------------------------------------------------------------------------
55	2.750000e+00	3.217039e-05	
56	2.800000e+00	3.154487e-05	
57	2.850000e+00	3.095263e-05	
58	2.900000e+00	3.039109e-05	
59	2.950000e+00	2.985794e-05	
60	3.000000e+00	2.935110e-05	
61	3.050000e+00	2.886868e-05	
62	3.100000e+00	2.840896e-05	
63	3.150000e+00	2.797039e-05	
64	3.200000e+00	2.755156e-05	
65	3.250000e+00	2.715117e-05	
66	3.300000e+00	2.676803e-05	
67	3.350000e+00	2.640106e-05	
68	3.400000e+00	2.604927e-05	
69	3.450000e+00	2.571173e-05	
70	3.500000e+00	2.538761e-05	
71	3.550000e+00	2.507612e-05	
72	3.600000e+00	2.477655e-05	
73	3.650000e+00	2.448823e-05	
74	3.700000e+00	2.421054e-05	
75	3.750000e+00	2.394291e-05	
76	3.800000e+00	2.368480e-05	
77	3.850000e+00	2.343572e-05	
78	3.900000e+00	2.319520e-05	
79	3.950000e+00	2.296282e-05	
80	4.000000e+00	2.273817e-05	
81	4.050000e+00	2.252088e-05	
82	4.100000e+00	2.231059e-05	
83	4.150000e+00	2.210697e-05	
84	4.200000e+00	2.190971e-05	
85	4.250000e+00	2.171852e-05	
86	4.300000e+00	2.153313e-05	
87	4.350000e+00	2.135328e-05	
88	4.400000e+00	2.117873e-05	
89	4.450000e+00	2.100924e-05	
90	4.500000e+00	2.084460e-05	
91	4.550000e+00	2.068462e-05	
92	4.600000e+00	2.052909e-05	
93	4.650000e+00	2.037784e-05	
94	4.700000e+00	2.023068e-05	
95	4.750000e+00	2.008747e-05	
96	4.800000e+00	1.994805e-05	
97	4.850000e+00	1.981226e-05	
98	4.900000e+00	1.967998e-05	
99	4.950000e+00	1.955106e-05	
100	5.000000e+00	1.942539e-05	
101	5.050000e+00	1.930284e-05	
102	5.100000e+00	1.918330e-05	
103	5.150000e+00	1.906666e-05	
104	5.200000e+00	1.895283e-05	
105	5.250000e+00	1.884170e-05	
106	5.300000e+00	1.873317e-05	
107	5.350000e+00	1.862716e-05	
108	5.400000e+00	1.852359e-05	
109	5.450000e+00	1.842237e-05	
110	5.500000e+00	1.832343e-05	
111	5.550000e+00	1.822669e-05	
112	5.600000e+00	1.813208e-05	

Index   v-sweep         rds             
--------------------------------------------------------------------------------
113	5.650000e+00	1.803953e-05	
114	5.700000e+00	1.794897e-05	
115	5.750000e+00	1.786035e-05	
116	5.800000e+00	1.777361e-05	
117	5.850000e+00	1.768868e-05	
118	5.900000e+00	1.760551e-05	
119	5.950000e+00	1.752405e-05	
120	6.000000e+00	1.744425e-05	
121	6.050000e+00	1.736606e-05	
122	6.100000e+00	1.728944e-05	
123	6.150000e+00	1.721433e-05	
124	6.200000e+00	1.714069e-05	
125	6.250000e+00	1.706849e-05	
126	6.300000e+00	1.699768e-05	
127	6.350000e+00	1.692823e-05	
128	6.400000e+00	1.686009e-05	
129	6.450000e+00	1.679323e-05	
130	6.500000e+00	1.672762e-05	
131	6.550000e+00	1.666322e-05	
132	6.600000e+00	1.660001e-05	
Reset re-loads circuit ***************************

Circuit: ***************************

Doing analysis at TEMP = 25.000000 and TNOM = 25.000000


No. of Data Rows : 133
                          ***************************
                          DC transfer characteristic  Mon Jan  9 13:58:38  2023
--------------------------------------------------------------------------------
Index   v-sweep         rds             
--------------------------------------------------------------------------------
0	0.000000e+00	2.386287e-03	
1	5.000000e-02	2.283663e-03	
2	1.000000e-01	2.184144e-03	
3	1.500000e-01	2.087621e-03	
4	2.000000e-01	1.993988e-03	
5	2.500000e-01	1.903141e-03	
6	3.000000e-01	1.814975e-03	
7	3.500000e-01	1.729390e-03	
8	4.000000e-01	1.646286e-03	
9	4.500000e-01	1.565565e-03	
10	5.000000e-01	1.487134e-03	
11	5.500000e-01	1.410905e-03	
12	6.000000e-01	1.336791e-03	
13	6.500000e-01	1.264712e-03	
14	7.000000e-01	1.194587e-03	
15	7.500000e-01	1.126338e-03	
16	8.000000e-01	1.059881e-03	
17	8.500000e-01	9.951209e-04	
18	9.000000e-01	9.319415e-04	
19	9.500000e-01	8.701853e-04	
20	1.000000e+00	8.096240e-04	
21	1.050000e+00	7.499109e-04	
22	1.100000e+00	6.905158e-04	
23	1.150000e+00	6.306719e-04	
24	1.200000e+00	5.694559e-04	
25	1.250000e+00	5.062686e-04	
26	1.300000e+00	4.418745e-04	
27	1.350000e+00	3.791772e-04	
28	1.400000e+00	3.221753e-04	
29	1.450000e+00	2.736560e-04	
30	1.500000e+00	2.341560e-04	
31	1.550000e+00	2.026569e-04	
32	1.600000e+00	1.776220e-04	
33	1.650000e+00	1.575937e-04	
34	1.700000e+00	1.413896e-04	
35	1.750000e+00	1.281094e-04	
36	1.800000e+00	1.170833e-04	
37	1.850000e+00	1.078152e-04	
38	1.900000e+00	9.993548e-05	
39	1.950000e+00	9.316647e-05	
40	2.000000e+00	8.729682e-05	
41	2.050000e+00	8.216379e-05	
42	2.100000e+00	7.764055e-05	
43	2.150000e+00	7.362706e-05	
44	2.200000e+00	7.004355e-05	
45	2.250000e+00	6.682575e-05	
46	2.300000e+00	6.392135e-05	
47	2.350000e+00	6.128741e-05	
48	2.400000e+00	5.888840e-05	
49	2.450000e+00	5.669463e-05	
50	2.500000e+00	5.468120e-05	
51	2.550000e+00	5.282699e-05	
52	2.600000e+00	5.111406e-05	
53	2.650000e+00	4.952701e-05	
54	2.700000e+00	4.805260e-05	

Index   v-sweep         rds             
--------------------------------------------------------------------------------
55	2.750000e+00	4.667936e-05	
56	2.800000e+00	4.539732e-05	
57	2.850000e+00	4.419776e-05	
58	2.900000e+00	4.307304e-05	
59	2.950000e+00	4.201641e-05	
60	3.000000e+00	4.102193e-05	
61	3.050000e+00	4.008431e-05	
62	3.100000e+00	3.919884e-05	
63	3.150000e+00	3.836132e-05	
64	3.200000e+00	3.756799e-05	
65	3.250000e+00	3.681545e-05	
66	3.300000e+00	3.610067e-05	
67	3.350000e+00	3.542088e-05	
68	3.400000e+00	3.477360e-05	
69	3.450000e+00	3.415656e-05	
70	3.500000e+00	3.356771e-05	
71	3.550000e+00	3.300516e-05	
72	3.600000e+00	3.246720e-05	
73	3.650000e+00	3.195227e-05	
74	3.700000e+00	3.145892e-05	
75	3.750000e+00	3.098584e-05	
76	3.800000e+00	3.053180e-05	
77	3.850000e+00	3.009568e-05	
78	3.900000e+00	2.967646e-05	
79	3.950000e+00	2.927317e-05	
80	4.000000e+00	2.888492e-05	
81	4.050000e+00	2.851090e-05	
82	4.100000e+00	2.815034e-05	
83	4.150000e+00	2.780253e-05	
84	4.200000e+00	2.746681e-05	
85	4.250000e+00	2.714257e-05	
86	4.300000e+00	2.682922e-05	
87	4.350000e+00	2.652624e-05	
88	4.400000e+00	2.623312e-05	
89	4.450000e+00	2.594938e-05	
90	4.500000e+00	2.567460e-05	
91	4.550000e+00	2.540835e-05	
92	4.600000e+00	2.515024e-05	
93	4.650000e+00	2.489992e-05	
94	4.700000e+00	2.465703e-05	
95	4.750000e+00	2.442125e-05	
96	4.800000e+00	2.419228e-05	
97	4.850000e+00	2.396984e-05	
98	4.900000e+00	2.375364e-05	
99	4.950000e+00	2.354343e-05	
100	5.000000e+00	2.333897e-05	
101	5.050000e+00	2.314003e-05	
102	5.100000e+00	2.294638e-05	
103	5.150000e+00	2.275784e-05	
104	5.200000e+00	2.257419e-05	
105	5.250000e+00	2.239525e-05	
106	5.300000e+00	2.222086e-05	
107	5.350000e+00	2.205083e-05	
108	5.400000e+00	2.188501e-05	
109	5.450000e+00	2.172324e-05	
110	5.500000e+00	2.156540e-05	
111	5.550000e+00	2.141132e-05	
112	5.600000e+00	2.126090e-05	

Index   v-sweep         rds             
--------------------------------------------------------------------------------
113	5.650000e+00	2.111399e-05	
114	5.700000e+00	2.097048e-05	
115	5.750000e+00	2.083026e-05	
116	5.800000e+00	2.069322e-05	
117	5.850000e+00	2.055925e-05	
118	5.900000e+00	2.042826e-05	
119	5.950000e+00	2.030014e-05	
120	6.000000e+00	2.017482e-05	
121	6.050000e+00	2.005219e-05	
122	6.100000e+00	1.993218e-05	
123	6.150000e+00	1.981471e-05	
124	6.200000e+00	1.969970e-05	
125	6.250000e+00	1.958708e-05	
126	6.300000e+00	1.947677e-05	
127	6.350000e+00	1.936871e-05	
128	6.400000e+00	1.926283e-05	
129	6.450000e+00	1.915907e-05	
130	6.500000e+00	1.905737e-05	
131	6.550000e+00	1.895767e-05	
132	6.600000e+00	1.885991e-05	
Reset re-loads circuit ***************************

Circuit: ***************************

Doing analysis at TEMP = 25.000000 and TNOM = 25.000000


No. of Data Rows : 133
                          ***************************
                          DC transfer characteristic  Mon Jan  9 13:58:38  2023
--------------------------------------------------------------------------------
Index   v-sweep         rds             
--------------------------------------------------------------------------------
0	0.000000e+00	2.723525e-03	
1	5.000000e-02	2.626029e-03	
2	1.000000e-01	2.531157e-03	
3	1.500000e-01	2.438831e-03	
4	2.000000e-01	2.348970e-03	
5	2.500000e-01	2.261497e-03	
6	3.000000e-01	2.176335e-03	
7	3.500000e-01	2.093407e-03	
8	4.000000e-01	2.012638e-03	
9	4.500000e-01	1.933952e-03	
10	5.000000e-01	1.857277e-03	
11	5.500000e-01	1.782543e-03	
12	6.000000e-01	1.709680e-03	
13	6.500000e-01	1.638624e-03	
14	7.000000e-01	1.569312e-03	
15	7.500000e-01	1.501685e-03	
16	8.000000e-01	1.435687e-03	
17	8.500000e-01	1.371264e-03	
18	9.000000e-01	1.308363e-03	
19	9.500000e-01	1.246932e-03	
20	1.000000e+00	1.186916e-03	
21	1.050000e+00	1.128254e-03	
22	1.100000e+00	1.070876e-03	
23	1.150000e+00	1.014690e-03	
24	1.200000e+00	9.595767e-04	
25	1.250000e+00	9.053620e-04	
26	1.300000e+00	8.517916e-04	
27	1.350000e+00	7.984833e-04	
28	1.400000e+00	7.448723e-04	
29	1.450000e+00	6.901729e-04	
30	1.500000e+00	6.334527e-04	
31	1.550000e+00	5.740012e-04	
32	1.600000e+00	5.121051e-04	
33	1.650000e+00	4.497883e-04	
34	1.700000e+00	3.904639e-04	
35	1.750000e+00	3.373356e-04	
36	1.800000e+00	2.920369e-04	
37	1.850000e+00	2.545617e-04	
38	1.900000e+00	2.239658e-04	
39	1.950000e+00	1.990243e-04	
40	2.000000e+00	1.785845e-04	
41	2.050000e+00	1.616870e-04	
42	2.100000e+00	1.475759e-04	
43	2.150000e+00	1.356687e-04	
44	2.200000e+00	1.255199e-04	
45	2.250000e+00	1.167875e-04	
46	2.300000e+00	1.092080e-04	
47	2.350000e+00	1.025763e-04	
48	2.400000e+00	9.673102e-05	
49	2.450000e+00	9.154449e-05	
50	2.500000e+00	8.691427e-05	
51	2.550000e+00	8.275759e-05	
52	2.600000e+00	7.900694e-05	
53	2.650000e+00	7.560679e-05	
54	2.700000e+00	7.251110e-05	

Index   v-sweep         rds             
--------------------------------------------------------------------------------
55	2.750000e+00	6.968143e-05	
56	2.800000e+00	6.708543e-05	
57	2.850000e+00	6.469573e-05	
58	2.900000e+00	6.248900e-05	
59	2.950000e+00	6.044528e-05	
60	3.000000e+00	5.854737e-05	
61	3.050000e+00	5.678037e-05	
62	3.100000e+00	5.513134e-05	
63	3.150000e+00	5.358896e-05	
64	3.200000e+00	5.214331e-05	
65	3.250000e+00	5.078565e-05	
66	3.300000e+00	4.950826e-05	
67	3.350000e+00	4.830428e-05	
68	3.400000e+00	4.716761e-05	
69	3.450000e+00	4.609281e-05	
70	3.500000e+00	4.507499e-05	
71	3.550000e+00	4.410978e-05	
72	3.600000e+00	4.319322e-05	
73	3.650000e+00	4.232176e-05	
74	3.700000e+00	4.149217e-05	
75	3.750000e+00	4.070152e-05	
76	3.800000e+00	3.994714e-05	
77	3.850000e+00	3.922662e-05	
78	3.900000e+00	3.853774e-05	
79	3.950000e+00	3.787847e-05	
80	4.000000e+00	3.724695e-05	
81	4.050000e+00	3.664148e-05	
82	4.100000e+00	3.606049e-05	
83	4.150000e+00	3.550253e-05	
84	4.200000e+00	3.496627e-05	
85	4.250000e+00	3.445046e-05	
86	4.300000e+00	3.395398e-05	
87	4.350000e+00	3.347575e-05	
88	4.400000e+00	3.301480e-05	
89	4.450000e+00	3.257021e-05	
90	4.500000e+00	3.214114e-05	
91	4.550000e+00	3.172678e-05	
92	4.600000e+00	3.132639e-05	
93	4.650000e+00	3.093930e-05	
94	4.700000e+00	3.056485e-05	
95	4.750000e+00	3.020243e-05	
96	4.800000e+00	2.985148e-05	
97	4.850000e+00	2.951147e-05	
98	4.900000e+00	2.918189e-05	
99	4.950000e+00	2.886229e-05	
100	5.000000e+00	2.855221e-05	
101	5.050000e+00	2.825124e-05	
102	5.100000e+00	2.795899e-05	
103	5.150000e+00	2.767509e-05	
104	5.200000e+00	2.739920e-05	
105	5.250000e+00	2.713097e-05	
106	5.300000e+00	2.687010e-05	
107	5.350000e+00	2.661630e-05	
108	5.400000e+00	2.636929e-05	
109	5.450000e+00	2.612880e-05	
110	5.500000e+00	2.589458e-05	
111	5.550000e+00	2.566639e-05	
112	5.600000e+00	2.544401e-05	

Index   v-sweep         rds             
--------------------------------------------------------------------------------
113	5.650000e+00	2.522723e-05	
114	5.700000e+00	2.501583e-05	
115	5.750000e+00	2.480963e-05	
116	5.800000e+00	2.460844e-05	
117	5.850000e+00	2.441209e-05	
118	5.900000e+00	2.422040e-05	
119	5.950000e+00	2.403321e-05	
120	6.000000e+00	2.385039e-05	
121	6.050000e+00	2.367177e-05	
122	6.100000e+00	2.349722e-05	
123	6.150000e+00	2.332661e-05	
124	6.200000e+00	2.315981e-05	
125	6.250000e+00	2.299669e-05	
126	6.300000e+00	2.283715e-05	
127	6.350000e+00	2.268107e-05	
128	6.400000e+00	2.252834e-05	
129	6.450000e+00	2.237886e-05	
130	6.500000e+00	2.223253e-05	
131	6.550000e+00	2.208927e-05	
132	6.600000e+00	2.194897e-05	
Reset re-loads circuit ***************************

Circuit: ***************************

Doing analysis at TEMP = 25.000000 and TNOM = 25.000000


No. of Data Rows : 133
                          ***************************
                          DC transfer characteristic  Mon Jan  9 13:58:38  2023
--------------------------------------------------------------------------------
Index   v-sweep         rds             
--------------------------------------------------------------------------------
0	0.000000e+00	2.926704e-03	
1	5.000000e-02	2.837171e-03	
2	1.000000e-01	2.749772e-03	
3	1.500000e-01	2.664450e-03	
4	2.000000e-01	2.581149e-03	
5	2.500000e-01	2.499812e-03	
6	3.000000e-01	2.420385e-03	
7	3.500000e-01	2.342813e-03	
8	4.000000e-01	2.267042e-03	
9	4.500000e-01	2.193017e-03	
10	5.000000e-01	2.120686e-03	
11	5.500000e-01	2.049996e-03	
12	6.000000e-01	1.980895e-03	
13	6.500000e-01	1.913335e-03	
14	7.000000e-01	1.847267e-03	
15	7.500000e-01	1.782645e-03	
16	8.000000e-01	1.719424e-03	
17	8.500000e-01	1.657563e-03	
18	9.000000e-01	1.597022e-03	
19	9.500000e-01	1.537763e-03	
20	1.000000e+00	1.479750e-03	
21	1.050000e+00	1.422948e-03	
22	1.100000e+00	1.367324e-03	
23	1.150000e+00	1.312843e-03	
24	1.200000e+00	1.259472e-03	
25	1.250000e+00	1.207173e-03	
26	1.300000e+00	1.155905e-03	
27	1.350000e+00	1.105617e-03	
28	1.400000e+00	1.056248e-03	
29	1.450000e+00	1.007714e-03	
30	1.500000e+00	9.599006e-04	
31	1.550000e+00	9.126431e-04	
32	1.600000e+00	8.657027e-04	
33	1.650000e+00	8.187294e-04	
34	1.700000e+00	7.712195e-04	
35	1.750000e+00	7.224886e-04	
36	1.800000e+00	6.717183e-04	
37	1.850000e+00	6.181923e-04	
38	1.900000e+00	5.618135e-04	
39	1.950000e+00	5.037142e-04	
40	2.000000e+00	4.463463e-04	
41	2.050000e+00	3.926283e-04	
42	2.100000e+00	3.447457e-04	
43	2.150000e+00	3.035833e-04	
44	2.200000e+00	2.689449e-04	
45	2.250000e+00	2.400617e-04	
46	2.300000e+00	2.159973e-04	
47	2.350000e+00	1.958642e-04	
48	2.400000e+00	1.789049e-04	
49	2.450000e+00	1.645040e-04	
50	2.500000e+00	1.521726e-04	
51	2.550000e+00	1.415259e-04	
52	2.600000e+00	1.322610e-04	
53	2.650000e+00	1.241389e-04	
54	2.700000e+00	1.169696e-04	

Index   v-sweep         rds             
--------------------------------------------------------------------------------
55	2.750000e+00	1.106011e-04	
56	2.800000e+00	1.049108e-04	
57	2.850000e+00	9.979910e-05	
58	2.900000e+00	9.518437e-05	
59	2.950000e+00	9.099925e-05	
60	3.000000e+00	8.718776e-05	
61	3.050000e+00	8.370300e-05	
62	3.100000e+00	8.050548e-05	
63	3.150000e+00	7.756168e-05	
64	3.200000e+00	7.484305e-05	
65	3.250000e+00	7.232509e-05	
66	3.300000e+00	6.998668e-05	
67	3.350000e+00	6.780952e-05	
68	3.400000e+00	6.577770e-05	
69	3.450000e+00	6.387730e-05	
70	3.500000e+00	6.209611e-05	
71	3.550000e+00	6.042338e-05	
72	3.600000e+00	5.884958e-05	
73	3.650000e+00	5.736627e-05	
74	3.700000e+00	5.596595e-05	
75	3.750000e+00	5.464189e-05	
76	3.800000e+00	5.338809e-05	
77	3.850000e+00	5.219913e-05	
78	3.900000e+00	5.107016e-05	
79	3.950000e+00	4.999678e-05	
80	4.000000e+00	4.897502e-05	
81	4.050000e+00	4.800126e-05	
82	4.100000e+00	4.707222e-05	
83	4.150000e+00	4.618491e-05	
84	4.200000e+00	4.533660e-05	
85	4.250000e+00	4.452479e-05	
86	4.300000e+00	4.374719e-05	
87	4.350000e+00	4.300170e-05	
88	4.400000e+00	4.228636e-05	
89	4.450000e+00	4.159942e-05	
90	4.500000e+00	4.093921e-05	
91	4.550000e+00	4.030421e-05	
92	4.600000e+00	3.969302e-05	
93	4.650000e+00	3.910434e-05	
94	4.700000e+00	3.853693e-05	
95	4.750000e+00	3.798969e-05	
96	4.800000e+00	3.746156e-05	
97	4.850000e+00	3.695157e-05	
98	4.900000e+00	3.645879e-05	
99	4.950000e+00	3.598239e-05	
100	5.000000e+00	3.552155e-05	
101	5.050000e+00	3.507555e-05	
102	5.100000e+00	3.464367e-05	
103	5.150000e+00	3.422527e-05	
104	5.200000e+00	3.381973e-05	
105	5.250000e+00	3.342647e-05	
106	5.300000e+00	3.304494e-05	
107	5.350000e+00	3.267464e-05	
108	5.400000e+00	3.231507e-05	
109	5.450000e+00	3.196580e-05	
110	5.500000e+00	3.162638e-05	
111	5.550000e+00	3.129641e-05	
112	5.600000e+00	3.097552e-05	

Index   v-sweep         rds             
--------------------------------------------------------------------------------
113	5.650000e+00	3.066332e-05	
114	5.700000e+00	3.035949e-05	
115	5.750000e+00	3.006370e-05	
116	5.800000e+00	2.977563e-05	
117	5.850000e+00	2.949500e-05	
118	5.900000e+00	2.922152e-05	
119	5.950000e+00	2.895494e-05	
120	6.000000e+00	2.869501e-05	
121	6.050000e+00	2.844147e-05	
122	6.100000e+00	2.819411e-05	
123	6.150000e+00	2.795272e-05	
124	6.200000e+00	2.771707e-05	
125	6.250000e+00	2.748699e-05	
126	6.300000e+00	2.726227e-05	
127	6.350000e+00	2.704275e-05	
128	6.400000e+00	2.682824e-05	
129	6.450000e+00	2.661860e-05	
130	6.500000e+00	2.641365e-05	
131	6.550000e+00	2.621325e-05	
132	6.600000e+00	2.601726e-05	
Reset re-loads circuit ***************************

Circuit: ***************************

Note: No ".plot", ".print", or ".fourier" lines; no simulations run
