
Note: Compatibility modes selected: hs

Warning: m=xx on .subckt line will override multiplier m hierarchy!


Circuit: ***************************

Doing analysis at TEMP = 125.000000 and TNOM = 125.000000


No. of Data Rows : 133
                          ***************************
                          DC transfer characteristic  Mon Jan  9 13:58:39  2023
--------------------------------------------------------------------------------
Index   v-sweep         rds             
--------------------------------------------------------------------------------
0	0.000000e+00	3.096332e-05	
1	5.000000e-02	2.669180e-05	
2	1.000000e-01	2.244961e-05	
3	1.500000e-01	1.824575e-05	
4	2.000000e-01	1.410324e-05	
5	2.500000e-01	1.008609e-05	
6	3.000000e-01	6.376294e-06	
7	3.500000e-01	3.392139e-06	
8	4.000000e-01	1.571373e-06	
9	4.500000e-01	7.440011e-07	
10	5.000000e-01	4.074358e-07	
11	5.500000e-01	2.617226e-07	
12	6.000000e-01	1.906550e-07	
13	6.500000e-01	1.517648e-07	
14	7.000000e-01	1.283433e-07	
15	7.500000e-01	1.131160e-07	
16	8.000000e-01	1.025967e-07	
17	8.500000e-01	9.496974e-08	
18	9.000000e-01	8.922052e-08	
19	9.500000e-01	8.474751e-08	
20	1.000000e+00	8.117574e-08	
21	1.050000e+00	7.826130e-08	
22	1.100000e+00	7.583965e-08	
23	1.150000e+00	7.379624e-08	
24	1.200000e+00	7.204909e-08	
25	1.250000e+00	7.053815e-08	
26	1.300000e+00	6.921846e-08	
27	1.350000e+00	6.805577e-08	
28	1.400000e+00	6.702349e-08	
29	1.450000e+00	6.610074e-08	
30	1.500000e+00	6.527086e-08	
31	1.550000e+00	6.452041e-08	
32	1.600000e+00	6.383843e-08	
33	1.650000e+00	6.321589e-08	
34	1.700000e+00	6.264530e-08	
35	1.750000e+00	6.212036e-08	
36	1.800000e+00	6.163577e-08	
37	1.850000e+00	6.118701e-08	
38	1.900000e+00	6.077024e-08	
39	1.950000e+00	6.038212e-08	
40	2.000000e+00	6.001978e-08	
41	2.050000e+00	5.968073e-08	
42	2.100000e+00	5.936277e-08	
43	2.150000e+00	5.906398e-08	
44	2.200000e+00	5.878268e-08	
45	2.250000e+00	5.851736e-08	
46	2.300000e+00	5.826670e-08	
47	2.350000e+00	5.802951e-08	
48	2.400000e+00	5.780472e-08	
49	2.450000e+00	5.759140e-08	
50	2.500000e+00	5.738867e-08	
51	2.550000e+00	5.719577e-08	
52	2.600000e+00	5.701200e-08	
53	2.650000e+00	5.683672e-08	
54	2.700000e+00	5.666936e-08	

Index   v-sweep         rds             
--------------------------------------------------------------------------------
55	2.750000e+00	5.650939e-08	
56	2.800000e+00	5.635634e-08	
57	2.850000e+00	5.620976e-08	
58	2.900000e+00	5.606925e-08	
59	2.950000e+00	5.593445e-08	
60	3.000000e+00	5.580501e-08	
61	3.050000e+00	5.568061e-08	
62	3.100000e+00	5.556098e-08	
63	3.150000e+00	5.544584e-08	
64	3.200000e+00	5.533494e-08	
65	3.250000e+00	5.522805e-08	
66	3.300000e+00	5.512497e-08	
67	3.350000e+00	5.502549e-08	
68	3.400000e+00	5.492942e-08	
69	3.450000e+00	5.483660e-08	
70	3.500000e+00	5.474686e-08	
71	3.550000e+00	5.466006e-08	
72	3.600000e+00	5.457604e-08	
73	3.650000e+00	5.449469e-08	
74	3.700000e+00	5.441587e-08	
75	3.750000e+00	5.433947e-08	
76	3.800000e+00	5.426538e-08	
77	3.850000e+00	5.419350e-08	
78	3.900000e+00	5.412374e-08	
79	3.950000e+00	5.405599e-08	
80	4.000000e+00	5.399017e-08	
81	4.050000e+00	5.392621e-08	
82	4.100000e+00	5.386402e-08	
83	4.150000e+00	5.380354e-08	
84	4.200000e+00	5.374469e-08	
85	4.250000e+00	5.368742e-08	
86	4.300000e+00	5.363165e-08	
87	4.350000e+00	5.357733e-08	
88	4.400000e+00	5.352440e-08	
89	4.450000e+00	5.347282e-08	
90	4.500000e+00	5.342253e-08	
91	4.550000e+00	5.337349e-08	
92	4.600000e+00	5.332564e-08	
93	4.650000e+00	5.327895e-08	
94	4.700000e+00	5.323337e-08	
95	4.750000e+00	5.318887e-08	
96	4.800000e+00	5.314541e-08	
97	4.850000e+00	5.310296e-08	
98	4.900000e+00	5.306147e-08	
99	4.950000e+00	5.302092e-08	
100	5.000000e+00	5.298127e-08	
101	5.050000e+00	5.294250e-08	
102	5.100000e+00	5.290458e-08	
103	5.150000e+00	5.286747e-08	
104	5.200000e+00	5.283117e-08	
105	5.250000e+00	5.279563e-08	
106	5.300000e+00	5.276083e-08	
107	5.350000e+00	5.272676e-08	
108	5.400000e+00	5.269339e-08	
109	5.450000e+00	5.266070e-08	
110	5.500000e+00	5.262866e-08	
111	5.550000e+00	5.259727e-08	
112	5.600000e+00	5.256650e-08	

Index   v-sweep         rds             
--------------------------------------------------------------------------------
113	5.650000e+00	5.253633e-08	
114	5.700000e+00	5.250674e-08	
115	5.750000e+00	5.247773e-08	
116	5.800000e+00	5.244926e-08	
117	5.850000e+00	5.242134e-08	
118	5.900000e+00	5.239393e-08	
119	5.950000e+00	5.236704e-08	
120	6.000000e+00	5.234064e-08	
121	6.050000e+00	5.231472e-08	
122	6.100000e+00	5.228926e-08	
123	6.150000e+00	5.226427e-08	
124	6.200000e+00	5.223971e-08	
125	6.250000e+00	5.221559e-08	
126	6.300000e+00	5.219189e-08	
127	6.350000e+00	5.216860e-08	
128	6.400000e+00	5.214571e-08	
129	6.450000e+00	5.212322e-08	
130	6.500000e+00	5.210110e-08	
131	6.550000e+00	5.207935e-08	
132	6.600000e+00	5.205796e-08	
Reset re-loads circuit ***************************

Circuit: ***************************

Doing analysis at TEMP = 125.000000 and TNOM = 125.000000


No. of Data Rows : 133
                          ***************************
                          DC transfer characteristic  Mon Jan  9 13:58:39  2023
--------------------------------------------------------------------------------
Index   v-sweep         rds             
--------------------------------------------------------------------------------
0	0.000000e+00	9.496789e-05	
1	5.000000e-02	9.049285e-05	
2	1.000000e-01	8.604106e-05	
3	1.500000e-01	8.161241e-05	
4	2.000000e-01	7.720680e-05	
5	2.500000e-01	7.282415e-05	
6	3.000000e-01	6.846441e-05	
7	3.500000e-01	6.412756e-05	
8	4.000000e-01	5.981367e-05	
9	4.500000e-01	5.552286e-05	
10	5.000000e-01	5.125541e-05	
11	5.500000e-01	4.701183e-05	
12	6.000000e-01	4.279301e-05	
13	6.500000e-01	3.860048e-05	
14	7.000000e-01	3.443695e-05	
15	7.500000e-01	3.030729e-05	
16	8.000000e-01	2.622051e-05	
17	8.500000e-01	2.219380e-05	
18	9.000000e-01	1.826043e-05	
19	9.500000e-01	1.448435e-05	
20	1.000000e+00	1.098015e-05	
21	1.050000e+00	7.919597e-06	
22	1.100000e+00	5.479421e-06	
23	1.150000e+00	3.728356e-06	
24	1.200000e+00	2.575258e-06	
25	1.250000e+00	1.847602e-06	
26	1.300000e+00	1.388817e-06	
27	1.350000e+00	1.092201e-06	
28	1.400000e+00	8.933623e-07	
29	1.450000e+00	7.548697e-07	
30	1.500000e+00	6.548663e-07	
31	1.550000e+00	5.802859e-07	
32	1.600000e+00	5.230724e-07	
33	1.650000e+00	4.780950e-07	
34	1.700000e+00	4.419819e-07	
35	1.750000e+00	4.124513e-07	
36	1.800000e+00	3.879173e-07	
37	1.850000e+00	3.672505e-07	
38	1.900000e+00	3.496292e-07	
39	1.950000e+00	3.344433e-07	
40	2.000000e+00	3.212319e-07	
41	2.050000e+00	3.096413e-07	
42	2.100000e+00	2.993960e-07	
43	2.150000e+00	2.902783e-07	
44	2.200000e+00	2.821146e-07	
45	2.250000e+00	2.747646e-07	
46	2.300000e+00	2.681139e-07	
47	2.350000e+00	2.620684e-07	
48	2.400000e+00	2.565498e-07	
49	2.450000e+00	2.514929e-07	
50	2.500000e+00	2.468424e-07	
51	2.550000e+00	2.425517e-07	
52	2.600000e+00	2.385808e-07	
53	2.650000e+00	2.348956e-07	
54	2.700000e+00	2.314664e-07	

Index   v-sweep         rds             
--------------------------------------------------------------------------------
55	2.750000e+00	2.282677e-07	
56	2.800000e+00	2.252770e-07	
57	2.850000e+00	2.224748e-07	
58	2.900000e+00	2.198439e-07	
59	2.950000e+00	2.173692e-07	
60	3.000000e+00	2.150372e-07	
61	3.050000e+00	2.128359e-07	
62	3.100000e+00	2.107548e-07	
63	3.150000e+00	2.087842e-07	
64	3.200000e+00	2.069155e-07	
65	3.250000e+00	2.051413e-07	
66	3.300000e+00	2.034543e-07	
67	3.350000e+00	2.018485e-07	
68	3.400000e+00	2.003181e-07	
69	3.450000e+00	1.988579e-07	
70	3.500000e+00	1.974632e-07	
71	3.550000e+00	1.961298e-07	
72	3.600000e+00	1.948536e-07	
73	3.650000e+00	1.936311e-07	
74	3.700000e+00	1.924590e-07	
75	3.750000e+00	1.913342e-07	
76	3.800000e+00	1.902539e-07	
77	3.850000e+00	1.892155e-07	
78	3.900000e+00	1.882167e-07	
79	3.950000e+00	1.872553e-07	
80	4.000000e+00	1.863291e-07	
81	4.050000e+00	1.854364e-07	
82	4.100000e+00	1.845752e-07	
83	4.150000e+00	1.837440e-07	
84	4.200000e+00	1.829413e-07	
85	4.250000e+00	1.821655e-07	
86	4.300000e+00	1.814154e-07	
87	4.350000e+00	1.806898e-07	
88	4.400000e+00	1.799874e-07	
89	4.450000e+00	1.793071e-07	
90	4.500000e+00	1.786480e-07	
91	4.550000e+00	1.780090e-07	
92	4.600000e+00	1.773893e-07	
93	4.650000e+00	1.767880e-07	
94	4.700000e+00	1.762042e-07	
95	4.750000e+00	1.756373e-07	
96	4.800000e+00	1.750865e-07	
97	4.850000e+00	1.745512e-07	
98	4.900000e+00	1.740306e-07	
99	4.950000e+00	1.735243e-07	
100	5.000000e+00	1.730316e-07	
101	5.050000e+00	1.725519e-07	
102	5.100000e+00	1.720849e-07	
103	5.150000e+00	1.716299e-07	
104	5.200000e+00	1.711866e-07	
105	5.250000e+00	1.707544e-07	
106	5.300000e+00	1.703330e-07	
107	5.350000e+00	1.699220e-07	
108	5.400000e+00	1.695210e-07	
109	5.450000e+00	1.691296e-07	
110	5.500000e+00	1.687475e-07	
111	5.550000e+00	1.683744e-07	
112	5.600000e+00	1.680099e-07	

Index   v-sweep         rds             
--------------------------------------------------------------------------------
113	5.650000e+00	1.676539e-07	
114	5.700000e+00	1.673058e-07	
115	5.750000e+00	1.669656e-07	
116	5.800000e+00	1.666330e-07	
117	5.850000e+00	1.663076e-07	
118	5.900000e+00	1.659893e-07	
119	5.950000e+00	1.656779e-07	
120	6.000000e+00	1.653731e-07	
121	6.050000e+00	1.650747e-07	
122	6.100000e+00	1.647825e-07	
123	6.150000e+00	1.644963e-07	
124	6.200000e+00	1.642160e-07	
125	6.250000e+00	1.639413e-07	
126	6.300000e+00	1.636721e-07	
127	6.350000e+00	1.634083e-07	
128	6.400000e+00	1.631496e-07	
129	6.450000e+00	1.628960e-07	
130	6.500000e+00	1.626472e-07	
131	6.550000e+00	1.624032e-07	
132	6.600000e+00	1.621638e-07	
Reset re-loads circuit ***************************

Circuit: ***************************

Doing analysis at TEMP = 125.000000 and TNOM = 125.000000


No. of Data Rows : 133
                          ***************************
                          DC transfer characteristic  Mon Jan  9 13:58:39  2023
--------------------------------------------------------------------------------
Index   v-sweep         rds             
--------------------------------------------------------------------------------
0	0.000000e+00	1.477800e-04	
1	5.000000e-02	1.435220e-04	
2	1.000000e-01	1.392853e-04	
3	1.500000e-01	1.350698e-04	
4	2.000000e-01	1.308755e-04	
5	2.500000e-01	1.267021e-04	
6	3.000000e-01	1.225495e-04	
7	3.500000e-01	1.184176e-04	
8	4.000000e-01	1.143063e-04	
9	4.500000e-01	1.102155e-04	
10	5.000000e-01	1.061449e-04	
11	5.500000e-01	1.020946e-04	
12	6.000000e-01	9.806432e-05	
13	6.500000e-01	9.405401e-05	
14	7.000000e-01	9.006353e-05	
15	7.500000e-01	8.609278e-05	
16	8.000000e-01	8.214164e-05	
17	8.500000e-01	7.821001e-05	
18	9.000000e-01	7.429781e-05	
19	9.500000e-01	7.040494e-05	
20	1.000000e+00	6.653135e-05	
21	1.050000e+00	6.267700e-05	
22	1.100000e+00	5.884189e-05	
23	1.150000e+00	5.502609e-05	
24	1.200000e+00	5.122978e-05	
25	1.250000e+00	4.745331e-05	
26	1.300000e+00	4.369732e-05	
27	1.350000e+00	3.996296e-05	
28	1.400000e+00	3.625229e-05	
29	1.450000e+00	3.256898e-05	
30	1.500000e+00	2.891965e-05	
31	1.550000e+00	2.531635e-05	
32	1.600000e+00	2.178080e-05	
33	1.650000e+00	1.835119e-05	
34	1.700000e+00	1.509039e-05	
35	1.750000e+00	1.208980e-05	
36	1.800000e+00	9.456524e-06	
37	1.850000e+00	7.276775e-06	
38	1.900000e+00	5.575396e-06	
39	1.950000e+00	4.307561e-06	
40	2.000000e+00	3.387645e-06	
41	2.050000e+00	2.725102e-06	
42	2.100000e+00	2.244696e-06	
43	2.150000e+00	1.891051e-06	
44	2.200000e+00	1.625716e-06	
45	2.250000e+00	1.422592e-06	
46	2.300000e+00	1.264008e-06	
47	2.350000e+00	1.137899e-06	
48	2.400000e+00	1.035913e-06	
49	2.450000e+00	9.521707e-07	
50	2.500000e+00	8.824606e-07	
51	2.550000e+00	8.237150e-07	
52	2.600000e+00	7.736614e-07	
53	2.650000e+00	7.305901e-07	
54	2.700000e+00	6.931963e-07	

Index   v-sweep         rds             
--------------------------------------------------------------------------------
55	2.750000e+00	6.604699e-07	
56	2.800000e+00	6.316199e-07	
57	2.850000e+00	6.060192e-07	
58	2.900000e+00	5.831652e-07	
59	2.950000e+00	5.626514e-07	
60	3.000000e+00	5.441458e-07	
61	3.050000e+00	5.273748e-07	
62	3.100000e+00	5.121114e-07	
63	3.150000e+00	4.981658e-07	
64	3.200000e+00	4.853781e-07	
65	3.250000e+00	4.736127e-07	
66	3.300000e+00	4.627543e-07	
67	3.350000e+00	4.527037e-07	
68	3.400000e+00	4.433756e-07	
69	3.450000e+00	4.346961e-07	
70	3.500000e+00	4.266009e-07	
71	3.550000e+00	4.190339e-07	
72	3.600000e+00	4.119457e-07	
73	3.650000e+00	4.052929e-07	
74	3.700000e+00	3.990372e-07	
75	3.750000e+00	3.931444e-07	
76	3.800000e+00	3.875842e-07	
77	3.850000e+00	3.823297e-07	
78	3.900000e+00	3.773565e-07	
79	3.950000e+00	3.726429e-07	
80	4.000000e+00	3.681693e-07	
81	4.050000e+00	3.639181e-07	
82	4.100000e+00	3.598731e-07	
83	4.150000e+00	3.560199e-07	
84	4.200000e+00	3.523453e-07	
85	4.250000e+00	3.488373e-07	
86	4.300000e+00	3.454849e-07	
87	4.350000e+00	3.422780e-07	
88	4.400000e+00	3.392074e-07	
89	4.450000e+00	3.362648e-07	
90	4.500000e+00	3.334423e-07	
91	4.550000e+00	3.307328e-07	
92	4.600000e+00	3.281296e-07	
93	4.650000e+00	3.256268e-07	
94	4.700000e+00	3.232186e-07	
95	4.750000e+00	3.208998e-07	
96	4.800000e+00	3.186655e-07	
97	4.850000e+00	3.165113e-07	
98	4.900000e+00	3.144329e-07	
99	4.950000e+00	3.124265e-07	
100	5.000000e+00	3.104883e-07	
101	5.050000e+00	3.086150e-07	
102	5.100000e+00	3.068035e-07	
103	5.150000e+00	3.050506e-07	
104	5.200000e+00	3.033536e-07	
105	5.250000e+00	3.017100e-07	
106	5.300000e+00	3.001172e-07	
107	5.350000e+00	2.985730e-07	
108	5.400000e+00	2.970751e-07	
109	5.450000e+00	2.956215e-07	
110	5.500000e+00	2.942103e-07	
111	5.550000e+00	2.928397e-07	
112	5.600000e+00	2.915079e-07	

Index   v-sweep         rds             
--------------------------------------------------------------------------------
113	5.650000e+00	2.902134e-07	
114	5.700000e+00	2.889546e-07	
115	5.750000e+00	2.877301e-07	
116	5.800000e+00	2.865384e-07	
117	5.850000e+00	2.853783e-07	
118	5.900000e+00	2.842486e-07	
119	5.950000e+00	2.831481e-07	
120	6.000000e+00	2.820756e-07	
121	6.050000e+00	2.810302e-07	
122	6.100000e+00	2.800108e-07	
123	6.150000e+00	2.790164e-07	
124	6.200000e+00	2.780462e-07	
125	6.250000e+00	2.770993e-07	
126	6.300000e+00	2.761749e-07	
127	6.350000e+00	2.752721e-07	
128	6.400000e+00	2.743903e-07	
129	6.450000e+00	2.735287e-07	
130	6.500000e+00	2.726867e-07	
131	6.550000e+00	2.718635e-07	
132	6.600000e+00	2.710586e-07	
Reset re-loads circuit ***************************

Circuit: ***************************

Doing analysis at TEMP = 125.000000 and TNOM = 125.000000


No. of Data Rows : 133
                          ***************************
                          DC transfer characteristic  Mon Jan  9 13:58:39  2023
--------------------------------------------------------------------------------
Index   v-sweep         rds             
--------------------------------------------------------------------------------
0	0.000000e+00	1.897433e-04	
1	5.000000e-02	1.858061e-04	
2	1.000000e-01	1.818874e-04	
3	1.500000e-01	1.779871e-04	
4	2.000000e-01	1.741052e-04	
5	2.500000e-01	1.702413e-04	
6	3.000000e-01	1.663956e-04	
7	3.500000e-01	1.625678e-04	
8	4.000000e-01	1.587579e-04	
9	4.500000e-01	1.549657e-04	
10	5.000000e-01	1.511912e-04	
11	5.500000e-01	1.474342e-04	
12	6.000000e-01	1.436946e-04	
13	6.500000e-01	1.399723e-04	
14	7.000000e-01	1.362673e-04	
15	7.500000e-01	1.325794e-04	
16	8.000000e-01	1.289084e-04	
17	8.500000e-01	1.252544e-04	
18	9.000000e-01	1.216172e-04	
19	9.500000e-01	1.179967e-04	
20	1.000000e+00	1.143928e-04	
21	1.050000e+00	1.108054e-04	
22	1.100000e+00	1.072343e-04	
23	1.150000e+00	1.036795e-04	
24	1.200000e+00	1.001409e-04	
25	1.250000e+00	9.661838e-05	
26	1.300000e+00	9.311177e-05	
27	1.350000e+00	8.962100e-05	
28	1.400000e+00	8.614595e-05	
29	1.450000e+00	8.268648e-05	
30	1.500000e+00	7.924248e-05	
31	1.550000e+00	7.581380e-05	
32	1.600000e+00	7.240030e-05	
33	1.650000e+00	6.900183e-05	
34	1.700000e+00	6.561822e-05	
35	1.750000e+00	6.224929e-05	
36	1.800000e+00	5.889485e-05	
37	1.850000e+00	5.555470e-05	
38	1.900000e+00	5.222864e-05	
39	1.950000e+00	4.891649e-05	
40	2.000000e+00	4.561814e-05	
41	2.050000e+00	4.233362e-05	
42	2.100000e+00	3.906331e-05	
43	2.150000e+00	3.580822e-05	
44	2.200000e+00	3.257065e-05	
45	2.250000e+00	2.935534e-05	
46	2.300000e+00	2.617140e-05	
47	2.350000e+00	2.303560e-05	
48	2.400000e+00	1.997685e-05	
49	2.450000e+00	1.704086e-05	
50	2.500000e+00	1.429125e-05	
51	2.550000e+00	1.180164e-05	
52	2.600000e+00	9.636689e-06	
53	2.650000e+00	7.830344e-06	
54	2.700000e+00	6.375942e-06	

Index   v-sweep         rds             
--------------------------------------------------------------------------------
55	2.750000e+00	5.233988e-06	
56	2.800000e+00	4.349307e-06	
57	2.850000e+00	3.666136e-06	
58	2.900000e+00	3.136339e-06	
59	2.950000e+00	2.721787e-06	
60	3.000000e+00	2.393649e-06	
61	3.050000e+00	2.130609e-06	
62	3.100000e+00	1.917038e-06	
63	3.150000e+00	1.741465e-06	
64	3.200000e+00	1.595422e-06	
65	3.250000e+00	1.472605e-06	
66	3.300000e+00	1.368268e-06	
67	3.350000e+00	1.278803e-06	
68	3.400000e+00	1.201433e-06	
69	3.450000e+00	1.133997e-06	
70	3.500000e+00	1.074799e-06	
71	3.550000e+00	1.022491e-06	
72	3.600000e+00	9.759905e-07	
73	3.650000e+00	9.344246e-07	
74	3.700000e+00	8.970795e-07	
75	3.750000e+00	8.633686e-07	
76	3.800000e+00	8.328057e-07	
77	3.850000e+00	8.049850e-07	
78	3.900000e+00	7.795658e-07	
79	3.950000e+00	7.562598e-07	
80	4.000000e+00	7.348222e-07	
81	4.050000e+00	7.150433e-07	
82	4.100000e+00	6.967433e-07	
83	4.150000e+00	6.797666e-07	
84	4.200000e+00	6.639785e-07	
85	4.250000e+00	6.492613e-07	
86	4.300000e+00	6.355122e-07	
87	4.350000e+00	6.226409e-07	
88	4.400000e+00	6.105678e-07	
89	4.450000e+00	5.992224e-07	
90	4.500000e+00	5.885421e-07	
91	4.550000e+00	5.784714e-07	
92	4.600000e+00	5.689603e-07	
93	4.650000e+00	5.599645e-07	
94	4.700000e+00	5.514438e-07	
95	4.750000e+00	5.433622e-07	
96	4.800000e+00	5.356872e-07	
97	4.850000e+00	5.283893e-07	
98	4.900000e+00	5.214418e-07	
99	4.950000e+00	5.148206e-07	
100	5.000000e+00	5.085033e-07	
101	5.050000e+00	5.024700e-07	
102	5.100000e+00	4.967021e-07	
103	5.150000e+00	4.911827e-07	
104	5.200000e+00	4.858963e-07	
105	5.250000e+00	4.808286e-07	
106	5.300000e+00	4.759666e-07	
107	5.350000e+00	4.712981e-07	
108	5.400000e+00	4.668118e-07	
109	5.450000e+00	4.624975e-07	
110	5.500000e+00	4.583456e-07	
111	5.550000e+00	4.543471e-07	
112	5.600000e+00	4.504939e-07	

Index   v-sweep         rds             
--------------------------------------------------------------------------------
113	5.650000e+00	4.467781e-07	
114	5.700000e+00	4.431928e-07	
115	5.750000e+00	4.397311e-07	
116	5.800000e+00	4.363869e-07	
117	5.850000e+00	4.331543e-07	
118	5.900000e+00	4.300279e-07	
119	5.950000e+00	4.270026e-07	
120	6.000000e+00	4.240736e-07	
121	6.050000e+00	4.212365e-07	
122	6.100000e+00	4.184870e-07	
123	6.150000e+00	4.158212e-07	
124	6.200000e+00	4.132352e-07	
125	6.250000e+00	4.107258e-07	
126	6.300000e+00	4.082894e-07	
127	6.350000e+00	4.059230e-07	
128	6.400000e+00	4.036237e-07	
129	6.450000e+00	4.013886e-07	
130	6.500000e+00	3.992152e-07	
131	6.550000e+00	3.971009e-07	
132	6.600000e+00	3.950433e-07	
Reset re-loads circuit ***************************

Circuit: ***************************

Doing analysis at TEMP = 125.000000 and TNOM = 125.000000


No. of Data Rows : 133
                          ***************************
                          DC transfer characteristic  Mon Jan  9 13:58:40  2023
--------------------------------------------------------------------------------
Index   v-sweep         rds             
--------------------------------------------------------------------------------
0	0.000000e+00	2.213621e-04	
1	5.000000e-02	2.177903e-04	
2	1.000000e-01	2.142340e-04	
3	1.500000e-01	2.106930e-04	
4	2.000000e-01	2.071673e-04	
5	2.500000e-01	2.036569e-04	
6	3.000000e-01	2.001615e-04	
7	3.500000e-01	1.966811e-04	
8	4.000000e-01	1.932157e-04	
9	4.500000e-01	1.897652e-04	
10	5.000000e-01	1.863295e-04	
11	5.500000e-01	1.829084e-04	
12	6.000000e-01	1.795020e-04	
13	6.500000e-01	1.761101e-04	
14	7.000000e-01	1.727327e-04	
15	7.500000e-01	1.693697e-04	
16	8.000000e-01	1.660210e-04	
17	8.500000e-01	1.626865e-04	
18	9.000000e-01	1.593661e-04	
19	9.500000e-01	1.560598e-04	
20	1.000000e+00	1.527675e-04	
21	1.050000e+00	1.494891e-04	
22	1.100000e+00	1.462245e-04	
23	1.150000e+00	1.429737e-04	
24	1.200000e+00	1.397365e-04	
25	1.250000e+00	1.365130e-04	
26	1.300000e+00	1.333030e-04	
27	1.350000e+00	1.301064e-04	
28	1.400000e+00	1.269232e-04	
29	1.450000e+00	1.237532e-04	
30	1.500000e+00	1.205965e-04	
31	1.550000e+00	1.174529e-04	
32	1.600000e+00	1.143223e-04	
33	1.650000e+00	1.112047e-04	
34	1.700000e+00	1.080999e-04	
35	1.750000e+00	1.050079e-04	
36	1.800000e+00	1.019287e-04	
37	1.850000e+00	9.886200e-05	
38	1.900000e+00	9.580784e-05	
39	1.950000e+00	9.276607e-05	
40	2.000000e+00	8.973660e-05	
41	2.050000e+00	8.671931e-05	
42	2.100000e+00	8.371406e-05	
43	2.150000e+00	8.072073e-05	
44	2.200000e+00	7.773916e-05	
45	2.250000e+00	7.476918e-05	
46	2.300000e+00	7.181061e-05	
47	2.350000e+00	6.886321e-05	
48	2.400000e+00	6.592676e-05	
49	2.450000e+00	6.300094e-05	
50	2.500000e+00	6.008542e-05	
51	2.550000e+00	5.717981e-05	
52	2.600000e+00	5.428362e-05	
53	2.650000e+00	5.139630e-05	
54	2.700000e+00	4.851721e-05	

Index   v-sweep         rds             
--------------------------------------------------------------------------------
55	2.750000e+00	4.564563e-05	
56	2.800000e+00	4.278077e-05	
57	2.850000e+00	3.992190e-05	
58	2.900000e+00	3.706847e-05	
59	2.950000e+00	3.422051e-05	
60	3.000000e+00	3.137934e-05	
61	3.050000e+00	2.854873e-05	
62	3.100000e+00	2.573694e-05	
63	3.150000e+00	2.295957e-05	
64	3.200000e+00	2.024292e-05	
65	3.250000e+00	1.762641e-05	
66	3.300000e+00	1.516130e-05	
67	3.350000e+00	1.290324e-05	
68	3.400000e+00	1.089947e-05	
69	3.450000e+00	9.176382e-06	
70	3.500000e+00	7.734271e-06	
71	3.550000e+00	6.551341e-06	
72	3.600000e+00	5.592870e-06	
73	3.650000e+00	4.820308e-06	
74	3.700000e+00	4.197370e-06	
75	3.750000e+00	3.692910e-06	
76	3.800000e+00	3.281592e-06	
77	3.850000e+00	2.943435e-06	
78	3.900000e+00	2.662929e-06	
79	3.950000e+00	2.428116e-06	
80	4.000000e+00	2.229786e-06	
81	4.050000e+00	2.060825e-06	
82	4.100000e+00	1.915704e-06	
83	4.150000e+00	1.790101e-06	
84	4.200000e+00	1.680612e-06	
85	4.250000e+00	1.584530e-06	
86	4.300000e+00	1.499692e-06	
87	4.350000e+00	1.424349e-06	
88	4.400000e+00	1.357083e-06	
89	4.450000e+00	1.296729e-06	
90	4.500000e+00	1.242327e-06	
91	4.550000e+00	1.193082e-06	
92	4.600000e+00	1.148325e-06	
93	4.650000e+00	1.107497e-06	
94	4.700000e+00	1.070124e-06	
95	4.750000e+00	1.035803e-06	
96	4.800000e+00	1.004188e-06	
97	4.850000e+00	9.749829e-07	
98	4.900000e+00	9.479323e-07	
99	4.950000e+00	9.228142e-07	
100	5.000000e+00	8.994352e-07	
101	5.050000e+00	8.776263e-07	
102	5.100000e+00	8.572394e-07	
103	5.150000e+00	8.381436e-07	
104	5.200000e+00	8.202235e-07	
105	5.250000e+00	8.033767e-07	
106	5.300000e+00	7.875121e-07	
107	5.350000e+00	7.725483e-07	
108	5.400000e+00	7.584126e-07	
109	5.450000e+00	7.450397e-07	
110	5.500000e+00	7.323710e-07	
111	5.550000e+00	7.203533e-07	
112	5.600000e+00	7.089390e-07	

Index   v-sweep         rds             
--------------------------------------------------------------------------------
113	5.650000e+00	6.980846e-07	
114	5.700000e+00	6.877506e-07	
115	5.750000e+00	6.779014e-07	
116	5.800000e+00	6.685042e-07	
117	5.850000e+00	6.595292e-07	
118	5.900000e+00	6.509490e-07	
119	5.950000e+00	6.427387e-07	
120	6.000000e+00	6.348752e-07	
121	6.050000e+00	6.273373e-07	
122	6.100000e+00	6.201057e-07	
123	6.150000e+00	6.131622e-07	
124	6.200000e+00	6.064903e-07	
125	6.250000e+00	6.000746e-07	
126	6.300000e+00	5.939008e-07	
127	6.350000e+00	5.879558e-07	
128	6.400000e+00	5.822271e-07	
129	6.450000e+00	5.767034e-07	
130	6.500000e+00	5.713740e-07	
131	6.550000e+00	5.662289e-07	
132	6.600000e+00	5.612590e-07	
Reset re-loads circuit ***************************

Circuit: ***************************

Doing analysis at TEMP = 125.000000 and TNOM = 125.000000


No. of Data Rows : 133
                          ***************************
                          DC transfer characteristic  Mon Jan  9 13:58:40  2023
--------------------------------------------------------------------------------
Index   v-sweep         rds             
--------------------------------------------------------------------------------
0	0.000000e+00	2.439203e-04	
1	5.000000e-02	2.407241e-04	
2	1.000000e-01	2.375405e-04	
3	1.500000e-01	2.343695e-04	
4	2.000000e-01	2.312109e-04	
5	2.500000e-01	2.280647e-04	
6	3.000000e-01	2.249309e-04	
7	3.500000e-01	2.218094e-04	
8	4.000000e-01	2.187001e-04	
9	4.500000e-01	2.156029e-04	
10	5.000000e-01	2.125179e-04	
11	5.500000e-01	2.094448e-04	
12	6.000000e-01	2.063838e-04	
13	6.500000e-01	2.033347e-04	
14	7.000000e-01	2.002974e-04	
15	7.500000e-01	1.972720e-04	
16	8.000000e-01	1.942582e-04	
17	8.500000e-01	1.912562e-04	
18	9.000000e-01	1.882658e-04	
19	9.500000e-01	1.852869e-04	
20	1.000000e+00	1.823196e-04	
21	1.050000e+00	1.793637e-04	
22	1.100000e+00	1.764192e-04	
23	1.150000e+00	1.734861e-04	
24	1.200000e+00	1.705642e-04	
25	1.250000e+00	1.676535e-04	
26	1.300000e+00	1.647541e-04	
27	1.350000e+00	1.618657e-04	
28	1.400000e+00	1.589884e-04	
29	1.450000e+00	1.561220e-04	
30	1.500000e+00	1.532666e-04	
31	1.550000e+00	1.504222e-04	
32	1.600000e+00	1.475885e-04	
33	1.650000e+00	1.447656e-04	
34	1.700000e+00	1.419534e-04	
35	1.750000e+00	1.391519e-04	
36	1.800000e+00	1.363610e-04	
37	1.850000e+00	1.335806e-04	
38	1.900000e+00	1.308108e-04	
39	1.950000e+00	1.280513e-04	
40	2.000000e+00	1.253023e-04	
41	2.050000e+00	1.225635e-04	
42	2.100000e+00	1.198351e-04	
43	2.150000e+00	1.171168e-04	
44	2.200000e+00	1.144086e-04	
45	2.250000e+00	1.117106e-04	
46	2.300000e+00	1.090225e-04	
47	2.350000e+00	1.063444e-04	
48	2.400000e+00	1.036762e-04	
49	2.450000e+00	1.010177e-04	
50	2.500000e+00	9.836901e-05	
51	2.550000e+00	9.572995e-05	
52	2.600000e+00	9.310044e-05	
53	2.650000e+00	9.048041e-05	
54	2.700000e+00	8.786974e-05	

Index   v-sweep         rds             
--------------------------------------------------------------------------------
55	2.750000e+00	8.526834e-05	
56	2.800000e+00	8.267609e-05	
57	2.850000e+00	8.009285e-05	
58	2.900000e+00	7.751848e-05	
59	2.950000e+00	7.495280e-05	
60	3.000000e+00	7.239564e-05	
61	3.050000e+00	6.984677e-05	
62	3.100000e+00	6.730594e-05	
63	3.150000e+00	6.477284e-05	
64	3.200000e+00	6.224714e-05	
65	3.250000e+00	5.972840e-05	
66	3.300000e+00	5.721613e-05	
67	3.350000e+00	5.470974e-05	
68	3.400000e+00	5.220851e-05	
69	3.450000e+00	4.971158e-05	
70	3.500000e+00	4.721795e-05	
71	3.550000e+00	4.472643e-05	
72	3.600000e+00	4.223564e-05	
73	3.650000e+00	3.974411e-05	
74	3.700000e+00	3.725033e-05	
75	3.750000e+00	3.475301e-05	
76	3.800000e+00	3.225162e-05	
77	3.850000e+00	2.974720e-05	
78	3.900000e+00	2.724378e-05	
79	3.950000e+00	2.475036e-05	
80	4.000000e+00	2.228342e-05	
81	4.050000e+00	1.986899e-05	
82	4.100000e+00	1.754308e-05	
83	4.150000e+00	1.534866e-05	
84	4.200000e+00	1.332872e-05	
85	4.250000e+00	1.151740e-05	
86	4.300000e+00	9.932980e-06	
87	4.350000e+00	8.575910e-06	
88	4.400000e+00	7.431770e-06	
89	4.450000e+00	6.476919e-06	
90	4.500000e+00	5.684077e-06	
91	4.550000e+00	5.026368e-06	
92	4.600000e+00	4.479578e-06	
93	4.650000e+00	4.023040e-06	
94	4.700000e+00	3.639691e-06	
95	4.750000e+00	3.315713e-06	
96	4.800000e+00	3.040036e-06	
97	4.850000e+00	2.803832e-06	
98	4.900000e+00	2.600067e-06	
99	4.950000e+00	2.423123e-06	
100	5.000000e+00	2.268497e-06	
101	5.050000e+00	2.132563e-06	
102	5.100000e+00	2.012385e-06	
103	5.150000e+00	1.905570e-06	
104	5.200000e+00	1.810157e-06	
105	5.250000e+00	1.724531e-06	
106	5.300000e+00	1.647351e-06	
107	5.350000e+00	1.577497e-06	
108	5.400000e+00	1.514030e-06	
109	5.450000e+00	1.456159e-06	
110	5.500000e+00	1.403212e-06	
111	5.550000e+00	1.354616e-06	
112	5.600000e+00	1.309881e-06	

Index   v-sweep         rds             
--------------------------------------------------------------------------------
113	5.650000e+00	1.268583e-06	
114	5.700000e+00	1.230358e-06	
115	5.750000e+00	1.194889e-06	
116	5.800000e+00	1.161901e-06	
117	5.850000e+00	1.131151e-06	
118	5.900000e+00	1.102427e-06	
119	5.950000e+00	1.075543e-06	
120	6.000000e+00	1.050332e-06	
121	6.050000e+00	1.026649e-06	
122	6.100000e+00	1.004364e-06	
123	6.150000e+00	9.833589e-07	
124	6.200000e+00	9.635308e-07	
125	6.250000e+00	9.447860e-07	
126	6.300000e+00	9.270405e-07	
127	6.350000e+00	9.102188e-07	
128	6.400000e+00	8.942523e-07	
129	6.450000e+00	8.790791e-07	
130	6.500000e+00	8.646430e-07	
131	6.550000e+00	8.508928e-07	
132	6.600000e+00	8.377818e-07	
Reset re-loads circuit ***************************

Circuit: ***************************

Note: No ".plot", ".print", or ".fourier" lines; no simulations run
