
Note: Compatibility modes selected: hs

Warning: m=xx on .subckt line will override multiplier m hierarchy!


Circuit: ***************************

Doing analysis at TEMP = 25.000000 and TNOM = 25.000000


No. of Data Rows : 133
                          ***************************
                          DC transfer characteristic  Mon Jan  9 13:58:37  2023
--------------------------------------------------------------------------------
Index   v-sweep         rds             
--------------------------------------------------------------------------------
0	0.000000e+00	7.428886e-05	
1	5.000000e-02	5.762448e-05	
2	1.000000e-01	4.174102e-05	
3	1.500000e-01	2.718946e-05	
4	2.000000e-01	1.573679e-05	
5	2.500000e-01	9.479444e-06	
6	3.000000e-01	6.915135e-06	
7	3.500000e-01	5.720638e-06	
8	4.000000e-01	5.017300e-06	
9	4.500000e-01	4.538873e-06	
10	5.000000e-01	4.186645e-06	
11	5.500000e-01	3.914628e-06	
12	6.000000e-01	3.697650e-06	
13	6.500000e-01	3.520405e-06	
14	7.000000e-01	3.372912e-06	
15	7.500000e-01	3.248322e-06	
16	8.000000e-01	3.141761e-06	
17	8.500000e-01	3.049651e-06	
18	9.000000e-01	2.969307e-06	
19	9.500000e-01	2.898668e-06	
20	1.000000e+00	2.836128e-06	
21	1.050000e+00	2.780415e-06	
22	1.100000e+00	2.730507e-06	
23	1.150000e+00	2.685579e-06	
24	1.200000e+00	2.644950e-06	
25	1.250000e+00	2.608059e-06	
26	1.300000e+00	2.574436e-06	
27	1.350000e+00	2.543689e-06	
28	1.400000e+00	2.515481e-06	
29	1.450000e+00	2.489529e-06	
30	1.500000e+00	2.465587e-06	
31	1.550000e+00	2.443446e-06	
32	1.600000e+00	2.422923e-06	
33	1.650000e+00	2.403857e-06	
34	1.700000e+00	2.386111e-06	
35	1.750000e+00	2.369561e-06	
36	1.800000e+00	2.354099e-06	
37	1.850000e+00	2.339631e-06	
38	1.900000e+00	2.326070e-06	
39	1.950000e+00	2.313342e-06	
40	2.000000e+00	2.301379e-06	
41	2.050000e+00	2.290119e-06	
42	2.100000e+00	2.279509e-06	
43	2.150000e+00	2.269499e-06	
44	2.200000e+00	2.260045e-06	
45	2.250000e+00	2.251106e-06	
46	2.300000e+00	2.242646e-06	
47	2.350000e+00	2.234631e-06	
48	2.400000e+00	2.227032e-06	
49	2.450000e+00	2.219819e-06	
50	2.500000e+00	2.212969e-06	
51	2.550000e+00	2.206457e-06	
52	2.600000e+00	2.200263e-06	
53	2.650000e+00	2.194366e-06	
54	2.700000e+00	2.188748e-06	

Index   v-sweep         rds             
--------------------------------------------------------------------------------
55	2.750000e+00	2.183393e-06	
56	2.800000e+00	2.178285e-06	
57	2.850000e+00	2.173410e-06	
58	2.900000e+00	2.168754e-06	
59	2.950000e+00	2.164306e-06	
60	3.000000e+00	2.160053e-06	
61	3.050000e+00	2.155985e-06	
62	3.100000e+00	2.152093e-06	
63	3.150000e+00	2.148365e-06	
64	3.200000e+00	2.144796e-06	
65	3.250000e+00	2.141375e-06	
66	3.300000e+00	2.138095e-06	
67	3.350000e+00	2.134950e-06	
68	3.400000e+00	2.131932e-06	
69	3.450000e+00	2.129036e-06	
70	3.500000e+00	2.126256e-06	
71	3.550000e+00	2.123585e-06	
72	3.600000e+00	2.121019e-06	
73	3.650000e+00	2.118553e-06	
74	3.700000e+00	2.116183e-06	
75	3.750000e+00	2.113903e-06	
76	3.800000e+00	2.111710e-06	
77	3.850000e+00	2.109600e-06	
78	3.900000e+00	2.107570e-06	
79	3.950000e+00	2.105615e-06	
80	4.000000e+00	2.103732e-06	
81	4.050000e+00	2.101919e-06	
82	4.100000e+00	2.100173e-06	
83	4.150000e+00	2.098490e-06	
84	4.200000e+00	2.096868e-06	
85	4.250000e+00	2.095304e-06	
86	4.300000e+00	2.093796e-06	
87	4.350000e+00	2.092342e-06	
88	4.400000e+00	2.090940e-06	
89	4.450000e+00	2.089586e-06	
90	4.500000e+00	2.088281e-06	
91	4.550000e+00	2.087020e-06	
92	4.600000e+00	2.085804e-06	
93	4.650000e+00	2.084630e-06	
94	4.700000e+00	2.083495e-06	
95	4.750000e+00	2.082400e-06	
96	4.800000e+00	2.081342e-06	
97	4.850000e+00	2.080320e-06	
98	4.900000e+00	2.079332e-06	
99	4.950000e+00	2.078378e-06	
100	5.000000e+00	2.077455e-06	
101	5.050000e+00	2.076563e-06	
102	5.100000e+00	2.075700e-06	
103	5.150000e+00	2.074866e-06	
104	5.200000e+00	2.074059e-06	
105	5.250000e+00	2.073278e-06	
106	5.300000e+00	2.072523e-06	
107	5.350000e+00	2.071792e-06	
108	5.400000e+00	2.071084e-06	
109	5.450000e+00	2.070399e-06	
110	5.500000e+00	2.069736e-06	
111	5.550000e+00	2.069094e-06	
112	5.600000e+00	2.068471e-06	

Index   v-sweep         rds             
--------------------------------------------------------------------------------
113	5.650000e+00	2.067868e-06	
114	5.700000e+00	2.067283e-06	
115	5.750000e+00	2.066717e-06	
116	5.800000e+00	2.066167e-06	
117	5.850000e+00	2.065634e-06	
118	5.900000e+00	2.065117e-06	
119	5.950000e+00	2.064616e-06	
120	6.000000e+00	2.064128e-06	
121	6.050000e+00	2.063655e-06	
122	6.100000e+00	2.063196e-06	
123	6.150000e+00	2.062750e-06	
124	6.200000e+00	2.062316e-06	
125	6.250000e+00	2.061894e-06	
126	6.300000e+00	2.061483e-06	
127	6.350000e+00	2.061083e-06	
128	6.400000e+00	2.060694e-06	
129	6.450000e+00	2.060316e-06	
130	6.500000e+00	2.059946e-06	
131	6.550000e+00	2.059586e-06	
132	6.600000e+00	2.059235e-06	
Reset re-loads circuit ***************************

Circuit: ***************************

Doing analysis at TEMP = 25.000000 and TNOM = 25.000000


No. of Data Rows : 133
                          ***************************
                          DC transfer characteristic  Mon Jan  9 13:58:38  2023
--------------------------------------------------------------------------------
Index   v-sweep         rds             
--------------------------------------------------------------------------------
0	0.000000e+00	2.465430e-04	
1	5.000000e-02	2.276641e-04	
2	1.000000e-01	2.094110e-04	
3	1.500000e-01	1.917605e-04	
4	2.000000e-01	1.746903e-04	
5	2.500000e-01	1.581799e-04	
6	3.000000e-01	1.422114e-04	
7	3.500000e-01	1.267713e-04	
8	4.000000e-01	1.118524e-04	
9	4.500000e-01	9.745983e-05	
10	5.000000e-01	8.362207e-05	
11	5.500000e-01	7.042255e-05	
12	6.000000e-01	5.807221e-05	
13	6.500000e-01	4.701029e-05	
14	7.000000e-01	3.781579e-05	
15	7.500000e-01	3.075839e-05	
16	8.000000e-01	2.558004e-05	
17	8.500000e-01	2.179717e-05	
18	9.000000e-01	1.898300e-05	
19	9.500000e-01	1.683572e-05	
20	1.000000e+00	1.515530e-05	
21	1.050000e+00	1.380992e-05	
22	1.100000e+00	1.271122e-05	
23	1.150000e+00	1.179852e-05	
24	1.200000e+00	1.102912e-05	
25	1.250000e+00	1.037227e-05	
26	1.300000e+00	9.805270e-06	
27	1.350000e+00	9.311099e-06	
28	1.400000e+00	8.876726e-06	
29	1.450000e+00	8.492031e-06	
30	1.500000e+00	8.149037e-06	
31	1.550000e+00	7.841378e-06	
32	1.600000e+00	7.563911e-06	
33	1.650000e+00	7.312441e-06	
34	1.700000e+00	7.083510e-06	
35	1.750000e+00	6.874246e-06	
36	1.800000e+00	6.682242e-06	
37	1.850000e+00	6.505466e-06	
38	1.900000e+00	6.342191e-06	
39	1.950000e+00	6.190943e-06	
40	2.000000e+00	6.050452e-06	
41	2.050000e+00	5.919620e-06	
42	2.100000e+00	5.797494e-06	
43	2.150000e+00	5.683242e-06	
44	2.200000e+00	5.576132e-06	
45	2.250000e+00	5.475523e-06	
46	2.300000e+00	5.380845e-06	
47	2.350000e+00	5.291595e-06	
48	2.400000e+00	5.207324e-06	
49	2.450000e+00	5.127631e-06	
50	2.500000e+00	5.052156e-06	
51	2.550000e+00	4.980577e-06	
52	2.600000e+00	4.912604e-06	
53	2.650000e+00	4.847973e-06	
54	2.700000e+00	4.786447e-06	

Index   v-sweep         rds             
--------------------------------------------------------------------------------
55	2.750000e+00	4.727809e-06	
56	2.800000e+00	4.671865e-06	
57	2.850000e+00	4.618433e-06	
58	2.900000e+00	4.567351e-06	
59	2.950000e+00	4.518469e-06	
60	3.000000e+00	4.471650e-06	
61	3.050000e+00	4.426767e-06	
62	3.100000e+00	4.383704e-06	
63	3.150000e+00	4.342354e-06	
64	3.200000e+00	4.302619e-06	
65	3.250000e+00	4.264406e-06	
66	3.300000e+00	4.227631e-06	
67	3.350000e+00	4.192215e-06	
68	3.400000e+00	4.158086e-06	
69	3.450000e+00	4.125175e-06	
70	3.500000e+00	4.093419e-06	
71	3.550000e+00	4.062760e-06	
72	3.600000e+00	4.033141e-06	
73	3.650000e+00	4.004513e-06	
74	3.700000e+00	3.976827e-06	
75	3.750000e+00	3.950037e-06	
76	3.800000e+00	3.924101e-06	
77	3.850000e+00	3.898981e-06	
78	3.900000e+00	3.874638e-06	
79	3.950000e+00	3.851037e-06	
80	4.000000e+00	3.828146e-06	
81	4.050000e+00	3.805934e-06	
82	4.100000e+00	3.784371e-06	
83	4.150000e+00	3.763429e-06	
84	4.200000e+00	3.743083e-06	
85	4.250000e+00	3.723308e-06	
86	4.300000e+00	3.704080e-06	
87	4.350000e+00	3.685378e-06	
88	4.400000e+00	3.667181e-06	
89	4.450000e+00	3.649468e-06	
90	4.500000e+00	3.632222e-06	
91	4.550000e+00	3.615423e-06	
92	4.600000e+00	3.599056e-06	
93	4.650000e+00	3.583104e-06	
94	4.700000e+00	3.567551e-06	
95	4.750000e+00	3.552383e-06	
96	4.800000e+00	3.537587e-06	
97	4.850000e+00	3.523149e-06	
98	4.900000e+00	3.509056e-06	
99	4.950000e+00	3.495297e-06	
100	5.000000e+00	3.481860e-06	
101	5.050000e+00	3.468733e-06	
102	5.100000e+00	3.455907e-06	
103	5.150000e+00	3.443371e-06	
104	5.200000e+00	3.431116e-06	
105	5.250000e+00	3.419133e-06	
106	5.300000e+00	3.407413e-06	
107	5.350000e+00	3.395948e-06	
108	5.400000e+00	3.384729e-06	
109	5.450000e+00	3.373748e-06	
110	5.500000e+00	3.362999e-06	
111	5.550000e+00	3.352475e-06	
112	5.600000e+00	3.342168e-06	

Index   v-sweep         rds             
--------------------------------------------------------------------------------
113	5.650000e+00	3.332071e-06	
114	5.700000e+00	3.322180e-06	
115	5.750000e+00	3.312487e-06	
116	5.800000e+00	3.302986e-06	
117	5.850000e+00	3.293673e-06	
118	5.900000e+00	3.284542e-06	
119	5.950000e+00	3.275588e-06	
120	6.000000e+00	3.266805e-06	
121	6.050000e+00	3.258189e-06	
122	6.100000e+00	3.249735e-06	
123	6.150000e+00	3.241439e-06	
124	6.200000e+00	3.233297e-06	
125	6.250000e+00	3.225303e-06	
126	6.300000e+00	3.217456e-06	
127	6.350000e+00	3.209750e-06	
128	6.400000e+00	3.202181e-06	
129	6.450000e+00	3.194747e-06	
130	6.500000e+00	3.187444e-06	
131	6.550000e+00	3.180268e-06	
132	6.600000e+00	3.173216e-06	
Reset re-loads circuit ***************************

Circuit: ***************************

Doing analysis at TEMP = 25.000000 and TNOM = 25.000000


No. of Data Rows : 133
                          ***************************
                          DC transfer characteristic  Mon Jan  9 13:58:38  2023
--------------------------------------------------------------------------------
Index   v-sweep         rds             
--------------------------------------------------------------------------------
0	0.000000e+00	3.766187e-04	
1	5.000000e-02	3.568425e-04	
2	1.000000e-01	3.376850e-04	
3	1.500000e-01	3.191233e-04	
4	2.000000e-01	3.011350e-04	
5	2.500000e-01	2.836980e-04	
6	3.000000e-01	2.667902e-04	
7	3.500000e-01	2.503905e-04	
8	4.000000e-01	2.344784e-04	
9	4.500000e-01	2.190344e-04	
10	5.000000e-01	2.040403e-04	
11	5.500000e-01	1.894785e-04	
12	6.000000e-01	1.753320e-04	
13	6.500000e-01	1.615821e-04	
14	7.000000e-01	1.482069e-04	
15	7.500000e-01	1.351763e-04	
16	8.000000e-01	1.224455e-04	
17	8.500000e-01	1.099469e-04	
18	9.000000e-01	9.759156e-05	
19	9.500000e-01	8.531990e-05	
20	1.000000e+00	7.325827e-05	
21	1.050000e+00	6.188897e-05	
22	1.100000e+00	5.188944e-05	
23	1.150000e+00	4.366840e-05	
24	1.200000e+00	3.718508e-05	
25	1.250000e+00	3.214343e-05	
26	1.300000e+00	2.820759e-05	
27	1.350000e+00	2.509613e-05	
28	1.400000e+00	2.259755e-05	
29	1.450000e+00	2.055889e-05	
30	1.500000e+00	1.887030e-05	
31	1.550000e+00	1.745240e-05	
32	1.600000e+00	1.624711e-05	
33	1.650000e+00	1.521127e-05	
34	1.700000e+00	1.431235e-05	
35	1.750000e+00	1.352546e-05	
36	1.800000e+00	1.283126e-05	
37	1.850000e+00	1.221455e-05	
38	1.900000e+00	1.166324e-05	
39	1.950000e+00	1.116758e-05	
40	2.000000e+00	1.071967e-05	
41	2.050000e+00	1.031298e-05	
42	2.100000e+00	9.942151e-06	
43	2.150000e+00	9.602680e-06	
44	2.200000e+00	9.290789e-06	
45	2.250000e+00	9.003279e-06	
46	2.300000e+00	8.737422e-06	
47	2.350000e+00	8.490882e-06	
48	2.400000e+00	8.261644e-06	
49	2.450000e+00	8.047961e-06	
50	2.500000e+00	7.848315e-06	
51	2.550000e+00	7.661377e-06	
52	2.600000e+00	7.485978e-06	
53	2.650000e+00	7.321090e-06	
54	2.700000e+00	7.165802e-06	

Index   v-sweep         rds             
--------------------------------------------------------------------------------
55	2.750000e+00	7.019305e-06	
56	2.800000e+00	6.880877e-06	
57	2.850000e+00	6.749875e-06	
58	2.900000e+00	6.625720e-06	
59	2.950000e+00	6.507892e-06	
60	3.000000e+00	6.395923e-06	
61	3.050000e+00	6.289389e-06	
62	3.100000e+00	6.187905e-06	
63	3.150000e+00	6.091125e-06	
64	3.200000e+00	5.998728e-06	
65	3.250000e+00	5.910428e-06	
66	3.300000e+00	5.825957e-06	
67	3.350000e+00	5.745075e-06	
68	3.400000e+00	5.667558e-06	
69	3.450000e+00	5.593202e-06	
70	3.500000e+00	5.521818e-06	
71	3.550000e+00	5.453233e-06	
72	3.600000e+00	5.387287e-06	
73	3.650000e+00	5.323831e-06	
74	3.700000e+00	5.262726e-06	
75	3.750000e+00	5.203847e-06	
76	3.800000e+00	5.147073e-06	
77	3.850000e+00	5.092295e-06	
78	3.900000e+00	5.039410e-06	
79	3.950000e+00	4.988322e-06	
80	4.000000e+00	4.938942e-06	
81	4.050000e+00	4.891185e-06	
82	4.100000e+00	4.844974e-06	
83	4.150000e+00	4.800235e-06	
84	4.200000e+00	4.756900e-06	
85	4.250000e+00	4.714903e-06	
86	4.300000e+00	4.674185e-06	
87	4.350000e+00	4.634687e-06	
88	4.400000e+00	4.596357e-06	
89	4.450000e+00	4.559144e-06	
90	4.500000e+00	4.523000e-06	
91	4.550000e+00	4.487879e-06	
92	4.600000e+00	4.453740e-06	
93	4.650000e+00	4.420542e-06	
94	4.700000e+00	4.388248e-06	
95	4.750000e+00	4.356820e-06	
96	4.800000e+00	4.326225e-06	
97	4.850000e+00	4.296431e-06	
98	4.900000e+00	4.267407e-06	
99	4.950000e+00	4.239123e-06	
100	5.000000e+00	4.211553e-06	
101	5.050000e+00	4.184669e-06	
102	5.100000e+00	4.158448e-06	
103	5.150000e+00	4.132864e-06	
104	5.200000e+00	4.107895e-06	
105	5.250000e+00	4.083519e-06	
106	5.300000e+00	4.059717e-06	
107	5.350000e+00	4.036468e-06	
108	5.400000e+00	4.013754e-06	
109	5.450000e+00	3.991556e-06	
110	5.500000e+00	3.969857e-06	
111	5.550000e+00	3.948641e-06	
112	5.600000e+00	3.927893e-06	

Index   v-sweep         rds             
--------------------------------------------------------------------------------
113	5.650000e+00	3.907597e-06	
114	5.700000e+00	3.887740e-06	
115	5.750000e+00	3.868306e-06	
116	5.800000e+00	3.849284e-06	
117	5.850000e+00	3.830660e-06	
118	5.900000e+00	3.812422e-06	
119	5.950000e+00	3.794559e-06	
120	6.000000e+00	3.777060e-06	
121	6.050000e+00	3.759913e-06	
122	6.100000e+00	3.743109e-06	
123	6.150000e+00	3.726638e-06	
124	6.200000e+00	3.710489e-06	
125	6.250000e+00	3.694655e-06	
126	6.300000e+00	3.679125e-06	
127	6.350000e+00	3.663892e-06	
128	6.400000e+00	3.648948e-06	
129	6.450000e+00	3.634284e-06	
130	6.500000e+00	3.619893e-06	
131	6.550000e+00	3.605767e-06	
132	6.600000e+00	3.591900e-06	
Reset re-loads circuit ***************************

Circuit: ***************************

Doing analysis at TEMP = 25.000000 and TNOM = 25.000000


No. of Data Rows : 133
                          ***************************
                          DC transfer characteristic  Mon Jan  9 13:58:38  2023
--------------------------------------------------------------------------------
Index   v-sweep         rds             
--------------------------------------------------------------------------------
0	0.000000e+00	4.711496e-04	
1	5.000000e-02	4.515969e-04	
2	1.000000e-01	4.325994e-04	
3	1.500000e-01	4.141385e-04	
4	2.000000e-01	3.961964e-04	
5	2.500000e-01	3.787549e-04	
6	3.000000e-01	3.617962e-04	
7	3.500000e-01	3.453025e-04	
8	4.000000e-01	3.292563e-04	
9	4.500000e-01	3.136404e-04	
10	5.000000e-01	2.984384e-04	
11	5.500000e-01	2.836348e-04	
12	6.000000e-01	2.692147e-04	
13	6.500000e-01	2.551643e-04	
14	7.000000e-01	2.414708e-04	
15	7.500000e-01	2.281215e-04	
16	8.000000e-01	2.151040e-04	
17	8.500000e-01	2.024049e-04	
18	9.000000e-01	1.900088e-04	
19	9.500000e-01	1.778960e-04	
20	1.000000e+00	1.660385e-04	
21	1.050000e+00	1.543949e-04	
22	1.100000e+00	1.429011e-04	
23	1.150000e+00	1.314598e-04	
24	1.200000e+00	1.199346e-04	
25	1.250000e+00	1.081773e-04	
26	1.300000e+00	9.613393e-05	
27	1.350000e+00	8.402864e-05	
28	1.400000e+00	7.243761e-05	
29	1.450000e+00	6.203481e-05	
30	1.500000e+00	5.322093e-05	
31	1.550000e+00	4.602140e-05	
32	1.600000e+00	4.023159e-05	
33	1.650000e+00	3.558051e-05	
34	1.700000e+00	3.181789e-05	
35	1.750000e+00	2.874104e-05	
36	1.800000e+00	2.619452e-05	
37	1.850000e+00	2.406143e-05	
38	1.900000e+00	2.225419e-05	
39	1.950000e+00	2.070681e-05	
40	2.000000e+00	1.936915e-05	
41	2.050000e+00	1.820268e-05	
42	2.100000e+00	1.717744e-05	
43	2.150000e+00	1.626988e-05	
44	2.200000e+00	1.546130e-05	
45	2.250000e+00	1.473665e-05	
46	2.300000e+00	1.408376e-05	
47	2.350000e+00	1.349263e-05	
48	2.400000e+00	1.295503e-05	
49	2.450000e+00	1.246411e-05	
50	2.500000e+00	1.201411e-05	
51	2.550000e+00	1.160018e-05	
52	2.600000e+00	1.121821e-05	
53	2.650000e+00	1.086466e-05	
54	2.700000e+00	1.053652e-05	

Index   v-sweep         rds             
--------------------------------------------------------------------------------
55	2.750000e+00	1.023115e-05	
56	2.800000e+00	9.946300e-06	
57	2.850000e+00	9.679977e-06	
58	2.900000e+00	9.430447e-06	
59	2.950000e+00	9.196182e-06	
60	3.000000e+00	8.975833e-06	
61	3.050000e+00	8.768206e-06	
62	3.100000e+00	8.572238e-06	
63	3.150000e+00	8.386979e-06	
64	3.200000e+00	8.211581e-06	
65	3.250000e+00	8.045282e-06	
66	3.300000e+00	7.887396e-06	
67	3.350000e+00	7.737305e-06	
68	3.400000e+00	7.594448e-06	
69	3.450000e+00	7.458318e-06	
70	3.500000e+00	7.328453e-06	
71	3.550000e+00	7.204433e-06	
72	3.600000e+00	7.085874e-06	
73	3.650000e+00	6.972425e-06	
74	3.700000e+00	6.863764e-06	
75	3.750000e+00	6.759597e-06	
76	3.800000e+00	6.659651e-06	
77	3.850000e+00	6.563675e-06	
78	3.900000e+00	6.471441e-06	
79	3.950000e+00	6.382733e-06	
80	4.000000e+00	6.297354e-06	
81	4.050000e+00	6.215122e-06	
82	4.100000e+00	6.135867e-06	
83	4.150000e+00	6.059429e-06	
84	4.200000e+00	5.985664e-06	
85	4.250000e+00	5.914433e-06	
86	4.300000e+00	5.845608e-06	
87	4.350000e+00	5.779072e-06	
88	4.400000e+00	5.714711e-06	
89	4.450000e+00	5.652422e-06	
90	4.500000e+00	5.592106e-06	
91	4.550000e+00	5.533673e-06	
92	4.600000e+00	5.477035e-06	
93	4.650000e+00	5.422112e-06	
94	4.700000e+00	5.368827e-06	
95	4.750000e+00	5.317110e-06	
96	4.800000e+00	5.266891e-06	
97	4.850000e+00	5.218108e-06	
98	4.900000e+00	5.170701e-06	
99	4.950000e+00	5.124612e-06	
100	5.000000e+00	5.079787e-06	
101	5.050000e+00	5.036177e-06	
102	5.100000e+00	4.993732e-06	
103	5.150000e+00	4.952408e-06	
104	5.200000e+00	4.912160e-06	
105	5.250000e+00	4.872949e-06	
106	5.300000e+00	4.834734e-06	
107	5.350000e+00	4.797479e-06	
108	5.400000e+00	4.761149e-06	
109	5.450000e+00	4.725711e-06	
110	5.500000e+00	4.691131e-06	
111	5.550000e+00	4.657381e-06	
112	5.600000e+00	4.624431e-06	

Index   v-sweep         rds             
--------------------------------------------------------------------------------
113	5.650000e+00	4.592253e-06	
114	5.700000e+00	4.560821e-06	
115	5.750000e+00	4.530111e-06	
116	5.800000e+00	4.500098e-06	
117	5.850000e+00	4.470759e-06	
118	5.900000e+00	4.442072e-06	
119	5.950000e+00	4.414017e-06	
120	6.000000e+00	4.386572e-06	
121	6.050000e+00	4.359720e-06	
122	6.100000e+00	4.333441e-06	
123	6.150000e+00	4.307719e-06	
124	6.200000e+00	4.282535e-06	
125	6.250000e+00	4.257874e-06	
126	6.300000e+00	4.233720e-06	
127	6.350000e+00	4.210059e-06	
128	6.400000e+00	4.186875e-06	
129	6.450000e+00	4.164155e-06	
130	6.500000e+00	4.141886e-06	
131	6.550000e+00	4.120055e-06	
132	6.600000e+00	4.098650e-06	
Reset re-loads circuit ***************************

Circuit: ***************************

Doing analysis at TEMP = 25.000000 and TNOM = 25.000000


No. of Data Rows : 133
                          ***************************
                          DC transfer characteristic  Mon Jan  9 13:58:38  2023
--------------------------------------------------------------------------------
Index   v-sweep         rds             
--------------------------------------------------------------------------------
0	0.000000e+00	5.387230e-04	
1	5.000000e-02	5.201264e-04	
2	1.000000e-01	5.020021e-04	
3	1.500000e-01	4.843363e-04	
4	2.000000e-01	4.671155e-04	
5	2.500000e-01	4.503261e-04	
6	3.000000e-01	4.339546e-04	
7	3.500000e-01	4.179876e-04	
8	4.000000e-01	4.024116e-04	
9	4.500000e-01	3.872132e-04	
10	5.000000e-01	3.723794e-04	
11	5.500000e-01	3.578974e-04	
12	6.000000e-01	3.437549e-04	
13	6.500000e-01	3.299401e-04	
14	7.000000e-01	3.164419e-04	
15	7.500000e-01	3.032501e-04	
16	8.000000e-01	2.903548e-04	
17	8.500000e-01	2.777471e-04	
18	9.000000e-01	2.654184e-04	
19	9.500000e-01	2.533605e-04	
20	1.000000e+00	2.415655e-04	
21	1.050000e+00	2.300250e-04	
22	1.100000e+00	2.187294e-04	
23	1.150000e+00	2.076677e-04	
24	1.200000e+00	1.968251e-04	
25	1.250000e+00	1.861816e-04	
26	1.300000e+00	1.757079e-04	
27	1.350000e+00	1.653604e-04	
28	1.400000e+00	1.550731e-04	
29	1.450000e+00	1.447485e-04	
30	1.500000e+00	1.342515e-04	
31	1.550000e+00	1.234243e-04	
32	1.600000e+00	1.121504e-04	
33	1.650000e+00	1.004881e-04	
34	1.700000e+00	8.879155e-05	
35	1.750000e+00	7.765098e-05	
36	1.800000e+00	6.762416e-05	
37	1.850000e+00	5.900553e-05	
38	1.900000e+00	5.180745e-05	
39	1.950000e+00	4.587390e-05	
40	2.000000e+00	4.099296e-05	
41	2.050000e+00	3.696001e-05	
42	2.100000e+00	3.360155e-05	
43	2.150000e+00	3.077872e-05	
44	2.200000e+00	2.838315e-05	
45	2.250000e+00	2.633101e-05	
46	2.300000e+00	2.455738e-05	
47	2.350000e+00	2.301176e-05	
48	2.400000e+00	2.165458e-05	
49	2.450000e+00	2.045451e-05	
50	2.500000e+00	1.938660e-05	
51	2.550000e+00	1.843074e-05	
52	2.600000e+00	1.757059e-05	
53	2.650000e+00	1.679276e-05	
54	2.700000e+00	1.608622e-05	

Index   v-sweep         rds             
--------------------------------------------------------------------------------
55	2.750000e+00	1.544176e-05	
56	2.800000e+00	1.485169e-05	
57	2.850000e+00	1.430949e-05	
58	2.900000e+00	1.380966e-05	
59	2.950000e+00	1.334748e-05	
60	3.000000e+00	1.291890e-05	
61	3.050000e+00	1.252043e-05	
62	3.100000e+00	1.214904e-05	
63	3.150000e+00	1.180208e-05	
64	3.200000e+00	1.147725e-05	
65	3.250000e+00	1.117252e-05	
66	3.300000e+00	1.088608e-05	
67	3.350000e+00	1.061636e-05	
68	3.400000e+00	1.036195e-05	
69	3.450000e+00	1.012159e-05	
70	3.500000e+00	9.894149e-06	
71	3.550000e+00	9.678628e-06	
72	3.600000e+00	9.474118e-06	
73	3.650000e+00	9.279801e-06	
74	3.700000e+00	9.094941e-06	
75	3.750000e+00	8.918866e-06	
76	3.800000e+00	8.750969e-06	
77	3.850000e+00	8.590697e-06	
78	3.900000e+00	8.437545e-06	
79	3.950000e+00	8.291051e-06	
80	4.000000e+00	8.150793e-06	
81	4.050000e+00	8.016383e-06	
82	4.100000e+00	7.887465e-06	
83	4.150000e+00	7.763711e-06	
84	4.200000e+00	7.644818e-06	
85	4.250000e+00	7.530507e-06	
86	4.300000e+00	7.420519e-06	
87	4.350000e+00	7.314615e-06	
88	4.400000e+00	7.212573e-06	
89	4.450000e+00	7.114187e-06	
90	4.500000e+00	7.019263e-06	
91	4.550000e+00	6.927625e-06	
92	4.600000e+00	6.839105e-06	
93	4.650000e+00	6.753547e-06	
94	4.700000e+00	6.670807e-06	
95	4.750000e+00	6.590747e-06	
96	4.800000e+00	6.513242e-06	
97	4.850000e+00	6.438170e-06	
98	4.900000e+00	6.365421e-06	
99	4.950000e+00	6.294888e-06	
100	5.000000e+00	6.226474e-06	
101	5.050000e+00	6.160083e-06	
102	5.100000e+00	6.095630e-06	
103	5.150000e+00	6.033031e-06	
104	5.200000e+00	5.972207e-06	
105	5.250000e+00	5.913086e-06	
106	5.300000e+00	5.855598e-06	
107	5.350000e+00	5.799676e-06	
108	5.400000e+00	5.745259e-06	
109	5.450000e+00	5.692287e-06	
110	5.500000e+00	5.640704e-06	
111	5.550000e+00	5.590457e-06	
112	5.600000e+00	5.541496e-06	

Index   v-sweep         rds             
--------------------------------------------------------------------------------
113	5.650000e+00	5.493773e-06	
114	5.700000e+00	5.447242e-06	
115	5.750000e+00	5.401861e-06	
116	5.800000e+00	5.357587e-06	
117	5.850000e+00	5.314383e-06	
118	5.900000e+00	5.272209e-06	
119	5.950000e+00	5.231032e-06	
120	6.000000e+00	5.190816e-06	
121	6.050000e+00	5.151530e-06	
122	6.100000e+00	5.113142e-06	
123	6.150000e+00	5.075623e-06	
124	6.200000e+00	5.038945e-06	
125	6.250000e+00	5.003081e-06	
126	6.300000e+00	4.968004e-06	
127	6.350000e+00	4.933691e-06	
128	6.400000e+00	4.900117e-06	
129	6.450000e+00	4.867259e-06	
130	6.500000e+00	4.835097e-06	
131	6.550000e+00	4.803608e-06	
132	6.600000e+00	4.772773e-06	
Reset re-loads circuit ***************************

Circuit: ***************************

Doing analysis at TEMP = 25.000000 and TNOM = 25.000000


No. of Data Rows : 133
                          ***************************
                          DC transfer characteristic  Mon Jan  9 13:58:38  2023
--------------------------------------------------------------------------------
Index   v-sweep         rds             
--------------------------------------------------------------------------------
0	0.000000e+00	5.943818e-04	
1	5.000000e-02	5.768965e-04	
2	1.000000e-01	5.598082e-04	
3	1.500000e-01	5.431068e-04	
4	2.000000e-01	5.267821e-04	
5	2.500000e-01	5.108240e-04	
6	3.000000e-01	4.952226e-04	
7	3.500000e-01	4.799678e-04	
8	4.000000e-01	4.650495e-04	
9	4.500000e-01	4.504577e-04	
10	5.000000e-01	4.361824e-04	
11	5.500000e-01	4.222137e-04	
12	6.000000e-01	4.085418e-04	
13	6.500000e-01	3.951573e-04	
14	7.000000e-01	3.820509e-04	
15	7.500000e-01	3.692139e-04	
16	8.000000e-01	3.566380e-04	
17	8.500000e-01	3.443152e-04	
18	9.000000e-01	3.322383e-04	
19	9.500000e-01	3.204002e-04	
20	1.000000e+00	3.087947e-04	
21	1.050000e+00	2.974158e-04	
22	1.100000e+00	2.862580e-04	
23	1.150000e+00	2.753158e-04	
24	1.200000e+00	2.645843e-04	
25	1.250000e+00	2.540581e-04	
26	1.300000e+00	2.437317e-04	
27	1.350000e+00	2.335988e-04	
28	1.400000e+00	2.236519e-04	
29	1.450000e+00	2.138813e-04	
30	1.500000e+00	2.042742e-04	
31	1.550000e+00	1.948123e-04	
32	1.600000e+00	1.854699e-04	
33	1.650000e+00	1.762090e-04	
34	1.700000e+00	1.669736e-04	
35	1.750000e+00	1.576826e-04	
36	1.800000e+00	1.482230e-04	
37	1.850000e+00	1.384520e-04	
38	1.900000e+00	1.282247e-04	
39	1.950000e+00	1.174670e-04	
40	2.000000e+00	1.062873e-04	
41	2.050000e+00	9.504323e-05	
42	2.100000e+00	8.425772e-05	
43	2.150000e+00	7.441045e-05	
44	2.200000e+00	6.577464e-05	
45	2.250000e+00	5.839980e-05	
46	2.300000e+00	5.218815e-05	
47	2.350000e+00	4.697897e-05	
48	2.400000e+00	4.260296e-05	
49	2.450000e+00	3.890768e-05	
50	2.500000e+00	3.576538e-05	
51	2.550000e+00	3.307263e-05	
52	2.600000e+00	3.074698e-05	
53	2.650000e+00	2.872304e-05	
54	2.700000e+00	2.694892e-05	

Index   v-sweep         rds             
--------------------------------------------------------------------------------
55	2.750000e+00	2.538322e-05	
56	2.800000e+00	2.399275e-05	
57	2.850000e+00	2.275072e-05	
58	2.900000e+00	2.163532e-05	
59	2.950000e+00	2.062866e-05	
60	3.000000e+00	1.971599e-05	
61	3.050000e+00	1.888505e-05	
62	3.100000e+00	1.812555e-05	
63	3.150000e+00	1.742884e-05	
64	3.200000e+00	1.678758e-05	
65	3.250000e+00	1.619551e-05	
66	3.300000e+00	1.564728e-05	
67	3.350000e+00	1.513825e-05	
68	3.400000e+00	1.466442e-05	
69	3.450000e+00	1.422231e-05	
70	3.500000e+00	1.380887e-05	
71	3.550000e+00	1.342144e-05	
72	3.600000e+00	1.305766e-05	
73	3.650000e+00	1.271545e-05	
74	3.700000e+00	1.239296e-05	
75	3.750000e+00	1.208857e-05	
76	3.800000e+00	1.180079e-05	
77	3.850000e+00	1.152831e-05	
78	3.900000e+00	1.126996e-05	
79	3.950000e+00	1.102468e-05	
80	4.000000e+00	1.079150e-05	
81	4.050000e+00	1.056955e-05	
82	4.100000e+00	1.035806e-05	
83	4.150000e+00	1.015630e-05	
84	4.200000e+00	9.963620e-06	
85	4.250000e+00	9.779425e-06	
86	4.300000e+00	9.603171e-06	
87	4.350000e+00	9.434358e-06	
88	4.400000e+00	9.272528e-06	
89	4.450000e+00	9.117258e-06	
90	4.500000e+00	8.968160e-06	
91	4.550000e+00	8.824875e-06	
92	4.600000e+00	8.687072e-06	
93	4.650000e+00	8.554443e-06	
94	4.700000e+00	8.426705e-06	
95	4.750000e+00	8.303593e-06	
96	4.800000e+00	8.184862e-06	
97	4.850000e+00	8.070284e-06	
98	4.900000e+00	7.959646e-06	
99	4.950000e+00	7.852748e-06	
100	5.000000e+00	7.749407e-06	
101	5.050000e+00	7.649449e-06	
102	5.100000e+00	7.552710e-06	
103	5.150000e+00	7.459040e-06	
104	5.200000e+00	7.368296e-06	
105	5.250000e+00	7.280344e-06	
106	5.300000e+00	7.195058e-06	
107	5.350000e+00	7.112320e-06	
108	5.400000e+00	7.032019e-06	
109	5.450000e+00	6.954049e-06	
110	5.500000e+00	6.878311e-06	
111	5.550000e+00	6.804713e-06	
112	5.600000e+00	6.733167e-06	

Index   v-sweep         rds             
--------------------------------------------------------------------------------
113	5.650000e+00	6.663588e-06	
114	5.700000e+00	6.595897e-06	
115	5.750000e+00	6.530021e-06	
116	5.800000e+00	6.465889e-06	
117	5.850000e+00	6.403433e-06	
118	5.900000e+00	6.342590e-06	
119	5.950000e+00	6.283299e-06	
120	6.000000e+00	6.225504e-06	
121	6.050000e+00	6.169149e-06	
122	6.100000e+00	6.114183e-06	
123	6.150000e+00	6.060556e-06	
124	6.200000e+00	6.008221e-06	
125	6.250000e+00	5.957135e-06	
126	6.300000e+00	5.907253e-06	
127	6.350000e+00	5.858535e-06	
128	6.400000e+00	5.810943e-06	
129	6.450000e+00	5.764439e-06	
130	6.500000e+00	5.718988e-06	
131	6.550000e+00	5.674555e-06	
132	6.600000e+00	5.631109e-06	
Reset re-loads circuit ***************************

Circuit: ***************************

Note: No ".plot", ".print", or ".fourier" lines; no simulations run
