
Note: Compatibility modes selected: hs

Warning: m=xx on .subckt line will override multiplier m hierarchy!


Circuit: ***************************

Doing analysis at TEMP = 25.000000 and TNOM = 25.000000


No. of Data Rows : 133
                          ***************************
                          DC transfer characteristic  Mon Jan  9 13:58:37  2023
--------------------------------------------------------------------------------
Index   v-sweep         rds             
--------------------------------------------------------------------------------
0	0.000000e+00	3.332851e-05	
1	5.000000e-02	2.696310e-05	
2	1.000000e-01	2.065289e-05	
3	1.500000e-01	1.447691e-05	
4	2.000000e-01	8.703820e-06	
5	2.500000e-01	4.100248e-06	
6	3.000000e-01	1.560365e-06	
7	3.500000e-01	6.160162e-07	
8	4.000000e-01	2.999050e-07	
9	4.500000e-01	1.813880e-07	
10	5.000000e-01	1.295509e-07	
11	5.500000e-01	1.036462e-07	
12	6.000000e-01	8.925680e-08	
13	6.500000e-01	8.057120e-08	
14	7.000000e-01	7.497064e-08	
15	7.500000e-01	7.116190e-08	
16	8.000000e-01	6.845639e-08	
17	8.500000e-01	6.646386e-08	
18	9.000000e-01	6.495124e-08	
19	9.500000e-01	6.377304e-08	
20	1.000000e+00	6.283494e-08	
21	1.050000e+00	6.207370e-08	
22	1.100000e+00	6.144571e-08	
23	1.150000e+00	6.092015e-08	
24	1.200000e+00	6.047470e-08	
25	1.250000e+00	6.009290e-08	
26	1.300000e+00	5.976239e-08	
27	1.350000e+00	5.947372e-08	
28	1.400000e+00	5.921958e-08	
29	1.450000e+00	5.899425e-08	
30	1.500000e+00	5.879315e-08	
31	1.550000e+00	5.861262e-08	
32	1.600000e+00	5.844969e-08	
33	1.650000e+00	5.830194e-08	
34	1.700000e+00	5.816734e-08	
35	1.750000e+00	5.804422e-08	
36	1.800000e+00	5.793119e-08	
37	1.850000e+00	5.782704e-08	
38	1.900000e+00	5.773078e-08	
39	1.950000e+00	5.764154e-08	
40	2.000000e+00	5.755858e-08	
41	2.050000e+00	5.748126e-08	
42	2.100000e+00	5.740901e-08	
43	2.150000e+00	5.734137e-08	
44	2.200000e+00	5.727789e-08	
45	2.250000e+00	5.721820e-08	
46	2.300000e+00	5.716197e-08	
47	2.350000e+00	5.710892e-08	
48	2.400000e+00	5.705877e-08	
49	2.450000e+00	5.701129e-08	
50	2.500000e+00	5.696627e-08	
51	2.550000e+00	5.692354e-08	
52	2.600000e+00	5.688291e-08	
53	2.650000e+00	5.684423e-08	
54	2.700000e+00	5.680737e-08	

Index   v-sweep         rds             
--------------------------------------------------------------------------------
55	2.750000e+00	5.677220e-08	
56	2.800000e+00	5.673861e-08	
57	2.850000e+00	5.670649e-08	
58	2.900000e+00	5.667575e-08	
59	2.950000e+00	5.664629e-08	
60	3.000000e+00	5.661805e-08	
61	3.050000e+00	5.659095e-08	
62	3.100000e+00	5.656491e-08	
63	3.150000e+00	5.653989e-08	
64	3.200000e+00	5.651581e-08	
65	3.250000e+00	5.649263e-08	
66	3.300000e+00	5.647030e-08	
67	3.350000e+00	5.644877e-08	
68	3.400000e+00	5.642800e-08	
69	3.450000e+00	5.640795e-08	
70	3.500000e+00	5.638859e-08	
71	3.550000e+00	5.636987e-08	
72	3.600000e+00	5.635177e-08	
73	3.650000e+00	5.633426e-08	
74	3.700000e+00	5.631730e-08	
75	3.750000e+00	5.630088e-08	
76	3.800000e+00	5.628497e-08	
77	3.850000e+00	5.626954e-08	
78	3.900000e+00	5.625457e-08	
79	3.950000e+00	5.624005e-08	
80	4.000000e+00	5.622595e-08	
81	4.050000e+00	5.621226e-08	
82	4.100000e+00	5.619895e-08	
83	4.150000e+00	5.618602e-08	
84	4.200000e+00	5.617344e-08	
85	4.250000e+00	5.616120e-08	
86	4.300000e+00	5.614930e-08	
87	4.350000e+00	5.613770e-08	
88	4.400000e+00	5.612642e-08	
89	4.450000e+00	5.611542e-08	
90	4.500000e+00	5.610470e-08	
91	4.550000e+00	5.609426e-08	
92	4.600000e+00	5.608407e-08	
93	4.650000e+00	5.607413e-08	
94	4.700000e+00	5.606444e-08	
95	4.750000e+00	5.605498e-08	
96	4.800000e+00	5.604574e-08	
97	4.850000e+00	5.603672e-08	
98	4.900000e+00	5.602791e-08	
99	4.950000e+00	5.601930e-08	
100	5.000000e+00	5.601089e-08	
101	5.050000e+00	5.600266e-08	
102	5.100000e+00	5.599462e-08	
103	5.150000e+00	5.598675e-08	
104	5.200000e+00	5.597906e-08	
105	5.250000e+00	5.597153e-08	
106	5.300000e+00	5.596416e-08	
107	5.350000e+00	5.595695e-08	
108	5.400000e+00	5.594989e-08	
109	5.450000e+00	5.594297e-08	
110	5.500000e+00	5.593619e-08	
111	5.550000e+00	5.592956e-08	
112	5.600000e+00	5.592305e-08	

Index   v-sweep         rds             
--------------------------------------------------------------------------------
113	5.650000e+00	5.591668e-08	
114	5.700000e+00	5.591043e-08	
115	5.750000e+00	5.590430e-08	
116	5.800000e+00	5.589829e-08	
117	5.850000e+00	5.589240e-08	
118	5.900000e+00	5.588661e-08	
119	5.950000e+00	5.588094e-08	
120	6.000000e+00	5.587537e-08	
121	6.050000e+00	5.586991e-08	
122	6.100000e+00	5.586454e-08	
123	6.150000e+00	5.585927e-08	
124	6.200000e+00	5.585410e-08	
125	6.250000e+00	5.584902e-08	
126	6.300000e+00	5.584403e-08	
127	6.350000e+00	5.583913e-08	
128	6.400000e+00	5.583431e-08	
129	6.450000e+00	5.582958e-08	
130	6.500000e+00	5.582493e-08	
131	6.550000e+00	5.582035e-08	
132	6.600000e+00	5.581585e-08	
Reset re-loads circuit ***************************

Circuit: ***************************

Doing analysis at TEMP = 25.000000 and TNOM = 25.000000


No. of Data Rows : 133
                          ***************************
                          DC transfer characteristic  Mon Jan  9 13:58:37  2023
--------------------------------------------------------------------------------
Index   v-sweep         rds             
--------------------------------------------------------------------------------
0	0.000000e+00	1.342744e-04	
1	5.000000e-02	1.275773e-04	
2	1.000000e-01	1.208969e-04	
3	1.500000e-01	1.142331e-04	
4	2.000000e-01	1.075861e-04	
5	2.500000e-01	1.009560e-04	
6	3.000000e-01	9.434296e-05	
7	3.500000e-01	8.774732e-05	
8	4.000000e-01	8.116960e-05	
9	4.500000e-01	7.461058e-05	
10	5.000000e-01	6.807156e-05	
11	5.500000e-01	6.155465e-05	
12	6.000000e-01	5.506342e-05	
13	6.500000e-01	4.860417e-05	
14	7.000000e-01	4.218825e-05	
15	7.500000e-01	3.583708e-05	
16	8.000000e-01	2.959202e-05	
17	8.500000e-01	2.353392e-05	
18	9.000000e-01	1.781561e-05	
19	9.500000e-01	1.269333e-05	
20	1.000000e+00	8.491946e-06	
21	1.050000e+00	5.431190e-06	
22	1.100000e+00	3.446912e-06	
23	1.150000e+00	2.255075e-06	
24	1.200000e+00	1.555996e-06	
25	1.250000e+00	1.139608e-06	
26	1.300000e+00	8.826960e-07	
27	1.350000e+00	7.174124e-07	
28	1.400000e+00	6.065775e-07	
29	1.450000e+00	5.293620e-07	
30	1.500000e+00	4.737063e-07	
31	1.550000e+00	4.323737e-07	
32	1.600000e+00	4.008662e-07	
33	1.650000e+00	3.762947e-07	
34	1.700000e+00	3.567465e-07	
35	1.750000e+00	3.409202e-07	
36	1.800000e+00	3.279082e-07	
37	1.850000e+00	3.170632e-07	
38	1.900000e+00	3.079142e-07	
39	1.950000e+00	3.001122e-07	
40	2.000000e+00	2.933942e-07	
41	2.050000e+00	2.875590e-07	
42	2.100000e+00	2.824506e-07	
43	2.150000e+00	2.779465e-07	
44	2.200000e+00	2.739496e-07	
45	2.250000e+00	2.703816e-07	
46	2.300000e+00	2.671794e-07	
47	2.350000e+00	2.642912e-07	
48	2.400000e+00	2.616743e-07	
49	2.450000e+00	2.592933e-07	
50	2.500000e+00	2.571184e-07	
51	2.550000e+00	2.551247e-07	
52	2.600000e+00	2.532909e-07	
53	2.650000e+00	2.515990e-07	
54	2.700000e+00	2.500334e-07	

Index   v-sweep         rds             
--------------------------------------------------------------------------------
55	2.750000e+00	2.485808e-07	
56	2.800000e+00	2.472295e-07	
57	2.850000e+00	2.459696e-07	
58	2.900000e+00	2.447922e-07	
59	2.950000e+00	2.436896e-07	
60	3.000000e+00	2.426550e-07	
61	3.050000e+00	2.416824e-07	
62	3.100000e+00	2.407663e-07	
63	3.150000e+00	2.399022e-07	
64	3.200000e+00	2.390858e-07	
65	3.250000e+00	2.383132e-07	
66	3.300000e+00	2.375810e-07	
67	3.350000e+00	2.368863e-07	
68	3.400000e+00	2.362262e-07	
69	3.450000e+00	2.355982e-07	
70	3.500000e+00	2.350000e-07	
71	3.550000e+00	2.344297e-07	
72	3.600000e+00	2.338853e-07	
73	3.650000e+00	2.333651e-07	
74	3.700000e+00	2.328675e-07	
75	3.750000e+00	2.323911e-07	
76	3.800000e+00	2.319346e-07	
77	3.850000e+00	2.314968e-07	
78	3.900000e+00	2.310766e-07	
79	3.950000e+00	2.306728e-07	
80	4.000000e+00	2.302847e-07	
81	4.050000e+00	2.299113e-07	
82	4.100000e+00	2.295517e-07	
83	4.150000e+00	2.292053e-07	
84	4.200000e+00	2.288713e-07	
85	4.250000e+00	2.285490e-07	
86	4.300000e+00	2.282380e-07	
87	4.350000e+00	2.279375e-07	
88	4.400000e+00	2.276471e-07	
89	4.450000e+00	2.273663e-07	
90	4.500000e+00	2.270945e-07	
91	4.550000e+00	2.268315e-07	
92	4.600000e+00	2.265767e-07	
93	4.650000e+00	2.263298e-07	
94	4.700000e+00	2.260905e-07	
95	4.750000e+00	2.258583e-07	
96	4.800000e+00	2.256330e-07	
97	4.850000e+00	2.254143e-07	
98	4.900000e+00	2.252019e-07	
99	4.950000e+00	2.249954e-07	
100	5.000000e+00	2.247948e-07	
101	5.050000e+00	2.245997e-07	
102	5.100000e+00	2.244099e-07	
103	5.150000e+00	2.242252e-07	
104	5.200000e+00	2.240454e-07	
105	5.250000e+00	2.238703e-07	
106	5.300000e+00	2.236997e-07	
107	5.350000e+00	2.235335e-07	
108	5.400000e+00	2.233715e-07	
109	5.450000e+00	2.232135e-07	
110	5.500000e+00	2.230594e-07	
111	5.550000e+00	2.229090e-07	
112	5.600000e+00	2.227622e-07	

Index   v-sweep         rds             
--------------------------------------------------------------------------------
113	5.650000e+00	2.226189e-07	
114	5.700000e+00	2.224790e-07	
115	5.750000e+00	2.223423e-07	
116	5.800000e+00	2.222088e-07	
117	5.850000e+00	2.220783e-07	
118	5.900000e+00	2.219506e-07	
119	5.950000e+00	2.218259e-07	
120	6.000000e+00	2.217038e-07	
121	6.050000e+00	2.215844e-07	
122	6.100000e+00	2.214676e-07	
123	6.150000e+00	2.213533e-07	
124	6.200000e+00	2.212413e-07	
125	6.250000e+00	2.211317e-07	
126	6.300000e+00	2.210244e-07	
127	6.350000e+00	2.209192e-07	
128	6.400000e+00	2.208161e-07	
129	6.450000e+00	2.207152e-07	
130	6.500000e+00	2.206162e-07	
131	6.550000e+00	2.205191e-07	
132	6.600000e+00	2.204240e-07	
Reset re-loads circuit ***************************

Circuit: ***************************

Doing analysis at TEMP = 25.000000 and TNOM = 25.000000


No. of Data Rows : 133
                          ***************************
                          DC transfer characteristic  Mon Jan  9 13:58:37  2023
--------------------------------------------------------------------------------
Index   v-sweep         rds             
--------------------------------------------------------------------------------
0	0.000000e+00	2.197571e-04	
1	5.000000e-02	2.134855e-04	
2	1.000000e-01	2.072297e-04	
3	1.500000e-01	2.009896e-04	
4	2.000000e-01	1.947652e-04	
5	2.500000e-01	1.885564e-04	
6	3.000000e-01	1.823632e-04	
7	3.500000e-01	1.761855e-04	
8	4.000000e-01	1.700233e-04	
9	4.500000e-01	1.638766e-04	
10	5.000000e-01	1.577453e-04	
11	5.500000e-01	1.516294e-04	
12	6.000000e-01	1.455289e-04	
13	6.500000e-01	1.394437e-04	
14	7.000000e-01	1.333738e-04	
15	7.500000e-01	1.273192e-04	
16	8.000000e-01	1.212799e-04	
17	8.500000e-01	1.152560e-04	
18	9.000000e-01	1.092475e-04	
19	9.500000e-01	1.032545e-04	
20	1.000000e+00	9.727719e-05	
21	1.050000e+00	9.131582e-05	
22	1.100000e+00	8.537081e-05	
23	1.150000e+00	7.944279e-05	
24	1.200000e+00	7.353277e-05	
25	1.250000e+00	6.764234e-05	
26	1.300000e+00	6.177406e-05	
27	1.350000e+00	5.593212e-05	
28	1.400000e+00	5.012350e-05	
29	1.450000e+00	4.436004e-05	
30	1.500000e+00	3.866211e-05	
31	1.550000e+00	3.306478e-05	
32	1.600000e+00	2.762762e-05	
33	1.650000e+00	2.244722e-05	
34	1.700000e+00	1.766551e-05	
35	1.750000e+00	1.345670e-05	
36	1.800000e+00	9.975614e-06	
37	1.850000e+00	7.285834e-06	
38	1.900000e+00	5.328129e-06	
39	1.950000e+00	3.959384e-06	
40	2.000000e+00	3.019056e-06	
41	2.050000e+00	2.372325e-06	
42	2.100000e+00	1.921561e-06	
43	2.150000e+00	1.601103e-06	
44	2.200000e+00	1.368128e-06	
45	2.250000e+00	1.194882e-06	
46	2.300000e+00	1.063236e-06	
47	2.350000e+00	9.611729e-07	
48	2.400000e+00	8.805815e-07	
49	2.450000e+00	8.158797e-07	
50	2.500000e+00	7.631517e-07	
51	2.550000e+00	7.195987e-07	
52	2.600000e+00	6.831852e-07	
53	2.650000e+00	6.524060e-07	
54	2.700000e+00	6.261308e-07	

Index   v-sweep         rds             
--------------------------------------------------------------------------------
55	2.750000e+00	6.034989e-07	
56	2.800000e+00	5.838460e-07	
57	2.850000e+00	5.666532e-07	
58	2.900000e+00	5.515106e-07	
59	2.950000e+00	5.380912e-07	
60	3.000000e+00	5.261311e-07	
61	3.050000e+00	5.154159e-07	
62	3.100000e+00	5.057697e-07	
63	3.150000e+00	4.970472e-07	
64	3.200000e+00	4.891274e-07	
65	3.250000e+00	4.819088e-07	
66	3.300000e+00	4.753059e-07	
67	3.350000e+00	4.692461e-07	
68	3.400000e+00	4.636674e-07	
69	3.450000e+00	4.585169e-07	
70	3.500000e+00	4.537486e-07	
71	3.550000e+00	4.493229e-07	
72	3.600000e+00	4.452053e-07	
73	3.650000e+00	4.413658e-07	
74	3.700000e+00	4.377778e-07	
75	3.750000e+00	4.344182e-07	
76	3.800000e+00	4.312665e-07	
77	3.850000e+00	4.283044e-07	
78	3.900000e+00	4.255157e-07	
79	3.950000e+00	4.228861e-07	
80	4.000000e+00	4.204026e-07	
81	4.050000e+00	4.180536e-07	
82	4.100000e+00	4.158289e-07	
83	4.150000e+00	4.137189e-07	
84	4.200000e+00	4.117153e-07	
85	4.250000e+00	4.098103e-07	
86	4.300000e+00	4.079970e-07	
87	4.350000e+00	4.062690e-07	
88	4.400000e+00	4.046207e-07	
89	4.450000e+00	4.030466e-07	
90	4.500000e+00	4.015421e-07	
91	4.550000e+00	4.001026e-07	
92	4.600000e+00	3.987241e-07	
93	4.650000e+00	3.974029e-07	
94	4.700000e+00	3.961355e-07	
95	4.750000e+00	3.949188e-07	
96	4.800000e+00	3.937498e-07	
97	4.850000e+00	3.926259e-07	
98	4.900000e+00	3.915445e-07	
99	4.950000e+00	3.905032e-07	
100	5.000000e+00	3.895000e-07	
101	5.050000e+00	3.885327e-07	
102	5.100000e+00	3.875996e-07	
103	5.150000e+00	3.866989e-07	
104	5.200000e+00	3.858289e-07	
105	5.250000e+00	3.849881e-07	
106	5.300000e+00	3.841751e-07	
107	5.350000e+00	3.833885e-07	
108	5.400000e+00	3.826271e-07	
109	5.450000e+00	3.818898e-07	
110	5.500000e+00	3.811754e-07	
111	5.550000e+00	3.804828e-07	
112	5.600000e+00	3.798111e-07	

Index   v-sweep         rds             
--------------------------------------------------------------------------------
113	5.650000e+00	3.791594e-07	
114	5.700000e+00	3.785268e-07	
115	5.750000e+00	3.779125e-07	
116	5.800000e+00	3.773157e-07	
117	5.850000e+00	3.767357e-07	
118	5.900000e+00	3.761718e-07	
119	5.950000e+00	3.756233e-07	
120	6.000000e+00	3.750897e-07	
121	6.050000e+00	3.745703e-07	
122	6.100000e+00	3.740646e-07	
123	6.150000e+00	3.735720e-07	
124	6.200000e+00	3.730920e-07	
125	6.250000e+00	3.726243e-07	
126	6.300000e+00	3.721683e-07	
127	6.350000e+00	3.717235e-07	
128	6.400000e+00	3.712896e-07	
129	6.450000e+00	3.708663e-07	
130	6.500000e+00	3.704530e-07	
131	6.550000e+00	3.700495e-07	
132	6.600000e+00	3.696555e-07	
Reset re-loads circuit ***************************

Circuit: ***************************

Doing analysis at TEMP = 25.000000 and TNOM = 25.000000


No. of Data Rows : 133
                          ***************************
                          DC transfer characteristic  Mon Jan  9 13:58:37  2023
--------------------------------------------------------------------------------
Index   v-sweep         rds             
--------------------------------------------------------------------------------
0	0.000000e+00	2.882356e-04	
1	5.000000e-02	2.825225e-04	
2	1.000000e-01	2.768232e-04	
3	1.500000e-01	2.711377e-04	
4	2.000000e-01	2.654660e-04	
5	2.500000e-01	2.598080e-04	
6	3.000000e-01	2.541637e-04	
7	3.500000e-01	2.485330e-04	
8	4.000000e-01	2.429159e-04	
9	4.500000e-01	2.373124e-04	
10	5.000000e-01	2.317223e-04	
11	5.500000e-01	2.261457e-04	
12	6.000000e-01	2.205826e-04	
13	6.500000e-01	2.150328e-04	
14	7.000000e-01	2.094963e-04	
15	7.500000e-01	2.039731e-04	
16	8.000000e-01	1.984632e-04	
17	8.500000e-01	1.929664e-04	
18	9.000000e-01	1.874829e-04	
19	9.500000e-01	1.820124e-04	
20	1.000000e+00	1.765550e-04	
21	1.050000e+00	1.711107e-04	
22	1.100000e+00	1.656793e-04	
23	1.150000e+00	1.602608e-04	
24	1.200000e+00	1.548553e-04	
25	1.250000e+00	1.494625e-04	
26	1.300000e+00	1.440826e-04	
27	1.350000e+00	1.387155e-04	
28	1.400000e+00	1.333610e-04	
29	1.450000e+00	1.280192e-04	
30	1.500000e+00	1.226900e-04	
31	1.550000e+00	1.173734e-04	
32	1.600000e+00	1.120694e-04	
33	1.650000e+00	1.067779e-04	
34	1.700000e+00	1.014989e-04	
35	1.750000e+00	9.623249e-05	
36	1.800000e+00	9.097875e-05	
37	1.850000e+00	8.573783e-05	
38	1.900000e+00	8.051002e-05	
39	1.950000e+00	7.529581e-05	
40	2.000000e+00	7.009604e-05	
41	2.050000e+00	6.491207e-05	
42	2.100000e+00	5.974617e-05	
43	2.150000e+00	5.460210e-05	
44	2.200000e+00	4.948609e-05	
45	2.250000e+00	4.440848e-05	
46	2.300000e+00	3.938641e-05	
47	2.350000e+00	3.444790e-05	
48	2.400000e+00	2.963746e-05	
49	2.450000e+00	2.502215e-05	
50	2.500000e+00	2.069447e-05	
51	2.550000e+00	1.676513e-05	
52	2.600000e+00	1.334016e-05	
53	2.650000e+00	1.048747e-05	
54	2.700000e+00	8.212642e-06	

Index   v-sweep         rds             
--------------------------------------------------------------------------------
55	2.750000e+00	6.461155e-06	
56	2.800000e+00	5.143092e-06	
57	2.850000e+00	4.161495e-06	
58	2.900000e+00	3.430629e-06	
59	2.950000e+00	2.882644e-06	
60	3.000000e+00	2.467080e-06	
61	3.050000e+00	2.147601e-06	
62	3.100000e+00	1.898394e-06	
63	3.150000e+00	1.701162e-06	
64	3.200000e+00	1.542864e-06	
65	3.250000e+00	1.414128e-06	
66	3.300000e+00	1.308138e-06	
67	3.350000e+00	1.219879e-06	
68	3.400000e+00	1.145614e-06	
69	3.450000e+00	1.082521e-06	
70	3.500000e+00	1.028447e-06	
71	3.550000e+00	9.817276e-07	
72	3.600000e+00	9.410619e-07	
73	3.650000e+00	9.054242e-07	
74	3.700000e+00	8.739965e-07	
75	3.750000e+00	8.461209e-07	
76	3.800000e+00	8.212638e-07	
77	3.850000e+00	7.989884e-07	
78	3.900000e+00	7.789351e-07	
79	3.950000e+00	7.608053e-07	
80	4.000000e+00	7.443494e-07	
81	4.050000e+00	7.293577e-07	
82	4.100000e+00	7.156527e-07	
83	4.150000e+00	7.030836e-07	
84	4.200000e+00	6.915213e-07	
85	4.250000e+00	6.808550e-07	
86	4.300000e+00	6.709890e-07	
87	4.350000e+00	6.618403e-07	
88	4.400000e+00	6.533367e-07	
89	4.450000e+00	6.454150e-07	
90	4.500000e+00	6.380198e-07	
91	4.550000e+00	6.311023e-07	
92	4.600000e+00	6.246195e-07	
93	4.650000e+00	6.185329e-07	
94	4.700000e+00	6.128088e-07	
95	4.750000e+00	6.074167e-07	
96	4.800000e+00	6.023295e-07	
97	4.850000e+00	5.975230e-07	
98	4.900000e+00	5.929753e-07	
99	4.950000e+00	5.886666e-07	
100	5.000000e+00	5.845793e-07	
101	5.050000e+00	5.806971e-07	
102	5.100000e+00	5.770054e-07	
103	5.150000e+00	5.734910e-07	
104	5.200000e+00	5.701418e-07	
105	5.250000e+00	5.669466e-07	
106	5.300000e+00	5.638954e-07	
107	5.350000e+00	5.609790e-07	
108	5.400000e+00	5.581887e-07	
109	5.450000e+00	5.555168e-07	
110	5.500000e+00	5.529561e-07	
111	5.550000e+00	5.505000e-07	
112	5.600000e+00	5.481423e-07	

Index   v-sweep         rds             
--------------------------------------------------------------------------------
113	5.650000e+00	5.458774e-07	
114	5.700000e+00	5.437001e-07	
115	5.750000e+00	5.416054e-07	
116	5.800000e+00	5.395888e-07	
117	5.850000e+00	5.376462e-07	
118	5.900000e+00	5.357736e-07	
119	5.950000e+00	5.339674e-07	
120	6.000000e+00	5.322243e-07	
121	6.050000e+00	5.305409e-07	
122	6.100000e+00	5.289144e-07	
123	6.150000e+00	5.273420e-07	
124	6.200000e+00	5.258210e-07	
125	6.250000e+00	5.243491e-07	
126	6.300000e+00	5.229240e-07	
127	6.350000e+00	5.215434e-07	
128	6.400000e+00	5.202055e-07	
129	6.450000e+00	5.189082e-07	
130	6.500000e+00	5.176497e-07	
131	6.550000e+00	5.164285e-07	
132	6.600000e+00	5.152429e-07	
Reset re-loads circuit ***************************

Circuit: ***************************

Doing analysis at TEMP = 25.000000 and TNOM = 25.000000


No. of Data Rows : 133
                          ***************************
                          DC transfer characteristic  Mon Jan  9 13:58:37  2023
--------------------------------------------------------------------------------
Index   v-sweep         rds             
--------------------------------------------------------------------------------
0	0.000000e+00	3.401941e-04	
1	5.000000e-02	3.350826e-04	
2	1.000000e-01	3.299826e-04	
3	1.500000e-01	3.248942e-04	
4	2.000000e-01	3.198173e-04	
5	2.500000e-01	3.147518e-04	
6	3.000000e-01	3.096979e-04	
7	3.500000e-01	3.046553e-04	
8	4.000000e-01	2.996242e-04	
9	4.500000e-01	2.946044e-04	
10	5.000000e-01	2.895959e-04	
11	5.500000e-01	2.845987e-04	
12	6.000000e-01	2.796127e-04	
13	6.500000e-01	2.746380e-04	
14	7.000000e-01	2.696744e-04	
15	7.500000e-01	2.647221e-04	
16	8.000000e-01	2.597808e-04	
17	8.500000e-01	2.548506e-04	
18	9.000000e-01	2.499315e-04	
19	9.500000e-01	2.450234e-04	
20	1.000000e+00	2.401262e-04	
21	1.050000e+00	2.352401e-04	
22	1.100000e+00	2.303648e-04	
23	1.150000e+00	2.255004e-04	
24	1.200000e+00	2.206469e-04	
25	1.250000e+00	2.158042e-04	
26	1.300000e+00	2.109723e-04	
27	1.350000e+00	2.061511e-04	
28	1.400000e+00	2.013406e-04	
29	1.450000e+00	1.965408e-04	
30	1.500000e+00	1.917516e-04	
31	1.550000e+00	1.869731e-04	
32	1.600000e+00	1.822050e-04	
33	1.650000e+00	1.774475e-04	
34	1.700000e+00	1.727005e-04	
35	1.750000e+00	1.679638e-04	
36	1.800000e+00	1.632376e-04	
37	1.850000e+00	1.585217e-04	
38	1.900000e+00	1.538161e-04	
39	1.950000e+00	1.491207e-04	
40	2.000000e+00	1.444355e-04	
41	2.050000e+00	1.397604e-04	
42	2.100000e+00	1.350954e-04	
43	2.150000e+00	1.304403e-04	
44	2.200000e+00	1.257951e-04	
45	2.250000e+00	1.211598e-04	
46	2.300000e+00	1.165342e-04	
47	2.350000e+00	1.119182e-04	
48	2.400000e+00	1.073118e-04	
49	2.450000e+00	1.027149e-04	
50	2.500000e+00	9.812723e-05	
51	2.550000e+00	9.354880e-05	
52	2.600000e+00	8.897947e-05	
53	2.650000e+00	8.441916e-05	
54	2.700000e+00	7.986782e-05	

Index   v-sweep         rds             
--------------------------------------------------------------------------------
55	2.750000e+00	7.532549e-05	
56	2.800000e+00	7.079234e-05	
57	2.850000e+00	6.626881e-05	
58	2.900000e+00	6.175574e-05	
59	2.950000e+00	5.725473e-05	
60	3.000000e+00	5.276855e-05	
61	3.050000e+00	4.830201e-05	
62	3.100000e+00	4.386315e-05	
63	3.150000e+00	3.946519e-05	
64	3.200000e+00	3.512925e-05	
65	3.250000e+00	3.088784e-05	
66	3.300000e+00	2.678826e-05	
67	3.350000e+00	2.289401e-05	
68	3.400000e+00	1.928096e-05	
69	3.450000e+00	1.602589e-05	
70	3.500000e+00	1.318890e-05	
71	3.550000e+00	1.079727e-05	
72	3.600000e+00	8.839711e-06	
73	3.650000e+00	7.273380e-06	
74	3.700000e+00	6.038250e-06	
75	3.750000e+00	5.070965e-06	
76	3.800000e+00	4.313840e-06	
77	3.850000e+00	3.718759e-06	
78	3.900000e+00	3.247646e-06	
79	3.950000e+00	2.871276e-06	
80	4.000000e+00	2.567571e-06	
81	4.050000e+00	2.319960e-06	
82	4.100000e+00	2.116008e-06	
83	4.150000e+00	1.946346e-06	
84	4.200000e+00	1.803875e-06	
85	4.250000e+00	1.683169e-06	
86	4.300000e+00	1.580051e-06	
87	4.350000e+00	1.491272e-06	
88	4.400000e+00	1.414286e-06	
89	4.450000e+00	1.347077e-06	
90	4.500000e+00	1.288037e-06	
91	4.550000e+00	1.235874e-06	
92	4.600000e+00	1.189537e-06	
93	4.650000e+00	1.148170e-06	
94	4.700000e+00	1.111068e-06	
95	4.750000e+00	1.077646e-06	
96	4.800000e+00	1.047417e-06	
97	4.850000e+00	1.019973e-06	
98	4.900000e+00	9.949677e-07	
99	4.950000e+00	9.721091e-07	
100	5.000000e+00	9.511478e-07	
101	5.050000e+00	9.318696e-07	
102	5.100000e+00	9.140906e-07	
103	5.150000e+00	8.976513e-07	
104	5.200000e+00	8.824135e-07	
105	5.250000e+00	8.682566e-07	
106	5.300000e+00	8.550751e-07	
107	5.350000e+00	8.427761e-07	
108	5.400000e+00	8.312780e-07	
109	5.450000e+00	8.205084e-07	
110	5.500000e+00	8.104034e-07	
111	5.550000e+00	8.009058e-07	
112	5.600000e+00	7.919647e-07	

Index   v-sweep         rds             
--------------------------------------------------------------------------------
113	5.650000e+00	7.835346e-07	
114	5.700000e+00	7.755747e-07	
115	5.750000e+00	7.680482e-07	
116	5.800000e+00	7.609220e-07	
117	5.850000e+00	7.541661e-07	
118	5.900000e+00	7.477536e-07	
119	5.950000e+00	7.416597e-07	
120	6.000000e+00	7.358623e-07	
121	6.050000e+00	7.303408e-07	
122	6.100000e+00	7.250767e-07	
123	6.150000e+00	7.200530e-07	
124	6.200000e+00	7.152542e-07	
125	6.250000e+00	7.106659e-07	
126	6.300000e+00	7.062750e-07	
127	6.350000e+00	7.020695e-07	
128	6.400000e+00	6.980382e-07	
129	6.450000e+00	6.941708e-07	
130	6.500000e+00	6.904578e-07	
131	6.550000e+00	6.868904e-07	
132	6.600000e+00	6.834605e-07	
Reset re-loads circuit ***************************

Circuit: ***************************

Doing analysis at TEMP = 25.000000 and TNOM = 25.000000


No. of Data Rows : 133
                          ***************************
                          DC transfer characteristic  Mon Jan  9 13:58:37  2023
--------------------------------------------------------------------------------
Index   v-sweep         rds             
--------------------------------------------------------------------------------
0	0.000000e+00	3.767263e-04	
1	5.000000e-02	3.722144e-04	
2	1.000000e-01	3.677120e-04	
3	1.500000e-01	3.632189e-04	
4	2.000000e-01	3.587352e-04	
5	2.500000e-01	3.542608e-04	
6	3.000000e-01	3.497957e-04	
7	3.500000e-01	3.453398e-04	
8	4.000000e-01	3.408932e-04	
9	4.500000e-01	3.364559e-04	
10	5.000000e-01	3.320277e-04	
11	5.500000e-01	3.276087e-04	
12	6.000000e-01	3.231989e-04	
13	6.500000e-01	3.187982e-04	
14	7.000000e-01	3.144066e-04	
15	7.500000e-01	3.100240e-04	
16	8.000000e-01	3.056505e-04	
17	8.500000e-01	3.012861e-04	
18	9.000000e-01	2.969306e-04	
19	9.500000e-01	2.925842e-04	
20	1.000000e+00	2.882467e-04	
21	1.050000e+00	2.839181e-04	
22	1.100000e+00	2.795984e-04	
23	1.150000e+00	2.752876e-04	
24	1.200000e+00	2.709857e-04	
25	1.250000e+00	2.666926e-04	
26	1.300000e+00	2.624083e-04	
27	1.350000e+00	2.581328e-04	
28	1.400000e+00	2.538661e-04	
29	1.450000e+00	2.496081e-04	
30	1.500000e+00	2.453588e-04	
31	1.550000e+00	2.411182e-04	
32	1.600000e+00	2.368863e-04	
33	1.650000e+00	2.326630e-04	
34	1.700000e+00	2.284483e-04	
35	1.750000e+00	2.242422e-04	
36	1.800000e+00	2.200447e-04	
37	1.850000e+00	2.158557e-04	
38	1.900000e+00	2.116752e-04	
39	1.950000e+00	2.075031e-04	
40	2.000000e+00	2.033396e-04	
41	2.050000e+00	1.991844e-04	
42	2.100000e+00	1.950376e-04	
43	2.150000e+00	1.908992e-04	
44	2.200000e+00	1.867692e-04	
45	2.250000e+00	1.826474e-04	
46	2.300000e+00	1.785339e-04	
47	2.350000e+00	1.744286e-04	
48	2.400000e+00	1.703316e-04	
49	2.450000e+00	1.662427e-04	
50	2.500000e+00	1.621619e-04	
51	2.550000e+00	1.580891e-04	
52	2.600000e+00	1.540245e-04	
53	2.650000e+00	1.499678e-04	
54	2.700000e+00	1.459190e-04	

Index   v-sweep         rds             
--------------------------------------------------------------------------------
55	2.750000e+00	1.418781e-04	
56	2.800000e+00	1.378450e-04	
57	2.850000e+00	1.338196e-04	
58	2.900000e+00	1.298020e-04	
59	2.950000e+00	1.257919e-04	
60	3.000000e+00	1.217893e-04	
61	3.050000e+00	1.177942e-04	
62	3.100000e+00	1.138063e-04	
63	3.150000e+00	1.098256e-04	
64	3.200000e+00	1.058519e-04	
65	3.250000e+00	1.018851e-04	
66	3.300000e+00	9.792499e-05	
67	3.350000e+00	9.397137e-05	
68	3.400000e+00	9.002401e-05	
69	3.450000e+00	8.608269e-05	
70	3.500000e+00	8.214712e-05	
71	3.550000e+00	7.821704e-05	
72	3.600000e+00	7.429216e-05	
73	3.650000e+00	7.037223e-05	
74	3.700000e+00	6.645708e-05	
75	3.750000e+00	6.254668e-05	
76	3.800000e+00	5.864134e-05	
77	3.850000e+00	5.474185e-05	
78	3.900000e+00	5.084995e-05	
79	3.950000e+00	4.696889e-05	
80	4.000000e+00	4.310433e-05	
81	4.050000e+00	3.926574e-05	
82	4.100000e+00	3.546825e-05	
83	4.150000e+00	3.173488e-05	
84	4.200000e+00	2.809873e-05	
85	4.250000e+00	2.460403e-05	
86	4.300000e+00	2.130443e-05	
87	4.350000e+00	1.825710e-05	
88	4.400000e+00	1.551311e-05	
89	4.450000e+00	1.310676e-05	
90	4.500000e+00	1.104874e-05	
91	4.550000e+00	9.325783e-06	
92	4.600000e+00	7.906465e-06	
93	4.650000e+00	6.749499e-06	
94	4.700000e+00	5.811342e-06	
95	4.750000e+00	5.051293e-06	
96	4.800000e+00	4.434041e-06	
97	4.850000e+00	3.930357e-06	
98	4.900000e+00	3.516749e-06	
99	4.950000e+00	3.174653e-06	
100	5.000000e+00	2.889535e-06	
101	5.050000e+00	2.650052e-06	
102	5.100000e+00	2.447352e-06	
103	5.150000e+00	2.274501e-06	
104	5.200000e+00	2.126050e-06	
105	5.250000e+00	1.997685e-06	
106	5.300000e+00	1.885973e-06	
107	5.350000e+00	1.788166e-06	
108	5.400000e+00	1.702046e-06	
109	5.450000e+00	1.625810e-06	
110	5.500000e+00	1.557987e-06	
111	5.550000e+00	1.497365e-06	
112	5.600000e+00	1.442941e-06	

Index   v-sweep         rds             
--------------------------------------------------------------------------------
113	5.650000e+00	1.393881e-06	
114	5.700000e+00	1.349484e-06	
115	5.750000e+00	1.309162e-06	
116	5.800000e+00	1.272415e-06	
117	5.850000e+00	1.238819e-06	
118	5.900000e+00	1.208011e-06	
119	5.950000e+00	1.179679e-06	
120	6.000000e+00	1.153553e-06	
121	6.050000e+00	1.129401e-06	
122	6.100000e+00	1.107020e-06	
123	6.150000e+00	1.086232e-06	
124	6.200000e+00	1.066883e-06	
125	6.250000e+00	1.048837e-06	
126	6.300000e+00	1.031972e-06	
127	6.350000e+00	1.016182e-06	
128	6.400000e+00	1.001372e-06	
129	6.450000e+00	9.874594e-07	
130	6.500000e+00	9.743678e-07	
131	6.550000e+00	9.620302e-07	
132	6.600000e+00	9.503862e-07	
Reset re-loads circuit ***************************

Circuit: ***************************

Note: No ".plot", ".print", or ".fourier" lines; no simulations run
