
Note: Compatibility modes selected: hs

Warning: m=xx on .subckt line will override multiplier m hierarchy!


Circuit: ***************************

Doing analysis at TEMP = 125.000000 and TNOM = 125.000000


No. of Data Rows : 133
                          ***************************
                          DC transfer characteristic  Mon Jan  9 13:58:39  2023
--------------------------------------------------------------------------------
Index   v-sweep         rds             
--------------------------------------------------------------------------------
0	0.000000e+00	4.892388e-04	
1	5.000000e-02	3.996612e-04	
2	1.000000e-01	3.127990e-04	
3	1.500000e-01	2.295013e-04	
4	2.000000e-01	1.526430e-04	
5	2.500000e-01	9.042833e-05	
6	3.000000e-01	5.335169e-05	
7	3.500000e-01	3.707655e-05	
8	4.000000e-01	2.979062e-05	
9	4.500000e-01	2.574531e-05	
10	5.000000e-01	2.306748e-05	
11	5.500000e-01	2.110289e-05	
12	6.000000e-01	1.957374e-05	
13	6.500000e-01	1.833877e-05	
14	7.000000e-01	1.731591e-05	
15	7.500000e-01	1.645281e-05	
16	8.000000e-01	1.571385e-05	
17	8.500000e-01	1.507367e-05	
18	9.000000e-01	1.451357e-05	
19	9.500000e-01	1.401939e-05	
20	1.000000e+00	1.358017e-05	
21	1.050000e+00	1.318728e-05	
22	1.100000e+00	1.283382e-05	
23	1.150000e+00	1.251421e-05	
24	1.200000e+00	1.222388e-05	
25	1.250000e+00	1.195904e-05	
26	1.300000e+00	1.171653e-05	
27	1.350000e+00	1.149369e-05	
28	1.400000e+00	1.128828e-05	
29	1.450000e+00	1.109837e-05	
30	1.500000e+00	1.092231e-05	
31	1.550000e+00	1.075868e-05	
32	1.600000e+00	1.060624e-05	
33	1.650000e+00	1.046390e-05	
34	1.700000e+00	1.033073e-05	
35	1.750000e+00	1.020590e-05	
36	1.800000e+00	1.008867e-05	
37	1.850000e+00	9.978381e-06	
38	1.900000e+00	9.874464e-06	
39	1.950000e+00	9.776399e-06	
40	2.000000e+00	9.683723e-06	
41	2.050000e+00	9.596021e-06	
42	2.100000e+00	9.512916e-06	
43	2.150000e+00	9.434072e-06	
44	2.200000e+00	9.359182e-06	
45	2.250000e+00	9.287969e-06	
46	2.300000e+00	9.220180e-06	
47	2.350000e+00	9.155585e-06	
48	2.400000e+00	9.093973e-06	
49	2.450000e+00	9.035152e-06	
50	2.500000e+00	8.978946e-06	
51	2.550000e+00	8.925193e-06	
52	2.600000e+00	8.873744e-06	
53	2.650000e+00	8.824462e-06	
54	2.700000e+00	8.777219e-06	

Index   v-sweep         rds             
--------------------------------------------------------------------------------
55	2.750000e+00	8.731899e-06	
56	2.800000e+00	8.688393e-06	
57	2.850000e+00	8.646601e-06	
58	2.900000e+00	8.606428e-06	
59	2.950000e+00	8.567789e-06	
60	3.000000e+00	8.530603e-06	
61	3.050000e+00	8.494794e-06	
62	3.100000e+00	8.460291e-06	
63	3.150000e+00	8.427030e-06	
64	3.200000e+00	8.394949e-06	
65	3.250000e+00	8.363991e-06	
66	3.300000e+00	8.334101e-06	
67	3.350000e+00	8.305229e-06	
68	3.400000e+00	8.277328e-06	
69	3.450000e+00	8.250353e-06	
70	3.500000e+00	8.224262e-06	
71	3.550000e+00	8.199015e-06	
72	3.600000e+00	8.174576e-06	
73	3.650000e+00	8.150910e-06	
74	3.700000e+00	8.127982e-06	
75	3.750000e+00	8.105763e-06	
76	3.800000e+00	8.084222e-06	
77	3.850000e+00	8.063331e-06	
78	3.900000e+00	8.043064e-06	
79	3.950000e+00	8.023396e-06	
80	4.000000e+00	8.004303e-06	
81	4.050000e+00	7.985762e-06	
82	4.100000e+00	7.967752e-06	
83	4.150000e+00	7.950252e-06	
84	4.200000e+00	7.933244e-06	
85	4.250000e+00	7.916709e-06	
86	4.300000e+00	7.900628e-06	
87	4.350000e+00	7.884986e-06	
88	4.400000e+00	7.869767e-06	
89	4.450000e+00	7.854955e-06	
90	4.500000e+00	7.840536e-06	
91	4.550000e+00	7.826497e-06	
92	4.600000e+00	7.812823e-06	
93	4.650000e+00	7.799503e-06	
94	4.700000e+00	7.786524e-06	
95	4.750000e+00	7.773875e-06	
96	4.800000e+00	7.761545e-06	
97	4.850000e+00	7.749523e-06	
98	4.900000e+00	7.737800e-06	
99	4.950000e+00	7.726365e-06	
100	5.000000e+00	7.715210e-06	
101	5.050000e+00	7.704324e-06	
102	5.100000e+00	7.693701e-06	
103	5.150000e+00	7.683332e-06	
104	5.200000e+00	7.673208e-06	
105	5.250000e+00	7.663323e-06	
106	5.300000e+00	7.653669e-06	
107	5.350000e+00	7.644238e-06	
108	5.400000e+00	7.635026e-06	
109	5.450000e+00	7.626024e-06	
110	5.500000e+00	7.617228e-06	
111	5.550000e+00	7.608630e-06	
112	5.600000e+00	7.600225e-06	

Index   v-sweep         rds             
--------------------------------------------------------------------------------
113	5.650000e+00	7.592008e-06	
114	5.700000e+00	7.583973e-06	
115	5.750000e+00	7.576115e-06	
116	5.800000e+00	7.568430e-06	
117	5.850000e+00	7.560912e-06	
118	5.900000e+00	7.553557e-06	
119	5.950000e+00	7.546360e-06	
120	6.000000e+00	7.539317e-06	
121	6.050000e+00	7.532424e-06	
122	6.100000e+00	7.525678e-06	
123	6.150000e+00	7.519073e-06	
124	6.200000e+00	7.512607e-06	
125	6.250000e+00	7.506275e-06	
126	6.300000e+00	7.500075e-06	
127	6.350000e+00	7.494003e-06	
128	6.400000e+00	7.488055e-06	
129	6.450000e+00	7.482229e-06	
130	6.500000e+00	7.476522e-06	
131	6.550000e+00	7.470930e-06	
132	6.600000e+00	7.465450e-06	
Reset re-loads circuit ***************************

Circuit: ***************************

Doing analysis at TEMP = 125.000000 and TNOM = 125.000000


No. of Data Rows : 133
                          ***************************
                          DC transfer characteristic  Mon Jan  9 13:58:39  2023
--------------------------------------------------------------------------------
Index   v-sweep         rds             
--------------------------------------------------------------------------------
0	0.000000e+00	1.555125e-03	
1	5.000000e-02	1.451890e-03	
2	1.000000e-01	1.351209e-03	
3	1.500000e-01	1.253011e-03	
4	2.000000e-01	1.157229e-03	
5	2.500000e-01	1.063803e-03	
6	3.000000e-01	9.726785e-04	
7	3.500000e-01	8.838105e-04	
8	4.000000e-01	7.971711e-04	
9	4.500000e-01	7.127593e-04	
10	5.000000e-01	6.306240e-04	
11	5.500000e-01	5.509120e-04	
12	6.000000e-01	4.739707e-04	
13	6.500000e-01	4.005605e-04	
14	7.000000e-01	3.322165e-04	
15	7.500000e-01	2.715155e-04	
16	8.000000e-01	2.213187e-04	
17	8.500000e-01	1.827040e-04	
18	9.000000e-01	1.541356e-04	
19	9.500000e-01	1.329915e-04	
20	1.000000e+00	1.170012e-04	
21	1.050000e+00	1.045812e-04	
22	1.100000e+00	9.468975e-05	
23	1.150000e+00	8.663939e-05	
24	1.200000e+00	7.996598e-05	
25	1.250000e+00	7.434723e-05	
26	1.300000e+00	6.955323e-05	
27	1.350000e+00	6.541595e-05	
28	1.400000e+00	6.180987e-05	
29	1.450000e+00	5.863940e-05	
30	1.500000e+00	5.583051e-05	
31	1.550000e+00	5.332499e-05	
32	1.600000e+00	5.107646e-05	
33	1.650000e+00	4.904750e-05	
34	1.700000e+00	4.720761e-05	
35	1.750000e+00	4.553167e-05	
36	1.800000e+00	4.399882e-05	
37	1.850000e+00	4.259157e-05	
38	1.900000e+00	4.129518e-05	
39	1.950000e+00	4.009712e-05	
40	2.000000e+00	3.898667e-05	
41	2.050000e+00	3.795461e-05	
42	2.100000e+00	3.699298e-05	
43	2.150000e+00	3.609485e-05	
44	2.200000e+00	3.525416e-05	
45	2.250000e+00	3.446562e-05	
46	2.300000e+00	3.372455e-05	
47	2.350000e+00	3.302681e-05	
48	2.400000e+00	3.236874e-05	
49	2.450000e+00	3.174707e-05	
50	2.500000e+00	3.115889e-05	
51	2.550000e+00	3.060158e-05	
52	2.600000e+00	3.007279e-05	
53	2.650000e+00	2.957041e-05	
54	2.700000e+00	2.909251e-05	

Index   v-sweep         rds             
--------------------------------------------------------------------------------
55	2.750000e+00	2.863737e-05	
56	2.800000e+00	2.820340e-05	
57	2.850000e+00	2.778919e-05	
58	2.900000e+00	2.739342e-05	
59	2.950000e+00	2.701490e-05	
60	3.000000e+00	2.665254e-05	
61	3.050000e+00	2.630532e-05	
62	3.100000e+00	2.597234e-05	
63	3.150000e+00	2.565273e-05	
64	3.200000e+00	2.534573e-05	
65	3.250000e+00	2.505060e-05	
66	3.300000e+00	2.476668e-05	
67	3.350000e+00	2.449334e-05	
68	3.400000e+00	2.423001e-05	
69	3.450000e+00	2.397616e-05	
70	3.500000e+00	2.373130e-05	
71	3.550000e+00	2.349494e-05	
72	3.600000e+00	2.326668e-05	
73	3.650000e+00	2.304610e-05	
74	3.700000e+00	2.283282e-05	
75	3.750000e+00	2.262650e-05	
76	3.800000e+00	2.242680e-05	
77	3.850000e+00	2.223341e-05	
78	3.900000e+00	2.204604e-05	
79	3.950000e+00	2.186443e-05	
80	4.000000e+00	2.168830e-05	
81	4.050000e+00	2.151743e-05	
82	4.100000e+00	2.135157e-05	
83	4.150000e+00	2.119053e-05	
84	4.200000e+00	2.103409e-05	
85	4.250000e+00	2.088206e-05	
86	4.300000e+00	2.073426e-05	
87	4.350000e+00	2.059052e-05	
88	4.400000e+00	2.045068e-05	
89	4.450000e+00	2.031458e-05	
90	4.500000e+00	2.018208e-05	
91	4.550000e+00	2.005304e-05	
92	4.600000e+00	1.992732e-05	
93	4.650000e+00	1.980482e-05	
94	4.700000e+00	1.968539e-05	
95	4.750000e+00	1.956894e-05	
96	4.800000e+00	1.945535e-05	
97	4.850000e+00	1.934452e-05	
98	4.900000e+00	1.923636e-05	
99	4.950000e+00	1.913077e-05	
100	5.000000e+00	1.902766e-05	
101	5.050000e+00	1.892695e-05	
102	5.100000e+00	1.882856e-05	
103	5.150000e+00	1.873240e-05	
104	5.200000e+00	1.863842e-05	
105	5.250000e+00	1.854653e-05	
106	5.300000e+00	1.845666e-05	
107	5.350000e+00	1.836876e-05	
108	5.400000e+00	1.828276e-05	
109	5.450000e+00	1.819861e-05	
110	5.500000e+00	1.811623e-05	
111	5.550000e+00	1.803559e-05	
112	5.600000e+00	1.795663e-05	

Index   v-sweep         rds             
--------------------------------------------------------------------------------
113	5.650000e+00	1.787929e-05	
114	5.700000e+00	1.780353e-05	
115	5.750000e+00	1.772930e-05	
116	5.800000e+00	1.765656e-05	
117	5.850000e+00	1.758527e-05	
118	5.900000e+00	1.751538e-05	
119	5.950000e+00	1.744685e-05	
120	6.000000e+00	1.737965e-05	
121	6.050000e+00	1.731374e-05	
122	6.100000e+00	1.724908e-05	
123	6.150000e+00	1.718564e-05	
124	6.200000e+00	1.712338e-05	
125	6.250000e+00	1.706228e-05	
126	6.300000e+00	1.700230e-05	
127	6.350000e+00	1.694342e-05	
128	6.400000e+00	1.688560e-05	
129	6.450000e+00	1.682882e-05	
130	6.500000e+00	1.677305e-05	
131	6.550000e+00	1.671827e-05	
132	6.600000e+00	1.666444e-05	
Reset re-loads circuit ***************************

Circuit: ***************************

Doing analysis at TEMP = 125.000000 and TNOM = 125.000000


No. of Data Rows : 133
                          ***************************
                          DC transfer characteristic  Mon Jan  9 13:58:39  2023
--------------------------------------------------------------------------------
Index   v-sweep         rds             
--------------------------------------------------------------------------------
0	0.000000e+00	2.338156e-03	
1	5.000000e-02	2.232610e-03	
2	1.000000e-01	2.129507e-03	
3	1.500000e-01	2.028782e-03	
4	2.000000e-01	1.930369e-03	
5	2.500000e-01	1.834207e-03	
6	3.000000e-01	1.740235e-03	
7	3.500000e-01	1.648394e-03	
8	4.000000e-01	1.558626e-03	
9	4.500000e-01	1.470876e-03	
10	5.000000e-01	1.385093e-03	
11	5.500000e-01	1.301224e-03	
12	6.000000e-01	1.219224e-03	
13	6.500000e-01	1.139045e-03	
14	7.000000e-01	1.060647e-03	
15	7.500000e-01	9.839912e-04	
16	8.000000e-01	9.090423e-04	
17	8.500000e-01	8.357720e-04	
18	9.000000e-01	7.641603e-04	
19	9.500000e-01	6.942030e-04	
20	1.000000e+00	6.259297e-04	
21	1.050000e+00	5.594495e-04	
22	1.100000e+00	4.950634e-04	
23	1.150000e+00	4.334847e-04	
24	1.200000e+00	3.760716e-04	
25	1.250000e+00	3.246478e-04	
26	1.300000e+00	2.806454e-04	
27	1.350000e+00	2.443312e-04	
28	1.400000e+00	2.149164e-04	
29	1.450000e+00	1.911675e-04	
30	1.500000e+00	1.718729e-04	
31	1.550000e+00	1.560280e-04	
32	1.600000e+00	1.428559e-04	
33	1.650000e+00	1.317715e-04	
34	1.700000e+00	1.223363e-04	
35	1.750000e+00	1.142202e-04	
36	1.800000e+00	1.071722e-04	
37	1.850000e+00	1.009991e-04	
38	1.900000e+00	9.555064e-05	
39	1.950000e+00	9.070825e-05	
40	2.000000e+00	8.637755e-05	
41	2.050000e+00	8.248251e-05	
42	2.100000e+00	7.896123e-05	
43	2.150000e+00	7.576291e-05	
44	2.200000e+00	7.284547e-05	
45	2.250000e+00	7.017376e-05	
46	2.300000e+00	6.771823e-05	
47	2.350000e+00	6.545386e-05	
48	2.400000e+00	6.335930e-05	
49	2.450000e+00	6.141627e-05	
50	2.500000e+00	5.960900e-05	
51	2.550000e+00	5.792383e-05	
52	2.600000e+00	5.634886e-05	
53	2.650000e+00	5.487368e-05	
54	2.700000e+00	5.348915e-05	

Index   v-sweep         rds             
--------------------------------------------------------------------------------
55	2.750000e+00	5.218722e-05	
56	2.800000e+00	5.096074e-05	
57	2.850000e+00	4.980338e-05	
58	2.900000e+00	4.870947e-05	
59	2.950000e+00	4.767398e-05	
60	3.000000e+00	4.669236e-05	
61	3.050000e+00	4.576054e-05	
62	3.100000e+00	4.487484e-05	
63	3.150000e+00	4.403195e-05	
64	3.200000e+00	4.322884e-05	
65	3.250000e+00	4.246277e-05	
66	3.300000e+00	4.173127e-05	
67	3.350000e+00	4.103204e-05	
68	3.400000e+00	4.036302e-05	
69	3.450000e+00	3.972229e-05	
70	3.500000e+00	3.910811e-05	
71	3.550000e+00	3.851887e-05	
72	3.600000e+00	3.795310e-05	
73	3.650000e+00	3.740941e-05	
74	3.700000e+00	3.688656e-05	
75	3.750000e+00	3.638337e-05	
76	3.800000e+00	3.589876e-05	
77	3.850000e+00	3.543173e-05	
78	3.900000e+00	3.498135e-05	
79	3.950000e+00	3.454673e-05	
80	4.000000e+00	3.412708e-05	
81	4.050000e+00	3.372165e-05	
82	4.100000e+00	3.332971e-05	
83	4.150000e+00	3.295063e-05	
84	4.200000e+00	3.258377e-05	
85	4.250000e+00	3.222856e-05	
86	4.300000e+00	3.188446e-05	
87	4.350000e+00	3.155096e-05	
88	4.400000e+00	3.122758e-05	
89	4.450000e+00	3.091387e-05	
90	4.500000e+00	3.060941e-05	
91	4.550000e+00	3.031379e-05	
92	4.600000e+00	3.002665e-05	
93	4.650000e+00	2.974762e-05	
94	4.700000e+00	2.947636e-05	
95	4.750000e+00	2.921257e-05	
96	4.800000e+00	2.895594e-05	
97	4.850000e+00	2.870619e-05	
98	4.900000e+00	2.846304e-05	
99	4.950000e+00	2.822625e-05	
100	5.000000e+00	2.799556e-05	
101	5.050000e+00	2.777075e-05	
102	5.100000e+00	2.755160e-05	
103	5.150000e+00	2.733789e-05	
104	5.200000e+00	2.712945e-05	
105	5.250000e+00	2.692606e-05	
106	5.300000e+00	2.672757e-05	
107	5.350000e+00	2.653378e-05	
108	5.400000e+00	2.634455e-05	
109	5.450000e+00	2.615971e-05	
110	5.500000e+00	2.597912e-05	
111	5.550000e+00	2.580263e-05	
112	5.600000e+00	2.563011e-05	

Index   v-sweep         rds             
--------------------------------------------------------------------------------
113	5.650000e+00	2.546143e-05	
114	5.700000e+00	2.529646e-05	
115	5.750000e+00	2.513509e-05	
116	5.800000e+00	2.497721e-05	
117	5.850000e+00	2.482270e-05	
118	5.900000e+00	2.467145e-05	
119	5.950000e+00	2.452338e-05	
120	6.000000e+00	2.437838e-05	
121	6.050000e+00	2.423636e-05	
122	6.100000e+00	2.409723e-05	
123	6.150000e+00	2.396091e-05	
124	6.200000e+00	2.382732e-05	
125	6.250000e+00	2.369637e-05	
126	6.300000e+00	2.356799e-05	
127	6.350000e+00	2.344212e-05	
128	6.400000e+00	2.331867e-05	
129	6.450000e+00	2.319758e-05	
130	6.500000e+00	2.307879e-05	
131	6.550000e+00	2.296224e-05	
132	6.600000e+00	2.284786e-05	
Reset re-loads circuit ***************************

Circuit: ***************************

Doing analysis at TEMP = 125.000000 and TNOM = 125.000000


No. of Data Rows : 133
                          ***************************
                          DC transfer characteristic  Mon Jan  9 13:58:39  2023
--------------------------------------------------------------------------------
Index   v-sweep         rds             
--------------------------------------------------------------------------------
0	0.000000e+00	2.920010e-03	
1	5.000000e-02	2.817483e-03	
2	1.000000e-01	2.717105e-03	
3	1.500000e-01	2.618825e-03	
4	2.000000e-01	2.522590e-03	
5	2.500000e-01	2.428350e-03	
6	3.000000e-01	2.336057e-03	
7	3.500000e-01	2.245662e-03	
8	4.000000e-01	2.157118e-03	
9	4.500000e-01	2.070380e-03	
10	5.000000e-01	1.985403e-03	
11	5.500000e-01	1.902143e-03	
12	6.000000e-01	1.820559e-03	
13	6.500000e-01	1.740610e-03	
14	7.000000e-01	1.662255e-03	
15	7.500000e-01	1.585457e-03	
16	8.000000e-01	1.510178e-03	
17	8.500000e-01	1.436383e-03	
18	9.000000e-01	1.364034e-03	
19	9.500000e-01	1.293097e-03	
20	1.000000e+00	1.223538e-03	
21	1.050000e+00	1.155318e-03	
22	1.100000e+00	1.088399e-03	
23	1.150000e+00	1.022738e-03	
24	1.200000e+00	9.582831e-04	
25	1.250000e+00	8.949676e-04	
26	1.300000e+00	8.327039e-04	
27	1.350000e+00	7.713714e-04	
28	1.400000e+00	7.108095e-04	
29	1.450000e+00	6.508358e-04	
30	1.500000e+00	5.913392e-04	
31	1.550000e+00	5.325195e-04	
32	1.600000e+00	4.752316e-04	
33	1.650000e+00	4.210883e-04	
34	1.700000e+00	3.719316e-04	
35	1.750000e+00	3.289893e-04	
36	1.800000e+00	2.924939e-04	
37	1.850000e+00	2.619174e-04	
38	1.900000e+00	2.363948e-04	
39	1.950000e+00	2.150268e-04	
40	2.000000e+00	1.970183e-04	
41	2.050000e+00	1.817153e-04	
42	2.100000e+00	1.685975e-04	
43	2.150000e+00	1.572557e-04	
44	2.200000e+00	1.473693e-04	
45	2.250000e+00	1.386859e-04	
46	2.300000e+00	1.310056e-04	
47	2.350000e+00	1.241687e-04	
48	2.400000e+00	1.180467e-04	
49	2.450000e+00	1.125354e-04	
50	2.500000e+00	1.075493e-04	
51	2.550000e+00	1.030179e-04	
52	2.600000e+00	9.888262e-05	
53	2.650000e+00	9.509431e-05	
54	2.700000e+00	9.161157e-05	

Index   v-sweep         rds             
--------------------------------------------------------------------------------
55	2.750000e+00	8.839924e-05	
56	2.800000e+00	8.542732e-05	
57	2.850000e+00	8.267002e-05	
58	2.900000e+00	8.010511e-05	
59	2.950000e+00	7.771327e-05	
60	3.000000e+00	7.547770e-05	
61	3.050000e+00	7.338367e-05	
62	3.100000e+00	7.141824e-05	
63	3.150000e+00	6.956999e-05	
64	3.200000e+00	6.782881e-05	
65	3.250000e+00	6.618571e-05	
66	3.300000e+00	6.463267e-05	
67	3.350000e+00	6.316254e-05	
68	3.400000e+00	6.176888e-05	
69	3.450000e+00	6.044590e-05	
70	3.500000e+00	5.918840e-05	
71	3.550000e+00	5.799164e-05	
72	3.600000e+00	5.685135e-05	
73	3.650000e+00	5.576366e-05	
74	3.700000e+00	5.472501e-05	
75	3.750000e+00	5.373218e-05	
76	3.800000e+00	5.278222e-05	
77	3.850000e+00	5.187242e-05	
78	3.900000e+00	5.100030e-05	
79	3.950000e+00	5.016358e-05	
80	4.000000e+00	4.936016e-05	
81	4.050000e+00	4.858809e-05	
82	4.100000e+00	4.784558e-05	
83	4.150000e+00	4.713098e-05	
84	4.200000e+00	4.644275e-05	
85	4.250000e+00	4.577946e-05	
86	4.300000e+00	4.513978e-05	
87	4.350000e+00	4.452249e-05	
88	4.400000e+00	4.392644e-05	
89	4.450000e+00	4.335055e-05	
90	4.500000e+00	4.279382e-05	
91	4.550000e+00	4.225532e-05	
92	4.600000e+00	4.173417e-05	
93	4.650000e+00	4.122955e-05	
94	4.700000e+00	4.074070e-05	
95	4.750000e+00	4.026688e-05	
96	4.800000e+00	3.980742e-05	
97	4.850000e+00	3.936169e-05	
98	4.900000e+00	3.892908e-05	
99	4.950000e+00	3.850902e-05	
100	5.000000e+00	3.810097e-05	
101	5.050000e+00	3.770445e-05	
102	5.100000e+00	3.731896e-05	
103	5.150000e+00	3.694407e-05	
104	5.200000e+00	3.657933e-05	
105	5.250000e+00	3.622436e-05	
106	5.300000e+00	3.587876e-05	
107	5.350000e+00	3.554218e-05	
108	5.400000e+00	3.521427e-05	
109	5.450000e+00	3.489470e-05	
110	5.500000e+00	3.458317e-05	
111	5.550000e+00	3.427938e-05	
112	5.600000e+00	3.398305e-05	

Index   v-sweep         rds             
--------------------------------------------------------------------------------
113	5.650000e+00	3.369391e-05	
114	5.700000e+00	3.341171e-05	
115	5.750000e+00	3.313621e-05	
116	5.800000e+00	3.286717e-05	
117	5.850000e+00	3.260437e-05	
118	5.900000e+00	3.234761e-05	
119	5.950000e+00	3.209669e-05	
120	6.000000e+00	3.185140e-05	
121	6.050000e+00	3.161158e-05	
122	6.100000e+00	3.137703e-05	
123	6.150000e+00	3.114760e-05	
124	6.200000e+00	3.092312e-05	
125	6.250000e+00	3.070345e-05	
126	6.300000e+00	3.048842e-05	
127	6.350000e+00	3.027790e-05	
128	6.400000e+00	3.007176e-05	
129	6.450000e+00	2.986986e-05	
130	6.500000e+00	2.967208e-05	
131	6.550000e+00	2.947830e-05	
132	6.600000e+00	2.928839e-05	
Reset re-loads circuit ***************************

Circuit: ***************************

Doing analysis at TEMP = 125.000000 and TNOM = 125.000000


No. of Data Rows : 133
                          ***************************
                          DC transfer characteristic  Mon Jan  9 13:58:39  2023
--------------------------------------------------------------------------------
Index   v-sweep         rds             
--------------------------------------------------------------------------------
0	0.000000e+00	3.297187e-03	
1	5.000000e-02	3.201794e-03	
2	1.000000e-01	3.108182e-03	
3	1.500000e-01	3.016313e-03	
4	2.000000e-01	2.926148e-03	
5	2.500000e-01	2.837652e-03	
6	3.000000e-01	2.750786e-03	
7	3.500000e-01	2.665517e-03	
8	4.000000e-01	2.581808e-03	
9	4.500000e-01	2.499625e-03	
10	5.000000e-01	2.418935e-03	
11	5.500000e-01	2.339705e-03	
12	6.000000e-01	2.261902e-03	
13	6.500000e-01	2.185496e-03	
14	7.000000e-01	2.110455e-03	
15	7.500000e-01	2.036749e-03	
16	8.000000e-01	1.964350e-03	
17	8.500000e-01	1.893228e-03	
18	9.000000e-01	1.823358e-03	
19	9.500000e-01	1.754711e-03	
20	1.000000e+00	1.687262e-03	
21	1.050000e+00	1.620985e-03	
22	1.100000e+00	1.555855e-03	
23	1.150000e+00	1.491848e-03	
24	1.200000e+00	1.428938e-03	
25	1.250000e+00	1.367101e-03	
26	1.300000e+00	1.306311e-03	
27	1.350000e+00	1.246539e-03	
28	1.400000e+00	1.187757e-03	
29	1.450000e+00	1.129928e-03	
30	1.500000e+00	1.073010e-03	
31	1.550000e+00	1.016950e-03	
32	1.600000e+00	9.616748e-04	
33	1.650000e+00	9.070845e-04	
34	1.700000e+00	8.530379e-04	
35	1.750000e+00	7.993380e-04	
36	1.800000e+00	7.457250e-04	
37	1.850000e+00	6.919051e-04	
38	1.900000e+00	6.376650e-04	
39	1.950000e+00	5.831164e-04	
40	2.000000e+00	5.289954e-04	
41	2.050000e+00	4.767271e-04	
42	2.100000e+00	4.280123e-04	
43	2.150000e+00	3.841736e-04	
44	2.200000e+00	3.457786e-04	
45	2.250000e+00	3.127089e-04	
46	2.300000e+00	2.844401e-04	
47	2.350000e+00	2.603004e-04	
48	2.400000e+00	2.396243e-04	
49	2.450000e+00	2.218215e-04	
50	2.500000e+00	2.063952e-04	
51	2.550000e+00	1.929385e-04	
52	2.600000e+00	1.811212e-04	
53	2.650000e+00	1.706769e-04	
54	2.700000e+00	1.613900e-04	

Index   v-sweep         rds             
--------------------------------------------------------------------------------
55	2.750000e+00	1.530851e-04	
56	2.800000e+00	1.456194e-04	
57	2.850000e+00	1.388750e-04	
58	2.900000e+00	1.327549e-04	
59	2.950000e+00	1.271778e-04	
60	3.000000e+00	1.220761e-04	
61	3.050000e+00	1.173923e-04	
62	3.100000e+00	1.130779e-04	
63	3.150000e+00	1.090914e-04	
64	3.200000e+00	1.053973e-04	
65	3.250000e+00	1.019649e-04	
66	3.300000e+00	9.876773e-05	
67	3.350000e+00	9.578252e-05	
68	3.400000e+00	9.298911e-05	
69	3.450000e+00	9.036974e-05	
70	3.500000e+00	8.790877e-05	
71	3.550000e+00	8.559235e-05	
72	3.600000e+00	8.340821e-05	
73	3.650000e+00	8.134541e-05	
74	3.700000e+00	7.939418e-05	
75	3.750000e+00	7.754575e-05	
76	3.800000e+00	7.579226e-05	
77	3.850000e+00	7.412663e-05	
78	3.900000e+00	7.254244e-05	
79	3.950000e+00	7.103390e-05	
80	4.000000e+00	6.959574e-05	
81	4.050000e+00	6.822318e-05	
82	4.100000e+00	6.691184e-05	
83	4.150000e+00	6.565775e-05	
84	4.200000e+00	6.445725e-05	
85	4.250000e+00	6.330700e-05	
86	4.300000e+00	6.220391e-05	
87	4.350000e+00	6.114517e-05	
88	4.400000e+00	6.012815e-05	
89	4.450000e+00	5.915046e-05	
90	4.500000e+00	5.820986e-05	
91	4.550000e+00	5.730430e-05	
92	4.600000e+00	5.643186e-05	
93	4.650000e+00	5.559076e-05	
94	4.700000e+00	5.477935e-05	
95	4.750000e+00	5.399610e-05	
96	4.800000e+00	5.323957e-05	
97	4.850000e+00	5.250843e-05	
98	4.900000e+00	5.180142e-05	
99	4.950000e+00	5.111738e-05	
100	5.000000e+00	5.045520e-05	
101	5.050000e+00	4.981387e-05	
102	5.100000e+00	4.919243e-05	
103	5.150000e+00	4.858995e-05	
104	5.200000e+00	4.800561e-05	
105	5.250000e+00	4.743859e-05	
106	5.300000e+00	4.688815e-05	
107	5.350000e+00	4.635357e-05	
108	5.400000e+00	4.583418e-05	
109	5.450000e+00	4.532935e-05	
110	5.500000e+00	4.483849e-05	
111	5.550000e+00	4.436102e-05	
112	5.600000e+00	4.389641e-05	

Index   v-sweep         rds             
--------------------------------------------------------------------------------
113	5.650000e+00	4.344417e-05	
114	5.700000e+00	4.300379e-05	
115	5.750000e+00	4.257484e-05	
116	5.800000e+00	4.215688e-05	
117	5.850000e+00	4.174949e-05	
118	5.900000e+00	4.135230e-05	
119	5.950000e+00	4.096492e-05	
120	6.000000e+00	4.058700e-05	
121	6.050000e+00	4.021822e-05	
122	6.100000e+00	3.985824e-05	
123	6.150000e+00	3.950677e-05	
124	6.200000e+00	3.916351e-05	
125	6.250000e+00	3.882819e-05	
126	6.300000e+00	3.850053e-05	
127	6.350000e+00	3.818030e-05	
128	6.400000e+00	3.786724e-05	
129	6.450000e+00	3.756112e-05	
130	6.500000e+00	3.726173e-05	
131	6.550000e+00	3.696885e-05	
132	6.600000e+00	3.668228e-05	
Reset re-loads circuit ***************************

Circuit: ***************************

Doing analysis at TEMP = 125.000000 and TNOM = 125.000000


No. of Data Rows : 133
                          ***************************
                          DC transfer characteristic  Mon Jan  9 13:58:39  2023
--------------------------------------------------------------------------------
Index   v-sweep         rds             
--------------------------------------------------------------------------------
0	0.000000e+00	3.546949e-03	
1	5.000000e-02	3.460032e-03	
2	1.000000e-01	3.374554e-03	
3	1.500000e-01	3.290488e-03	
4	2.000000e-01	3.207807e-03	
5	2.500000e-01	3.126485e-03	
6	3.000000e-01	3.046495e-03	
7	3.500000e-01	2.967812e-03	
8	4.000000e-01	2.890410e-03	
9	4.500000e-01	2.814265e-03	
10	5.000000e-01	2.739352e-03	
11	5.500000e-01	2.665647e-03	
12	6.000000e-01	2.593126e-03	
13	6.500000e-01	2.521766e-03	
14	7.000000e-01	2.451544e-03	
15	7.500000e-01	2.382439e-03	
16	8.000000e-01	2.314427e-03	
17	8.500000e-01	2.247489e-03	
18	9.000000e-01	2.181603e-03	
19	9.500000e-01	2.116748e-03	
20	1.000000e+00	2.052906e-03	
21	1.050000e+00	1.990056e-03	
22	1.100000e+00	1.928180e-03	
23	1.150000e+00	1.867260e-03	
24	1.200000e+00	1.807277e-03	
25	1.250000e+00	1.748215e-03	
26	1.300000e+00	1.690056e-03	
27	1.350000e+00	1.632782e-03	
28	1.400000e+00	1.576379e-03	
29	1.450000e+00	1.520828e-03	
30	1.500000e+00	1.466113e-03	
31	1.550000e+00	1.412217e-03	
32	1.600000e+00	1.359121e-03	
33	1.650000e+00	1.306807e-03	
34	1.700000e+00	1.255254e-03	
35	1.750000e+00	1.204437e-03	
36	1.800000e+00	1.154328e-03	
37	1.850000e+00	1.104893e-03	
38	1.900000e+00	1.056085e-03	
39	1.950000e+00	1.007846e-03	
40	2.000000e+00	9.600933e-04	
41	2.050000e+00	9.127115e-04	
42	2.100000e+00	8.655407e-04	
43	2.150000e+00	8.183623e-04	
44	2.200000e+00	7.708963e-04	
45	2.250000e+00	7.228308e-04	
46	2.300000e+00	6.739219e-04	
47	2.350000e+00	6.241880e-04	
48	2.400000e+00	5.741433e-04	
49	2.450000e+00	5.248820e-04	
50	2.500000e+00	4.778371e-04	
51	2.550000e+00	4.343126e-04	
52	2.600000e+00	3.951152e-04	
53	2.650000e+00	3.604795e-04	
54	2.700000e+00	3.302113e-04	

Index   v-sweep         rds             
--------------------------------------------------------------------------------
55	2.750000e+00	3.038845e-04	
56	2.800000e+00	2.809927e-04	
57	2.850000e+00	2.610380e-04	
58	2.900000e+00	2.435721e-04	
59	2.950000e+00	2.282088e-04	
60	3.000000e+00	2.146236e-04	
61	3.050000e+00	2.025467e-04	
62	3.100000e+00	1.917547e-04	
63	3.150000e+00	1.820630e-04	
64	3.200000e+00	1.733184e-04	
65	3.250000e+00	1.653934e-04	
66	3.300000e+00	1.581815e-04	
67	3.350000e+00	1.515931e-04	
68	3.400000e+00	1.455527e-04	
69	3.450000e+00	1.399961e-04	
70	3.500000e+00	1.348684e-04	
71	3.550000e+00	1.301227e-04	
72	3.600000e+00	1.257184e-04	
73	3.650000e+00	1.216206e-04	
74	3.700000e+00	1.177987e-04	
75	3.750000e+00	1.142261e-04	
76	3.800000e+00	1.108795e-04	
77	3.850000e+00	1.077382e-04	
78	3.900000e+00	1.047841e-04	
79	3.950000e+00	1.020012e-04	
80	4.000000e+00	9.937503e-05	
81	4.050000e+00	9.689288e-05	
82	4.100000e+00	9.454329e-05	
83	4.150000e+00	9.231600e-05	
84	4.200000e+00	9.020177e-05	
85	4.250000e+00	8.819226e-05	
86	4.300000e+00	8.627993e-05	
87	4.350000e+00	8.445792e-05	
88	4.400000e+00	8.272004e-05	
89	4.450000e+00	8.106061e-05	
90	4.500000e+00	7.947447e-05	
91	4.550000e+00	7.795689e-05	
92	4.600000e+00	7.650355e-05	
93	4.650000e+00	7.511048e-05	
94	4.700000e+00	7.377401e-05	
95	4.750000e+00	7.249078e-05	
96	4.800000e+00	7.125769e-05	
97	4.850000e+00	7.007188e-05	
98	4.900000e+00	6.893068e-05	
99	4.950000e+00	6.783163e-05	
100	5.000000e+00	6.677246e-05	
101	5.050000e+00	6.575104e-05	
102	5.100000e+00	6.476541e-05	
103	5.150000e+00	6.381371e-05	
104	5.200000e+00	6.289424e-05	
105	5.250000e+00	6.200539e-05	
106	5.300000e+00	6.114567e-05	
107	5.350000e+00	6.031368e-05	
108	5.400000e+00	5.950811e-05	
109	5.450000e+00	5.872772e-05	
110	5.500000e+00	5.797136e-05	
111	5.550000e+00	5.723795e-05	
112	5.600000e+00	5.652646e-05	

Index   v-sweep         rds             
--------------------------------------------------------------------------------
113	5.650000e+00	5.583593e-05	
114	5.700000e+00	5.516546e-05	
115	5.750000e+00	5.451419e-05	
116	5.800000e+00	5.388133e-05	
117	5.850000e+00	5.326610e-05	
118	5.900000e+00	5.266779e-05	
119	5.950000e+00	5.208572e-05	
120	6.000000e+00	5.151925e-05	
121	6.050000e+00	5.096776e-05	
122	6.100000e+00	5.043068e-05	
123	6.150000e+00	4.990746e-05	
124	6.200000e+00	4.939758e-05	
125	6.250000e+00	4.890054e-05	
126	6.300000e+00	4.841588e-05	
127	6.350000e+00	4.794314e-05	
128	6.400000e+00	4.748191e-05	
129	6.450000e+00	4.703178e-05	
130	6.500000e+00	4.659235e-05	
131	6.550000e+00	4.616327e-05	
132	6.600000e+00	4.574419e-05	
Reset re-loads circuit ***************************

Circuit: ***************************

Note: No ".plot", ".print", or ".fourier" lines; no simulations run
