
Note: Compatibility modes selected: hs

Warning: m=xx on .subckt line will override multiplier m hierarchy!


Circuit: ***************************

Doing analysis at TEMP = 25.000000 and TNOM = 25.000000


No. of Data Rows : 133
                          ***************************
                          DC transfer characteristic  Mon Jan  9 13:58:38  2023
--------------------------------------------------------------------------------
Index   v-sweep         rds             
--------------------------------------------------------------------------------
0	0.000000e+00	1.338888e-05	
1	5.000000e-02	1.086771e-05	
2	1.000000e-01	8.407867e-06	
3	1.500000e-01	6.037325e-06	
4	2.000000e-01	3.852250e-06	
5	2.500000e-01	2.121078e-06	
6	3.000000e-01	1.133962e-06	
7	3.500000e-01	7.092803e-07	
8	4.000000e-01	5.197754e-07	
9	4.500000e-01	4.178588e-07	
10	5.000000e-01	3.538373e-07	
11	5.500000e-01	3.093392e-07	
12	6.000000e-01	2.763217e-07	
13	6.500000e-01	2.507086e-07	
14	7.000000e-01	2.301923e-07	
15	7.500000e-01	2.133552e-07	
16	8.000000e-01	1.992714e-07	
17	8.500000e-01	1.873070e-07	
18	9.000000e-01	1.770119e-07	
19	9.500000e-01	1.680566e-07	
20	1.000000e+00	1.601939e-07	
21	1.050000e+00	1.532343e-07	
22	1.100000e+00	1.470303e-07	
23	1.150000e+00	1.414649e-07	
24	1.200000e+00	1.364442e-07	
25	1.250000e+00	1.318920e-07	
26	1.300000e+00	1.277457e-07	
27	1.350000e+00	1.239534e-07	
28	1.400000e+00	1.204718e-07	
29	1.450000e+00	1.172642e-07	
30	1.500000e+00	1.142996e-07	
31	1.550000e+00	1.115516e-07	
32	1.600000e+00	1.089974e-07	
33	1.650000e+00	1.066172e-07	
34	1.700000e+00	1.043940e-07	
35	1.750000e+00	1.023128e-07	
36	1.800000e+00	1.003605e-07	
37	1.850000e+00	9.852552e-08	
38	1.900000e+00	9.679774e-08	
39	1.950000e+00	9.516807e-08	
40	2.000000e+00	9.362846e-08	
41	2.050000e+00	9.217169e-08	
42	2.100000e+00	9.079130e-08	
43	2.150000e+00	8.948151e-08	
44	2.200000e+00	8.823707e-08	
45	2.250000e+00	8.705326e-08	
46	2.300000e+00	8.592580e-08	
47	2.350000e+00	8.485080e-08	
48	2.400000e+00	8.382471e-08	
49	2.450000e+00	8.284431e-08	
50	2.500000e+00	8.190664e-08	
51	2.550000e+00	8.100901e-08	
52	2.600000e+00	8.014893e-08	
53	2.650000e+00	7.932412e-08	
54	2.700000e+00	7.853248e-08	

Index   v-sweep         rds             
--------------------------------------------------------------------------------
55	2.750000e+00	7.777208e-08	
56	2.800000e+00	7.704112e-08	
57	2.850000e+00	7.633796e-08	
58	2.900000e+00	7.566105e-08	
59	2.950000e+00	7.500897e-08	
60	3.000000e+00	7.438040e-08	
61	3.050000e+00	7.377411e-08	
62	3.100000e+00	7.318896e-08	
63	3.150000e+00	7.262386e-08	
64	3.200000e+00	7.207783e-08	
65	3.250000e+00	7.154994e-08	
66	3.300000e+00	7.103929e-08	
67	3.350000e+00	7.054509e-08	
68	3.400000e+00	7.006655e-08	
69	3.450000e+00	6.960296e-08	
70	3.500000e+00	6.915364e-08	
71	3.550000e+00	6.871796e-08	
72	3.600000e+00	6.829530e-08	
73	3.650000e+00	6.788512e-08	
74	3.700000e+00	6.748686e-08	
75	3.750000e+00	6.710004e-08	
76	3.800000e+00	6.672417e-08	
77	3.850000e+00	6.635880e-08	
78	3.900000e+00	6.600352e-08	
79	3.950000e+00	6.565790e-08	
80	4.000000e+00	6.532158e-08	
81	4.050000e+00	6.499419e-08	
82	4.100000e+00	6.467539e-08	
83	4.150000e+00	6.436485e-08	
84	4.200000e+00	6.406226e-08	
85	4.250000e+00	6.376733e-08	
86	4.300000e+00	6.347977e-08	
87	4.350000e+00	6.319932e-08	
88	4.400000e+00	6.292572e-08	
89	4.450000e+00	6.265873e-08	
90	4.500000e+00	6.239812e-08	
91	4.550000e+00	6.214368e-08	
92	4.600000e+00	6.189518e-08	
93	4.650000e+00	6.165243e-08	
94	4.700000e+00	6.141523e-08	
95	4.750000e+00	6.118341e-08	
96	4.800000e+00	6.095678e-08	
97	4.850000e+00	6.073518e-08	
98	4.900000e+00	6.051844e-08	
99	4.950000e+00	6.030642e-08	
100	5.000000e+00	6.009896e-08	
101	5.050000e+00	5.989592e-08	
102	5.100000e+00	5.969717e-08	
103	5.150000e+00	5.950258e-08	
104	5.200000e+00	5.931201e-08	
105	5.250000e+00	5.912535e-08	
106	5.300000e+00	5.894249e-08	
107	5.350000e+00	5.876331e-08	
108	5.400000e+00	5.858771e-08	
109	5.450000e+00	5.841558e-08	
110	5.500000e+00	5.824682e-08	
111	5.550000e+00	5.808134e-08	
112	5.600000e+00	5.791905e-08	

Index   v-sweep         rds             
--------------------------------------------------------------------------------
113	5.650000e+00	5.775985e-08	
114	5.700000e+00	5.760367e-08	
115	5.750000e+00	5.745043e-08	
116	5.800000e+00	5.730003e-08	
117	5.850000e+00	5.715241e-08	
118	5.900000e+00	5.700749e-08	
119	5.950000e+00	5.686520e-08	
120	6.000000e+00	5.672548e-08	
121	6.050000e+00	5.658825e-08	
122	6.100000e+00	5.645345e-08	
123	6.150000e+00	5.632103e-08	
124	6.200000e+00	5.619091e-08	
125	6.250000e+00	5.606305e-08	
126	6.300000e+00	5.593738e-08	
127	6.350000e+00	5.581386e-08	
128	6.400000e+00	5.569242e-08	
129	6.450000e+00	5.557303e-08	
130	6.500000e+00	5.545562e-08	
131	6.550000e+00	5.534016e-08	
132	6.600000e+00	5.522659e-08	
Reset re-loads circuit ***************************

Circuit: ***************************

Doing analysis at TEMP = 25.000000 and TNOM = 25.000000


No. of Data Rows : 133
                          ***************************
                          DC transfer characteristic  Mon Jan  9 13:58:38  2023
--------------------------------------------------------------------------------
Index   v-sweep         rds             
--------------------------------------------------------------------------------
0	0.000000e+00	4.448819e-05	
1	5.000000e-02	4.168933e-05	
2	1.000000e-01	3.894763e-05	
3	1.500000e-01	3.626172e-05	
4	2.000000e-01	3.363030e-05	
5	2.500000e-01	3.105211e-05	
6	3.000000e-01	2.852602e-05	
7	3.500000e-01	2.605101e-05	
8	4.000000e-01	2.362626e-05	
9	4.500000e-01	2.125128e-05	
10	5.000000e-01	1.892615e-05	
11	5.500000e-01	1.665207e-05	
12	6.000000e-01	1.443255e-05	
13	6.500000e-01	1.227644e-05	
14	7.000000e-01	1.020464e-05	
15	7.500000e-01	8.263067e-06	
16	8.000000e-01	6.533666e-06	
17	8.500000e-01	5.110258e-06	
18	9.000000e-01	4.030814e-06	
19	9.500000e-01	3.251588e-06	
20	1.000000e+00	2.693726e-06	
21	1.050000e+00	2.287359e-06	
22	1.100000e+00	1.983282e-06	
23	1.150000e+00	1.749340e-06	
24	1.200000e+00	1.564735e-06	
25	1.250000e+00	1.415807e-06	
26	1.300000e+00	1.293357e-06	
27	1.350000e+00	1.191025e-06	
28	1.400000e+00	1.104301e-06	
29	1.450000e+00	1.029911e-06	
30	1.500000e+00	9.654229e-07	
31	1.550000e+00	9.090012e-07	
32	1.600000e+00	8.592327e-07	
33	1.650000e+00	8.150138e-07	
34	1.700000e+00	7.754710e-07	
35	1.750000e+00	7.399036e-07	
36	1.800000e+00	7.077439e-07	
37	1.850000e+00	6.785268e-07	
38	1.900000e+00	6.518677e-07	
39	1.950000e+00	6.274461e-07	
40	2.000000e+00	6.049928e-07	
41	2.050000e+00	5.842799e-07	
42	2.100000e+00	5.651133e-07	
43	2.150000e+00	5.473266e-07	
44	2.200000e+00	5.307765e-07	
45	2.250000e+00	5.153388e-07	
46	2.300000e+00	5.009052e-07	
47	2.350000e+00	4.873813e-07	
48	2.400000e+00	4.746839e-07	
49	2.450000e+00	4.627397e-07	
50	2.500000e+00	4.514838e-07	
51	2.550000e+00	4.408586e-07	
52	2.600000e+00	4.308126e-07	
53	2.650000e+00	4.212999e-07	
54	2.700000e+00	4.122792e-07	

Index   v-sweep         rds             
--------------------------------------------------------------------------------
55	2.750000e+00	4.037135e-07	
56	2.800000e+00	3.955692e-07	
57	2.850000e+00	3.878162e-07	
58	2.900000e+00	3.804269e-07	
59	2.950000e+00	3.733764e-07	
60	3.000000e+00	3.666420e-07	
61	3.050000e+00	3.602029e-07	
62	3.100000e+00	3.540404e-07	
63	3.150000e+00	3.481368e-07	
64	3.200000e+00	3.424763e-07	
65	3.250000e+00	3.370443e-07	
66	3.300000e+00	3.318272e-07	
67	3.350000e+00	3.268126e-07	
68	3.400000e+00	3.219889e-07	
69	3.450000e+00	3.173454e-07	
70	3.500000e+00	3.128724e-07	
71	3.550000e+00	3.085605e-07	
72	3.600000e+00	3.044013e-07	
73	3.650000e+00	3.003869e-07	
74	3.700000e+00	2.965098e-07	
75	3.750000e+00	2.927631e-07	
76	3.800000e+00	2.891404e-07	
77	3.850000e+00	2.856356e-07	
78	3.900000e+00	2.822432e-07	
79	3.950000e+00	2.789577e-07	
80	4.000000e+00	2.757744e-07	
81	4.050000e+00	2.726884e-07	
82	4.100000e+00	2.696954e-07	
83	4.150000e+00	2.667913e-07	
84	4.200000e+00	2.639721e-07	
85	4.250000e+00	2.612344e-07	
86	4.300000e+00	2.585745e-07	
87	4.350000e+00	2.559892e-07	
88	4.400000e+00	2.534754e-07	
89	4.450000e+00	2.510303e-07	
90	4.500000e+00	2.486511e-07	
91	4.550000e+00	2.463351e-07	
92	4.600000e+00	2.440799e-07	
93	4.650000e+00	2.418831e-07	
94	4.700000e+00	2.397425e-07	
95	4.750000e+00	2.376560e-07	
96	4.800000e+00	2.356216e-07	
97	4.850000e+00	2.336373e-07	
98	4.900000e+00	2.317014e-07	
99	4.950000e+00	2.298121e-07	
100	5.000000e+00	2.279677e-07	
101	5.050000e+00	2.261668e-07	
102	5.100000e+00	2.244077e-07	
103	5.150000e+00	2.226890e-07	
104	5.200000e+00	2.210095e-07	
105	5.250000e+00	2.193677e-07	
106	5.300000e+00	2.177624e-07	
107	5.350000e+00	2.161925e-07	
108	5.400000e+00	2.146567e-07	
109	5.450000e+00	2.131541e-07	
110	5.500000e+00	2.116835e-07	
111	5.550000e+00	2.102439e-07	
112	5.600000e+00	2.088344e-07	

Index   v-sweep         rds             
--------------------------------------------------------------------------------
113	5.650000e+00	2.074540e-07	
114	5.700000e+00	2.061019e-07	
115	5.750000e+00	2.047772e-07	
116	5.800000e+00	2.034792e-07	
117	5.850000e+00	2.022069e-07	
118	5.900000e+00	2.009597e-07	
119	5.950000e+00	1.997368e-07	
120	6.000000e+00	1.985376e-07	
121	6.050000e+00	1.973614e-07	
122	6.100000e+00	1.962074e-07	
123	6.150000e+00	1.950752e-07	
124	6.200000e+00	1.939641e-07	
125	6.250000e+00	1.928735e-07	
126	6.300000e+00	1.918028e-07	
127	6.350000e+00	1.907516e-07	
128	6.400000e+00	1.897194e-07	
129	6.450000e+00	1.887055e-07	
130	6.500000e+00	1.877096e-07	
131	6.550000e+00	1.867311e-07	
132	6.600000e+00	1.857697e-07	
Reset re-loads circuit ***************************

Circuit: ***************************

Doing analysis at TEMP = 25.000000 and TNOM = 25.000000


No. of Data Rows : 133
                          ***************************
                          DC transfer characteristic  Mon Jan  9 13:58:38  2023
--------------------------------------------------------------------------------
Index   v-sweep         rds             
--------------------------------------------------------------------------------
0	0.000000e+00	6.776883e-05	
1	5.000000e-02	6.491691e-05	
2	1.000000e-01	6.212186e-05	
3	1.500000e-01	5.938229e-05	
4	2.000000e-01	5.669685e-05	
5	2.500000e-01	5.406421e-05	
6	3.000000e-01	5.148305e-05	
7	3.500000e-01	4.895211e-05	
8	4.000000e-01	4.647012e-05	
9	4.500000e-01	4.403588e-05	
10	5.000000e-01	4.164818e-05	
11	5.500000e-01	3.930588e-05	
12	6.000000e-01	3.700785e-05	
13	6.500000e-01	3.475297e-05	
14	7.000000e-01	3.254011e-05	
15	7.500000e-01	3.036814e-05	
16	8.000000e-01	2.823581e-05	
17	8.500000e-01	2.614171e-05	
18	9.000000e-01	2.408415e-05	
19	9.500000e-01	2.206096e-05	
20	1.000000e+00	2.006928e-05	
21	1.050000e+00	1.810538e-05	
22	1.100000e+00	1.616523e-05	
23	1.150000e+00	1.424731e-05	
24	1.200000e+00	1.236096e-05	
25	1.250000e+00	1.054109e-05	
26	1.300000e+00	8.856105e-06	
27	1.350000e+00	7.384456e-06	
28	1.400000e+00	6.170364e-06	
29	1.450000e+00	5.206611e-06	
30	1.500000e+00	4.453859e-06	
31	1.550000e+00	3.865615e-06	
32	1.600000e+00	3.401352e-06	
33	1.650000e+00	3.029763e-06	
34	1.700000e+00	2.727816e-06	
35	1.750000e+00	2.478814e-06	
36	1.800000e+00	2.270642e-06	
37	1.850000e+00	2.094425e-06	
38	1.900000e+00	1.943578e-06	
39	1.950000e+00	1.813146e-06	
40	2.000000e+00	1.699351e-06	
41	2.050000e+00	1.599269e-06	
42	2.100000e+00	1.510607e-06	
43	2.150000e+00	1.431549e-06	
44	2.200000e+00	1.360639e-06	
45	2.250000e+00	1.296694e-06	
46	2.300000e+00	1.238750e-06	
47	2.350000e+00	1.186008e-06	
48	2.400000e+00	1.137805e-06	
49	2.450000e+00	1.093585e-06	
50	2.500000e+00	1.052878e-06	
51	2.550000e+00	1.015285e-06	
52	2.600000e+00	9.804633e-07	
53	2.650000e+00	9.481205e-07	
54	2.700000e+00	9.180026e-07	

Index   v-sweep         rds             
--------------------------------------------------------------------------------
55	2.750000e+00	8.898888e-07	
56	2.800000e+00	8.635868e-07	
57	2.850000e+00	8.389279e-07	
58	2.900000e+00	8.157636e-07	
59	2.950000e+00	7.939626e-07	
60	3.000000e+00	7.734086e-07	
61	3.050000e+00	7.539981e-07	
62	3.100000e+00	7.356387e-07	
63	3.150000e+00	7.182476e-07	
64	3.200000e+00	7.017505e-07	
65	3.250000e+00	6.860804e-07	
66	3.300000e+00	6.711769e-07	
67	3.350000e+00	6.569853e-07	
68	3.400000e+00	6.434560e-07	
69	3.450000e+00	6.305439e-07	
70	3.500000e+00	6.182077e-07	
71	3.550000e+00	6.064100e-07	
72	3.600000e+00	5.951163e-07	
73	3.650000e+00	5.842952e-07	
74	3.700000e+00	5.739176e-07	
75	3.750000e+00	5.639570e-07	
76	3.800000e+00	5.543887e-07	
77	3.850000e+00	5.451902e-07	
78	3.900000e+00	5.363404e-07	
79	3.950000e+00	5.278199e-07	
80	4.000000e+00	5.196109e-07	
81	4.050000e+00	5.116965e-07	
82	4.100000e+00	5.040612e-07	
83	4.150000e+00	4.966905e-07	
84	4.200000e+00	4.895711e-07	
85	4.250000e+00	4.826902e-07	
86	4.300000e+00	4.760362e-07	
87	4.350000e+00	4.695980e-07	
88	4.400000e+00	4.633653e-07	
89	4.450000e+00	4.573285e-07	
90	4.500000e+00	4.514786e-07	
91	4.550000e+00	4.458069e-07	
92	4.600000e+00	4.403056e-07	
93	4.650000e+00	4.349671e-07	
94	4.700000e+00	4.297843e-07	
95	4.750000e+00	4.247505e-07	
96	4.800000e+00	4.198594e-07	
97	4.850000e+00	4.151050e-07	
98	4.900000e+00	4.104818e-07	
99	4.950000e+00	4.059844e-07	
100	5.000000e+00	4.016077e-07	
101	5.050000e+00	3.973470e-07	
102	5.100000e+00	3.931978e-07	
103	5.150000e+00	3.891558e-07	
104	5.200000e+00	3.852169e-07	
105	5.250000e+00	3.813772e-07	
106	5.300000e+00	3.776330e-07	
107	5.350000e+00	3.739810e-07	
108	5.400000e+00	3.704176e-07	
109	5.450000e+00	3.669399e-07	
110	5.500000e+00	3.635446e-07	
111	5.550000e+00	3.602290e-07	
112	5.600000e+00	3.569904e-07	

Index   v-sweep         rds             
--------------------------------------------------------------------------------
113	5.650000e+00	3.538260e-07	
114	5.700000e+00	3.507335e-07	
115	5.750000e+00	3.477103e-07	
116	5.800000e+00	3.447543e-07	
117	5.850000e+00	3.418632e-07	
118	5.900000e+00	3.390350e-07	
119	5.950000e+00	3.362676e-07	
120	6.000000e+00	3.335591e-07	
121	6.050000e+00	3.309077e-07	
122	6.100000e+00	3.283116e-07	
123	6.150000e+00	3.257692e-07	
124	6.200000e+00	3.232788e-07	
125	6.250000e+00	3.208389e-07	
126	6.300000e+00	3.184479e-07	
127	6.350000e+00	3.161044e-07	
128	6.400000e+00	3.138071e-07	
129	6.450000e+00	3.115546e-07	
130	6.500000e+00	3.093457e-07	
131	6.550000e+00	3.071790e-07	
132	6.600000e+00	3.050535e-07	
Reset re-loads circuit ***************************

Circuit: ***************************

Doing analysis at TEMP = 25.000000 and TNOM = 25.000000


No. of Data Rows : 133
                          ***************************
                          DC transfer characteristic  Mon Jan  9 13:58:38  2023
--------------------------------------------------------------------------------
Index   v-sweep         rds             
--------------------------------------------------------------------------------
0	0.000000e+00	8.780881e-05	
1	5.000000e-02	8.497589e-05	
2	1.000000e-01	8.219591e-05	
3	1.500000e-01	7.946765e-05	
4	2.000000e-01	7.678994e-05	
5	2.500000e-01	7.416161e-05	
6	3.000000e-01	7.158153e-05	
7	3.500000e-01	6.904857e-05	
8	4.000000e-01	6.656161e-05	
9	4.500000e-01	6.411957e-05	
10	5.000000e-01	6.172138e-05	
11	5.500000e-01	5.936600e-05	
12	6.000000e-01	5.705239e-05	
13	6.500000e-01	5.477958e-05	
14	7.000000e-01	5.254660e-05	
15	7.500000e-01	5.035251e-05	
16	8.000000e-01	4.819640e-05	
17	8.500000e-01	4.607739e-05	
18	9.000000e-01	4.399459e-05	
19	9.500000e-01	4.194711e-05	
20	1.000000e+00	3.993405e-05	
21	1.050000e+00	3.795445e-05	
22	1.100000e+00	3.600725e-05	
23	1.150000e+00	3.409125e-05	
24	1.200000e+00	3.220498e-05	
25	1.250000e+00	3.034659e-05	
26	1.300000e+00	2.851359e-05	
27	1.350000e+00	2.670257e-05	
28	1.400000e+00	2.490866e-05	
29	1.450000e+00	2.312494e-05	
30	1.500000e+00	2.134182e-05	
31	1.550000e+00	1.954712e-05	
32	1.600000e+00	1.772860e-05	
33	1.650000e+00	1.588188e-05	
34	1.700000e+00	1.402486e-05	
35	1.750000e+00	1.221021e-05	
36	1.800000e+00	1.051694e-05	
37	1.850000e+00	9.017287e-06	
38	1.900000e+00	7.746592e-06	
39	1.950000e+00	6.700330e-06	
40	2.000000e+00	5.850208e-06	
41	2.050000e+00	5.160751e-06	
42	2.100000e+00	4.598732e-06	
43	2.150000e+00	4.136556e-06	
44	2.200000e+00	3.752529e-06	
45	2.250000e+00	3.430001e-06	
46	2.300000e+00	3.156284e-06	
47	2.350000e+00	2.921699e-06	
48	2.400000e+00	2.718812e-06	
49	2.450000e+00	2.541867e-06	
50	2.500000e+00	2.386365e-06	
51	2.550000e+00	2.248753e-06	
52	2.600000e+00	2.126197e-06	
53	2.650000e+00	2.016416e-06	
54	2.700000e+00	1.917555e-06	

Index   v-sweep         rds             
--------------------------------------------------------------------------------
55	2.750000e+00	1.828095e-06	
56	2.800000e+00	1.746781e-06	
57	2.850000e+00	1.672566e-06	
58	2.900000e+00	1.604575e-06	
59	2.950000e+00	1.542067e-06	
60	3.000000e+00	1.484414e-06	
61	3.050000e+00	1.431077e-06	
62	3.100000e+00	1.381595e-06	
63	3.150000e+00	1.335569e-06	
64	3.200000e+00	1.292652e-06	
65	3.250000e+00	1.252544e-06	
66	3.300000e+00	1.214979e-06	
67	3.350000e+00	1.179725e-06	
68	3.400000e+00	1.146576e-06	
69	3.450000e+00	1.115352e-06	
70	3.500000e+00	1.085889e-06	
71	3.550000e+00	1.058045e-06	
72	3.600000e+00	1.031691e-06	
73	3.650000e+00	1.006710e-06	
74	3.700000e+00	9.829982e-07	
75	3.750000e+00	9.604626e-07	
76	3.800000e+00	9.390180e-07	
77	3.850000e+00	9.185874e-07	
78	3.900000e+00	8.991009e-07	
79	3.950000e+00	8.804948e-07	
80	4.000000e+00	8.627111e-07	
81	4.050000e+00	8.456968e-07	
82	4.100000e+00	8.294030e-07	
83	4.150000e+00	8.137853e-07	
84	4.200000e+00	7.988026e-07	
85	4.250000e+00	7.844171e-07	
86	4.300000e+00	7.705939e-07	
87	4.350000e+00	7.573008e-07	
88	4.400000e+00	7.445080e-07	
89	4.450000e+00	7.321879e-07	
90	4.500000e+00	7.203149e-07	
91	4.550000e+00	7.088652e-07	
92	4.600000e+00	6.978166e-07	
93	4.650000e+00	6.871485e-07	
94	4.700000e+00	6.768417e-07	
95	4.750000e+00	6.668781e-07	
96	4.800000e+00	6.572410e-07	
97	4.850000e+00	6.479146e-07	
98	4.900000e+00	6.388843e-07	
99	4.950000e+00	6.301362e-07	
100	5.000000e+00	6.216574e-07	
101	5.050000e+00	6.134356e-07	
102	5.100000e+00	6.054594e-07	
103	5.150000e+00	5.977181e-07	
104	5.200000e+00	5.902014e-07	
105	5.250000e+00	5.828998e-07	
106	5.300000e+00	5.758042e-07	
107	5.350000e+00	5.689061e-07	
108	5.400000e+00	5.621974e-07	
109	5.450000e+00	5.556705e-07	
110	5.500000e+00	5.493182e-07	
111	5.550000e+00	5.431335e-07	
112	5.600000e+00	5.371099e-07	

Index   v-sweep         rds             
--------------------------------------------------------------------------------
113	5.650000e+00	5.312415e-07	
114	5.700000e+00	5.255221e-07	
115	5.750000e+00	5.199464e-07	
116	5.800000e+00	5.145090e-07	
117	5.850000e+00	5.092049e-07	
118	5.900000e+00	5.040292e-07	
119	5.950000e+00	4.989776e-07	
120	6.000000e+00	4.940455e-07	
121	6.050000e+00	4.892289e-07	
122	6.100000e+00	4.845238e-07	
123	6.150000e+00	4.799264e-07	
124	6.200000e+00	4.754331e-07	
125	6.250000e+00	4.710406e-07	
126	6.300000e+00	4.667454e-07	
127	6.350000e+00	4.625445e-07	
128	6.400000e+00	4.584348e-07	
129	6.450000e+00	4.544135e-07	
130	6.500000e+00	4.504778e-07	
131	6.550000e+00	4.466250e-07	
132	6.600000e+00	4.428526e-07	
Reset re-loads circuit ***************************

Circuit: ***************************

Doing analysis at TEMP = 25.000000 and TNOM = 25.000000


No. of Data Rows : 133
                          ***************************
                          DC transfer characteristic  Mon Jan  9 13:58:38  2023
--------------------------------------------------------------------------------
Index   v-sweep         rds             
--------------------------------------------------------------------------------
0	0.000000e+00	1.013509e-04	
1	5.000000e-02	9.866034e-05	
2	1.000000e-01	9.601562e-05	
3	1.500000e-01	9.341582e-05	
4	2.000000e-01	9.086000e-05	
5	2.500000e-01	8.834725e-05	
6	3.000000e-01	8.587668e-05	
7	3.500000e-01	8.344738e-05	
8	4.000000e-01	8.105848e-05	
9	4.500000e-01	7.870911e-05	
10	5.000000e-01	7.639841e-05	
11	5.500000e-01	7.412553e-05	
12	6.000000e-01	7.188964e-05	
13	6.500000e-01	6.968994e-05	
14	7.000000e-01	6.752562e-05	
15	7.500000e-01	6.539591e-05	
16	8.000000e-01	6.330006e-05	
17	8.500000e-01	6.123733e-05	
18	9.000000e-01	5.920704e-05	
19	9.500000e-01	5.720848e-05	
20	1.000000e+00	5.524100e-05	
21	1.050000e+00	5.330396e-05	
22	1.100000e+00	5.139672e-05	
23	1.150000e+00	4.951868e-05	
24	1.200000e+00	4.766921e-05	
25	1.250000e+00	4.584770e-05	
26	1.300000e+00	4.405350e-05	
27	1.350000e+00	4.228593e-05	
28	1.400000e+00	4.054425e-05	
29	1.450000e+00	3.882762e-05	
30	1.500000e+00	3.713506e-05	
31	1.550000e+00	3.546535e-05	
32	1.600000e+00	3.381696e-05	
33	1.650000e+00	3.218787e-05	
34	1.700000e+00	3.057537e-05	
35	1.750000e+00	2.897568e-05	
36	1.800000e+00	2.738351e-05	
37	1.850000e+00	2.579146e-05	
38	1.900000e+00	2.418932e-05	
39	1.950000e+00	2.256380e-05	
40	2.000000e+00	2.089945e-05	
41	2.050000e+00	1.918282e-05	
42	2.100000e+00	1.741164e-05	
43	2.150000e+00	1.560753e-05	
44	2.200000e+00	1.382303e-05	
45	2.250000e+00	1.213089e-05	
46	2.300000e+00	1.059769e-05	
47	2.350000e+00	9.261524e-06	
48	2.400000e+00	8.128139e-06	
49	2.450000e+00	7.181004e-06	
50	2.500000e+00	6.393714e-06	
51	2.550000e+00	5.738520e-06	
52	2.600000e+00	5.190470e-06	
53	2.650000e+00	4.728734e-06	
54	2.700000e+00	4.336548e-06	

Index   v-sweep         rds             
--------------------------------------------------------------------------------
55	2.750000e+00	4.000646e-06	
56	2.800000e+00	3.710592e-06	
57	2.850000e+00	3.458169e-06	
58	2.900000e+00	3.236886e-06	
59	2.950000e+00	3.041578e-06	
60	3.000000e+00	2.868109e-06	
61	3.050000e+00	2.713141e-06	
62	3.100000e+00	2.573959e-06	
63	3.150000e+00	2.448338e-06	
64	3.200000e+00	2.334438e-06	
65	3.250000e+00	2.230732e-06	
66	3.300000e+00	2.135939e-06	
67	3.350000e+00	2.048980e-06	
68	3.400000e+00	1.968941e-06	
69	3.450000e+00	1.895041e-06	
70	3.500000e+00	1.826611e-06	
71	3.550000e+00	1.763075e-06	
72	3.600000e+00	1.703932e-06	
73	3.650000e+00	1.648748e-06	
74	3.700000e+00	1.597144e-06	
75	3.750000e+00	1.548785e-06	
76	3.800000e+00	1.503378e-06	
77	3.850000e+00	1.460665e-06	
78	3.900000e+00	1.420413e-06	
79	3.950000e+00	1.382419e-06	
80	4.000000e+00	1.346499e-06	
81	4.050000e+00	1.312489e-06	
82	4.100000e+00	1.280242e-06	
83	4.150000e+00	1.249626e-06	
84	4.200000e+00	1.220520e-06	
85	4.250000e+00	1.192817e-06	
86	4.300000e+00	1.166418e-06	
87	4.350000e+00	1.141233e-06	
88	4.400000e+00	1.117182e-06	
89	4.450000e+00	1.094189e-06	
90	4.500000e+00	1.072188e-06	
91	4.550000e+00	1.051115e-06	
92	4.600000e+00	1.030913e-06	
93	4.650000e+00	1.011530e-06	
94	4.700000e+00	9.929168e-07	
95	4.750000e+00	9.750291e-07	
96	4.800000e+00	9.578254e-07	
97	4.850000e+00	9.412673e-07	
98	4.900000e+00	9.253193e-07	
99	4.950000e+00	9.099486e-07	
100	5.000000e+00	8.951244e-07	
101	5.050000e+00	8.808183e-07	
102	5.100000e+00	8.670036e-07	
103	5.150000e+00	8.536557e-07	
104	5.200000e+00	8.407514e-07	
105	5.250000e+00	8.282690e-07	
106	5.300000e+00	8.161883e-07	
107	5.350000e+00	8.044904e-07	
108	5.400000e+00	7.931573e-07	
109	5.450000e+00	7.821724e-07	
110	5.500000e+00	7.715200e-07	
111	5.550000e+00	7.611853e-07	
112	5.600000e+00	7.511544e-07	

Index   v-sweep         rds             
--------------------------------------------------------------------------------
113	5.650000e+00	7.414142e-07	
114	5.700000e+00	7.319523e-07	
115	5.750000e+00	7.227571e-07	
116	5.800000e+00	7.138175e-07	
117	5.850000e+00	7.051232e-07	
118	5.900000e+00	6.966641e-07	
119	5.950000e+00	6.884311e-07	
120	6.000000e+00	6.804153e-07	
121	6.050000e+00	6.726083e-07	
122	6.100000e+00	6.650020e-07	
123	6.150000e+00	6.575891e-07	
124	6.200000e+00	6.503622e-07	
125	6.250000e+00	6.433146e-07	
126	6.300000e+00	6.364398e-07	
127	6.350000e+00	6.297315e-07	
128	6.400000e+00	6.231840e-07	
129	6.450000e+00	6.167915e-07	
130	6.500000e+00	6.105489e-07	
131	6.550000e+00	6.044508e-07	
132	6.600000e+00	5.984925e-07	
Reset re-loads circuit ***************************

Circuit: ***************************

Doing analysis at TEMP = 25.000000 and TNOM = 25.000000


No. of Data Rows : 133
                          ***************************
                          DC transfer characteristic  Mon Jan  9 13:58:38  2023
--------------------------------------------------------------------------------
Index   v-sweep         rds             
--------------------------------------------------------------------------------
0	0.000000e+00	1.121912e-04	
1	5.000000e-02	1.096710e-04	
2	1.000000e-01	1.071898e-04	
3	1.500000e-01	1.047469e-04	
4	2.000000e-01	1.023415e-04	
5	2.500000e-01	9.997292e-05	
6	3.000000e-01	9.764048e-05	
7	3.500000e-01	9.534348e-05	
8	4.000000e-01	9.308124e-05	
9	4.500000e-01	9.085310e-05	
10	5.000000e-01	8.865838e-05	
11	5.500000e-01	8.649642e-05	
12	6.000000e-01	8.436658e-05	
13	6.500000e-01	8.226821e-05	
14	7.000000e-01	8.020067e-05	
15	7.500000e-01	7.816334e-05	
16	8.000000e-01	7.615562e-05	
17	8.500000e-01	7.417690e-05	
18	9.000000e-01	7.222662e-05	
19	9.500000e-01	7.030419e-05	
20	1.000000e+00	6.840908e-05	
21	1.050000e+00	6.654076e-05	
22	1.100000e+00	6.469871e-05	
23	1.150000e+00	6.288245e-05	
24	1.200000e+00	6.109149e-05	
25	1.250000e+00	5.932537e-05	
26	1.300000e+00	5.758364e-05	
27	1.350000e+00	5.586587e-05	
28	1.400000e+00	5.417163e-05	
29	1.450000e+00	5.250051e-05	
30	1.500000e+00	5.085208e-05	
31	1.550000e+00	4.922592e-05	
32	1.600000e+00	4.762160e-05	
33	1.650000e+00	4.603866e-05	
34	1.700000e+00	4.447661e-05	
35	1.750000e+00	4.293492e-05	
36	1.800000e+00	4.141297e-05	
37	1.850000e+00	3.991004e-05	
38	1.900000e+00	3.842527e-05	
39	1.950000e+00	3.695757e-05	
40	2.000000e+00	3.550557e-05	
41	2.050000e+00	3.406746e-05	
42	2.100000e+00	3.264084e-05	
43	2.150000e+00	3.122244e-05	
44	2.200000e+00	2.980778e-05	
45	2.250000e+00	2.839066e-05	
46	2.300000e+00	2.696268e-05	
47	2.350000e+00	2.551260e-05	
48	2.400000e+00	2.402635e-05	
49	2.450000e+00	2.248810e-05	
50	2.500000e+00	2.088409e-05	
51	2.550000e+00	1.921017e-05	
52	2.600000e+00	1.748174e-05	
53	2.650000e+00	1.574008e-05	
54	2.700000e+00	1.404669e-05	

Index   v-sweep         rds             
--------------------------------------------------------------------------------
55	2.750000e+00	1.246513e-05	
56	2.800000e+00	1.104167e-05	
57	2.850000e+00	9.796703e-06	
58	2.900000e+00	8.728071e-06	
59	2.950000e+00	7.819876e-06	
60	3.000000e+00	7.050540e-06	
61	3.050000e+00	6.397999e-06	
62	3.100000e+00	5.842251e-06	
63	3.150000e+00	5.366241e-06	
64	3.200000e+00	4.955884e-06	
65	3.250000e+00	4.599740e-06	
66	3.300000e+00	4.288575e-06	
67	3.350000e+00	4.014948e-06	
68	3.400000e+00	3.772851e-06	
69	3.450000e+00	3.557410e-06	
70	3.500000e+00	3.364653e-06	
71	3.550000e+00	3.191321e-06	
72	3.600000e+00	3.034725e-06	
73	3.650000e+00	2.892634e-06	
74	3.700000e+00	2.763181e-06	
75	3.750000e+00	2.644797e-06	
76	3.800000e+00	2.536157e-06	
77	3.850000e+00	2.436133e-06	
78	3.900000e+00	2.343760e-06	
79	3.950000e+00	2.258211e-06	
80	4.000000e+00	2.178770e-06	
81	4.050000e+00	2.104817e-06	
82	4.100000e+00	2.035810e-06	
83	4.150000e+00	1.971278e-06	
84	4.200000e+00	1.910805e-06	
85	4.250000e+00	1.854024e-06	
86	4.300000e+00	1.800612e-06	
87	4.350000e+00	1.750281e-06	
88	4.400000e+00	1.702775e-06	
89	4.450000e+00	1.657865e-06	
90	4.500000e+00	1.615346e-06	
91	4.550000e+00	1.575034e-06	
92	4.600000e+00	1.536763e-06	
93	4.650000e+00	1.500383e-06	
94	4.700000e+00	1.465759e-06	
95	4.750000e+00	1.432768e-06	
96	4.800000e+00	1.401297e-06	
97	4.850000e+00	1.371244e-06	
98	4.900000e+00	1.342518e-06	
99	4.950000e+00	1.315031e-06	
100	5.000000e+00	1.288707e-06	
101	5.050000e+00	1.263473e-06	
102	5.100000e+00	1.239264e-06	
103	5.150000e+00	1.216018e-06	
104	5.200000e+00	1.193680e-06	
105	5.250000e+00	1.172198e-06	
106	5.300000e+00	1.151524e-06	
107	5.350000e+00	1.131614e-06	
108	5.400000e+00	1.112425e-06	
109	5.450000e+00	1.093920e-06	
110	5.500000e+00	1.076064e-06	
111	5.550000e+00	1.058822e-06	
112	5.600000e+00	1.042164e-06	

Index   v-sweep         rds             
--------------------------------------------------------------------------------
113	5.650000e+00	1.026060e-06	
114	5.700000e+00	1.010485e-06	
115	5.750000e+00	9.954116e-07	
116	5.800000e+00	9.808169e-07	
117	5.850000e+00	9.666785e-07	
118	5.900000e+00	9.529755e-07	
119	5.950000e+00	9.396882e-07	
120	6.000000e+00	9.267982e-07	
121	6.050000e+00	9.142880e-07	
122	6.100000e+00	9.021411e-07	
123	6.150000e+00	8.903423e-07	
124	6.200000e+00	8.788768e-07	
125	6.250000e+00	8.677308e-07	
126	6.300000e+00	8.568914e-07	
127	6.350000e+00	8.463462e-07	
128	6.400000e+00	8.360835e-07	
129	6.450000e+00	8.260923e-07	
130	6.500000e+00	8.163621e-07	
131	6.550000e+00	8.068829e-07	
132	6.600000e+00	7.976453e-07	
Reset re-loads circuit ***************************

Circuit: ***************************

Note: No ".plot", ".print", or ".fourier" lines; no simulations run
