
Note: Compatibility modes selected: hs

Warning: m=xx on .subckt line will override multiplier m hierarchy!


Circuit: ***************************

Doing analysis at TEMP = 125.000000 and TNOM = 125.000000


No. of Data Rows : 133
                          ***************************
                          DC transfer characteristic  Mon Jan  9 13:58:40  2023
--------------------------------------------------------------------------------
Index   v-sweep         rds             
--------------------------------------------------------------------------------
0	0.000000e+00	1.270852e-05	
1	5.000000e-02	1.095941e-05	
2	1.000000e-01	9.241536e-06	
3	1.500000e-01	7.558019e-06	
4	2.000000e-01	5.917579e-06	
5	2.500000e-01	4.345125e-06	
6	3.000000e-01	2.911096e-06	
7	3.500000e-01	1.770872e-06	
8	4.000000e-01	1.067992e-06	
9	4.500000e-01	7.200677e-07	
10	5.000000e-01	5.482319e-07	
11	5.500000e-01	4.510378e-07	
12	6.000000e-01	3.881181e-07	
13	6.500000e-01	3.433308e-07	
14	7.000000e-01	3.093962e-07	
15	7.500000e-01	2.825781e-07	
16	8.000000e-01	2.607409e-07	
17	8.500000e-01	2.425587e-07	
18	9.000000e-01	2.271546e-07	
19	9.500000e-01	2.139205e-07	
20	1.000000e+00	2.024185e-07	
21	1.050000e+00	1.923239e-07	
22	1.100000e+00	1.833899e-07	
23	1.150000e+00	1.754252e-07	
24	1.200000e+00	1.682789e-07	
25	1.250000e+00	1.618303e-07	
26	1.300000e+00	1.559815e-07	
27	1.350000e+00	1.506522e-07	
28	1.400000e+00	1.457760e-07	
29	1.450000e+00	1.412974e-07	
30	1.500000e+00	1.371697e-07	
31	1.550000e+00	1.333532e-07	
32	1.600000e+00	1.298140e-07	
33	1.650000e+00	1.265229e-07	
34	1.700000e+00	1.234549e-07	
35	1.750000e+00	1.205881e-07	
36	1.800000e+00	1.179033e-07	
37	1.850000e+00	1.153838e-07	
38	1.900000e+00	1.130148e-07	
39	1.950000e+00	1.107834e-07	
40	2.000000e+00	1.086779e-07	
41	2.050000e+00	1.066879e-07	
42	2.100000e+00	1.048044e-07	
43	2.150000e+00	1.030190e-07	
44	2.200000e+00	1.013243e-07	
45	2.250000e+00	9.971354e-08	
46	2.300000e+00	9.818075e-08	
47	2.350000e+00	9.672042e-08	
48	2.400000e+00	9.532756e-08	
49	2.450000e+00	9.399764e-08	
50	2.500000e+00	9.272650e-08	
51	2.550000e+00	9.151037e-08	
52	2.600000e+00	9.034578e-08	
53	2.650000e+00	8.922955e-08	
54	2.700000e+00	8.815875e-08	

Index   v-sweep         rds             
--------------------------------------------------------------------------------
55	2.750000e+00	8.713069e-08	
56	2.800000e+00	8.614288e-08	
57	2.850000e+00	8.519302e-08	
58	2.900000e+00	8.427898e-08	
59	2.950000e+00	8.339881e-08	
60	3.000000e+00	8.255066e-08	
61	3.050000e+00	8.173284e-08	
62	3.100000e+00	8.094377e-08	
63	3.150000e+00	8.018197e-08	
64	3.200000e+00	7.944607e-08	
65	3.250000e+00	7.873478e-08	
66	3.300000e+00	7.804690e-08	
67	3.350000e+00	7.738132e-08	
68	3.400000e+00	7.673696e-08	
69	3.450000e+00	7.611285e-08	
70	3.500000e+00	7.550806e-08	
71	3.550000e+00	7.492171e-08	
72	3.600000e+00	7.435299e-08	
73	3.650000e+00	7.380112e-08	
74	3.700000e+00	7.326538e-08	
75	3.750000e+00	7.274507e-08	
76	3.800000e+00	7.223954e-08	
77	3.850000e+00	7.174819e-08	
78	3.900000e+00	7.127044e-08	
79	3.950000e+00	7.080573e-08	
80	4.000000e+00	7.035354e-08	
81	4.050000e+00	6.991339e-08	
82	4.100000e+00	6.948481e-08	
83	4.150000e+00	6.906734e-08	
84	4.200000e+00	6.866059e-08	
85	4.250000e+00	6.826413e-08	
86	4.300000e+00	6.787759e-08	
87	4.350000e+00	6.750062e-08	
88	4.400000e+00	6.713286e-08	
89	4.450000e+00	6.677398e-08	
90	4.500000e+00	6.642368e-08	
91	4.550000e+00	6.608166e-08	
92	4.600000e+00	6.574762e-08	
93	4.650000e+00	6.542131e-08	
94	4.700000e+00	6.510245e-08	
95	4.750000e+00	6.479080e-08	
96	4.800000e+00	6.448613e-08	
97	4.850000e+00	6.418820e-08	
98	4.900000e+00	6.389680e-08	
99	4.950000e+00	6.361172e-08	
100	5.000000e+00	6.333276e-08	
101	5.050000e+00	6.305972e-08	
102	5.100000e+00	6.279244e-08	
103	5.150000e+00	6.253072e-08	
104	5.200000e+00	6.227441e-08	
105	5.250000e+00	6.202333e-08	
106	5.300000e+00	6.177734e-08	
107	5.350000e+00	6.153628e-08	
108	5.400000e+00	6.130000e-08	
109	5.450000e+00	6.106839e-08	
110	5.500000e+00	6.084128e-08	
111	5.550000e+00	6.061857e-08	
112	5.600000e+00	6.040013e-08	

Index   v-sweep         rds             
--------------------------------------------------------------------------------
113	5.650000e+00	6.018583e-08	
114	5.700000e+00	5.997557e-08	
115	5.750000e+00	5.976923e-08	
116	5.800000e+00	5.956671e-08	
117	5.850000e+00	5.936790e-08	
118	5.900000e+00	5.917271e-08	
119	5.950000e+00	5.898104e-08	
120	6.000000e+00	5.879279e-08	
121	6.050000e+00	5.860789e-08	
122	6.100000e+00	5.842624e-08	
123	6.150000e+00	5.824776e-08	
124	6.200000e+00	5.807236e-08	
125	6.250000e+00	5.789999e-08	
126	6.300000e+00	5.773054e-08	
127	6.350000e+00	5.756397e-08	
128	6.400000e+00	5.740019e-08	
129	6.450000e+00	5.723913e-08	
130	6.500000e+00	5.708074e-08	
131	6.550000e+00	5.692494e-08	
132	6.600000e+00	5.677168e-08	
Reset re-loads circuit ***************************

Circuit: ***************************

Doing analysis at TEMP = 125.000000 and TNOM = 125.000000


No. of Data Rows : 133
                          ***************************
                          DC transfer characteristic  Mon Jan  9 13:58:40  2023
--------------------------------------------------------------------------------
Index   v-sweep         rds             
--------------------------------------------------------------------------------
0	0.000000e+00	3.375240e-05	
1	5.000000e-02	3.186161e-05	
2	1.000000e-01	3.000276e-05	
3	1.500000e-01	2.817524e-05	
4	2.000000e-01	2.637843e-05	
5	2.500000e-01	2.461177e-05	
6	3.000000e-01	2.287473e-05	
7	3.500000e-01	2.116683e-05	
8	4.000000e-01	1.948768e-05	
9	4.500000e-01	1.783701e-05	
10	5.000000e-01	1.621475e-05	
11	5.500000e-01	1.462114e-05	
12	6.000000e-01	1.305706e-05	
13	6.500000e-01	1.152449e-05	
14	7.000000e-01	1.002769e-05	
15	7.500000e-01	8.575483e-06	
16	8.000000e-01	7.185726e-06	
17	8.500000e-01	5.891916e-06	
18	9.000000e-01	4.745988e-06	
19	9.500000e-01	3.801397e-06	
20	1.000000e+00	3.077093e-06	
21	1.050000e+00	2.545004e-06	
22	1.100000e+00	2.156145e-06	
23	1.150000e+00	1.866632e-06	
24	1.200000e+00	1.645230e-06	
25	1.250000e+00	1.471333e-06	
26	1.300000e+00	1.331469e-06	
27	1.350000e+00	1.216669e-06	
28	1.400000e+00	1.120806e-06	
29	1.450000e+00	1.039578e-06	
30	1.500000e+00	9.698842e-07	
31	1.550000e+00	9.094377e-07	
32	1.600000e+00	8.565167e-07	
33	1.650000e+00	8.098008e-07	
34	1.700000e+00	7.682610e-07	
35	1.750000e+00	7.310834e-07	
36	1.800000e+00	6.976162e-07	
37	1.850000e+00	6.673312e-07	
38	1.900000e+00	6.397956e-07	
39	1.950000e+00	6.146520e-07	
40	2.000000e+00	5.916019e-07	
41	2.050000e+00	5.703949e-07	
42	2.100000e+00	5.508186e-07	
43	2.150000e+00	5.326922e-07	
44	2.200000e+00	5.158607e-07	
45	2.250000e+00	5.001902e-07	
46	2.300000e+00	4.855649e-07	
47	2.350000e+00	4.718838e-07	
48	2.400000e+00	4.590584e-07	
49	2.450000e+00	4.470111e-07	
50	2.500000e+00	4.356731e-07	
51	2.550000e+00	4.249839e-07	
52	2.600000e+00	4.148894e-07	
53	2.650000e+00	4.053413e-07	
54	2.700000e+00	3.962966e-07	

Index   v-sweep         rds             
--------------------------------------------------------------------------------
55	2.750000e+00	3.877166e-07	
56	2.800000e+00	3.795664e-07	
57	2.850000e+00	3.718147e-07	
58	2.900000e+00	3.644328e-07	
59	2.950000e+00	3.573951e-07	
60	3.000000e+00	3.506781e-07	
61	3.050000e+00	3.442604e-07	
62	3.100000e+00	3.381224e-07	
63	3.150000e+00	3.322464e-07	
64	3.200000e+00	3.266159e-07	
65	3.250000e+00	3.212160e-07	
66	3.300000e+00	3.160327e-07	
67	3.350000e+00	3.110533e-07	
68	3.400000e+00	3.062661e-07	
69	3.450000e+00	3.016602e-07	
70	3.500000e+00	2.972254e-07	
71	3.550000e+00	2.929526e-07	
72	3.600000e+00	2.888329e-07	
73	3.650000e+00	2.848583e-07	
74	3.700000e+00	2.810213e-07	
75	3.750000e+00	2.773150e-07	
76	3.800000e+00	2.737327e-07	
77	3.850000e+00	2.702683e-07	
78	3.900000e+00	2.669162e-07	
79	3.950000e+00	2.636710e-07	
80	4.000000e+00	2.605277e-07	
81	4.050000e+00	2.574816e-07	
82	4.100000e+00	2.545282e-07	
83	4.150000e+00	2.516635e-07	
84	4.200000e+00	2.488834e-07	
85	4.250000e+00	2.461843e-07	
86	4.300000e+00	2.435627e-07	
87	4.350000e+00	2.410154e-07	
88	4.400000e+00	2.385393e-07	
89	4.450000e+00	2.361314e-07	
90	4.500000e+00	2.337889e-07	
91	4.550000e+00	2.315093e-07	
92	4.600000e+00	2.292900e-07	
93	4.650000e+00	2.271287e-07	
94	4.700000e+00	2.250233e-07	
95	4.750000e+00	2.229714e-07	
96	4.800000e+00	2.209712e-07	
97	4.850000e+00	2.190207e-07	
98	4.900000e+00	2.171182e-07	
99	4.950000e+00	2.152617e-07	
100	5.000000e+00	2.134499e-07	
101	5.050000e+00	2.116809e-07	
102	5.100000e+00	2.099535e-07	
103	5.150000e+00	2.082660e-07	
104	5.200000e+00	2.066172e-07	
105	5.250000e+00	2.050057e-07	
106	5.300000e+00	2.034304e-07	
107	5.350000e+00	2.018900e-07	
108	5.400000e+00	2.003833e-07	
109	5.450000e+00	1.989094e-07	
110	5.500000e+00	1.974671e-07	
111	5.550000e+00	1.960554e-07	
112	5.600000e+00	1.946735e-07	

Index   v-sweep         rds             
--------------------------------------------------------------------------------
113	5.650000e+00	1.933203e-07	
114	5.700000e+00	1.919949e-07	
115	5.750000e+00	1.906967e-07	
116	5.800000e+00	1.894247e-07	
117	5.850000e+00	1.881781e-07	
118	5.900000e+00	1.869562e-07	
119	5.950000e+00	1.857584e-07	
120	6.000000e+00	1.845838e-07	
121	6.050000e+00	1.834318e-07	
122	6.100000e+00	1.823019e-07	
123	6.150000e+00	1.811933e-07	
124	6.200000e+00	1.801055e-07	
125	6.250000e+00	1.790379e-07	
126	6.300000e+00	1.779900e-07	
127	6.350000e+00	1.769612e-07	
128	6.400000e+00	1.759510e-07	
129	6.450000e+00	1.749590e-07	
130	6.500000e+00	1.739846e-07	
131	6.550000e+00	1.730273e-07	
132	6.600000e+00	1.720869e-07	
Reset re-loads circuit ***************************

Circuit: ***************************

Doing analysis at TEMP = 125.000000 and TNOM = 125.000000


No. of Data Rows : 133
                          ***************************
                          DC transfer characteristic  Mon Jan  9 13:58:40  2023
--------------------------------------------------------------------------------
Index   v-sweep         rds             
--------------------------------------------------------------------------------
0	0.000000e+00	5.052442e-05	
1	5.000000e-02	4.862684e-05	
2	1.000000e-01	4.676004e-05	
3	1.500000e-01	4.492340e-05	
4	2.000000e-01	4.311632e-05	
5	2.500000e-01	4.133824e-05	
6	3.000000e-01	3.958857e-05	
7	3.500000e-01	3.786676e-05	
8	4.000000e-01	3.617226e-05	
9	4.500000e-01	3.450454e-05	
10	5.000000e-01	3.286309e-05	
11	5.500000e-01	3.124739e-05	
12	6.000000e-01	2.965698e-05	
13	6.500000e-01	2.809137e-05	
14	7.000000e-01	2.655012e-05	
15	7.500000e-01	2.503278e-05	
16	8.000000e-01	2.353895e-05	
17	8.500000e-01	2.206824e-05	
18	9.000000e-01	2.062029e-05	
19	9.500000e-01	1.919478e-05	
20	1.000000e+00	1.779146e-05	
21	1.050000e+00	1.641016e-05	
22	1.100000e+00	1.505088e-05	
23	1.150000e+00	1.371398e-05	
24	1.200000e+00	1.240046e-05	
25	1.250000e+00	1.111280e-05	
26	1.300000e+00	9.856585e-06	
27	1.350000e+00	8.643499e-06	
28	1.400000e+00	7.494997e-06	
29	1.450000e+00	6.442511e-06	
30	1.500000e+00	5.518240e-06	
31	1.550000e+00	4.739936e-06	
32	1.600000e+00	4.103939e-06	
33	1.650000e+00	3.591453e-06	
34	1.700000e+00	3.178844e-06	
35	1.750000e+00	2.844253e-06	
36	1.800000e+00	2.569917e-06	
37	1.850000e+00	2.342198e-06	
38	1.900000e+00	2.150847e-06	
39	1.950000e+00	1.988193e-06	
40	2.000000e+00	1.848462e-06	
41	2.050000e+00	1.727266e-06	
42	2.100000e+00	1.621235e-06	
43	2.150000e+00	1.527745e-06	
44	2.200000e+00	1.444733e-06	
45	2.250000e+00	1.370556e-06	
46	2.300000e+00	1.303893e-06	
47	2.350000e+00	1.243668e-06	
48	2.400000e+00	1.189001e-06	
49	2.450000e+00	1.139164e-06	
50	2.500000e+00	1.093548e-06	
51	2.550000e+00	1.051642e-06	
52	2.600000e+00	1.013014e-06	
53	2.650000e+00	9.772962e-07	
54	2.700000e+00	9.441737e-07	

Index   v-sweep         rds             
--------------------------------------------------------------------------------
55	2.750000e+00	9.133748e-07	
56	2.800000e+00	8.846643e-07	
57	2.850000e+00	8.578378e-07	
58	2.900000e+00	8.327164e-07	
59	2.950000e+00	8.091433e-07	
60	3.000000e+00	7.869800e-07	
61	3.050000e+00	7.661043e-07	
62	3.100000e+00	7.464074e-07	
63	3.150000e+00	7.277926e-07	
64	3.200000e+00	7.101735e-07	
65	3.250000e+00	6.934723e-07	
66	3.300000e+00	6.776194e-07	
67	3.350000e+00	6.625520e-07	
68	3.400000e+00	6.482133e-07	
69	3.450000e+00	6.345517e-07	
70	3.500000e+00	6.215207e-07	
71	3.550000e+00	6.090775e-07	
72	3.600000e+00	5.971834e-07	
73	3.650000e+00	5.858029e-07	
74	3.700000e+00	5.749036e-07	
75	3.750000e+00	5.644557e-07	
76	3.800000e+00	5.544317e-07	
77	3.850000e+00	5.448064e-07	
78	3.900000e+00	5.355565e-07	
79	3.950000e+00	5.266606e-07	
80	4.000000e+00	5.180988e-07	
81	4.050000e+00	5.098526e-07	
82	4.100000e+00	5.019050e-07	
83	4.150000e+00	4.942401e-07	
84	4.200000e+00	4.868430e-07	
85	4.250000e+00	4.797000e-07	
86	4.300000e+00	4.727984e-07	
87	4.350000e+00	4.661260e-07	
88	4.400000e+00	4.596717e-07	
89	4.450000e+00	4.534250e-07	
90	4.500000e+00	4.473760e-07	
91	4.550000e+00	4.415156e-07	
92	4.600000e+00	4.358351e-07	
93	4.650000e+00	4.303264e-07	
94	4.700000e+00	4.249818e-07	
95	4.750000e+00	4.197940e-07	
96	4.800000e+00	4.147565e-07	
97	4.850000e+00	4.098626e-07	
98	4.900000e+00	4.051064e-07	
99	4.950000e+00	4.004822e-07	
100	5.000000e+00	3.959846e-07	
101	5.050000e+00	3.916085e-07	
102	5.100000e+00	3.873490e-07	
103	5.150000e+00	3.832016e-07	
104	5.200000e+00	3.791620e-07	
105	5.250000e+00	3.752259e-07	
106	5.300000e+00	3.713895e-07	
107	5.350000e+00	3.676492e-07	
108	5.400000e+00	3.640012e-07	
109	5.450000e+00	3.604424e-07	
110	5.500000e+00	3.569694e-07	
111	5.550000e+00	3.535792e-07	
112	5.600000e+00	3.502690e-07	

Index   v-sweep         rds             
--------------------------------------------------------------------------------
113	5.650000e+00	3.470360e-07	
114	5.700000e+00	3.438774e-07	
115	5.750000e+00	3.407909e-07	
116	5.800000e+00	3.377739e-07	
117	5.850000e+00	3.348242e-07	
118	5.900000e+00	3.319396e-07	
119	5.950000e+00	3.291180e-07	
120	6.000000e+00	3.263573e-07	
121	6.050000e+00	3.236556e-07	
122	6.100000e+00	3.210111e-07	
123	6.150000e+00	3.184219e-07	
124	6.200000e+00	3.158865e-07	
125	6.250000e+00	3.134032e-07	
126	6.300000e+00	3.109703e-07	
127	6.350000e+00	3.085865e-07	
128	6.400000e+00	3.062502e-07	
129	6.450000e+00	3.039600e-07	
130	6.500000e+00	3.017147e-07	
131	6.550000e+00	2.995130e-07	
132	6.600000e+00	2.973535e-07	
Reset re-loads circuit ***************************

Circuit: ***************************

Doing analysis at TEMP = 125.000000 and TNOM = 125.000000


No. of Data Rows : 133
                          ***************************
                          DC transfer characteristic  Mon Jan  9 13:58:40  2023
--------------------------------------------------------------------------------
Index   v-sweep         rds             
--------------------------------------------------------------------------------
0	0.000000e+00	6.352910e-05	
1	5.000000e-02	6.169347e-05	
2	1.000000e-01	5.988539e-05	
3	1.500000e-01	5.810436e-05	
4	2.000000e-01	5.634988e-05	
5	2.500000e-01	5.462145e-05	
6	3.000000e-01	5.291862e-05	
7	3.500000e-01	5.124090e-05	
8	4.000000e-01	4.958784e-05	
9	4.500000e-01	4.795899e-05	
10	5.000000e-01	4.635389e-05	
11	5.500000e-01	4.477213e-05	
12	6.000000e-01	4.321327e-05	
13	6.500000e-01	4.167690e-05	
14	7.000000e-01	4.016261e-05	
15	7.500000e-01	3.867000e-05	
16	8.000000e-01	3.719868e-05	
17	8.500000e-01	3.574827e-05	
18	9.000000e-01	3.431840e-05	
19	9.500000e-01	3.290870e-05	
20	1.000000e+00	3.151882e-05	
21	1.050000e+00	3.014839e-05	
22	1.100000e+00	2.879708e-05	
23	1.150000e+00	2.746451e-05	
24	1.200000e+00	2.615035e-05	
25	1.250000e+00	2.485420e-05	
26	1.300000e+00	2.357570e-05	
27	1.350000e+00	2.231441e-05	
28	1.400000e+00	2.106985e-05	
29	1.450000e+00	1.984146e-05	
30	1.500000e+00	1.862855e-05	
31	1.550000e+00	1.743023e-05	
32	1.600000e+00	1.624535e-05	
33	1.650000e+00	1.507246e-05	
34	1.700000e+00	1.390980e-05	
35	1.750000e+00	1.275578e-05	
36	1.800000e+00	1.161026e-05	
37	1.850000e+00	1.047732e-05	
38	1.900000e+00	9.369509e-06	
39	1.950000e+00	8.310351e-06	
40	2.000000e+00	7.330345e-06	
41	2.050000e+00	6.455986e-06	
42	2.100000e+00	5.700017e-06	
43	2.150000e+00	5.060091e-06	
44	2.200000e+00	4.524004e-06	
45	2.250000e+00	4.075815e-06	
46	2.300000e+00	3.699830e-06	
47	2.350000e+00	3.382376e-06	
48	2.400000e+00	3.112219e-06	
49	2.450000e+00	2.880384e-06	
50	2.500000e+00	2.679785e-06	
51	2.550000e+00	2.504840e-06	
52	2.600000e+00	2.351135e-06	
53	2.650000e+00	2.215163e-06	
54	2.700000e+00	2.094118e-06	

Index   v-sweep         rds             
--------------------------------------------------------------------------------
55	2.750000e+00	1.985733e-06	
56	2.800000e+00	1.888167e-06	
57	2.850000e+00	1.799908e-06	
58	2.900000e+00	1.719710e-06	
59	2.950000e+00	1.646532e-06	
60	3.000000e+00	1.579506e-06	
61	3.050000e+00	1.517896e-06	
62	3.100000e+00	1.461078e-06	
63	3.150000e+00	1.408521e-06	
64	3.200000e+00	1.359766e-06	
65	3.250000e+00	1.314420e-06	
66	3.300000e+00	1.272139e-06	
67	3.350000e+00	1.232626e-06	
68	3.400000e+00	1.195618e-06	
69	3.450000e+00	1.160888e-06	
70	3.500000e+00	1.128231e-06	
71	3.550000e+00	1.097469e-06	
72	3.600000e+00	1.068442e-06	
73	3.650000e+00	1.041008e-06	
74	3.700000e+00	1.015041e-06	
75	3.750000e+00	9.904261e-07	
76	3.800000e+00	9.670607e-07	
77	3.850000e+00	9.448528e-07	
78	3.900000e+00	9.237186e-07	
79	3.950000e+00	9.035824e-07	
80	4.000000e+00	8.843755e-07	
81	4.050000e+00	8.660351e-07	
82	4.100000e+00	8.485042e-07	
83	4.150000e+00	8.317304e-07	
84	4.200000e+00	8.156660e-07	
85	4.250000e+00	8.002670e-07	
86	4.300000e+00	7.854930e-07	
87	4.350000e+00	7.713068e-07	
88	4.400000e+00	7.576742e-07	
89	4.450000e+00	7.445635e-07	
90	4.500000e+00	7.319453e-07	
91	4.550000e+00	7.197925e-07	
92	4.600000e+00	7.080799e-07	
93	4.650000e+00	6.967840e-07	
94	4.700000e+00	6.858831e-07	
95	4.750000e+00	6.753568e-07	
96	4.800000e+00	6.651863e-07	
97	4.850000e+00	6.553538e-07	
98	4.900000e+00	6.458429e-07	
99	4.950000e+00	6.366380e-07	
100	5.000000e+00	6.277247e-07	
101	5.050000e+00	6.190894e-07	
102	5.100000e+00	6.107193e-07	
103	5.150000e+00	6.026024e-07	
104	5.200000e+00	5.947275e-07	
105	5.250000e+00	5.870839e-07	
106	5.300000e+00	5.796617e-07	
107	5.350000e+00	5.724513e-07	
108	5.400000e+00	5.654439e-07	
109	5.450000e+00	5.586312e-07	
110	5.500000e+00	5.520051e-07	
111	5.550000e+00	5.455580e-07	
112	5.600000e+00	5.392830e-07	

Index   v-sweep         rds             
--------------------------------------------------------------------------------
113	5.650000e+00	5.331733e-07	
114	5.700000e+00	5.272223e-07	
115	5.750000e+00	5.214242e-07	
116	5.800000e+00	5.157730e-07	
117	5.850000e+00	5.102634e-07	
118	5.900000e+00	5.048901e-07	
119	5.950000e+00	4.996482e-07	
120	6.000000e+00	4.945330e-07	
121	6.050000e+00	4.895399e-07	
122	6.100000e+00	4.846648e-07	
123	6.150000e+00	4.799034e-07	
124	6.200000e+00	4.752520e-07	
125	6.250000e+00	4.707068e-07	
126	6.300000e+00	4.662642e-07	
127	6.350000e+00	4.619209e-07	
128	6.400000e+00	4.576736e-07	
129	6.450000e+00	4.535193e-07	
130	6.500000e+00	4.494549e-07	
131	6.550000e+00	4.454776e-07	
132	6.600000e+00	4.415847e-07	
Reset re-loads circuit ***************************

Circuit: ***************************

Doing analysis at TEMP = 125.000000 and TNOM = 125.000000


No. of Data Rows : 133
                          ***************************
                          DC transfer characteristic  Mon Jan  9 13:58:40  2023
--------------------------------------------------------------------------------
Index   v-sweep         rds             
--------------------------------------------------------------------------------
0	0.000000e+00	7.285091e-05	
1	5.000000e-02	7.112839e-05	
2	1.000000e-01	6.942936e-05	
3	1.500000e-01	6.775345e-05	
4	2.000000e-01	6.610026e-05	
5	2.500000e-01	6.446942e-05	
6	3.000000e-01	6.286056e-05	
7	3.500000e-01	6.127331e-05	
8	4.000000e-01	5.970731e-05	
9	4.500000e-01	5.816221e-05	
10	5.000000e-01	5.663765e-05	
11	5.500000e-01	5.513331e-05	
12	6.000000e-01	5.364884e-05	
13	6.500000e-01	5.218391e-05	
14	7.000000e-01	5.073820e-05	
15	7.500000e-01	4.931138e-05	
16	8.000000e-01	4.790314e-05	
17	8.500000e-01	4.651319e-05	
18	9.000000e-01	4.514120e-05	
19	9.500000e-01	4.378690e-05	
20	1.000000e+00	4.245000e-05	
21	1.050000e+00	4.113020e-05	
22	1.100000e+00	3.982724e-05	
23	1.150000e+00	3.854085e-05	
24	1.200000e+00	3.727075e-05	
25	1.250000e+00	3.601668e-05	
26	1.300000e+00	3.477839e-05	
27	1.350000e+00	3.355562e-05	
28	1.400000e+00	3.234811e-05	
29	1.450000e+00	3.115560e-05	
30	1.500000e+00	2.997782e-05	
31	1.550000e+00	2.881451e-05	
32	1.600000e+00	2.766539e-05	
33	1.650000e+00	2.653013e-05	
34	1.700000e+00	2.540841e-05	
35	1.750000e+00	2.429984e-05	
36	1.800000e+00	2.320396e-05	
37	1.850000e+00	2.212023e-05	
38	1.900000e+00	2.104793e-05	
39	1.950000e+00	1.998616e-05	
40	2.000000e+00	1.893370e-05	
41	2.050000e+00	1.788888e-05	
42	2.100000e+00	1.684948e-05	
43	2.150000e+00	1.581254e-05	
44	2.200000e+00	1.477445e-05	
45	2.250000e+00	1.373143e-05	
46	2.300000e+00	1.268110e-05	
47	2.350000e+00	1.162539e-05	
48	2.400000e+00	1.057454e-05	
49	2.450000e+00	9.549122e-06	
50	2.500000e+00	8.576844e-06	
51	2.550000e+00	7.684111e-06	
52	2.600000e+00	6.887876e-06	
53	2.650000e+00	6.192896e-06	
54	2.700000e+00	5.594215e-06	

Index   v-sweep         rds             
--------------------------------------------------------------------------------
55	2.750000e+00	5.081505e-06	
56	2.800000e+00	4.642668e-06	
57	2.850000e+00	4.265985e-06	
58	2.900000e+00	3.941079e-06	
59	2.950000e+00	3.659178e-06	
60	3.000000e+00	3.413047e-06	
61	3.050000e+00	3.196783e-06	
62	3.100000e+00	3.005590e-06	
63	3.150000e+00	2.835569e-06	
64	3.200000e+00	2.683538e-06	
65	3.250000e+00	2.546892e-06	
66	3.300000e+00	2.423482e-06	
67	3.350000e+00	2.311528e-06	
68	3.400000e+00	2.209544e-06	
69	3.450000e+00	2.116286e-06	
70	3.500000e+00	2.030701e-06	
71	3.550000e+00	1.951896e-06	
72	3.600000e+00	1.879109e-06	
73	3.650000e+00	1.811686e-06	
74	3.700000e+00	1.749063e-06	
75	3.750000e+00	1.690751e-06	
76	3.800000e+00	1.636325e-06	
77	3.850000e+00	1.585413e-06	
78	3.900000e+00	1.537688e-06	
79	3.950000e+00	1.492863e-06	
80	4.000000e+00	1.450684e-06	
81	4.050000e+00	1.410924e-06	
82	4.100000e+00	1.373384e-06	
83	4.150000e+00	1.337882e-06	
84	4.200000e+00	1.304260e-06	
85	4.250000e+00	1.272372e-06	
86	4.300000e+00	1.242088e-06	
87	4.350000e+00	1.213291e-06	
88	4.400000e+00	1.185875e-06	
89	4.450000e+00	1.159743e-06	
90	4.500000e+00	1.134807e-06	
91	4.550000e+00	1.110988e-06	
92	4.600000e+00	1.088212e-06	
93	4.650000e+00	1.066412e-06	
94	4.700000e+00	1.045528e-06	
95	4.750000e+00	1.025504e-06	
96	4.800000e+00	1.006286e-06	
97	4.850000e+00	9.878284e-07	
98	4.900000e+00	9.700864e-07	
99	4.950000e+00	9.530194e-07	
100	5.000000e+00	9.365898e-07	
101	5.050000e+00	9.207625e-07	
102	5.100000e+00	9.055053e-07	
103	5.150000e+00	8.907879e-07	
104	5.200000e+00	8.765823e-07	
105	5.250000e+00	8.628624e-07	
106	5.300000e+00	8.496037e-07	
107	5.350000e+00	8.367835e-07	
108	5.400000e+00	8.243804e-07	
109	5.450000e+00	8.123745e-07	
110	5.500000e+00	8.007471e-07	
111	5.550000e+00	7.894807e-07	
112	5.600000e+00	7.785587e-07	

Index   v-sweep         rds             
--------------------------------------------------------------------------------
113	5.650000e+00	7.679657e-07	
114	5.700000e+00	7.576871e-07	
115	5.750000e+00	7.477091e-07	
116	5.800000e+00	7.380189e-07	
117	5.850000e+00	7.286043e-07	
118	5.900000e+00	7.194537e-07	
119	5.950000e+00	7.105562e-07	
120	6.000000e+00	7.019016e-07	
121	6.050000e+00	6.934800e-07	
122	6.100000e+00	6.852824e-07	
123	6.150000e+00	6.773000e-07	
124	6.200000e+00	6.695244e-07	
125	6.250000e+00	6.619479e-07	
126	6.300000e+00	6.545628e-07	
127	6.350000e+00	6.473622e-07	
128	6.400000e+00	6.403394e-07	
129	6.450000e+00	6.334878e-07	
130	6.500000e+00	6.268013e-07	
131	6.550000e+00	6.202743e-07	
132	6.600000e+00	6.139010e-07	
Reset re-loads circuit ***************************

Circuit: ***************************

Doing analysis at TEMP = 125.000000 and TNOM = 125.000000


No. of Data Rows : 133
                          ***************************
                          DC transfer characteristic  Mon Jan  9 13:58:40  2023
--------------------------------------------------------------------------------
Index   v-sweep         rds             
--------------------------------------------------------------------------------
0	0.000000e+00	8.031359e-05	
1	5.000000e-02	7.871390e-05	
2	1.000000e-01	7.713398e-05	
3	1.500000e-01	7.557354e-05	
4	2.000000e-01	7.403228e-05	
5	2.500000e-01	7.250992e-05	
6	3.000000e-01	7.100617e-05	
7	3.500000e-01	6.952074e-05	
8	4.000000e-01	6.805338e-05	
9	4.500000e-01	6.660380e-05	
10	5.000000e-01	6.517174e-05	
11	5.500000e-01	6.375693e-05	
12	6.000000e-01	6.235912e-05	
13	6.500000e-01	6.097804e-05	
14	7.000000e-01	5.961344e-05	
15	7.500000e-01	5.826508e-05	
16	8.000000e-01	5.693271e-05	
17	8.500000e-01	5.561608e-05	
18	9.000000e-01	5.431496e-05	
19	9.500000e-01	5.302913e-05	
20	1.000000e+00	5.175834e-05	
21	1.050000e+00	5.050237e-05	
22	1.100000e+00	4.926101e-05	
23	1.150000e+00	4.803404e-05	
24	1.200000e+00	4.682125e-05	
25	1.250000e+00	4.562242e-05	
26	1.300000e+00	4.443736e-05	
27	1.350000e+00	4.326587e-05	
28	1.400000e+00	4.210776e-05	
29	1.450000e+00	4.096282e-05	
30	1.500000e+00	3.983087e-05	
31	1.550000e+00	3.871172e-05	
32	1.600000e+00	3.760520e-05	
33	1.650000e+00	3.651111e-05	
34	1.700000e+00	3.542927e-05	
35	1.750000e+00	3.435951e-05	
36	1.800000e+00	3.330163e-05	
37	1.850000e+00	3.225545e-05	
38	1.900000e+00	3.122077e-05	
39	1.950000e+00	3.019738e-05	
40	2.000000e+00	2.918509e-05	
41	2.050000e+00	2.818364e-05	
42	2.100000e+00	2.719277e-05	
43	2.150000e+00	2.621220e-05	
44	2.200000e+00	2.524156e-05	
45	2.250000e+00	2.428045e-05	
46	2.300000e+00	2.332834e-05	
47	2.350000e+00	2.238456e-05	
48	2.400000e+00	2.144825e-05	
49	2.450000e+00	2.051826e-05	
50	2.500000e+00	1.959306e-05	
51	2.550000e+00	1.867055e-05	
52	2.600000e+00	1.774797e-05	
53	2.650000e+00	1.682168e-05	
54	2.700000e+00	1.588723e-05	

Index   v-sweep         rds             
--------------------------------------------------------------------------------
55	2.750000e+00	1.493975e-05	
56	2.800000e+00	1.397516e-05	
57	2.850000e+00	1.299257e-05	
58	2.900000e+00	1.199751e-05	
59	2.950000e+00	1.100446e-05	
60	3.000000e+00	1.003601e-05	
61	3.050000e+00	9.117706e-06	
62	3.100000e+00	8.271002e-06	
63	3.150000e+00	7.508558e-06	
64	3.200000e+00	6.833653e-06	
65	3.250000e+00	6.242497e-06	
66	3.300000e+00	5.727305e-06	
67	3.350000e+00	5.278761e-06	
68	3.400000e+00	4.887569e-06	
69	3.450000e+00	4.545226e-06	
70	3.500000e+00	4.244313e-06	
71	3.550000e+00	3.978525e-06	
72	3.600000e+00	3.742577e-06	
73	3.650000e+00	3.532070e-06	
74	3.700000e+00	3.343347e-06	
75	3.750000e+00	3.173365e-06	
76	3.800000e+00	3.019590e-06	
77	3.850000e+00	2.879898e-06	
78	3.900000e+00	2.752505e-06	
79	3.950000e+00	2.635904e-06	
80	4.000000e+00	2.528816e-06	
81	4.050000e+00	2.430150e-06	
82	4.100000e+00	2.338971e-06	
83	4.150000e+00	2.254476e-06	
84	4.200000e+00	2.175968e-06	
85	4.250000e+00	2.102843e-06	
86	4.300000e+00	2.034574e-06	
87	4.350000e+00	1.970699e-06	
88	4.400000e+00	1.910813e-06	
89	4.450000e+00	1.854557e-06	
90	4.500000e+00	1.801616e-06	
91	4.550000e+00	1.751707e-06	
92	4.600000e+00	1.704579e-06	
93	4.650000e+00	1.660009e-06	
94	4.700000e+00	1.617795e-06	
95	4.750000e+00	1.577758e-06	
96	4.800000e+00	1.539733e-06	
97	4.850000e+00	1.503574e-06	
98	4.900000e+00	1.469149e-06	
99	4.950000e+00	1.436335e-06	
100	5.000000e+00	1.405024e-06	
101	5.050000e+00	1.375114e-06	
102	5.100000e+00	1.346515e-06	
103	5.150000e+00	1.319142e-06	
104	5.200000e+00	1.292919e-06	
105	5.250000e+00	1.267775e-06	
106	5.300000e+00	1.243645e-06	
107	5.350000e+00	1.220469e-06	
108	5.400000e+00	1.198192e-06	
109	5.450000e+00	1.176763e-06	
110	5.500000e+00	1.156135e-06	
111	5.550000e+00	1.136263e-06	
112	5.600000e+00	1.117108e-06	

Index   v-sweep         rds             
--------------------------------------------------------------------------------
113	5.650000e+00	1.098630e-06	
114	5.700000e+00	1.080796e-06	
115	5.750000e+00	1.063572e-06	
116	5.800000e+00	1.046927e-06	
117	5.850000e+00	1.030833e-06	
118	5.900000e+00	1.015263e-06	
119	5.950000e+00	1.000192e-06	
120	6.000000e+00	9.855962e-07	
121	6.050000e+00	9.714540e-07	
122	6.100000e+00	9.577446e-07	
123	6.150000e+00	9.444485e-07	
124	6.200000e+00	9.315473e-07	
125	6.250000e+00	9.190239e-07	
126	6.300000e+00	9.068619e-07	
127	6.350000e+00	8.950462e-07	
128	6.400000e+00	8.835621e-07	
129	6.450000e+00	8.723961e-07	
130	6.500000e+00	8.615352e-07	
131	6.550000e+00	8.509671e-07	
132	6.600000e+00	8.406804e-07	
Reset re-loads circuit ***************************

Circuit: ***************************

Note: No ".plot", ".print", or ".fourier" lines; no simulations run
