
Note: Compatibility modes selected: hs

Warning: m=xx on .subckt line will override multiplier m hierarchy!


Circuit: ***************************

Doing analysis at TEMP = 125.000000 and TNOM = 125.000000


No. of Data Rows : 133
                          ***************************
                          DC transfer characteristic  Mon Jan  9 13:58:40  2023
--------------------------------------------------------------------------------
Index   v-sweep         rds             
--------------------------------------------------------------------------------
0	0.000000e+00	1.065996e-06	
1	5.000000e-02	9.396547e-07	
2	1.000000e-01	8.138427e-07	
3	1.500000e-01	6.886859e-07	
4	2.000000e-01	5.644650e-07	
5	2.500000e-01	4.418590e-07	
6	3.000000e-01	3.226407e-07	
7	3.500000e-01	2.115147e-07	
8	4.000000e-01	1.190055e-07	
9	4.500000e-01	5.781861e-08	
10	5.000000e-01	2.719345e-08	
11	5.500000e-01	1.408180e-08	
12	6.000000e-01	8.428987e-09	
13	6.500000e-01	5.774766e-09	
14	7.000000e-01	4.399352e-09	
15	7.500000e-01	3.620513e-09	
16	8.000000e-01	3.145431e-09	
17	8.500000e-01	2.837316e-09	
18	9.000000e-01	2.627128e-09	
19	9.500000e-01	2.477602e-09	
20	1.000000e+00	2.367430e-09	
21	1.050000e+00	2.283810e-09	
22	1.100000e+00	2.218720e-09	
23	1.150000e+00	2.166943e-09	
24	1.200000e+00	2.124976e-09	
25	1.250000e+00	2.090402e-09	
26	1.300000e+00	2.061506e-09	
27	1.350000e+00	2.037052e-09	
28	1.400000e+00	2.016123e-09	
29	1.450000e+00	1.998033e-09	
30	1.500000e+00	1.982257e-09	
31	1.550000e+00	1.968390e-09	
32	1.600000e+00	1.956113e-09	
33	1.650000e+00	1.945172e-09	
34	1.700000e+00	1.935365e-09	
35	1.750000e+00	1.926526e-09	
36	1.800000e+00	1.918522e-09	
37	1.850000e+00	1.911240e-09	
38	1.900000e+00	1.904587e-09	
39	1.950000e+00	1.898487e-09	
40	2.000000e+00	1.892874e-09	
41	2.050000e+00	1.887692e-09	
42	2.100000e+00	1.882893e-09	
43	2.150000e+00	1.878436e-09	
44	2.200000e+00	1.874287e-09	
45	2.250000e+00	1.870415e-09	
46	2.300000e+00	1.866792e-09	
47	2.350000e+00	1.863396e-09	
48	2.400000e+00	1.860205e-09	
49	2.450000e+00	1.857202e-09	
50	2.500000e+00	1.854371e-09	
51	2.550000e+00	1.851697e-09	
52	2.600000e+00	1.849168e-09	
53	2.650000e+00	1.846771e-09	
54	2.700000e+00	1.844498e-09	

Index   v-sweep         rds             
--------------------------------------------------------------------------------
55	2.750000e+00	1.842338e-09	
56	2.800000e+00	1.840283e-09	
57	2.850000e+00	1.838326e-09	
58	2.900000e+00	1.836460e-09	
59	2.950000e+00	1.834678e-09	
60	3.000000e+00	1.832976e-09	
61	3.050000e+00	1.831347e-09	
62	3.100000e+00	1.829788e-09	
63	3.150000e+00	1.828293e-09	
64	3.200000e+00	1.826860e-09	
65	3.250000e+00	1.825483e-09	
66	3.300000e+00	1.824161e-09	
67	3.350000e+00	1.822889e-09	
68	3.400000e+00	1.821665e-09	
69	3.450000e+00	1.820487e-09	
70	3.500000e+00	1.819351e-09	
71	3.550000e+00	1.818255e-09	
72	3.600000e+00	1.817198e-09	
73	3.650000e+00	1.816177e-09	
74	3.700000e+00	1.815191e-09	
75	3.750000e+00	1.814238e-09	
76	3.800000e+00	1.813316e-09	
77	3.850000e+00	1.812423e-09	
78	3.900000e+00	1.811559e-09	
79	3.950000e+00	1.810721e-09	
80	4.000000e+00	1.809910e-09	
81	4.050000e+00	1.809123e-09	
82	4.100000e+00	1.808359e-09	
83	4.150000e+00	1.807618e-09	
84	4.200000e+00	1.806898e-09	
85	4.250000e+00	1.806199e-09	
86	4.300000e+00	1.805519e-09	
87	4.350000e+00	1.804858e-09	
88	4.400000e+00	1.804216e-09	
89	4.450000e+00	1.803590e-09	
90	4.500000e+00	1.802982e-09	
91	4.550000e+00	1.802389e-09	
92	4.600000e+00	1.801812e-09	
93	4.650000e+00	1.801249e-09	
94	4.700000e+00	1.800701e-09	
95	4.750000e+00	1.800166e-09	
96	4.800000e+00	1.799645e-09	
97	4.850000e+00	1.799136e-09	
98	4.900000e+00	1.798640e-09	
99	4.950000e+00	1.798155e-09	
100	5.000000e+00	1.797682e-09	
101	5.050000e+00	1.797220e-09	
102	5.100000e+00	1.796768e-09	
103	5.150000e+00	1.796327e-09	
104	5.200000e+00	1.795896e-09	
105	5.250000e+00	1.795474e-09	
106	5.300000e+00	1.795061e-09	
107	5.350000e+00	1.794658e-09	
108	5.400000e+00	1.794263e-09	
109	5.450000e+00	1.793877e-09	
110	5.500000e+00	1.793498e-09	
111	5.550000e+00	1.793128e-09	
112	5.600000e+00	1.792765e-09	

Index   v-sweep         rds             
--------------------------------------------------------------------------------
113	5.650000e+00	1.792410e-09	
114	5.700000e+00	1.792062e-09	
115	5.750000e+00	1.791721e-09	
116	5.800000e+00	1.791387e-09	
117	5.850000e+00	1.791059e-09	
118	5.900000e+00	1.790738e-09	
119	5.950000e+00	1.790422e-09	
120	6.000000e+00	1.790113e-09	
121	6.050000e+00	1.789810e-09	
122	6.100000e+00	1.789512e-09	
123	6.150000e+00	1.789220e-09	
124	6.200000e+00	1.788934e-09	
125	6.250000e+00	1.788652e-09	
126	6.300000e+00	1.788376e-09	
127	6.350000e+00	1.788105e-09	
128	6.400000e+00	1.787838e-09	
129	6.450000e+00	1.787576e-09	
130	6.500000e+00	1.787319e-09	
131	6.550000e+00	1.787067e-09	
132	6.600000e+00	1.786818e-09	
Reset re-loads circuit ***************************

Circuit: ***************************

Doing analysis at TEMP = 125.000000 and TNOM = 125.000000


No. of Data Rows : 133
                          ***************************
                          DC transfer characteristic  Mon Jan  9 13:58:40  2023
--------------------------------------------------------------------------------
Index   v-sweep         rds             
--------------------------------------------------------------------------------
0	0.000000e+00	3.017671e-06	
1	5.000000e-02	2.888504e-06	
2	1.000000e-01	2.759748e-06	
3	1.500000e-01	2.631401e-06	
4	2.000000e-01	2.503463e-06	
5	2.500000e-01	2.375933e-06	
6	3.000000e-01	2.248812e-06	
7	3.500000e-01	2.122100e-06	
8	4.000000e-01	1.995799e-06	
9	4.500000e-01	1.869911e-06	
10	5.000000e-01	1.744443e-06	
11	5.500000e-01	1.619402e-06	
12	6.000000e-01	1.494801e-06	
13	6.500000e-01	1.370662e-06	
14	7.000000e-01	1.247021e-06	
15	7.500000e-01	1.123936e-06	
16	8.000000e-01	1.001506e-06	
17	8.500000e-01	8.799090e-07	
18	9.000000e-01	7.594632e-07	
19	9.500000e-01	6.407600e-07	
20	1.000000e+00	5.249087e-07	
21	1.050000e+00	4.139524e-07	
22	1.100000e+00	3.113795e-07	
23	1.150000e+00	2.221653e-07	
24	1.200000e+00	1.512181e-07	
25	1.250000e+00	1.003665e-07	
26	1.300000e+00	6.701603e-08	
27	1.350000e+00	4.622430e-08	
28	1.400000e+00	3.340137e-08	
29	1.450000e+00	2.536010e-08	
30	1.500000e+00	2.016101e-08	
31	1.550000e+00	1.667904e-08	
32	1.600000e+00	1.426407e-08	
33	1.650000e+00	1.253377e-08	
34	1.700000e+00	1.125716e-08	
35	1.750000e+00	1.029044e-08	
36	1.800000e+00	9.541382e-09	
37	1.850000e+00	8.949119e-09	
38	1.900000e+00	8.472401e-09	
39	1.950000e+00	8.082588e-09	
40	2.000000e+00	7.759349e-09	
41	2.050000e+00	7.487961e-09	
42	2.100000e+00	7.257559e-09	
43	2.150000e+00	7.059995e-09	
44	2.200000e+00	6.889065e-09	
45	2.250000e+00	6.739975e-09	
46	2.300000e+00	6.608978e-09	
47	2.350000e+00	6.493107e-09	
48	2.400000e+00	6.389992e-09	
49	2.450000e+00	6.297715e-09	
50	2.500000e+00	6.214715e-09	
51	2.550000e+00	6.139708e-09	
52	2.600000e+00	6.071630e-09	
53	2.650000e+00	6.009592e-09	
54	2.700000e+00	5.952848e-09	

Index   v-sweep         rds             
--------------------------------------------------------------------------------
55	2.750000e+00	5.900768e-09	
56	2.800000e+00	5.852814e-09	
57	2.850000e+00	5.808528e-09	
58	2.900000e+00	5.767513e-09	
59	2.950000e+00	5.729428e-09	
60	3.000000e+00	5.693978e-09	
61	3.050000e+00	5.660903e-09	
62	3.100000e+00	5.629978e-09	
63	3.150000e+00	5.601003e-09	
64	3.200000e+00	5.573803e-09	
65	3.250000e+00	5.548222e-09	
66	3.300000e+00	5.524123e-09	
67	3.350000e+00	5.501382e-09	
68	3.400000e+00	5.479890e-09	
69	3.450000e+00	5.459548e-09	
70	3.500000e+00	5.440266e-09	
71	3.550000e+00	5.421967e-09	
72	3.600000e+00	5.404576e-09	
73	3.650000e+00	5.388030e-09	
74	3.700000e+00	5.372269e-09	
75	3.750000e+00	5.357238e-09	
76	3.800000e+00	5.342889e-09	
77	3.850000e+00	5.329178e-09	
78	3.900000e+00	5.316062e-09	
79	3.950000e+00	5.303504e-09	
80	4.000000e+00	5.291470e-09	
81	4.050000e+00	5.279928e-09	
82	4.100000e+00	5.268849e-09	
83	4.150000e+00	5.258206e-09	
84	4.200000e+00	5.247973e-09	
85	4.250000e+00	5.238127e-09	
86	4.300000e+00	5.228648e-09	
87	4.350000e+00	5.219515e-09	
88	4.400000e+00	5.210710e-09	
89	4.450000e+00	5.202215e-09	
90	4.500000e+00	5.194015e-09	
91	4.550000e+00	5.186094e-09	
92	4.600000e+00	5.178439e-09	
93	4.650000e+00	5.171037e-09	
94	4.700000e+00	5.163875e-09	
95	4.750000e+00	5.156942e-09	
96	4.800000e+00	5.150227e-09	
97	4.850000e+00	5.143721e-09	
98	4.900000e+00	5.137413e-09	
99	4.950000e+00	5.131294e-09	
100	5.000000e+00	5.125358e-09	
101	5.050000e+00	5.119594e-09	
102	5.100000e+00	5.113997e-09	
103	5.150000e+00	5.108559e-09	
104	5.200000e+00	5.103273e-09	
105	5.250000e+00	5.098133e-09	
106	5.300000e+00	5.093133e-09	
107	5.350000e+00	5.088268e-09	
108	5.400000e+00	5.083532e-09	
109	5.450000e+00	5.078920e-09	
110	5.500000e+00	5.074428e-09	
111	5.550000e+00	5.070050e-09	
112	5.600000e+00	5.065783e-09	

Index   v-sweep         rds             
--------------------------------------------------------------------------------
113	5.650000e+00	5.061623e-09	
114	5.700000e+00	5.057564e-09	
115	5.750000e+00	5.053605e-09	
116	5.800000e+00	5.049741e-09	
117	5.850000e+00	5.045968e-09	
118	5.900000e+00	5.042285e-09	
119	5.950000e+00	5.038687e-09	
120	6.000000e+00	5.035171e-09	
121	6.050000e+00	5.031735e-09	
122	6.100000e+00	5.028377e-09	
123	6.150000e+00	5.025093e-09	
124	6.200000e+00	5.021881e-09	
125	6.250000e+00	5.018739e-09	
126	6.300000e+00	5.015665e-09	
127	6.350000e+00	5.012656e-09	
128	6.400000e+00	5.009710e-09	
129	6.450000e+00	5.006826e-09	
130	6.500000e+00	5.004001e-09	
131	6.550000e+00	5.001234e-09	
132	6.600000e+00	4.998523e-09	
Reset re-loads circuit ***************************

Circuit: ***************************

Doing analysis at TEMP = 125.000000 and TNOM = 125.000000


No. of Data Rows : 133
                          ***************************
                          DC transfer characteristic  Mon Jan  9 13:58:40  2023
--------------------------------------------------------------------------------
Index   v-sweep         rds             
--------------------------------------------------------------------------------
0	0.000000e+00	4.659194e-06	
1	5.000000e-02	4.537598e-06	
2	1.000000e-01	4.416372e-06	
3	1.500000e-01	4.295516e-06	
4	2.000000e-01	4.175027e-06	
5	2.500000e-01	4.054904e-06	
6	3.000000e-01	3.935147e-06	
7	3.500000e-01	3.815753e-06	
8	4.000000e-01	3.696720e-06	
9	4.500000e-01	3.578049e-06	
10	5.000000e-01	3.459736e-06	
11	5.500000e-01	3.341782e-06	
12	6.000000e-01	3.224184e-06	
13	6.500000e-01	3.106941e-06	
14	7.000000e-01	2.990052e-06	
15	7.500000e-01	2.873516e-06	
16	8.000000e-01	2.757332e-06	
17	8.500000e-01	2.641498e-06	
18	9.000000e-01	2.526014e-06	
19	9.500000e-01	2.410878e-06	
20	1.000000e+00	2.296091e-06	
21	1.050000e+00	2.181653e-06	
22	1.100000e+00	2.067563e-06	
23	1.150000e+00	1.953824e-06	
24	1.200000e+00	1.840437e-06	
25	1.250000e+00	1.727408e-06	
26	1.300000e+00	1.614744e-06	
27	1.350000e+00	1.502458e-06	
28	1.400000e+00	1.390569e-06	
29	1.450000e+00	1.279110e-06	
30	1.500000e+00	1.168134e-06	
31	1.550000e+00	1.057731e-06	
32	1.600000e+00	9.480479e-07	
33	1.650000e+00	8.393380e-07	
34	1.700000e+00	7.320325e-07	
35	1.750000e+00	6.268635e-07	
36	1.800000e+00	5.250435e-07	
37	1.850000e+00	4.284638e-07	
38	1.900000e+00	3.397631e-07	
39	1.950000e+00	2.619741e-07	
40	2.000000e+00	1.975754e-07	
41	2.050000e+00	1.473927e-07	
42	2.100000e+00	1.102581e-07	
43	2.150000e+00	8.370629e-08	
44	2.200000e+00	6.500631e-08	
45	2.250000e+00	5.182751e-08	
46	2.300000e+00	4.243530e-08	
47	2.350000e+00	3.562676e-08	
48	2.400000e+00	3.059367e-08	
49	2.450000e+00	2.679774e-08	
50	2.500000e+00	2.387879e-08	
51	2.550000e+00	2.159301e-08	
52	2.600000e+00	1.977280e-08	
53	2.650000e+00	1.830101e-08	
54	2.700000e+00	1.709432e-08	

Index   v-sweep         rds             
--------------------------------------------------------------------------------
55	2.750000e+00	1.609247e-08	
56	2.800000e+00	1.525117e-08	
57	2.850000e+00	1.453737e-08	
58	2.900000e+00	1.392607e-08	
59	2.950000e+00	1.339808e-08	
60	3.000000e+00	1.293850e-08	
61	3.050000e+00	1.253562e-08	
62	3.100000e+00	1.218017e-08	
63	3.150000e+00	1.186469e-08	
64	3.200000e+00	1.158315e-08	
65	3.250000e+00	1.133063e-08	
66	3.300000e+00	1.110308e-08	
67	3.350000e+00	1.089715e-08	
68	3.400000e+00	1.071004e-08	
69	3.450000e+00	1.053940e-08	
70	3.500000e+00	1.038322e-08	
71	3.550000e+00	1.023984e-08	
72	3.600000e+00	1.010779e-08	
73	3.650000e+00	9.985833e-09	
74	3.700000e+00	9.872904e-09	
75	3.750000e+00	9.768068e-09	
76	3.800000e+00	9.670517e-09	
77	3.850000e+00	9.579542e-09	
78	3.900000e+00	9.494522e-09	
79	3.950000e+00	9.414909e-09	
80	4.000000e+00	9.340219e-09	
81	4.050000e+00	9.270024e-09	
82	4.100000e+00	9.203940e-09	
83	4.150000e+00	9.141628e-09	
84	4.200000e+00	9.082781e-09	
85	4.250000e+00	9.027128e-09	
86	4.300000e+00	8.974420e-09	
87	4.350000e+00	8.924438e-09	
88	4.400000e+00	8.876979e-09	
89	4.450000e+00	8.831861e-09	
90	4.500000e+00	8.788921e-09	
91	4.550000e+00	8.748007e-09	
92	4.600000e+00	8.708983e-09	
93	4.650000e+00	8.671723e-09	
94	4.700000e+00	8.636113e-09	
95	4.750000e+00	8.602048e-09	
96	4.800000e+00	8.569432e-09	
97	4.850000e+00	8.538177e-09	
98	4.900000e+00	8.508199e-09	
99	4.950000e+00	8.479424e-09	
100	5.000000e+00	8.451783e-09	
101	5.050000e+00	8.425211e-09	
102	5.100000e+00	8.399648e-09	
103	5.150000e+00	8.375038e-09	
104	5.200000e+00	8.351331e-09	
105	5.250000e+00	8.328479e-09	
106	5.300000e+00	8.306436e-09	
107	5.350000e+00	8.285161e-09	
108	5.400000e+00	8.264616e-09	
109	5.450000e+00	8.244763e-09	
110	5.500000e+00	8.225570e-09	
111	5.550000e+00	8.207004e-09	
112	5.600000e+00	8.189036e-09	

Index   v-sweep         rds             
--------------------------------------------------------------------------------
113	5.650000e+00	8.171637e-09	
114	5.700000e+00	8.154781e-09	
115	5.750000e+00	8.138444e-09	
116	5.800000e+00	8.122603e-09	
117	5.850000e+00	8.107235e-09	
118	5.900000e+00	8.092319e-09	
119	5.950000e+00	8.077837e-09	
120	6.000000e+00	8.063770e-09	
121	6.050000e+00	8.050101e-09	
122	6.100000e+00	8.036813e-09	
123	6.150000e+00	8.023891e-09	
124	6.200000e+00	8.011319e-09	
125	6.250000e+00	7.999085e-09	
126	6.300000e+00	7.987175e-09	
127	6.350000e+00	7.975576e-09	
128	6.400000e+00	7.964276e-09	
129	6.450000e+00	7.953265e-09	
130	6.500000e+00	7.942531e-09	
131	6.550000e+00	7.932064e-09	
132	6.600000e+00	7.921854e-09	
Reset re-loads circuit ***************************

Circuit: ***************************

Doing analysis at TEMP = 125.000000 and TNOM = 125.000000


No. of Data Rows : 133
                          ***************************
                          DC transfer characteristic  Mon Jan  9 13:58:40  2023
--------------------------------------------------------------------------------
Index   v-sweep         rds             
--------------------------------------------------------------------------------
0	0.000000e+00	5.984140e-06	
1	5.000000e-02	5.872537e-06	
2	1.000000e-01	5.761252e-06	
3	1.500000e-01	5.650285e-06	
4	2.000000e-01	5.539634e-06	
5	2.500000e-01	5.429299e-06	
6	3.000000e-01	5.319277e-06	
7	3.500000e-01	5.209567e-06	
8	4.000000e-01	5.100169e-06	
9	4.500000e-01	4.991082e-06	
10	5.000000e-01	4.882303e-06	
11	5.500000e-01	4.773833e-06	
12	6.000000e-01	4.665669e-06	
13	6.500000e-01	4.557811e-06	
14	7.000000e-01	4.450257e-06	
15	7.500000e-01	4.343006e-06	
16	8.000000e-01	4.236058e-06	
17	8.500000e-01	4.129410e-06	
18	9.000000e-01	4.023062e-06	
19	9.500000e-01	3.917012e-06	
20	1.000000e+00	3.811260e-06	
21	1.050000e+00	3.705803e-06	
22	1.100000e+00	3.600641e-06	
23	1.150000e+00	3.495773e-06	
24	1.200000e+00	3.391197e-06	
25	1.250000e+00	3.286912e-06	
26	1.300000e+00	3.182916e-06	
27	1.350000e+00	3.079209e-06	
28	1.400000e+00	2.975788e-06	
29	1.450000e+00	2.872653e-06	
30	1.500000e+00	2.769802e-06	
31	1.550000e+00	2.667234e-06	
32	1.600000e+00	2.564946e-06	
33	1.650000e+00	2.462938e-06	
34	1.700000e+00	2.361208e-06	
35	1.750000e+00	2.259754e-06	
36	1.800000e+00	2.158574e-06	
37	1.850000e+00	2.057667e-06	
38	1.900000e+00	1.957032e-06	
39	1.950000e+00	1.856668e-06	
40	2.000000e+00	1.756574e-06	
41	2.050000e+00	1.656751e-06	
42	2.100000e+00	1.557202e-06	
43	2.150000e+00	1.457934e-06	
44	2.200000e+00	1.358958e-06	
45	2.250000e+00	1.260297e-06	
46	2.300000e+00	1.161988e-06	
47	2.350000e+00	1.064097e-06	
48	2.400000e+00	9.667354e-07	
49	2.450000e+00	8.700918e-07	
50	2.500000e+00	7.744810e-07	
51	2.550000e+00	6.804189e-07	
52	2.600000e+00	5.887219e-07	
53	2.650000e+00	5.006120e-07	
54	2.700000e+00	4.177597e-07	

Index   v-sweep         rds             
--------------------------------------------------------------------------------
55	2.750000e+00	3.421541e-07	
56	2.800000e+00	2.757117e-07	
57	2.850000e+00	2.197134e-07	
58	2.900000e+00	1.743809e-07	
59	2.950000e+00	1.388768e-07	
60	3.000000e+00	1.116871e-07	
61	3.050000e+00	9.109909e-08	
62	3.100000e+00	7.553945e-08	
63	3.150000e+00	6.372143e-08	
64	3.200000e+00	5.466065e-08	
65	3.250000e+00	4.763093e-08	
66	3.300000e+00	4.210578e-08	
67	3.350000e+00	3.770550e-08	
68	3.400000e+00	3.415558e-08	
69	3.450000e+00	3.125628e-08	
70	3.500000e+00	2.886086e-08	
71	3.550000e+00	2.686039e-08	
72	3.600000e+00	2.517306e-08	
73	3.650000e+00	2.373676e-08	
74	3.700000e+00	2.250378e-08	
75	3.750000e+00	2.143708e-08	
76	3.800000e+00	2.050761e-08	
77	3.850000e+00	1.969236e-08	
78	3.900000e+00	1.897291e-08	
79	3.950000e+00	1.833444e-08	
80	4.000000e+00	1.776487e-08	
81	4.050000e+00	1.725429e-08	
82	4.100000e+00	1.679456e-08	
83	4.150000e+00	1.637886e-08	
84	4.200000e+00	1.600152e-08	
85	4.250000e+00	1.565775e-08	
86	4.300000e+00	1.534349e-08	
87	4.350000e+00	1.505531e-08	
88	4.400000e+00	1.479025e-08	
89	4.450000e+00	1.454576e-08	
90	4.500000e+00	1.431966e-08	
91	4.550000e+00	1.411003e-08	
92	4.600000e+00	1.391523e-08	
93	4.650000e+00	1.373381e-08	
94	4.700000e+00	1.356449e-08	
95	4.750000e+00	1.340614e-08	
96	4.800000e+00	1.325779e-08	
97	4.850000e+00	1.311855e-08	
98	4.900000e+00	1.298763e-08	
99	4.950000e+00	1.286435e-08	
100	5.000000e+00	1.274807e-08	
101	5.050000e+00	1.263824e-08	
102	5.100000e+00	1.253436e-08	
103	5.150000e+00	1.243596e-08	
104	5.200000e+00	1.234265e-08	
105	5.250000e+00	1.225406e-08	
106	5.300000e+00	1.216983e-08	
107	5.350000e+00	1.208968e-08	
108	5.400000e+00	1.201331e-08	
109	5.450000e+00	1.194048e-08	
110	5.500000e+00	1.187096e-08	
111	5.550000e+00	1.180452e-08	
112	5.600000e+00	1.174098e-08	

Index   v-sweep         rds             
--------------------------------------------------------------------------------
113	5.650000e+00	1.168015e-08	
114	5.700000e+00	1.162187e-08	
115	5.750000e+00	1.156599e-08	
116	5.800000e+00	1.151237e-08	
117	5.850000e+00	1.146086e-08	
118	5.900000e+00	1.141137e-08	
119	5.950000e+00	1.136376e-08	
120	6.000000e+00	1.131795e-08	
121	6.050000e+00	1.127382e-08	
122	6.100000e+00	1.123130e-08	
123	6.150000e+00	1.119030e-08	
124	6.200000e+00	1.115074e-08	
125	6.250000e+00	1.111255e-08	
126	6.300000e+00	1.107565e-08	
127	6.350000e+00	1.103999e-08	
128	6.400000e+00	1.100551e-08	
129	6.450000e+00	1.097215e-08	
130	6.500000e+00	1.093986e-08	
131	6.550000e+00	1.090858e-08	
132	6.600000e+00	1.087828e-08	
Reset re-loads circuit ***************************

Circuit: ***************************

Doing analysis at TEMP = 125.000000 and TNOM = 125.000000


No. of Data Rows : 133
                          ***************************
                          DC transfer characteristic  Mon Jan  9 13:58:40  2023
--------------------------------------------------------------------------------
Index   v-sweep         rds             
--------------------------------------------------------------------------------
0	0.000000e+00	7.013760e-06	
1	5.000000e-02	6.912930e-06	
2	1.000000e-01	6.812366e-06	
3	1.500000e-01	6.712067e-06	
4	2.000000e-01	6.612031e-06	
5	2.500000e-01	6.512258e-06	
6	3.000000e-01	6.412746e-06	
7	3.500000e-01	6.313496e-06	
8	4.000000e-01	6.214506e-06	
9	4.500000e-01	6.115774e-06	
10	5.000000e-01	6.017301e-06	
11	5.500000e-01	5.919085e-06	
12	6.000000e-01	5.821126e-06	
13	6.500000e-01	5.723422e-06	
14	7.000000e-01	5.625973e-06	
15	7.500000e-01	5.528778e-06	
16	8.000000e-01	5.431835e-06	
17	8.500000e-01	5.335144e-06	
18	9.000000e-01	5.238705e-06	
19	9.500000e-01	5.142515e-06	
20	1.000000e+00	5.046575e-06	
21	1.050000e+00	4.950883e-06	
22	1.100000e+00	4.855439e-06	
23	1.150000e+00	4.760241e-06	
24	1.200000e+00	4.665289e-06	
25	1.250000e+00	4.570581e-06	
26	1.300000e+00	4.476118e-06	
27	1.350000e+00	4.381897e-06	
28	1.400000e+00	4.287919e-06	
29	1.450000e+00	4.194181e-06	
30	1.500000e+00	4.100684e-06	
31	1.550000e+00	4.007426e-06	
32	1.600000e+00	3.914405e-06	
33	1.650000e+00	3.821622e-06	
34	1.700000e+00	3.729076e-06	
35	1.750000e+00	3.636764e-06	
36	1.800000e+00	3.544686e-06	
37	1.850000e+00	3.452841e-06	
38	1.900000e+00	3.361228e-06	
39	1.950000e+00	3.269846e-06	
40	2.000000e+00	3.178693e-06	
41	2.050000e+00	3.087767e-06	
42	2.100000e+00	2.997069e-06	
43	2.150000e+00	2.906595e-06	
44	2.200000e+00	2.816345e-06	
45	2.250000e+00	2.726317e-06	
46	2.300000e+00	2.636509e-06	
47	2.350000e+00	2.546920e-06	
48	2.400000e+00	2.457546e-06	
49	2.450000e+00	2.368385e-06	
50	2.500000e+00	2.279435e-06	
51	2.550000e+00	2.190694e-06	
52	2.600000e+00	2.102157e-06	
53	2.650000e+00	2.013821e-06	
54	2.700000e+00	1.925683e-06	

Index   v-sweep         rds             
--------------------------------------------------------------------------------
55	2.750000e+00	1.837738e-06	
56	2.800000e+00	1.749982e-06	
57	2.850000e+00	1.662410e-06	
58	2.900000e+00	1.575017e-06	
59	2.950000e+00	1.487800e-06	
60	3.000000e+00	1.400757e-06	
61	3.050000e+00	1.313890e-06	
62	3.100000e+00	1.227205e-06	
63	3.150000e+00	1.140723e-06	
64	3.200000e+00	1.054483e-06	
65	3.250000e+00	9.685588e-07	
66	3.300000e+00	8.830798e-07	
67	3.350000e+00	7.982668e-07	
68	3.400000e+00	7.144799e-07	
69	3.450000e+00	6.322826e-07	
70	3.500000e+00	5.525059e-07	
71	3.550000e+00	4.762823e-07	
72	3.600000e+00	4.049945e-07	
73	3.650000e+00	3.400927e-07	
74	3.700000e+00	2.827935e-07	
75	3.750000e+00	2.337758e-07	
76	3.800000e+00	1.930301e-07	
77	3.850000e+00	1.599303e-07	
78	3.900000e+00	1.334625e-07	
79	3.950000e+00	1.124787e-07	
80	4.000000e+00	9.588234e-08	
81	4.050000e+00	8.272556e-08	
82	4.100000e+00	7.223679e-08	
83	4.150000e+00	6.381042e-08	
84	4.200000e+00	5.698071e-08	
85	4.250000e+00	5.139295e-08	
86	4.300000e+00	4.677783e-08	
87	4.350000e+00	4.293052e-08	
88	4.400000e+00	3.969455e-08	
89	4.450000e+00	3.694960e-08	
90	4.500000e+00	3.460252e-08	
91	4.550000e+00	3.258053e-08	
92	4.600000e+00	3.082640e-08	
93	4.650000e+00	2.929468e-08	
94	4.700000e+00	2.794901e-08	
95	4.750000e+00	2.676009e-08	
96	4.800000e+00	2.570410e-08	
97	4.850000e+00	2.476156e-08	
98	4.900000e+00	2.391641e-08	
99	4.950000e+00	2.315533e-08	
100	5.000000e+00	2.246720e-08	
101	5.050000e+00	2.184271e-08	
102	5.100000e+00	2.127396e-08	
103	5.150000e+00	2.075427e-08	
104	5.200000e+00	2.027794e-08	
105	5.250000e+00	1.984006e-08	
106	5.300000e+00	1.943644e-08	
107	5.350000e+00	1.906341e-08	
108	5.400000e+00	1.871783e-08	
109	5.450000e+00	1.839692e-08	
110	5.500000e+00	1.809827e-08	
111	5.550000e+00	1.781976e-08	
112	5.600000e+00	1.755953e-08	

Index   v-sweep         rds             
--------------------------------------------------------------------------------
113	5.650000e+00	1.731590e-08	
114	5.700000e+00	1.708743e-08	
115	5.750000e+00	1.687280e-08	
116	5.800000e+00	1.667084e-08	
117	5.850000e+00	1.648052e-08	
118	5.900000e+00	1.630091e-08	
119	5.950000e+00	1.613116e-08	
120	6.000000e+00	1.597051e-08	
121	6.050000e+00	1.581829e-08	
122	6.100000e+00	1.567387e-08	
123	6.150000e+00	1.553669e-08	
124	6.200000e+00	1.540624e-08	
125	6.250000e+00	1.528206e-08	
126	6.300000e+00	1.516372e-08	
127	6.350000e+00	1.505084e-08	
128	6.400000e+00	1.494306e-08	
129	6.450000e+00	1.484004e-08	
130	6.500000e+00	1.474151e-08	
131	6.550000e+00	1.464717e-08	
132	6.600000e+00	1.455677e-08	
Reset re-loads circuit ***************************

Circuit: ***************************

Doing analysis at TEMP = 125.000000 and TNOM = 125.000000


No. of Data Rows : 133
                          ***************************
                          DC transfer characteristic  Mon Jan  9 13:58:40  2023
--------------------------------------------------------------------------------
Index   v-sweep         rds             
--------------------------------------------------------------------------------
0	0.000000e+00	7.758008e-06	
1	5.000000e-02	7.668022e-06	
2	1.000000e-01	7.578253e-06	
3	1.500000e-01	7.488699e-06	
4	2.000000e-01	7.399360e-06	
5	2.500000e-01	7.310235e-06	
6	3.000000e-01	7.221324e-06	
7	3.500000e-01	7.132625e-06	
8	4.000000e-01	7.044139e-06	
9	4.500000e-01	6.955864e-06	
10	5.000000e-01	6.867801e-06	
11	5.500000e-01	6.779947e-06	
12	6.000000e-01	6.692303e-06	
13	6.500000e-01	6.604868e-06	
14	7.000000e-01	6.517641e-06	
15	7.500000e-01	6.430622e-06	
16	8.000000e-01	6.343809e-06	
17	8.500000e-01	6.257203e-06	
18	9.000000e-01	6.170803e-06	
19	9.500000e-01	6.084607e-06	
20	1.000000e+00	5.998616e-06	
21	1.050000e+00	5.912829e-06	
22	1.100000e+00	5.827244e-06	
23	1.150000e+00	5.741862e-06	
24	1.200000e+00	5.656682e-06	
25	1.250000e+00	5.571702e-06	
26	1.300000e+00	5.486923e-06	
27	1.350000e+00	5.402344e-06	
28	1.400000e+00	5.317964e-06	
29	1.450000e+00	5.233783e-06	
30	1.500000e+00	5.149799e-06	
31	1.550000e+00	5.066013e-06	
32	1.600000e+00	4.982423e-06	
33	1.650000e+00	4.899029e-06	
34	1.700000e+00	4.815830e-06	
35	1.750000e+00	4.732826e-06	
36	1.800000e+00	4.650015e-06	
37	1.850000e+00	4.567398e-06	
38	1.900000e+00	4.484973e-06	
39	1.950000e+00	4.402740e-06	
40	2.000000e+00	4.320698e-06	
41	2.050000e+00	4.238847e-06	
42	2.100000e+00	4.157185e-06	
43	2.150000e+00	4.075713e-06	
44	2.200000e+00	3.994428e-06	
45	2.250000e+00	3.913331e-06	
46	2.300000e+00	3.832421e-06	
47	2.350000e+00	3.751697e-06	
48	2.400000e+00	3.671158e-06	
49	2.450000e+00	3.590803e-06	
50	2.500000e+00	3.510631e-06	
51	2.550000e+00	3.430642e-06	
52	2.600000e+00	3.350835e-06	
53	2.650000e+00	3.271208e-06	
54	2.700000e+00	3.191760e-06	

Index   v-sweep         rds             
--------------------------------------------------------------------------------
55	2.750000e+00	3.112491e-06	
56	2.800000e+00	3.033399e-06	
57	2.850000e+00	2.954482e-06	
58	2.900000e+00	2.875740e-06	
59	2.950000e+00	2.797172e-06	
60	3.000000e+00	2.718774e-06	
61	3.050000e+00	2.640546e-06	
62	3.100000e+00	2.562486e-06	
63	3.150000e+00	2.484591e-06	
64	3.200000e+00	2.406859e-06	
65	3.250000e+00	2.329287e-06	
66	3.300000e+00	2.251873e-06	
67	3.350000e+00	2.174613e-06	
68	3.400000e+00	2.097503e-06	
69	3.450000e+00	2.020538e-06	
70	3.500000e+00	1.943714e-06	
71	3.550000e+00	1.867025e-06	
72	3.600000e+00	1.790465e-06	
73	3.650000e+00	1.714025e-06	
74	3.700000e+00	1.637699e-06	
75	3.750000e+00	1.561478e-06	
76	3.800000e+00	1.485350e-06	
77	3.850000e+00	1.409306e-06	
78	3.900000e+00	1.333337e-06	
79	3.950000e+00	1.257434e-06	
80	4.000000e+00	1.181592e-06	
81	4.050000e+00	1.105816e-06	
82	4.100000e+00	1.030123e-06	
83	4.150000e+00	9.545579e-07	
84	4.200000e+00	8.792063e-07	
85	4.250000e+00	8.042219e-07	
86	4.300000e+00	7.298604e-07	
87	4.350000e+00	6.565227e-07	
88	4.400000e+00	5.847989e-07	
89	4.450000e+00	5.154937e-07	
90	4.500000e+00	4.496068e-07	
91	4.550000e+00	3.882383e-07	
92	4.600000e+00	3.324191e-07	
93	4.650000e+00	2.829119e-07	
94	4.700000e+00	2.400607e-07	
95	4.750000e+00	2.037539e-07	
96	4.800000e+00	1.735036e-07	
97	4.850000e+00	1.485890e-07	
98	4.900000e+00	1.282029e-07	
99	4.950000e+00	1.115594e-07	
100	5.000000e+00	9.795569e-08	
101	5.050000e+00	8.679626e-08	
102	5.100000e+00	7.759321e-08	
103	5.150000e+00	6.995518e-08	
104	5.200000e+00	6.357191e-08	
105	5.250000e+00	5.819881e-08	
106	5.300000e+00	5.364337e-08	
107	5.350000e+00	4.975382e-08	
108	5.400000e+00	4.641012e-08	
109	5.450000e+00	4.351685e-08	
110	5.500000e+00	4.099777e-08	
111	5.550000e+00	3.879159e-08	
112	5.600000e+00	3.684873e-08	

Index   v-sweep         rds             
--------------------------------------------------------------------------------
113	5.650000e+00	3.512883e-08	
114	5.700000e+00	3.359885e-08	
115	5.750000e+00	3.223154e-08	
116	5.800000e+00	3.100432e-08	
117	5.850000e+00	2.989835e-08	
118	5.900000e+00	2.889786e-08	
119	5.950000e+00	2.798952e-08	
120	6.000000e+00	2.716207e-08	
121	6.050000e+00	2.640589e-08	
122	6.100000e+00	2.571277e-08	
123	6.150000e+00	2.507566e-08	
124	6.200000e+00	2.448845e-08	
125	6.250000e+00	2.394587e-08	
126	6.300000e+00	2.344333e-08	
127	6.350000e+00	2.297680e-08	
128	6.400000e+00	2.254278e-08	
129	6.450000e+00	2.213818e-08	
130	6.500000e+00	2.176026e-08	
131	6.550000e+00	2.140662e-08	
132	6.600000e+00	2.107511e-08	
Reset re-loads circuit ***************************

Circuit: ***************************

Note: No ".plot", ".print", or ".fourier" lines; no simulations run
