
Note: Compatibility modes selected: hs

Warning: m=xx on .subckt line will override multiplier m hierarchy!


Circuit: ***************************

Doing analysis at TEMP = -40.000000 and TNOM = -40.000000


No. of Data Rows : 133
                          ***************************
                          DC transfer characteristic  Mon Jan  9 13:58:39  2023
--------------------------------------------------------------------------------
Index   v-sweep         rds             
--------------------------------------------------------------------------------
0	0.000000e+00	3.402732e-05	
1	5.000000e-02	2.279078e-05	
2	1.000000e-01	1.251527e-05	
3	1.500000e-01	5.149223e-06	
4	2.000000e-01	2.170132e-06	
5	2.500000e-01	1.271770e-06	
6	3.000000e-01	9.214128e-07	
7	3.500000e-01	7.392201e-07	
8	4.000000e-01	6.262862e-07	
9	4.500000e-01	5.486303e-07	
10	5.000000e-01	4.915972e-07	
11	5.500000e-01	4.477758e-07	
12	6.000000e-01	4.129792e-07	
13	6.500000e-01	3.846450e-07	
14	7.000000e-01	3.611090e-07	
15	7.500000e-01	3.412392e-07	
16	8.000000e-01	3.242369e-07	
17	8.500000e-01	3.095214e-07	
18	9.000000e-01	2.966600e-07	
19	9.500000e-01	2.853230e-07	
20	1.000000e+00	2.752550e-07	
21	1.050000e+00	2.662548e-07	
22	1.100000e+00	2.581616e-07	
23	1.150000e+00	2.508456e-07	
24	1.200000e+00	2.442005e-07	
25	1.250000e+00	2.381387e-07	
26	1.300000e+00	2.325871e-07	
27	1.350000e+00	2.274845e-07	
28	1.400000e+00	2.227789e-07	
29	1.450000e+00	2.184261e-07	
30	1.500000e+00	2.143883e-07	
31	1.550000e+00	2.106328e-07	
32	1.600000e+00	2.071314e-07	
33	1.650000e+00	2.038595e-07	
34	1.700000e+00	2.007954e-07	
35	1.750000e+00	1.979202e-07	
36	1.800000e+00	1.952172e-07	
37	1.850000e+00	1.926716e-07	
38	1.900000e+00	1.902702e-07	
39	1.950000e+00	1.880014e-07	
40	2.000000e+00	1.858545e-07	
41	2.050000e+00	1.838203e-07	
42	2.100000e+00	1.818901e-07	
43	2.150000e+00	1.800564e-07	
44	2.200000e+00	1.783122e-07	
45	2.250000e+00	1.766512e-07	
46	2.300000e+00	1.750678e-07	
47	2.350000e+00	1.735567e-07	
48	2.400000e+00	1.721133e-07	
49	2.450000e+00	1.707330e-07	
50	2.500000e+00	1.694121e-07	
51	2.550000e+00	1.681468e-07	
52	2.600000e+00	1.669337e-07	
53	2.650000e+00	1.657697e-07	
54	2.700000e+00	1.646521e-07	

Index   v-sweep         rds             
--------------------------------------------------------------------------------
55	2.750000e+00	1.635781e-07	
56	2.800000e+00	1.625454e-07	
57	2.850000e+00	1.615516e-07	
58	2.900000e+00	1.605946e-07	
59	2.950000e+00	1.596725e-07	
60	3.000000e+00	1.587834e-07	
61	3.050000e+00	1.579258e-07	
62	3.100000e+00	1.570979e-07	
63	3.150000e+00	1.562982e-07	
64	3.200000e+00	1.555255e-07	
65	3.250000e+00	1.547785e-07	
66	3.300000e+00	1.540558e-07	
67	3.350000e+00	1.533564e-07	
68	3.400000e+00	1.526791e-07	
69	3.450000e+00	1.520231e-07	
70	3.500000e+00	1.513873e-07	
71	3.550000e+00	1.507708e-07	
72	3.600000e+00	1.501729e-07	
73	3.650000e+00	1.495926e-07	
74	3.700000e+00	1.490294e-07	
75	3.750000e+00	1.484823e-07	
76	3.800000e+00	1.479509e-07	
77	3.850000e+00	1.474345e-07	
78	3.900000e+00	1.469323e-07	
79	3.950000e+00	1.464440e-07	
80	4.000000e+00	1.459689e-07	
81	4.050000e+00	1.455066e-07	
82	4.100000e+00	1.450565e-07	
83	4.150000e+00	1.446182e-07	
84	4.200000e+00	1.441913e-07	
85	4.250000e+00	1.437753e-07	
86	4.300000e+00	1.433699e-07	
87	4.350000e+00	1.429746e-07	
88	4.400000e+00	1.425891e-07	
89	4.450000e+00	1.422130e-07	
90	4.500000e+00	1.418461e-07	
91	4.550000e+00	1.414880e-07	
92	4.600000e+00	1.411384e-07	
93	4.650000e+00	1.407970e-07	
94	4.700000e+00	1.404636e-07	
95	4.750000e+00	1.401379e-07	
96	4.800000e+00	1.398196e-07	
97	4.850000e+00	1.395085e-07	
98	4.900000e+00	1.392044e-07	
99	4.950000e+00	1.389071e-07	
100	5.000000e+00	1.386163e-07	
101	5.050000e+00	1.383318e-07	
102	5.100000e+00	1.380535e-07	
103	5.150000e+00	1.377811e-07	
104	5.200000e+00	1.375145e-07	
105	5.250000e+00	1.372535e-07	
106	5.300000e+00	1.369979e-07	
107	5.350000e+00	1.367477e-07	
108	5.400000e+00	1.365025e-07	
109	5.450000e+00	1.362623e-07	
110	5.500000e+00	1.360270e-07	
111	5.550000e+00	1.357964e-07	
112	5.600000e+00	1.355703e-07	

Index   v-sweep         rds             
--------------------------------------------------------------------------------
113	5.650000e+00	1.353487e-07	
114	5.700000e+00	1.351314e-07	
115	5.750000e+00	1.349183e-07	
116	5.800000e+00	1.347094e-07	
117	5.850000e+00	1.345043e-07	
118	5.900000e+00	1.343032e-07	
119	5.950000e+00	1.341058e-07	
120	6.000000e+00	1.339121e-07	
121	6.050000e+00	1.337220e-07	
122	6.100000e+00	1.335354e-07	
123	6.150000e+00	1.333522e-07	
124	6.200000e+00	1.331723e-07	
125	6.250000e+00	1.329956e-07	
126	6.300000e+00	1.328220e-07	
127	6.350000e+00	1.326516e-07	
128	6.400000e+00	1.324841e-07	
129	6.450000e+00	1.323196e-07	
130	6.500000e+00	1.321579e-07	
131	6.550000e+00	1.319990e-07	
132	6.600000e+00	1.318428e-07	
Reset re-loads circuit ***************************

Circuit: ***************************

Doing analysis at TEMP = -40.000000 and TNOM = -40.000000


No. of Data Rows : 133
                          ***************************
                          DC transfer characteristic  Mon Jan  9 13:58:39  2023
--------------------------------------------------------------------------------
Index   v-sweep         rds             
--------------------------------------------------------------------------------
0	0.000000e+00	1.778688e-04	
1	5.000000e-02	1.643747e-04	
2	1.000000e-01	1.512561e-04	
3	1.500000e-01	1.385005e-04	
4	2.000000e-01	1.260957e-04	
5	2.500000e-01	1.140301e-04	
6	3.000000e-01	1.022924e-04	
7	3.500000e-01	9.087163e-05	
8	4.000000e-01	7.975770e-05	
9	4.500000e-01	6.894189e-05	
10	5.000000e-01	5.842180e-05	
11	5.500000e-01	4.822165e-05	
12	6.000000e-01	3.846253e-05	
13	6.500000e-01	2.951247e-05	
14	7.000000e-01	2.201414e-05	
15	7.500000e-01	1.641456e-05	
16	8.000000e-01	1.255219e-05	
17	8.500000e-01	9.940645e-06	
18	9.000000e-01	8.140875e-06	
19	9.500000e-01	6.858225e-06	
20	1.000000e+00	5.911474e-06	
21	1.050000e+00	5.190038e-06	
22	1.100000e+00	4.624951e-06	
23	1.150000e+00	4.171851e-06	
24	1.200000e+00	3.801258e-06	
25	1.250000e+00	3.492980e-06	
26	1.300000e+00	3.232797e-06	
27	1.350000e+00	3.010440e-06	
28	1.400000e+00	2.818330e-06	
29	1.450000e+00	2.650763e-06	
30	1.500000e+00	2.503369e-06	
31	1.550000e+00	2.372746e-06	
32	1.600000e+00	2.256213e-06	
33	1.650000e+00	2.151624e-06	
34	1.700000e+00	2.057246e-06	
35	1.750000e+00	1.971664e-06	
36	1.800000e+00	1.893712e-06	
37	1.850000e+00	1.822418e-06	
38	1.900000e+00	1.756970e-06	
39	1.950000e+00	1.696681e-06	
40	2.000000e+00	1.640967e-06	
41	2.050000e+00	1.589329e-06	
42	2.100000e+00	1.541338e-06	
43	2.150000e+00	1.496623e-06	
44	2.200000e+00	1.454860e-06	
45	2.250000e+00	1.415768e-06	
46	2.300000e+00	1.379099e-06	
47	2.350000e+00	1.344637e-06	
48	2.400000e+00	1.312188e-06	
49	2.450000e+00	1.281582e-06	
50	2.500000e+00	1.252667e-06	
51	2.550000e+00	1.225307e-06	
52	2.600000e+00	1.199380e-06	
53	2.650000e+00	1.174777e-06	
54	2.700000e+00	1.151400e-06	

Index   v-sweep         rds             
--------------------------------------------------------------------------------
55	2.750000e+00	1.129159e-06	
56	2.800000e+00	1.107974e-06	
57	2.850000e+00	1.087772e-06	
58	2.900000e+00	1.068486e-06	
59	2.950000e+00	1.050055e-06	
60	3.000000e+00	1.032424e-06	
61	3.050000e+00	1.015543e-06	
62	3.100000e+00	9.993638e-07	
63	3.150000e+00	9.838447e-07	
64	3.200000e+00	9.689460e-07	
65	3.250000e+00	9.546313e-07	
66	3.300000e+00	9.408672e-07	
67	3.350000e+00	9.276225e-07	
68	3.400000e+00	9.148685e-07	
69	3.450000e+00	9.025786e-07	
70	3.500000e+00	8.907279e-07	
71	3.550000e+00	8.792935e-07	
72	3.600000e+00	8.682539e-07	
73	3.650000e+00	8.575890e-07	
74	3.700000e+00	8.472801e-07	
75	3.750000e+00	8.373099e-07	
76	3.800000e+00	8.276619e-07	
77	3.850000e+00	8.183209e-07	
78	3.900000e+00	8.092724e-07	
79	3.950000e+00	8.005031e-07	
80	4.000000e+00	7.920003e-07	
81	4.050000e+00	7.837520e-07	
82	4.100000e+00	7.757470e-07	
83	4.150000e+00	7.679748e-07	
84	4.200000e+00	7.604255e-07	
85	4.250000e+00	7.530896e-07	
86	4.300000e+00	7.459583e-07	
87	4.350000e+00	7.390231e-07	
88	4.400000e+00	7.322761e-07	
89	4.450000e+00	7.257099e-07	
90	4.500000e+00	7.193172e-07	
91	4.550000e+00	7.130914e-07	
92	4.600000e+00	7.070260e-07	
93	4.650000e+00	7.011149e-07	
94	4.700000e+00	6.953525e-07	
95	4.750000e+00	6.897331e-07	
96	4.800000e+00	6.842515e-07	
97	4.850000e+00	6.789028e-07	
98	4.900000e+00	6.736823e-07	
99	4.950000e+00	6.685853e-07	
100	5.000000e+00	6.636077e-07	
101	5.050000e+00	6.587453e-07	
102	5.100000e+00	6.539942e-07	
103	5.150000e+00	6.493506e-07	
104	5.200000e+00	6.448110e-07	
105	5.250000e+00	6.403720e-07	
106	5.300000e+00	6.360302e-07	
107	5.350000e+00	6.317825e-07	
108	5.400000e+00	6.276260e-07	
109	5.450000e+00	6.235578e-07	
110	5.500000e+00	6.195751e-07	
111	5.550000e+00	6.156752e-07	
112	5.600000e+00	6.118557e-07	

Index   v-sweep         rds             
--------------------------------------------------------------------------------
113	5.650000e+00	6.081141e-07	
114	5.700000e+00	6.044481e-07	
115	5.750000e+00	6.008555e-07	
116	5.800000e+00	5.973340e-07	
117	5.850000e+00	5.938816e-07	
118	5.900000e+00	5.904964e-07	
119	5.950000e+00	5.871764e-07	
120	6.000000e+00	5.839197e-07	
121	6.050000e+00	5.807247e-07	
122	6.100000e+00	5.775896e-07	
123	6.150000e+00	5.745127e-07	
124	6.200000e+00	5.714924e-07	
125	6.250000e+00	5.685273e-07	
126	6.300000e+00	5.656159e-07	
127	6.350000e+00	5.627567e-07	
128	6.400000e+00	5.599483e-07	
129	6.450000e+00	5.571896e-07	
130	6.500000e+00	5.544790e-07	
131	6.550000e+00	5.518155e-07	
132	6.600000e+00	5.491979e-07	
Reset re-loads circuit ***************************

Circuit: ***************************

Doing analysis at TEMP = -40.000000 and TNOM = -40.000000


No. of Data Rows : 133
                          ***************************
                          DC transfer characteristic  Mon Jan  9 13:58:39  2023
--------------------------------------------------------------------------------
Index   v-sweep         rds             
--------------------------------------------------------------------------------
0	0.000000e+00	2.899678e-04	
1	5.000000e-02	2.756316e-04	
2	1.000000e-01	2.616861e-04	
3	1.500000e-01	2.481183e-04	
4	2.000000e-01	2.349154e-04	
5	2.500000e-01	2.220649e-04	
6	3.000000e-01	2.095545e-04	
7	3.500000e-01	1.973722e-04	
8	4.000000e-01	1.855058e-04	
9	4.500000e-01	1.739437e-04	
10	5.000000e-01	1.626741e-04	
11	5.500000e-01	1.516847e-04	
12	6.000000e-01	1.409626e-04	
13	6.500000e-01	1.304930e-04	
14	7.000000e-01	1.202574e-04	
15	7.500000e-01	1.102315e-04	
16	8.000000e-01	1.003801e-04	
17	8.500000e-01	9.065132e-05	
18	9.000000e-01	8.096986e-05	
19	9.500000e-01	7.124035e-05	
20	1.000000e+00	6.139252e-05	
21	1.050000e+00	5.151544e-05	
22	1.100000e+00	4.203018e-05	
23	1.150000e+00	3.361308e-05	
24	1.200000e+00	2.676400e-05	
25	1.250000e+00	2.152656e-05	
26	1.300000e+00	1.763054e-05	
27	1.350000e+00	1.473646e-05	
28	1.400000e+00	1.255873e-05	
29	1.450000e+00	1.088890e-05	
30	1.500000e+00	9.582402e-06	
31	1.550000e+00	8.540148e-06	
32	1.600000e+00	7.693759e-06	
33	1.650000e+00	6.995362e-06	
34	1.700000e+00	6.410845e-06	
35	1.750000e+00	5.915449e-06	
36	1.800000e+00	5.490882e-06	
37	1.850000e+00	5.123397e-06	
38	1.900000e+00	4.802502e-06	
39	1.950000e+00	4.520071e-06	
40	2.000000e+00	4.269724e-06	
41	2.050000e+00	4.046394e-06	
42	2.100000e+00	3.846010e-06	
43	2.150000e+00	3.665267e-06	
44	2.200000e+00	3.501455e-06	
45	2.250000e+00	3.352336e-06	
46	2.300000e+00	3.216045e-06	
47	2.350000e+00	3.091015e-06	
48	2.400000e+00	2.975922e-06	
49	2.450000e+00	2.869640e-06	
50	2.500000e+00	2.771205e-06	
51	2.550000e+00	2.679788e-06	
52	2.600000e+00	2.594670e-06	
53	2.650000e+00	2.515229e-06	
54	2.700000e+00	2.440919e-06	

Index   v-sweep         rds             
--------------------------------------------------------------------------------
55	2.750000e+00	2.371263e-06	
56	2.800000e+00	2.305841e-06	
57	2.850000e+00	2.244280e-06	
58	2.900000e+00	2.186252e-06	
59	2.950000e+00	2.131462e-06	
60	3.000000e+00	2.079649e-06	
61	3.050000e+00	2.030577e-06	
62	3.100000e+00	1.984037e-06	
63	3.150000e+00	1.939839e-06	
64	3.200000e+00	1.897811e-06	
65	3.250000e+00	1.857798e-06	
66	3.300000e+00	1.819659e-06	
67	3.350000e+00	1.783267e-06	
68	3.400000e+00	1.748504e-06	
69	3.450000e+00	1.715264e-06	
70	3.500000e+00	1.683451e-06	
71	3.550000e+00	1.652973e-06	
72	3.600000e+00	1.623750e-06	
73	3.650000e+00	1.595705e-06	
74	3.700000e+00	1.568770e-06	
75	3.750000e+00	1.542880e-06	
76	3.800000e+00	1.517975e-06	
77	3.850000e+00	1.494001e-06	
78	3.900000e+00	1.470906e-06	
79	3.950000e+00	1.448644e-06	
80	4.000000e+00	1.427170e-06	
81	4.050000e+00	1.406443e-06	
82	4.100000e+00	1.386426e-06	
83	4.150000e+00	1.367082e-06	
84	4.200000e+00	1.348378e-06	
85	4.250000e+00	1.330283e-06	
86	4.300000e+00	1.312769e-06	
87	4.350000e+00	1.295807e-06	
88	4.400000e+00	1.279372e-06	
89	4.450000e+00	1.263440e-06	
90	4.500000e+00	1.247988e-06	
91	4.550000e+00	1.232995e-06	
92	4.600000e+00	1.218442e-06	
93	4.650000e+00	1.204308e-06	
94	4.700000e+00	1.190577e-06	
95	4.750000e+00	1.177231e-06	
96	4.800000e+00	1.164255e-06	
97	4.850000e+00	1.151634e-06	
98	4.900000e+00	1.139352e-06	
99	4.950000e+00	1.127398e-06	
100	5.000000e+00	1.115757e-06	
101	5.050000e+00	1.104418e-06	
102	5.100000e+00	1.093370e-06	
103	5.150000e+00	1.082601e-06	
104	5.200000e+00	1.072101e-06	
105	5.250000e+00	1.061861e-06	
106	5.300000e+00	1.051870e-06	
107	5.350000e+00	1.042121e-06	
108	5.400000e+00	1.032603e-06	
109	5.450000e+00	1.023310e-06	
110	5.500000e+00	1.014233e-06	
111	5.550000e+00	1.005366e-06	
112	5.600000e+00	9.967004e-07	

Index   v-sweep         rds             
--------------------------------------------------------------------------------
113	5.650000e+00	9.882303e-07	
114	5.700000e+00	9.799490e-07	
115	5.750000e+00	9.718505e-07	
116	5.800000e+00	9.639288e-07	
117	5.850000e+00	9.561782e-07	
118	5.900000e+00	9.485934e-07	
119	5.950000e+00	9.411693e-07	
120	6.000000e+00	9.339007e-07	
121	6.050000e+00	9.267830e-07	
122	6.100000e+00	9.198116e-07	
123	6.150000e+00	9.129822e-07	
124	6.200000e+00	9.062904e-07	
125	6.250000e+00	8.997323e-07	
126	6.300000e+00	8.933040e-07	
127	6.350000e+00	8.870017e-07	
128	6.400000e+00	8.808218e-07	
129	6.450000e+00	8.747609e-07	
130	6.500000e+00	8.688157e-07	
131	6.550000e+00	8.629829e-07	
132	6.600000e+00	8.572595e-07	
Reset re-loads circuit ***************************

Circuit: ***************************

Doing analysis at TEMP = -40.000000 and TNOM = -40.000000


No. of Data Rows : 133
                          ***************************
                          DC transfer characteristic  Mon Jan  9 13:58:39  2023
--------------------------------------------------------------------------------
Index   v-sweep         rds             
--------------------------------------------------------------------------------
0	0.000000e+00	3.757851e-04	
1	5.000000e-02	3.613642e-04	
2	1.000000e-01	3.473078e-04	
3	1.500000e-01	3.336049e-04	
4	2.000000e-01	3.202447e-04	
5	2.500000e-01	3.072164e-04	
6	3.000000e-01	2.945096e-04	
7	3.500000e-01	2.821138e-04	
8	4.000000e-01	2.700189e-04	
9	4.500000e-01	2.582147e-04	
10	5.000000e-01	2.466916e-04	
11	5.500000e-01	2.354400e-04	
12	6.000000e-01	2.244506e-04	
13	6.500000e-01	2.137143e-04	
14	7.000000e-01	2.032223e-04	
15	7.500000e-01	1.929656e-04	
16	8.000000e-01	1.829350e-04	
17	8.500000e-01	1.731206e-04	
18	9.000000e-01	1.635113e-04	
19	9.500000e-01	1.540937e-04	
20	1.000000e+00	1.448509e-04	
21	1.050000e+00	1.357601e-04	
22	1.100000e+00	1.267893e-04	
23	1.150000e+00	1.178921e-04	
24	1.200000e+00	1.090004e-04	
25	1.250000e+00	1.000174e-04	
26	1.300000e+00	9.081575e-05	
27	1.350000e+00	8.126299e-05	
28	1.400000e+00	7.130632e-05	
29	1.450000e+00	6.112357e-05	
30	1.500000e+00	5.121749e-05	
31	1.550000e+00	4.225035e-05	
32	1.600000e+00	3.469259e-05	
33	1.650000e+00	2.864431e-05	
34	1.700000e+00	2.393341e-05	
35	1.750000e+00	2.029089e-05	
36	1.800000e+00	1.746015e-05	
37	1.850000e+00	1.523484e-05	
38	1.900000e+00	1.346050e-05	
39	1.950000e+00	1.202470e-05	
40	2.000000e+00	1.084612e-05	
41	2.050000e+00	9.865691e-06	
42	2.100000e+00	9.040076e-06	
43	2.150000e+00	8.337076e-06	
44	2.200000e+00	7.732453e-06	
45	2.250000e+00	7.207719e-06	
46	2.300000e+00	6.748584e-06	
47	2.350000e+00	6.343871e-06	
48	2.400000e+00	5.984734e-06	
49	2.450000e+00	5.664096e-06	
50	2.500000e+00	5.376239e-06	
51	2.550000e+00	5.116500e-06	
52	2.600000e+00	4.881040e-06	
53	2.650000e+00	4.666678e-06	
54	2.700000e+00	4.470755e-06	

Index   v-sweep         rds             
--------------------------------------------------------------------------------
55	2.750000e+00	4.291032e-06	
56	2.800000e+00	4.125615e-06	
57	2.850000e+00	3.972888e-06	
58	2.900000e+00	3.831467e-06	
59	2.950000e+00	3.700160e-06	
60	3.000000e+00	3.577934e-06	
61	3.050000e+00	3.463891e-06	
62	3.100000e+00	3.357246e-06	
63	3.150000e+00	3.257310e-06	
64	3.200000e+00	3.163477e-06	
65	3.250000e+00	3.075210e-06	
66	3.300000e+00	2.992034e-06	
67	3.350000e+00	2.913524e-06	
68	3.400000e+00	2.839303e-06	
69	3.450000e+00	2.769032e-06	
70	3.500000e+00	2.702406e-06	
71	3.550000e+00	2.639151e-06	
72	3.600000e+00	2.579021e-06	
73	3.650000e+00	2.521790e-06	
74	3.700000e+00	2.467256e-06	
75	3.750000e+00	2.415234e-06	
76	3.800000e+00	2.365555e-06	
77	3.850000e+00	2.318066e-06	
78	3.900000e+00	2.272626e-06	
79	3.950000e+00	2.229106e-06	
80	4.000000e+00	2.187389e-06	
81	4.050000e+00	2.147364e-06	
82	4.100000e+00	2.108931e-06	
83	4.150000e+00	2.071998e-06	
84	4.200000e+00	2.036480e-06	
85	4.250000e+00	2.002297e-06	
86	4.300000e+00	1.969375e-06	
87	4.350000e+00	1.937647e-06	
88	4.400000e+00	1.907049e-06	
89	4.450000e+00	1.877522e-06	
90	4.500000e+00	1.849012e-06	
91	4.550000e+00	1.821466e-06	
92	4.600000e+00	1.794837e-06	
93	4.650000e+00	1.769081e-06	
94	4.700000e+00	1.744155e-06	
95	4.750000e+00	1.720020e-06	
96	4.800000e+00	1.696640e-06	
97	4.850000e+00	1.673979e-06	
98	4.900000e+00	1.652005e-06	
99	4.950000e+00	1.630688e-06	
100	5.000000e+00	1.609999e-06	
101	5.050000e+00	1.589911e-06	
102	5.100000e+00	1.570398e-06	
103	5.150000e+00	1.551436e-06	
104	5.200000e+00	1.533002e-06	
105	5.250000e+00	1.515074e-06	
106	5.300000e+00	1.497633e-06	
107	5.350000e+00	1.480659e-06	
108	5.400000e+00	1.464134e-06	
109	5.450000e+00	1.448039e-06	
110	5.500000e+00	1.432360e-06	
111	5.550000e+00	1.417080e-06	
112	5.600000e+00	1.402184e-06	

Index   v-sweep         rds             
--------------------------------------------------------------------------------
113	5.650000e+00	1.387658e-06	
114	5.700000e+00	1.373489e-06	
115	5.750000e+00	1.359664e-06	
116	5.800000e+00	1.346170e-06	
117	5.850000e+00	1.332997e-06	
118	5.900000e+00	1.320133e-06	
119	5.950000e+00	1.307568e-06	
120	6.000000e+00	1.295291e-06	
121	6.050000e+00	1.283293e-06	
122	6.100000e+00	1.271564e-06	
123	6.150000e+00	1.260096e-06	
124	6.200000e+00	1.248881e-06	
125	6.250000e+00	1.237910e-06	
126	6.300000e+00	1.227176e-06	
127	6.350000e+00	1.216670e-06	
128	6.400000e+00	1.206387e-06	
129	6.450000e+00	1.196320e-06	
130	6.500000e+00	1.186461e-06	
131	6.550000e+00	1.176805e-06	
132	6.600000e+00	1.167345e-06	
Reset re-loads circuit ***************************

Circuit: ***************************

Doing analysis at TEMP = -40.000000 and TNOM = -40.000000


No. of Data Rows : 133
                          ***************************
                          DC transfer characteristic  Mon Jan  9 13:58:39  2023
--------------------------------------------------------------------------------
Index   v-sweep         rds             
--------------------------------------------------------------------------------
0	0.000000e+00	4.371758e-04	
1	5.000000e-02	4.233136e-04	
2	1.000000e-01	4.097693e-04	
3	1.500000e-01	3.965342e-04	
4	2.000000e-01	3.835998e-04	
5	2.500000e-01	3.709577e-04	
6	3.000000e-01	3.585997e-04	
7	3.500000e-01	3.465175e-04	
8	4.000000e-01	3.347032e-04	
9	4.500000e-01	3.231487e-04	
10	5.000000e-01	3.118462e-04	
11	5.500000e-01	3.007881e-04	
12	6.000000e-01	2.899668e-04	
13	6.500000e-01	2.793750e-04	
14	7.000000e-01	2.690057e-04	
15	7.500000e-01	2.588521e-04	
16	8.000000e-01	2.489077e-04	
17	8.500000e-01	2.391660e-04	
18	9.000000e-01	2.296210e-04	
19	9.500000e-01	2.202664e-04	
20	1.000000e+00	2.110962e-04	
21	1.050000e+00	2.021039e-04	
22	1.100000e+00	1.932829e-04	
23	1.150000e+00	1.846255e-04	
24	1.200000e+00	1.761230e-04	
25	1.250000e+00	1.677644e-04	
26	1.300000e+00	1.595360e-04	
27	1.350000e+00	1.514192e-04	
28	1.400000e+00	1.433888e-04	
29	1.450000e+00	1.354090e-04	
30	1.500000e+00	1.274289e-04	
31	1.550000e+00	1.193761e-04	
32	1.600000e+00	1.111507e-04	
33	1.650000e+00	1.026246e-04	
34	1.700000e+00	9.365985e-05	
35	1.750000e+00	8.416731e-05	
36	1.800000e+00	7.421660e-05	
37	1.850000e+00	6.413902e-05	
38	1.900000e+00	5.449072e-05	
39	1.950000e+00	4.582818e-05	
40	2.000000e+00	3.847478e-05	
41	2.050000e+00	3.246840e-05	
42	2.100000e+00	2.766039e-05	
43	2.150000e+00	2.383484e-05	
44	2.200000e+00	2.078152e-05	
45	2.250000e+00	1.832434e-05	
46	2.300000e+00	1.632560e-05	
47	2.350000e+00	1.468082e-05	
48	2.400000e+00	1.331158e-05	
49	2.450000e+00	1.215905e-05	
50	2.500000e+00	1.117887e-05	
51	2.550000e+00	1.033725e-05	
52	2.600000e+00	9.608257e-06	
53	2.650000e+00	8.971747e-06	
54	2.700000e+00	8.411909e-06	

Index   v-sweep         rds             
--------------------------------------------------------------------------------
55	2.750000e+00	7.916210e-06	
56	2.800000e+00	7.474616e-06	
57	2.850000e+00	7.079018e-06	
58	2.900000e+00	6.722803e-06	
59	2.950000e+00	6.400538e-06	
60	3.000000e+00	6.107717e-06	
61	3.050000e+00	5.840581e-06	
62	3.100000e+00	5.595973e-06	
63	3.150000e+00	5.371219e-06	
64	3.200000e+00	5.164048e-06	
65	3.250000e+00	4.972515e-06	
66	3.300000e+00	4.794945e-06	
67	3.350000e+00	4.629893e-06	
68	3.400000e+00	4.476102e-06	
69	3.450000e+00	4.332476e-06	
70	3.500000e+00	4.198055e-06	
71	3.550000e+00	4.071994e-06	
72	3.600000e+00	3.953548e-06	
73	3.650000e+00	3.842057e-06	
74	3.700000e+00	3.736932e-06	
75	3.750000e+00	3.637651e-06	
76	3.800000e+00	3.543745e-06	
77	3.850000e+00	3.454794e-06	
78	3.900000e+00	3.370420e-06	
79	3.950000e+00	3.290283e-06	
80	4.000000e+00	3.214074e-06	
81	4.050000e+00	3.141515e-06	
82	4.100000e+00	3.072352e-06	
83	4.150000e+00	3.006354e-06	
84	4.200000e+00	2.943310e-06	
85	4.250000e+00	2.883029e-06	
86	4.300000e+00	2.825333e-06	
87	4.350000e+00	2.770063e-06	
88	4.400000e+00	2.717068e-06	
89	4.450000e+00	2.666213e-06	
90	4.500000e+00	2.617372e-06	
91	4.550000e+00	2.570427e-06	
92	4.600000e+00	2.525272e-06	
93	4.650000e+00	2.481807e-06	
94	4.700000e+00	2.439940e-06	
95	4.750000e+00	2.399584e-06	
96	4.800000e+00	2.360660e-06	
97	4.850000e+00	2.323093e-06	
98	4.900000e+00	2.286815e-06	
99	4.950000e+00	2.251760e-06	
100	5.000000e+00	2.217868e-06	
101	5.050000e+00	2.185083e-06	
102	5.100000e+00	2.153352e-06	
103	5.150000e+00	2.122625e-06	
104	5.200000e+00	2.092856e-06	
105	5.250000e+00	2.064000e-06	
106	5.300000e+00	2.036018e-06	
107	5.350000e+00	2.008869e-06	
108	5.400000e+00	1.982519e-06	
109	5.450000e+00	1.956932e-06	
110	5.500000e+00	1.932076e-06	
111	5.550000e+00	1.907921e-06	
112	5.600000e+00	1.884438e-06	

Index   v-sweep         rds             
--------------------------------------------------------------------------------
113	5.650000e+00	1.861599e-06	
114	5.700000e+00	1.839379e-06	
115	5.750000e+00	1.817753e-06	
116	5.800000e+00	1.796698e-06	
117	5.850000e+00	1.776193e-06	
118	5.900000e+00	1.756215e-06	
119	5.950000e+00	1.736746e-06	
120	6.000000e+00	1.717766e-06	
121	6.050000e+00	1.699258e-06	
122	6.100000e+00	1.681205e-06	
123	6.150000e+00	1.663590e-06	
124	6.200000e+00	1.646398e-06	
125	6.250000e+00	1.629614e-06	
126	6.300000e+00	1.613225e-06	
127	6.350000e+00	1.597216e-06	
128	6.400000e+00	1.581576e-06	
129	6.450000e+00	1.566291e-06	
130	6.500000e+00	1.551351e-06	
131	6.550000e+00	1.536743e-06	
132	6.600000e+00	1.522458e-06	
Reset re-loads circuit ***************************

Circuit: ***************************

Doing analysis at TEMP = -40.000000 and TNOM = -40.000000


No. of Data Rows : 133
                          ***************************
                          DC transfer characteristic  Mon Jan  9 13:58:39  2023
--------------------------------------------------------------------------------
Index   v-sweep         rds             
--------------------------------------------------------------------------------
0	0.000000e+00	4.784803e-04	
1	5.000000e-02	4.655724e-04	
2	1.000000e-01	4.529304e-04	
3	1.500000e-01	4.405477e-04	
4	2.000000e-01	4.284180e-04	
5	2.500000e-01	4.165350e-04	
6	3.000000e-01	4.048926e-04	
7	3.500000e-01	3.934847e-04	
8	4.000000e-01	3.823053e-04	
9	4.500000e-01	3.713482e-04	
10	5.000000e-01	3.606077e-04	
11	5.500000e-01	3.500778e-04	
12	6.000000e-01	3.397528e-04	
13	6.500000e-01	3.296270e-04	
14	7.000000e-01	3.196949e-04	
15	7.500000e-01	3.099511e-04	
16	8.000000e-01	3.003905e-04	
17	8.500000e-01	2.910080e-04	
18	9.000000e-01	2.817987e-04	
19	9.500000e-01	2.727581e-04	
20	1.000000e+00	2.638818e-04	
21	1.050000e+00	2.551652e-04	
22	1.100000e+00	2.466045e-04	
23	1.150000e+00	2.381953e-04	
24	1.200000e+00	2.299338e-04	
25	1.250000e+00	2.218159e-04	
26	1.300000e+00	2.138374e-04	
27	1.350000e+00	2.059939e-04	
28	1.400000e+00	1.982805e-04	
29	1.450000e+00	1.906917e-04	
30	1.500000e+00	1.832209e-04	
31	1.550000e+00	1.758602e-04	
32	1.600000e+00	1.685994e-04	
33	1.650000e+00	1.614251e-04	
34	1.700000e+00	1.543195e-04	
35	1.750000e+00	1.472581e-04	
36	1.800000e+00	1.402070e-04	
37	1.850000e+00	1.331190e-04	
38	1.900000e+00	1.259285e-04	
39	1.950000e+00	1.185468e-04	
40	2.000000e+00	1.108610e-04	
41	2.050000e+00	1.027438e-04	
42	2.100000e+00	9.408881e-05	
43	2.150000e+00	8.488110e-05	
44	2.200000e+00	7.528585e-05	
45	2.250000e+00	6.568311e-05	
46	2.300000e+00	5.657356e-05	
47	2.350000e+00	4.839139e-05	
48	2.400000e+00	4.136672e-05	
49	2.450000e+00	3.551819e-05	
50	2.500000e+00	3.072942e-05	
51	2.550000e+00	2.683102e-05	
52	2.600000e+00	2.365264e-05	
53	2.650000e+00	2.104599e-05	
54	2.700000e+00	1.889055e-05	

Index   v-sweep         rds             
--------------------------------------------------------------------------------
55	2.750000e+00	1.709164e-05	
56	2.800000e+00	1.557594e-05	
57	2.850000e+00	1.428693e-05	
58	2.900000e+00	1.318094e-05	
59	2.950000e+00	1.222408e-05	
60	3.000000e+00	1.138980e-05	
61	3.050000e+00	1.065720e-05	
62	3.100000e+00	1.000962e-05	
63	3.150000e+00	9.433730e-06	
64	3.200000e+00	8.918713e-06	
65	3.250000e+00	8.455760e-06	
66	3.300000e+00	8.037627e-06	
67	3.350000e+00	7.658313e-06	
68	3.400000e+00	7.312813e-06	
69	3.450000e+00	6.996925e-06	
70	3.500000e+00	6.707099e-06	
71	3.550000e+00	6.440316e-06	
72	3.600000e+00	6.193998e-06	
73	3.650000e+00	5.965930e-06	
74	3.700000e+00	5.754197e-06	
75	3.750000e+00	5.557141e-06	
76	3.800000e+00	5.373315e-06	
77	3.850000e+00	5.201455e-06	
78	3.900000e+00	5.040448e-06	
79	3.950000e+00	4.889316e-06	
80	4.000000e+00	4.747191e-06	
81	4.050000e+00	4.613303e-06	
82	4.100000e+00	4.486966e-06	
83	4.150000e+00	4.367569e-06	
84	4.200000e+00	4.254562e-06	
85	4.250000e+00	4.147453e-06	
86	4.300000e+00	4.045796e-06	
87	4.350000e+00	3.949191e-06	
88	4.400000e+00	3.857275e-06	
89	4.450000e+00	3.769718e-06	
90	4.500000e+00	3.686221e-06	
91	4.550000e+00	3.606511e-06	
92	4.600000e+00	3.530338e-06	
93	4.650000e+00	3.457474e-06	
94	4.700000e+00	3.387710e-06	
95	4.750000e+00	3.320855e-06	
96	4.800000e+00	3.256732e-06	
97	4.850000e+00	3.195178e-06	
98	4.900000e+00	3.136043e-06	
99	4.950000e+00	3.079189e-06	
100	5.000000e+00	3.024488e-06	
101	5.050000e+00	2.971819e-06	
102	5.100000e+00	2.921074e-06	
103	5.150000e+00	2.872149e-06	
104	5.200000e+00	2.824949e-06	
105	5.250000e+00	2.779386e-06	
106	5.300000e+00	2.735375e-06	
107	5.350000e+00	2.692841e-06	
108	5.400000e+00	2.651710e-06	
109	5.450000e+00	2.611916e-06	
110	5.500000e+00	2.573393e-06	
111	5.550000e+00	2.536084e-06	
112	5.600000e+00	2.499931e-06	

Index   v-sweep         rds             
--------------------------------------------------------------------------------
113	5.650000e+00	2.464884e-06	
114	5.700000e+00	2.430891e-06	
115	5.750000e+00	2.397908e-06	
116	5.800000e+00	2.365890e-06	
117	5.850000e+00	2.334796e-06	
118	5.900000e+00	2.304587e-06	
119	5.950000e+00	2.275227e-06	
120	6.000000e+00	2.246680e-06	
121	6.050000e+00	2.218914e-06	
122	6.100000e+00	2.191898e-06	
123	6.150000e+00	2.165602e-06	
124	6.200000e+00	2.139999e-06	
125	6.250000e+00	2.115061e-06	
126	6.300000e+00	2.090765e-06	
127	6.350000e+00	2.067085e-06	
128	6.400000e+00	2.044000e-06	
129	6.450000e+00	2.021487e-06	
130	6.500000e+00	1.999527e-06	
131	6.550000e+00	1.978099e-06	
132	6.600000e+00	1.957185e-06	
Reset re-loads circuit ***************************

Circuit: ***************************

Note: No ".plot", ".print", or ".fourier" lines; no simulations run
