
Note: Compatibility modes selected: hs

Warning: m=xx on .subckt line will override multiplier m hierarchy!


Circuit: ***************************

Doing analysis at TEMP = -40.000000 and TNOM = -40.000000


No. of Data Rows : 133
                          ***************************
                          DC transfer characteristic  Mon Jan  9 13:58:38  2023
--------------------------------------------------------------------------------
Index   v-sweep         rds             
--------------------------------------------------------------------------------
0	0.000000e+00	3.414800e-04	
1	5.000000e-02	2.276113e-04	
2	1.000000e-01	1.269755e-04	
3	1.500000e-01	6.033942e-05	
4	2.000000e-01	3.501484e-05	
5	2.500000e-01	2.624359e-05	
6	3.000000e-01	2.202983e-05	
7	3.500000e-01	1.948800e-05	
8	4.000000e-01	1.776155e-05	
9	4.500000e-01	1.650553e-05	
10	5.000000e-01	1.554956e-05	
11	5.500000e-01	1.479798e-05	
12	6.000000e-01	1.419234e-05	
13	6.500000e-01	1.369465e-05	
14	7.000000e-01	1.327908e-05	
15	7.500000e-01	1.292746e-05	
16	8.000000e-01	1.262655e-05	
17	8.500000e-01	1.236656e-05	
18	9.000000e-01	1.214001e-05	
19	9.500000e-01	1.194116e-05	
20	1.000000e+00	1.176546e-05	
21	1.050000e+00	1.160933e-05	
22	1.100000e+00	1.146986e-05	
23	1.150000e+00	1.134470e-05	
24	1.200000e+00	1.123190e-05	
25	1.250000e+00	1.112985e-05	
26	1.300000e+00	1.103720e-05	
27	1.350000e+00	1.095281e-05	
28	1.400000e+00	1.087574e-05	
29	1.450000e+00	1.080514e-05	
30	1.500000e+00	1.074032e-05	
31	1.550000e+00	1.068066e-05	
32	1.600000e+00	1.062564e-05	
33	1.650000e+00	1.057480e-05	
34	1.700000e+00	1.052773e-05	
35	1.750000e+00	1.048408e-05	
36	1.800000e+00	1.044354e-05	
37	1.850000e+00	1.040582e-05	
38	1.900000e+00	1.037068e-05	
39	1.950000e+00	1.033791e-05	
40	2.000000e+00	1.030730e-05	
41	2.050000e+00	1.027869e-05	
42	2.100000e+00	1.025191e-05	
43	2.150000e+00	1.022681e-05	
44	2.200000e+00	1.020328e-05	
45	2.250000e+00	1.018120e-05	
46	2.300000e+00	1.016045e-05	
47	2.350000e+00	1.014094e-05	
48	2.400000e+00	1.012259e-05	
49	2.450000e+00	1.010532e-05	
50	2.500000e+00	1.008904e-05	
51	2.550000e+00	1.007370e-05	
52	2.600000e+00	1.005924e-05	
53	2.650000e+00	1.004558e-05	
54	2.700000e+00	1.003270e-05	

Index   v-sweep         rds             
--------------------------------------------------------------------------------
55	2.750000e+00	1.002052e-05	
56	2.800000e+00	1.000902e-05	
57	2.850000e+00	9.998142e-06	
58	2.900000e+00	9.987857e-06	
59	2.950000e+00	9.978127e-06	
60	3.000000e+00	9.968919e-06	
61	3.050000e+00	9.960203e-06	
62	3.100000e+00	9.951949e-06	
63	3.150000e+00	9.944131e-06	
64	3.200000e+00	9.936723e-06	
65	3.250000e+00	9.929704e-06	
66	3.300000e+00	9.923050e-06	
67	3.350000e+00	9.916742e-06	
68	3.400000e+00	9.910760e-06	
69	3.450000e+00	9.905086e-06	
70	3.500000e+00	9.899703e-06	
71	3.550000e+00	9.894595e-06	
72	3.600000e+00	9.889747e-06	
73	3.650000e+00	9.885146e-06	
74	3.700000e+00	9.880777e-06	
75	3.750000e+00	9.876628e-06	
76	3.800000e+00	9.872688e-06	
77	3.850000e+00	9.868944e-06	
78	3.900000e+00	9.865386e-06	
79	3.950000e+00	9.862004e-06	
80	4.000000e+00	9.858788e-06	
81	4.050000e+00	9.855729e-06	
82	4.100000e+00	9.852818e-06	
83	4.150000e+00	9.850047e-06	
84	4.200000e+00	9.847409e-06	
85	4.250000e+00	9.844895e-06	
86	4.300000e+00	9.842498e-06	
87	4.350000e+00	9.840211e-06	
88	4.400000e+00	9.838028e-06	
89	4.450000e+00	9.835943e-06	
90	4.500000e+00	9.833949e-06	
91	4.550000e+00	9.832041e-06	
92	4.600000e+00	9.830212e-06	
93	4.650000e+00	9.828458e-06	
94	4.700000e+00	9.826773e-06	
95	4.750000e+00	9.825153e-06	
96	4.800000e+00	9.823592e-06	
97	4.850000e+00	9.822087e-06	
98	4.900000e+00	9.820632e-06	
99	4.950000e+00	9.819223e-06	
100	5.000000e+00	9.817856e-06	
101	5.050000e+00	9.816527e-06	
102	5.100000e+00	9.815232e-06	
103	5.150000e+00	9.813968e-06	
104	5.200000e+00	9.812730e-06	
105	5.250000e+00	9.811515e-06	
106	5.300000e+00	9.810320e-06	
107	5.350000e+00	9.809141e-06	
108	5.400000e+00	9.807974e-06	
109	5.450000e+00	9.806818e-06	
110	5.500000e+00	9.805667e-06	
111	5.550000e+00	9.804521e-06	
112	5.600000e+00	9.803374e-06	

Index   v-sweep         rds             
--------------------------------------------------------------------------------
113	5.650000e+00	9.802225e-06	
114	5.700000e+00	9.801070e-06	
115	5.750000e+00	9.799907e-06	
116	5.800000e+00	9.798733e-06	
117	5.850000e+00	9.797545e-06	
118	5.900000e+00	9.796341e-06	
119	5.950000e+00	9.795117e-06	
120	6.000000e+00	9.793872e-06	
121	6.050000e+00	9.792602e-06	
122	6.100000e+00	9.791305e-06	
123	6.150000e+00	9.789978e-06	
124	6.200000e+00	9.788620e-06	
125	6.250000e+00	9.787227e-06	
126	6.300000e+00	9.785797e-06	
127	6.350000e+00	9.784329e-06	
128	6.400000e+00	9.782818e-06	
129	6.450000e+00	9.781264e-06	
130	6.500000e+00	9.779663e-06	
131	6.550000e+00	9.778013e-06	
132	6.600000e+00	9.776313e-06	
Reset re-loads circuit ***************************

Circuit: ***************************

Doing analysis at TEMP = -40.000000 and TNOM = -40.000000


No. of Data Rows : 133
                          ***************************
                          DC transfer characteristic  Mon Jan  9 13:58:39  2023
--------------------------------------------------------------------------------
Index   v-sweep         rds             
--------------------------------------------------------------------------------
0	0.000000e+00	1.523071e-03	
1	5.000000e-02	1.389457e-03	
2	1.000000e-01	1.261504e-03	
3	1.500000e-01	1.138926e-03	
4	2.000000e-01	1.021437e-03	
5	2.500000e-01	9.087591e-04	
6	3.000000e-01	8.006169e-04	
7	3.500000e-01	6.967223e-04	
8	4.000000e-01	5.967311e-04	
9	4.500000e-01	5.002292e-04	
10	5.000000e-01	4.071286e-04	
11	5.500000e-01	3.195171e-04	
12	6.000000e-01	2.437776e-04	
13	6.500000e-01	1.860502e-04	
14	7.000000e-01	1.457642e-04	
15	7.500000e-01	1.182267e-04	
16	8.000000e-01	9.902273e-05	
17	8.500000e-01	8.517436e-05	
18	9.000000e-01	7.484151e-05	
19	9.500000e-01	6.689261e-05	
20	1.000000e+00	6.061527e-05	
21	1.050000e+00	5.554664e-05	
22	1.100000e+00	5.137620e-05	
23	1.150000e+00	4.788932e-05	
24	1.200000e+00	4.493357e-05	
25	1.250000e+00	4.239804e-05	
26	1.300000e+00	4.020032e-05	
27	1.350000e+00	3.827799e-05	
28	1.400000e+00	3.658296e-05	
29	1.450000e+00	3.507762e-05	
30	1.500000e+00	3.373216e-05	
31	1.550000e+00	3.252266e-05	
32	1.600000e+00	3.142970e-05	
33	1.650000e+00	3.043738e-05	
34	1.700000e+00	2.953254e-05	
35	1.750000e+00	2.870421e-05	
36	1.800000e+00	2.794316e-05	
37	1.850000e+00	2.724160e-05	
38	1.900000e+00	2.659286e-05	
39	1.950000e+00	2.599126e-05	
40	2.000000e+00	2.543189e-05	
41	2.050000e+00	2.491048e-05	
42	2.100000e+00	2.442333e-05	
43	2.150000e+00	2.396721e-05	
44	2.200000e+00	2.353926e-05	
45	2.250000e+00	2.313698e-05	
46	2.300000e+00	2.275815e-05	
47	2.350000e+00	2.240078e-05	
48	2.400000e+00	2.206313e-05	
49	2.450000e+00	2.174362e-05	
50	2.500000e+00	2.144084e-05	
51	2.550000e+00	2.115352e-05	
52	2.600000e+00	2.088051e-05	
53	2.650000e+00	2.062079e-05	
54	2.700000e+00	2.037341e-05	

Index   v-sweep         rds             
--------------------------------------------------------------------------------
55	2.750000e+00	2.013752e-05	
56	2.800000e+00	1.991235e-05	
57	2.850000e+00	1.969719e-05	
58	2.900000e+00	1.949140e-05	
59	2.950000e+00	1.929437e-05	
60	3.000000e+00	1.910556e-05	
61	3.050000e+00	1.892449e-05	
62	3.100000e+00	1.875068e-05	
63	3.150000e+00	1.858371e-05	
64	3.200000e+00	1.842318e-05	
65	3.250000e+00	1.826874e-05	
66	3.300000e+00	1.812005e-05	
67	3.350000e+00	1.797680e-05	
68	3.400000e+00	1.783869e-05	
69	3.450000e+00	1.770546e-05	
70	3.500000e+00	1.757685e-05	
71	3.550000e+00	1.745264e-05	
72	3.600000e+00	1.733259e-05	
73	3.650000e+00	1.721651e-05	
74	3.700000e+00	1.710420e-05	
75	3.750000e+00	1.699549e-05	
76	3.800000e+00	1.689020e-05	
77	3.850000e+00	1.678818e-05	
78	3.900000e+00	1.668928e-05	
79	3.950000e+00	1.659336e-05	
80	4.000000e+00	1.650029e-05	
81	4.050000e+00	1.640994e-05	
82	4.100000e+00	1.632220e-05	
83	4.150000e+00	1.623695e-05	
84	4.200000e+00	1.615410e-05	
85	4.250000e+00	1.607354e-05	
86	4.300000e+00	1.599518e-05	
87	4.350000e+00	1.591894e-05	
88	4.400000e+00	1.584472e-05	
89	4.450000e+00	1.577245e-05	
90	4.500000e+00	1.570206e-05	
91	4.550000e+00	1.563347e-05	
92	4.600000e+00	1.556661e-05	
93	4.650000e+00	1.550142e-05	
94	4.700000e+00	1.543785e-05	
95	4.750000e+00	1.537582e-05	
96	4.800000e+00	1.531528e-05	
97	4.850000e+00	1.525619e-05	
98	4.900000e+00	1.519849e-05	
99	4.950000e+00	1.514213e-05	
100	5.000000e+00	1.508707e-05	
101	5.050000e+00	1.503327e-05	
102	5.100000e+00	1.498067e-05	
103	5.150000e+00	1.492924e-05	
104	5.200000e+00	1.487894e-05	
105	5.250000e+00	1.482974e-05	
106	5.300000e+00	1.478160e-05	
107	5.350000e+00	1.473449e-05	
108	5.400000e+00	1.468837e-05	
109	5.450000e+00	1.464321e-05	
110	5.500000e+00	1.459899e-05	
111	5.550000e+00	1.455567e-05	
112	5.600000e+00	1.451323e-05	

Index   v-sweep         rds             
--------------------------------------------------------------------------------
113	5.650000e+00	1.447164e-05	
114	5.700000e+00	1.443088e-05	
115	5.750000e+00	1.439091e-05	
116	5.800000e+00	1.435173e-05	
117	5.850000e+00	1.431330e-05	
118	5.900000e+00	1.427560e-05	
119	5.950000e+00	1.423862e-05	
120	6.000000e+00	1.420233e-05	
121	6.050000e+00	1.416672e-05	
122	6.100000e+00	1.413176e-05	
123	6.150000e+00	1.409743e-05	
124	6.200000e+00	1.406373e-05	
125	6.250000e+00	1.403063e-05	
126	6.300000e+00	1.399812e-05	
127	6.350000e+00	1.396618e-05	
128	6.400000e+00	1.393480e-05	
129	6.450000e+00	1.390396e-05	
130	6.500000e+00	1.387364e-05	
131	6.550000e+00	1.384385e-05	
132	6.600000e+00	1.381455e-05	
Reset re-loads circuit ***************************

Circuit: ***************************

Doing analysis at TEMP = -40.000000 and TNOM = -40.000000


No. of Data Rows : 133
                          ***************************
                          DC transfer characteristic  Mon Jan  9 13:58:39  2023
--------------------------------------------------------------------------------
Index   v-sweep         rds             
--------------------------------------------------------------------------------
0	0.000000e+00	2.372345e-03	
1	5.000000e-02	2.229382e-03	
2	1.000000e-01	2.092092e-03	
3	1.500000e-01	1.960206e-03	
4	2.000000e-01	1.833453e-03	
5	2.500000e-01	1.711562e-03	
6	3.000000e-01	1.594260e-03	
7	3.500000e-01	1.481280e-03	
8	4.000000e-01	1.372362e-03	
9	4.500000e-01	1.267250e-03	
10	5.000000e-01	1.165676e-03	
11	5.500000e-01	1.067330e-03	
12	6.000000e-01	9.717981e-04	
13	6.500000e-01	8.784529e-04	
14	7.000000e-01	7.862879e-04	
15	7.500000e-01	6.937712e-04	
16	8.000000e-01	5.991544e-04	
17	8.500000e-01	5.022682e-04	
18	9.000000e-01	4.076496e-04	
19	9.500000e-01	3.239416e-04	
20	1.000000e+00	2.572251e-04	
21	1.050000e+00	2.074310e-04	
22	1.100000e+00	1.710624e-04	
23	1.150000e+00	1.443324e-04	
24	1.200000e+00	1.243123e-04	
25	1.250000e+00	1.089739e-04	
26	1.300000e+00	9.695583e-05	
27	1.350000e+00	8.734300e-05	
28	1.400000e+00	7.951134e-05	
29	1.450000e+00	7.302664e-05	
30	1.500000e+00	6.758041e-05	
31	1.550000e+00	6.294894e-05	
32	1.600000e+00	5.896686e-05	
33	1.650000e+00	5.550971e-05	
34	1.700000e+00	5.248229e-05	
35	1.750000e+00	4.981070e-05	
36	1.800000e+00	4.743680e-05	
37	1.850000e+00	4.531426e-05	
38	1.900000e+00	4.340579e-05	
39	1.950000e+00	4.168099e-05	
40	2.000000e+00	4.011493e-05	
41	2.050000e+00	3.868693e-05	
42	2.100000e+00	3.737972e-05	
43	2.150000e+00	3.617876e-05	
44	2.200000e+00	3.507174e-05	
45	2.250000e+00	3.404818e-05	
46	2.300000e+00	3.309905e-05	
47	2.350000e+00	3.221661e-05	
48	2.400000e+00	3.139413e-05	
49	2.450000e+00	3.062574e-05	
50	2.500000e+00	2.990633e-05	
51	2.550000e+00	2.923139e-05	
52	2.600000e+00	2.859696e-05	
53	2.650000e+00	2.799953e-05	
54	2.700000e+00	2.743596e-05	

Index   v-sweep         rds             
--------------------------------------------------------------------------------
55	2.750000e+00	2.690349e-05	
56	2.800000e+00	2.639962e-05	
57	2.850000e+00	2.592213e-05	
58	2.900000e+00	2.546900e-05	
59	2.950000e+00	2.503844e-05	
60	3.000000e+00	2.462881e-05	
61	3.050000e+00	2.423863e-05	
62	3.100000e+00	2.386655e-05	
63	3.150000e+00	2.351135e-05	
64	3.200000e+00	2.317191e-05	
65	3.250000e+00	2.284721e-05	
66	3.300000e+00	2.253632e-05	
67	3.350000e+00	2.223838e-05	
68	3.400000e+00	2.195260e-05	
69	3.450000e+00	2.167825e-05	
70	3.500000e+00	2.141467e-05	
71	3.550000e+00	2.116123e-05	
72	3.600000e+00	2.091737e-05	
73	3.650000e+00	2.068256e-05	
74	3.700000e+00	2.045630e-05	
75	3.750000e+00	2.023813e-05	
76	3.800000e+00	2.002764e-05	
77	3.850000e+00	1.982442e-05	
78	3.900000e+00	1.962810e-05	
79	3.950000e+00	1.943835e-05	
80	4.000000e+00	1.925484e-05	
81	4.050000e+00	1.907727e-05	
82	4.100000e+00	1.890535e-05	
83	4.150000e+00	1.873883e-05	
84	4.200000e+00	1.857744e-05	
85	4.250000e+00	1.842097e-05	
86	4.300000e+00	1.826919e-05	
87	4.350000e+00	1.812189e-05	
88	4.400000e+00	1.797887e-05	
89	4.450000e+00	1.783997e-05	
90	4.500000e+00	1.770499e-05	
91	4.550000e+00	1.757379e-05	
92	4.600000e+00	1.744619e-05	
93	4.650000e+00	1.732207e-05	
94	4.700000e+00	1.720127e-05	
95	4.750000e+00	1.708367e-05	
96	4.800000e+00	1.696914e-05	
97	4.850000e+00	1.685757e-05	
98	4.900000e+00	1.674884e-05	
99	4.950000e+00	1.664285e-05	
100	5.000000e+00	1.653950e-05	
101	5.050000e+00	1.643868e-05	
102	5.100000e+00	1.634031e-05	
103	5.150000e+00	1.624431e-05	
104	5.200000e+00	1.615058e-05	
105	5.250000e+00	1.605905e-05	
106	5.300000e+00	1.596964e-05	
107	5.350000e+00	1.588229e-05	
108	5.400000e+00	1.579691e-05	
109	5.450000e+00	1.571345e-05	
110	5.500000e+00	1.563185e-05	
111	5.550000e+00	1.555204e-05	
112	5.600000e+00	1.547397e-05	

Index   v-sweep         rds             
--------------------------------------------------------------------------------
113	5.650000e+00	1.539757e-05	
114	5.700000e+00	1.532281e-05	
115	5.750000e+00	1.524962e-05	
116	5.800000e+00	1.517796e-05	
117	5.850000e+00	1.510778e-05	
118	5.900000e+00	1.503904e-05	
119	5.950000e+00	1.497169e-05	
120	6.000000e+00	1.490570e-05	
121	6.050000e+00	1.484102e-05	
122	6.100000e+00	1.477762e-05	
123	6.150000e+00	1.471545e-05	
124	6.200000e+00	1.465450e-05	
125	6.250000e+00	1.459471e-05	
126	6.300000e+00	1.453606e-05	
127	6.350000e+00	1.447851e-05	
128	6.400000e+00	1.442204e-05	
129	6.450000e+00	1.436662e-05	
130	6.500000e+00	1.431222e-05	
131	6.550000e+00	1.425881e-05	
132	6.600000e+00	1.420636e-05	
Reset re-loads circuit ***************************

Circuit: ***************************

Doing analysis at TEMP = -40.000000 and TNOM = -40.000000


No. of Data Rows : 133
                          ***************************
                          DC transfer characteristic  Mon Jan  9 13:58:39  2023
--------------------------------------------------------------------------------
Index   v-sweep         rds             
--------------------------------------------------------------------------------
0	0.000000e+00	3.031337e-03	
1	5.000000e-02	2.886323e-03	
2	1.000000e-01	2.746520e-03	
3	1.500000e-01	2.611708e-03	
4	2.000000e-01	2.481672e-03	
5	2.500000e-01	2.356191e-03	
6	3.000000e-01	2.235042e-03	
7	3.500000e-01	2.118003e-03	
8	4.000000e-01	2.004854e-03	
9	4.500000e-01	1.895383e-03	
10	5.000000e-01	1.789388e-03	
11	5.500000e-01	1.686679e-03	
12	6.000000e-01	1.587072e-03	
13	6.500000e-01	1.490389e-03	
14	7.000000e-01	1.396440e-03	
15	7.500000e-01	1.305002e-03	
16	8.000000e-01	1.215783e-03	
17	8.500000e-01	1.128356e-03	
18	9.000000e-01	1.042066e-03	
19	9.500000e-01	9.558852e-04	
20	1.000000e+00	8.682615e-04	
21	1.050000e+00	7.771833e-04	
22	1.100000e+00	6.810138e-04	
23	1.150000e+00	5.806863e-04	
24	1.200000e+00	4.818159e-04	
25	1.250000e+00	3.927775e-04	
26	1.300000e+00	3.193086e-04	
27	1.350000e+00	2.620863e-04	
28	1.400000e+00	2.186051e-04	
29	1.450000e+00	1.856180e-04	
30	1.500000e+00	1.603198e-04	
31	1.550000e+00	1.406030e-04	
32	1.600000e+00	1.249640e-04	
33	1.650000e+00	1.123454e-04	
34	1.700000e+00	1.020008e-04	
35	1.750000e+00	9.339734e-05	
36	1.800000e+00	8.614897e-05	
37	1.850000e+00	7.997134e-05	
38	1.900000e+00	7.465174e-05	
39	1.950000e+00	7.002859e-05	
40	2.000000e+00	6.597742e-05	
41	2.050000e+00	6.240099e-05	
42	2.100000e+00	5.922247e-05	
43	2.150000e+00	5.638040e-05	
44	2.200000e+00	5.382514e-05	
45	2.250000e+00	5.151617e-05	
46	2.300000e+00	4.942016e-05	
47	2.350000e+00	4.750943e-05	
48	2.400000e+00	4.576084e-05	
49	2.450000e+00	4.415488e-05	
50	2.500000e+00	4.267505e-05	
51	2.550000e+00	4.130723e-05	
52	2.600000e+00	4.003933e-05	
53	2.650000e+00	3.886092e-05	
54	2.700000e+00	3.776295e-05	

Index   v-sweep         rds             
--------------------------------------------------------------------------------
55	2.750000e+00	3.673756e-05	
56	2.800000e+00	3.577784e-05	
57	2.850000e+00	3.487775e-05	
58	2.900000e+00	3.403195e-05	
59	2.950000e+00	3.323572e-05	
60	3.000000e+00	3.248486e-05	
61	3.050000e+00	3.177563e-05	
62	3.100000e+00	3.110470e-05	
63	3.150000e+00	3.046907e-05	
64	3.200000e+00	2.986605e-05	
65	3.250000e+00	2.929320e-05	
66	3.300000e+00	2.874834e-05	
67	3.350000e+00	2.822947e-05	
68	3.400000e+00	2.773479e-05	
69	3.450000e+00	2.726267e-05	
70	3.500000e+00	2.681160e-05	
71	3.550000e+00	2.638021e-05	
72	3.600000e+00	2.596725e-05	
73	3.650000e+00	2.557157e-05	
74	3.700000e+00	2.519211e-05	
75	3.750000e+00	2.482791e-05	
76	3.800000e+00	2.447806e-05	
77	3.850000e+00	2.414175e-05	
78	3.900000e+00	2.381819e-05	
79	3.950000e+00	2.350669e-05	
80	4.000000e+00	2.320658e-05	
81	4.050000e+00	2.291726e-05	
82	4.100000e+00	2.263815e-05	
83	4.150000e+00	2.236874e-05	
84	4.200000e+00	2.210851e-05	
85	4.250000e+00	2.185703e-05	
86	4.300000e+00	2.161384e-05	
87	4.350000e+00	2.137856e-05	
88	4.400000e+00	2.115081e-05	
89	4.450000e+00	2.093022e-05	
90	4.500000e+00	2.071648e-05	
91	4.550000e+00	2.050927e-05	
92	4.600000e+00	2.030829e-05	
93	4.650000e+00	2.011328e-05	
94	4.700000e+00	1.992397e-05	
95	4.750000e+00	1.974012e-05	
96	4.800000e+00	1.956149e-05	
97	4.850000e+00	1.938787e-05	
98	4.900000e+00	1.921906e-05	
99	4.950000e+00	1.905485e-05	
100	5.000000e+00	1.889507e-05	
101	5.050000e+00	1.873954e-05	
102	5.100000e+00	1.858810e-05	
103	5.150000e+00	1.844058e-05	
104	5.200000e+00	1.829684e-05	
105	5.250000e+00	1.815674e-05	
106	5.300000e+00	1.802014e-05	
107	5.350000e+00	1.788692e-05	
108	5.400000e+00	1.775696e-05	
109	5.450000e+00	1.763013e-05	
110	5.500000e+00	1.750633e-05	
111	5.550000e+00	1.738545e-05	
112	5.600000e+00	1.726740e-05	

Index   v-sweep         rds             
--------------------------------------------------------------------------------
113	5.650000e+00	1.715207e-05	
114	5.700000e+00	1.703938e-05	
115	5.750000e+00	1.692924e-05	
116	5.800000e+00	1.682156e-05	
117	5.850000e+00	1.671627e-05	
118	5.900000e+00	1.661329e-05	
119	5.950000e+00	1.651255e-05	
120	6.000000e+00	1.641397e-05	
121	6.050000e+00	1.631749e-05	
122	6.100000e+00	1.622304e-05	
123	6.150000e+00	1.613057e-05	
124	6.200000e+00	1.604001e-05	
125	6.250000e+00	1.595131e-05	
126	6.300000e+00	1.586441e-05	
127	6.350000e+00	1.577926e-05	
128	6.400000e+00	1.569582e-05	
129	6.450000e+00	1.561402e-05	
130	6.500000e+00	1.553383e-05	
131	6.550000e+00	1.545519e-05	
132	6.600000e+00	1.537808e-05	
Reset re-loads circuit ***************************

Circuit: ***************************

Doing analysis at TEMP = -40.000000 and TNOM = -40.000000


No. of Data Rows : 133
                          ***************************
                          DC transfer characteristic  Mon Jan  9 13:58:39  2023
--------------------------------------------------------------------------------
Index   v-sweep         rds             
--------------------------------------------------------------------------------
0	0.000000e+00	3.495375e-03	
1	5.000000e-02	3.355341e-03	
2	1.000000e-01	3.219801e-03	
3	1.500000e-01	3.088590e-03	
4	2.000000e-01	2.961545e-03	
5	2.500000e-01	2.838501e-03	
6	3.000000e-01	2.719291e-03	
7	3.500000e-01	2.603747e-03	
8	4.000000e-01	2.491698e-03	
9	4.500000e-01	2.382977e-03	
10	5.000000e-01	2.277420e-03	
11	5.500000e-01	2.174871e-03	
12	6.000000e-01	2.075180e-03	
13	6.500000e-01	1.978209e-03	
14	7.000000e-01	1.883830e-03	
15	7.500000e-01	1.791923e-03	
16	8.000000e-01	1.702371e-03	
17	8.500000e-01	1.615061e-03	
18	9.000000e-01	1.529868e-03	
19	9.500000e-01	1.446642e-03	
20	1.000000e+00	1.365192e-03	
21	1.050000e+00	1.285243e-03	
22	1.100000e+00	1.206392e-03	
23	1.150000e+00	1.128019e-03	
24	1.200000e+00	1.049184e-03	
25	1.250000e+00	9.685062e-04	
26	1.300000e+00	8.841685e-04	
27	1.350000e+00	7.943648e-04	
28	1.400000e+00	6.986334e-04	
29	1.450000e+00	5.997774e-04	
30	1.500000e+00	5.042150e-04	
31	1.550000e+00	4.189801e-04	
32	1.600000e+00	3.480238e-04	
33	1.650000e+00	2.914773e-04	
34	1.700000e+00	2.472694e-04	
35	1.750000e+00	2.127798e-04	
36	1.800000e+00	1.856658e-04	
37	1.850000e+00	1.640865e-04	
38	1.900000e+00	1.466707e-04	
39	1.950000e+00	1.324163e-04	
40	2.000000e+00	1.205923e-04	
41	2.050000e+00	1.106620e-04	
42	2.100000e+00	1.022273e-04	
43	2.150000e+00	9.498913e-05	
44	2.200000e+00	8.872001e-05	
45	2.250000e+00	8.324458e-05	
46	2.300000e+00	7.842604e-05	
47	2.350000e+00	7.415644e-05	
48	2.400000e+00	7.034962e-05	
49	2.450000e+00	6.693613e-05	
50	2.500000e+00	6.385944e-05	
51	2.550000e+00	6.107316e-05	
52	2.600000e+00	5.853886e-05	
53	2.650000e+00	5.622451e-05	
54	2.700000e+00	5.410318e-05	

Index   v-sweep         rds             
--------------------------------------------------------------------------------
55	2.750000e+00	5.215211e-05	
56	2.800000e+00	5.035191e-05	
57	2.850000e+00	4.868602e-05	
58	2.900000e+00	4.714015e-05	
59	2.950000e+00	4.570197e-05	
60	3.000000e+00	4.436076e-05	
61	3.050000e+00	4.310715e-05	
62	3.100000e+00	4.193292e-05	
63	3.150000e+00	4.083087e-05	
64	3.200000e+00	3.979461e-05	
65	3.250000e+00	3.881847e-05	
66	3.300000e+00	3.789744e-05	
67	3.350000e+00	3.702700e-05	
68	3.400000e+00	3.620316e-05	
69	3.450000e+00	3.542229e-05	
70	3.500000e+00	3.468115e-05	
71	3.550000e+00	3.397682e-05	
72	3.600000e+00	3.330663e-05	
73	3.650000e+00	3.266818e-05	
74	3.700000e+00	3.205928e-05	
75	3.750000e+00	3.147796e-05	
76	3.800000e+00	3.092238e-05	
77	3.850000e+00	3.039089e-05	
78	3.900000e+00	2.988197e-05	
79	3.950000e+00	2.939422e-05	
80	4.000000e+00	2.892634e-05	
81	4.050000e+00	2.847717e-05	
82	4.100000e+00	2.804561e-05	
83	4.150000e+00	2.763064e-05	
84	4.200000e+00	2.723134e-05	
85	4.250000e+00	2.684684e-05	
86	4.300000e+00	2.647634e-05	
87	4.350000e+00	2.611908e-05	
88	4.400000e+00	2.577439e-05	
89	4.450000e+00	2.544161e-05	
90	4.500000e+00	2.512014e-05	
91	4.550000e+00	2.480941e-05	
92	4.600000e+00	2.450890e-05	
93	4.650000e+00	2.421812e-05	
94	4.700000e+00	2.393661e-05	
95	4.750000e+00	2.366393e-05	
96	4.800000e+00	2.339967e-05	
97	4.850000e+00	2.314347e-05	
98	4.900000e+00	2.289495e-05	
99	4.950000e+00	2.265378e-05	
100	5.000000e+00	2.241965e-05	
101	5.050000e+00	2.219225e-05	
102	5.100000e+00	2.197130e-05	
103	5.150000e+00	2.175653e-05	
104	5.200000e+00	2.154769e-05	
105	5.250000e+00	2.134454e-05	
106	5.300000e+00	2.114686e-05	
107	5.350000e+00	2.095442e-05	
108	5.400000e+00	2.076704e-05	
109	5.450000e+00	2.058451e-05	
110	5.500000e+00	2.040666e-05	
111	5.550000e+00	2.023330e-05	
112	5.600000e+00	2.006428e-05	

Index   v-sweep         rds             
--------------------------------------------------------------------------------
113	5.650000e+00	1.989944e-05	
114	5.700000e+00	1.973862e-05	
115	5.750000e+00	1.958169e-05	
116	5.800000e+00	1.942852e-05	
117	5.850000e+00	1.927896e-05	
118	5.900000e+00	1.913290e-05	
119	5.950000e+00	1.899022e-05	
120	6.000000e+00	1.885081e-05	
121	6.050000e+00	1.871456e-05	
122	6.100000e+00	1.858136e-05	
123	6.150000e+00	1.845113e-05	
124	6.200000e+00	1.832377e-05	
125	6.250000e+00	1.819918e-05	
126	6.300000e+00	1.807728e-05	
127	6.350000e+00	1.795798e-05	
128	6.400000e+00	1.784122e-05	
129	6.450000e+00	1.772690e-05	
130	6.500000e+00	1.761497e-05	
131	6.550000e+00	1.750535e-05	
132	6.600000e+00	1.739797e-05	
Reset re-loads circuit ***************************

Circuit: ***************************

Doing analysis at TEMP = -40.000000 and TNOM = -40.000000


No. of Data Rows : 133
                          ***************************
                          DC transfer characteristic  Mon Jan  9 13:58:39  2023
--------------------------------------------------------------------------------
Index   v-sweep         rds             
--------------------------------------------------------------------------------
0	0.000000e+00	3.815072e-03	
1	5.000000e-02	3.683880e-03	
2	1.000000e-01	3.556433e-03	
3	1.500000e-01	3.432613e-03	
4	2.000000e-01	3.312300e-03	
5	2.500000e-01	3.195374e-03	
6	3.000000e-01	3.081714e-03	
7	3.500000e-01	2.971199e-03	
8	4.000000e-01	2.863704e-03	
9	4.500000e-01	2.759106e-03	
10	5.000000e-01	2.657279e-03	
11	5.500000e-01	2.558103e-03	
12	6.000000e-01	2.461460e-03	
13	6.500000e-01	2.367237e-03	
14	7.000000e-01	2.275329e-03	
15	7.500000e-01	2.185634e-03	
16	8.000000e-01	2.098062e-03	
17	8.500000e-01	2.012528e-03	
18	9.000000e-01	1.928953e-03	
19	9.500000e-01	1.847266e-03	
20	1.000000e+00	1.767394e-03	
21	1.050000e+00	1.689265e-03	
22	1.100000e+00	1.612802e-03	
23	1.150000e+00	1.537911e-03	
24	1.200000e+00	1.464471e-03	
25	1.250000e+00	1.392319e-03	
26	1.300000e+00	1.321217e-03	
27	1.350000e+00	1.250820e-03	
28	1.400000e+00	1.180609e-03	
29	1.450000e+00	1.109814e-03	
30	1.500000e+00	1.037324e-03	
31	1.550000e+00	9.616497e-04	
32	1.600000e+00	8.811114e-04	
33	1.650000e+00	7.945316e-04	
34	1.700000e+00	7.025565e-04	
35	1.750000e+00	6.088050e-04	
36	1.800000e+00	5.191932e-04	
37	1.850000e+00	4.392408e-04	
38	1.900000e+00	3.717830e-04	
39	1.950000e+00	3.168397e-04	
40	2.000000e+00	2.728152e-04	
41	2.050000e+00	2.376431e-04	
42	2.100000e+00	2.093988e-04	
43	2.150000e+00	1.865045e-04	
44	2.200000e+00	1.677385e-04	
45	2.250000e+00	1.521766e-04	
46	2.300000e+00	1.391246e-04	
47	2.350000e+00	1.280599e-04	
48	2.400000e+00	1.185864e-04	
49	2.450000e+00	1.104010e-04	
50	2.500000e+00	1.032694e-04	
51	2.550000e+00	9.700869e-05	
52	2.600000e+00	9.147422e-05	
53	2.650000e+00	8.655081e-05	
54	2.700000e+00	8.214565e-05	

Index   v-sweep         rds             
--------------------------------------------------------------------------------
55	2.750000e+00	7.818329e-05	
56	2.800000e+00	7.460193e-05	
57	2.850000e+00	7.135047e-05	
58	2.900000e+00	6.838636e-05	
59	2.950000e+00	6.567394e-05	
60	3.000000e+00	6.318310e-05	
61	3.050000e+00	6.088826e-05	
62	3.100000e+00	5.876757e-05	
63	3.150000e+00	5.680228e-05	
64	3.200000e+00	5.497617e-05	
65	3.250000e+00	5.327519e-05	
66	3.300000e+00	5.168710e-05	
67	3.350000e+00	5.020116e-05	
68	3.400000e+00	4.880797e-05	
69	3.450000e+00	4.749920e-05	
70	3.500000e+00	4.626751e-05	
71	3.550000e+00	4.510636e-05	
72	3.600000e+00	4.400993e-05	
73	3.650000e+00	4.297301e-05	
74	3.700000e+00	4.199092e-05	
75	3.750000e+00	4.105949e-05	
76	3.800000e+00	4.017493e-05	
77	3.850000e+00	3.933381e-05	
78	3.900000e+00	3.853304e-05	
79	3.950000e+00	3.776982e-05	
80	4.000000e+00	3.704158e-05	
81	4.050000e+00	3.634600e-05	
82	4.100000e+00	3.568094e-05	
83	4.150000e+00	3.504445e-05	
84	4.200000e+00	3.443475e-05	
85	4.250000e+00	3.385019e-05	
86	4.300000e+00	3.328925e-05	
87	4.350000e+00	3.275056e-05	
88	4.400000e+00	3.223281e-05	
89	4.450000e+00	3.173482e-05	
90	4.500000e+00	3.125548e-05	
91	4.550000e+00	3.079378e-05	
92	4.600000e+00	3.034877e-05	
93	4.650000e+00	2.991956e-05	
94	4.700000e+00	2.950534e-05	
95	4.750000e+00	2.910533e-05	
96	4.800000e+00	2.871883e-05	
97	4.850000e+00	2.834517e-05	
98	4.900000e+00	2.798372e-05	
99	4.950000e+00	2.763390e-05	
100	5.000000e+00	2.729517e-05	
101	5.050000e+00	2.696700e-05	
102	5.100000e+00	2.664892e-05	
103	5.150000e+00	2.634048e-05	
104	5.200000e+00	2.604124e-05	
105	5.250000e+00	2.575082e-05	
106	5.300000e+00	2.546882e-05	
107	5.350000e+00	2.519489e-05	
108	5.400000e+00	2.492870e-05	
109	5.450000e+00	2.466993e-05	
110	5.500000e+00	2.441828e-05	
111	5.550000e+00	2.417346e-05	
112	5.600000e+00	2.393520e-05	

Index   v-sweep         rds             
--------------------------------------------------------------------------------
113	5.650000e+00	2.370326e-05	
114	5.700000e+00	2.347738e-05	
115	5.750000e+00	2.325733e-05	
116	5.800000e+00	2.304291e-05	
117	5.850000e+00	2.283390e-05	
118	5.900000e+00	2.263011e-05	
119	5.950000e+00	2.243134e-05	
120	6.000000e+00	2.223743e-05	
121	6.050000e+00	2.204819e-05	
122	6.100000e+00	2.186348e-05	
123	6.150000e+00	2.168313e-05	
124	6.200000e+00	2.150700e-05	
125	6.250000e+00	2.133494e-05	
126	6.300000e+00	2.116683e-05	
127	6.350000e+00	2.100253e-05	
128	6.400000e+00	2.084193e-05	
129	6.450000e+00	2.068490e-05	
130	6.500000e+00	2.053133e-05	
131	6.550000e+00	2.038111e-05	
132	6.600000e+00	2.023415e-05	
Reset re-loads circuit ***************************

Circuit: ***************************

Note: No ".plot", ".print", or ".fourier" lines; no simulations run
