
Note: Compatibility modes selected: hs

Warning: m=xx on .subckt line will override multiplier m hierarchy!


Circuit: ***************************

Doing analysis at TEMP = 125.000000 and TNOM = 125.000000


No. of Data Rows : 133
                          ***************************
                          DC transfer characteristic  Mon Jan  9 13:58:39  2023
--------------------------------------------------------------------------------
Index   v-sweep         rds             
--------------------------------------------------------------------------------
0	0.000000e+00	6.182349e-05	
1	5.000000e-02	5.327259e-05	
2	1.000000e-01	4.478034e-05	
3	1.500000e-01	3.636504e-05	
4	2.000000e-01	2.807355e-05	
5	2.500000e-01	2.003647e-05	
6	3.000000e-01	1.262515e-05	
7	3.500000e-01	6.687691e-06	
8	4.000000e-01	3.089969e-06	
9	4.500000e-01	1.464326e-06	
10	5.000000e-01	8.039814e-07	
11	5.500000e-01	5.177772e-07	
12	6.000000e-01	3.779456e-07	
13	6.500000e-01	3.012987e-07	
14	7.000000e-01	2.550736e-07	
15	7.500000e-01	2.249861e-07	
16	8.000000e-01	2.041816e-07	
17	8.500000e-01	1.890858e-07	
18	9.000000e-01	1.776994e-07	
19	9.500000e-01	1.688358e-07	
20	1.000000e+00	1.617549e-07	
21	1.050000e+00	1.559750e-07	
22	1.100000e+00	1.511708e-07	
23	1.150000e+00	1.471158e-07	
24	1.200000e+00	1.436478e-07	
25	1.250000e+00	1.406481e-07	
26	1.300000e+00	1.380276e-07	
27	1.350000e+00	1.357183e-07	
28	1.400000e+00	1.336679e-07	
29	1.450000e+00	1.318347e-07	
30	1.500000e+00	1.301858e-07	
31	1.550000e+00	1.286945e-07	
32	1.600000e+00	1.273392e-07	
33	1.650000e+00	1.261019e-07	
34	1.700000e+00	1.249677e-07	
35	1.750000e+00	1.239242e-07	
36	1.800000e+00	1.229608e-07	
37	1.850000e+00	1.220686e-07	
38	1.900000e+00	1.212400e-07	
39	1.950000e+00	1.204682e-07	
40	2.000000e+00	1.197477e-07	
41	2.050000e+00	1.190734e-07	
42	2.100000e+00	1.184411e-07	
43	2.150000e+00	1.178469e-07	
44	2.200000e+00	1.172874e-07	
45	2.250000e+00	1.167597e-07	
46	2.300000e+00	1.162611e-07	
47	2.350000e+00	1.157893e-07	
48	2.400000e+00	1.153421e-07	
49	2.450000e+00	1.149178e-07	
50	2.500000e+00	1.145145e-07	
51	2.550000e+00	1.141307e-07	
52	2.600000e+00	1.137651e-07	
53	2.650000e+00	1.134164e-07	
54	2.700000e+00	1.130834e-07	

Index   v-sweep         rds             
--------------------------------------------------------------------------------
55	2.750000e+00	1.127651e-07	
56	2.800000e+00	1.124606e-07	
57	2.850000e+00	1.121689e-07	
58	2.900000e+00	1.118894e-07	
59	2.950000e+00	1.116211e-07	
60	3.000000e+00	1.113635e-07	
61	3.050000e+00	1.111160e-07	
62	3.100000e+00	1.108780e-07	
63	3.150000e+00	1.106488e-07	
64	3.200000e+00	1.104281e-07	
65	3.250000e+00	1.102154e-07	
66	3.300000e+00	1.100103e-07	
67	3.350000e+00	1.098123e-07	
68	3.400000e+00	1.096211e-07	
69	3.450000e+00	1.094364e-07	
70	3.500000e+00	1.092578e-07	
71	3.550000e+00	1.090850e-07	
72	3.600000e+00	1.089178e-07	
73	3.650000e+00	1.087559e-07	
74	3.700000e+00	1.085991e-07	
75	3.750000e+00	1.084470e-07	
76	3.800000e+00	1.082995e-07	
77	3.850000e+00	1.081565e-07	
78	3.900000e+00	1.080176e-07	
79	3.950000e+00	1.078828e-07	
80	4.000000e+00	1.077518e-07	
81	4.050000e+00	1.076244e-07	
82	4.100000e+00	1.075007e-07	
83	4.150000e+00	1.073803e-07	
84	4.200000e+00	1.072631e-07	
85	4.250000e+00	1.071491e-07	
86	4.300000e+00	1.070381e-07	
87	4.350000e+00	1.069300e-07	
88	4.400000e+00	1.068247e-07	
89	4.450000e+00	1.067220e-07	
90	4.500000e+00	1.066219e-07	
91	4.550000e+00	1.065242e-07	
92	4.600000e+00	1.064290e-07	
93	4.650000e+00	1.063360e-07	
94	4.700000e+00	1.062453e-07	
95	4.750000e+00	1.061567e-07	
96	4.800000e+00	1.060702e-07	
97	4.850000e+00	1.059857e-07	
98	4.900000e+00	1.059031e-07	
99	4.950000e+00	1.058224e-07	
100	5.000000e+00	1.057435e-07	
101	5.050000e+00	1.056663e-07	
102	5.100000e+00	1.055908e-07	
103	5.150000e+00	1.055169e-07	
104	5.200000e+00	1.054446e-07	
105	5.250000e+00	1.053739e-07	
106	5.300000e+00	1.053046e-07	
107	5.350000e+00	1.052368e-07	
108	5.400000e+00	1.051704e-07	
109	5.450000e+00	1.051053e-07	
110	5.500000e+00	1.050415e-07	
111	5.550000e+00	1.049790e-07	
112	5.600000e+00	1.049177e-07	

Index   v-sweep         rds             
--------------------------------------------------------------------------------
113	5.650000e+00	1.048577e-07	
114	5.700000e+00	1.047988e-07	
115	5.750000e+00	1.047410e-07	
116	5.800000e+00	1.046844e-07	
117	5.850000e+00	1.046288e-07	
118	5.900000e+00	1.045742e-07	
119	5.950000e+00	1.045207e-07	
120	6.000000e+00	1.044681e-07	
121	6.050000e+00	1.044165e-07	
122	6.100000e+00	1.043658e-07	
123	6.150000e+00	1.043160e-07	
124	6.200000e+00	1.042672e-07	
125	6.250000e+00	1.042191e-07	
126	6.300000e+00	1.041720e-07	
127	6.350000e+00	1.041256e-07	
128	6.400000e+00	1.040800e-07	
129	6.450000e+00	1.040352e-07	
130	6.500000e+00	1.039912e-07	
131	6.550000e+00	1.039479e-07	
132	6.600000e+00	1.039053e-07	
Reset re-loads circuit ***************************

Circuit: ***************************

Doing analysis at TEMP = 125.000000 and TNOM = 125.000000


No. of Data Rows : 133
                          ***************************
                          DC transfer characteristic  Mon Jan  9 13:58:39  2023
--------------------------------------------------------------------------------
Index   v-sweep         rds             
--------------------------------------------------------------------------------
0	0.000000e+00	1.893499e-04	
1	5.000000e-02	1.803966e-04	
2	1.000000e-01	1.714895e-04	
3	1.500000e-01	1.626285e-04	
4	2.000000e-01	1.538134e-04	
5	2.500000e-01	1.450441e-04	
6	3.000000e-01	1.363204e-04	
7	3.500000e-01	1.276423e-04	
8	4.000000e-01	1.190100e-04	
9	4.500000e-01	1.104237e-04	
10	5.000000e-01	1.018840e-04	
11	5.500000e-01	9.339205e-05	
12	6.000000e-01	8.494963e-05	
13	6.500000e-01	7.655999e-05	
14	7.000000e-01	6.822881e-05	
15	7.500000e-01	5.996631e-05	
16	8.000000e-01	5.179150e-05	
17	8.500000e-01	4.374064e-05	
18	9.000000e-01	3.588410e-05	
19	9.500000e-01	2.835676e-05	
20	1.000000e+00	2.139827e-05	
21	1.050000e+00	1.536059e-05	
22	1.100000e+00	1.059007e-05	
23	1.150000e+00	7.198257e-06	
24	1.200000e+00	4.979346e-06	
25	1.250000e+00	3.583051e-06	
26	1.300000e+00	2.702563e-06	
27	1.350000e+00	2.132288e-06	
28	1.400000e+00	1.749062e-06	
29	1.450000e+00	1.481458e-06	
30	1.500000e+00	1.287754e-06	
31	1.550000e+00	1.142976e-06	
32	1.600000e+00	1.031693e-06	
33	1.650000e+00	9.440596e-07	
34	1.700000e+00	8.735907e-07	
35	1.750000e+00	8.158899e-07	
36	1.800000e+00	7.678958e-07	
37	1.850000e+00	7.274250e-07	
38	1.900000e+00	6.928861e-07	
39	1.950000e+00	6.630962e-07	
40	2.000000e+00	6.371607e-07	
41	2.050000e+00	6.143918e-07	
42	2.100000e+00	5.942533e-07	
43	2.150000e+00	5.763216e-07	
44	2.200000e+00	5.602581e-07	
45	2.250000e+00	5.457891e-07	
46	2.300000e+00	5.326913e-07	
47	2.350000e+00	5.207806e-07	
48	2.400000e+00	5.099044e-07	
49	2.450000e+00	4.999345e-07	
50	2.500000e+00	4.907633e-07	
51	2.550000e+00	4.822991e-07	
52	2.600000e+00	4.744638e-07	
53	2.650000e+00	4.671903e-07	
54	2.700000e+00	4.604205e-07	

Index   v-sweep         rds             
--------------------------------------------------------------------------------
55	2.750000e+00	4.541043e-07	
56	2.800000e+00	4.481977e-07	
57	2.850000e+00	4.426624e-07	
58	2.900000e+00	4.374645e-07	
59	2.950000e+00	4.325742e-07	
60	3.000000e+00	4.279652e-07	
61	3.050000e+00	4.236139e-07	
62	3.100000e+00	4.194994e-07	
63	3.150000e+00	4.156030e-07	
64	3.200000e+00	4.119077e-07	
65	3.250000e+00	4.083985e-07	
66	3.300000e+00	4.050618e-07	
67	3.350000e+00	4.018850e-07	
68	3.400000e+00	3.988571e-07	
69	3.450000e+00	3.959678e-07	
70	3.500000e+00	3.932079e-07	
71	3.550000e+00	3.905688e-07	
72	3.600000e+00	3.880429e-07	
73	3.650000e+00	3.856230e-07	
74	3.700000e+00	3.833026e-07	
75	3.750000e+00	3.810758e-07	
76	3.800000e+00	3.789369e-07	
77	3.850000e+00	3.768808e-07	
78	3.900000e+00	3.749030e-07	
79	3.950000e+00	3.729990e-07	
80	4.000000e+00	3.711647e-07	
81	4.050000e+00	3.693964e-07	
82	4.100000e+00	3.676906e-07	
83	4.150000e+00	3.660441e-07	
84	4.200000e+00	3.644539e-07	
85	4.250000e+00	3.629170e-07	
86	4.300000e+00	3.614309e-07	
87	4.350000e+00	3.599931e-07	
88	4.400000e+00	3.586013e-07	
89	4.450000e+00	3.572534e-07	
90	4.500000e+00	3.559472e-07	
91	4.550000e+00	3.546809e-07	
92	4.600000e+00	3.534527e-07	
93	4.650000e+00	3.522609e-07	
94	4.700000e+00	3.511039e-07	
95	4.750000e+00	3.499802e-07	
96	4.800000e+00	3.488885e-07	
97	4.850000e+00	3.478272e-07	
98	4.900000e+00	3.467953e-07	
99	4.950000e+00	3.457915e-07	
100	5.000000e+00	3.448147e-07	
101	5.050000e+00	3.438638e-07	
102	5.100000e+00	3.429378e-07	
103	5.150000e+00	3.420357e-07	
104	5.200000e+00	3.411566e-07	
105	5.250000e+00	3.402997e-07	
106	5.300000e+00	3.394641e-07	
107	5.350000e+00	3.386491e-07	
108	5.400000e+00	3.378539e-07	
109	5.450000e+00	3.370777e-07	
110	5.500000e+00	3.363200e-07	
111	5.550000e+00	3.355800e-07	
112	5.600000e+00	3.348572e-07	

Index   v-sweep         rds             
--------------------------------------------------------------------------------
113	5.650000e+00	3.341510e-07	
114	5.700000e+00	3.334607e-07	
115	5.750000e+00	3.327860e-07	
116	5.800000e+00	3.321262e-07	
117	5.850000e+00	3.314808e-07	
118	5.900000e+00	3.308495e-07	
119	5.950000e+00	3.302317e-07	
120	6.000000e+00	3.296270e-07	
121	6.050000e+00	3.290350e-07	
122	6.100000e+00	3.284554e-07	
123	6.150000e+00	3.278877e-07	
124	6.200000e+00	3.273316e-07	
125	6.250000e+00	3.267866e-07	
126	6.300000e+00	3.262526e-07	
127	6.350000e+00	3.257292e-07	
128	6.400000e+00	3.252160e-07	
129	6.450000e+00	3.247128e-07	
130	6.500000e+00	3.242192e-07	
131	6.550000e+00	3.237350e-07	
132	6.600000e+00	3.232600e-07	
Reset re-loads circuit ***************************

Circuit: ***************************

Doing analysis at TEMP = 125.000000 and TNOM = 125.000000


No. of Data Rows : 133
                          ***************************
                          DC transfer characteristic  Mon Jan  9 13:58:39  2023
--------------------------------------------------------------------------------
Index   v-sweep         rds             
--------------------------------------------------------------------------------
0	0.000000e+00	2.960740e-04	
1	5.000000e-02	2.875491e-04	
2	1.000000e-01	2.790669e-04	
3	1.500000e-01	2.706269e-04	
4	2.000000e-01	2.622291e-04	
5	2.500000e-01	2.538731e-04	
6	3.000000e-01	2.455586e-04	
7	3.500000e-01	2.372855e-04	
8	4.000000e-01	2.290534e-04	
9	4.500000e-01	2.208621e-04	
10	5.000000e-01	2.127113e-04	
11	5.500000e-01	2.046008e-04	
12	6.000000e-01	1.965304e-04	
13	6.500000e-01	1.884998e-04	
14	7.000000e-01	1.805088e-04	
15	7.500000e-01	1.725572e-04	
16	8.000000e-01	1.646447e-04	
17	8.500000e-01	1.567712e-04	
18	9.000000e-01	1.489364e-04	
19	9.500000e-01	1.411402e-04	
20	1.000000e+00	1.333825e-04	
21	1.050000e+00	1.256632e-04	
22	1.100000e+00	1.179823e-04	
23	1.150000e+00	1.103400e-04	
24	1.200000e+00	1.027366e-04	
25	1.250000e+00	9.517278e-05	
26	1.300000e+00	8.764987e-05	
27	1.350000e+00	8.017016e-05	
28	1.400000e+00	7.273773e-05	
29	1.450000e+00	6.535988e-05	
30	1.500000e+00	5.804980e-05	
31	1.550000e+00	5.083136e-05	
32	1.600000e+00	4.374768e-05	
33	1.650000e+00	3.687455e-05	
34	1.700000e+00	3.033687e-05	
35	1.750000e+00	2.431667e-05	
36	1.800000e+00	1.902829e-05	
37	1.850000e+00	1.464583e-05	
38	1.900000e+00	1.122161e-05	
39	1.950000e+00	8.668092e-06	
40	2.000000e+00	6.814658e-06	
41	2.050000e+00	5.479729e-06	
42	2.100000e+00	4.511953e-06	
43	2.150000e+00	3.799746e-06	
44	2.200000e+00	3.265568e-06	
45	2.250000e+00	2.856775e-06	
46	2.300000e+00	2.537724e-06	
47	2.350000e+00	2.284086e-06	
48	2.400000e+00	2.079021e-06	
49	2.450000e+00	1.910680e-06	
50	2.500000e+00	1.770577e-06	
51	2.550000e+00	1.652533e-06	
52	2.600000e+00	1.551972e-06	
53	2.650000e+00	1.465452e-06	
54	2.700000e+00	1.390347e-06	

Index   v-sweep         rds             
--------------------------------------------------------------------------------
55	2.750000e+00	1.324624e-06	
56	2.800000e+00	1.266693e-06	
57	2.850000e+00	1.215291e-06	
58	2.900000e+00	1.169408e-06	
59	2.950000e+00	1.128226e-06	
60	3.000000e+00	1.091079e-06	
61	3.050000e+00	1.057415e-06	
62	3.100000e+00	1.026780e-06	
63	3.150000e+00	9.987911e-07	
64	3.200000e+00	9.731273e-07	
65	3.250000e+00	9.495164e-07	
66	3.300000e+00	9.277264e-07	
67	3.350000e+00	9.075582e-07	
68	3.400000e+00	8.888406e-07	
69	3.450000e+00	8.714250e-07	
70	3.500000e+00	8.551824e-07	
71	3.550000e+00	8.399999e-07	
72	3.600000e+00	8.257785e-07	
73	3.650000e+00	8.124310e-07	
74	3.700000e+00	7.998804e-07	
75	3.750000e+00	7.880582e-07	
76	3.800000e+00	7.769036e-07	
77	3.850000e+00	7.663622e-07	
78	3.900000e+00	7.563855e-07	
79	3.950000e+00	7.469298e-07	
80	4.000000e+00	7.379556e-07	
81	4.050000e+00	7.294275e-07	
82	4.100000e+00	7.213134e-07	
83	4.150000e+00	7.135841e-07	
84	4.200000e+00	7.062131e-07	
85	4.250000e+00	6.991764e-07	
86	4.300000e+00	6.924518e-07	
87	4.350000e+00	6.860192e-07	
88	4.400000e+00	6.798602e-07	
89	4.450000e+00	6.739578e-07	
90	4.500000e+00	6.682965e-07	
91	4.550000e+00	6.628618e-07	
92	4.600000e+00	6.576405e-07	
93	4.650000e+00	6.526204e-07	
94	4.700000e+00	6.477902e-07	
95	4.750000e+00	6.431393e-07	
96	4.800000e+00	6.386580e-07	
97	4.850000e+00	6.343373e-07	
98	4.900000e+00	6.301688e-07	
99	4.950000e+00	6.261445e-07	
100	5.000000e+00	6.222572e-07	
101	5.050000e+00	6.185001e-07	
102	5.100000e+00	6.148667e-07	
103	5.150000e+00	6.113512e-07	
104	5.200000e+00	6.079477e-07	
105	5.250000e+00	6.046513e-07	
106	5.300000e+00	6.014568e-07	
107	5.350000e+00	5.983596e-07	
108	5.400000e+00	5.953555e-07	
109	5.450000e+00	5.924402e-07	
110	5.500000e+00	5.896100e-07	
111	5.550000e+00	5.868612e-07	
112	5.600000e+00	5.841903e-07	

Index   v-sweep         rds             
--------------------------------------------------------------------------------
113	5.650000e+00	5.815941e-07	
114	5.700000e+00	5.790696e-07	
115	5.750000e+00	5.766137e-07	
116	5.800000e+00	5.742238e-07	
117	5.850000e+00	5.718973e-07	
118	5.900000e+00	5.696316e-07	
119	5.950000e+00	5.674245e-07	
120	6.000000e+00	5.652737e-07	
121	6.050000e+00	5.631771e-07	
122	6.100000e+00	5.611327e-07	
123	6.150000e+00	5.591386e-07	
124	6.200000e+00	5.571929e-07	
125	6.250000e+00	5.552939e-07	
126	6.300000e+00	5.534400e-07	
127	6.350000e+00	5.516296e-07	
128	6.400000e+00	5.498611e-07	
129	6.450000e+00	5.481332e-07	
130	6.500000e+00	5.464445e-07	
131	6.550000e+00	5.447937e-07	
132	6.600000e+00	5.431795e-07	
Reset re-loads circuit ***************************

Circuit: ***************************

Doing analysis at TEMP = 125.000000 and TNOM = 125.000000


No. of Data Rows : 133
                          ***************************
                          DC transfer characteristic  Mon Jan  9 13:58:39  2023
--------------------------------------------------------------------------------
Index   v-sweep         rds             
--------------------------------------------------------------------------------
0	0.000000e+00	3.799687e-04	
1	5.000000e-02	3.720886e-04	
2	1.000000e-01	3.642455e-04	
3	1.500000e-01	3.564390e-04	
4	2.000000e-01	3.486690e-04	
5	2.500000e-01	3.409353e-04	
6	3.000000e-01	3.332376e-04	
7	3.500000e-01	3.255758e-04	
8	4.000000e-01	3.179495e-04	
9	4.500000e-01	3.103587e-04	
10	5.000000e-01	3.028031e-04	
11	5.500000e-01	2.952824e-04	
12	6.000000e-01	2.877965e-04	
13	6.500000e-01	2.803452e-04	
14	7.000000e-01	2.729282e-04	
15	7.500000e-01	2.655453e-04	
16	8.000000e-01	2.581964e-04	
17	8.500000e-01	2.508812e-04	
18	9.000000e-01	2.435996e-04	
19	9.500000e-01	2.363513e-04	
20	1.000000e+00	2.291360e-04	
21	1.050000e+00	2.219537e-04	
22	1.100000e+00	2.148041e-04	
23	1.150000e+00	2.076869e-04	
24	1.200000e+00	2.006020e-04	
25	1.250000e+00	1.935492e-04	
26	1.300000e+00	1.865282e-04	
27	1.350000e+00	1.795388e-04	
28	1.400000e+00	1.725807e-04	
29	1.450000e+00	1.656538e-04	
30	1.500000e+00	1.587577e-04	
31	1.550000e+00	1.518923e-04	
32	1.600000e+00	1.450571e-04	
33	1.650000e+00	1.382520e-04	
34	1.700000e+00	1.314765e-04	
35	1.750000e+00	1.247303e-04	
36	1.800000e+00	1.180131e-04	
37	1.850000e+00	1.113244e-04	
38	1.900000e+00	1.046639e-04	
39	1.950000e+00	9.803122e-05	
40	2.000000e+00	9.142611e-05	
41	2.050000e+00	8.484869e-05	
42	2.100000e+00	7.829970e-05	
43	2.150000e+00	7.178119e-05	
44	2.200000e+00	6.529776e-05	
45	2.250000e+00	5.885883e-05	
46	2.300000e+00	5.248257e-05	
47	2.350000e+00	4.620234e-05	
48	2.400000e+00	4.007566e-05	
49	2.450000e+00	3.419353e-05	
50	2.500000e+00	2.868282e-05	
51	2.550000e+00	2.369076e-05	
52	2.600000e+00	1.934725e-05	
53	2.650000e+00	1.572123e-05	
54	2.700000e+00	1.280044e-05	

Index   v-sweep         rds             
--------------------------------------------------------------------------------
55	2.750000e+00	1.050649e-05	
56	2.800000e+00	8.729157e-06	
57	2.850000e+00	7.356678e-06	
58	2.900000e+00	6.292429e-06	
59	2.950000e+00	5.459806e-06	
60	3.000000e+00	4.800855e-06	
61	3.050000e+00	4.272725e-06	
62	3.100000e+00	3.843991e-06	
63	3.150000e+00	3.491592e-06	
64	3.200000e+00	3.198508e-06	
65	3.250000e+00	2.952067e-06	
66	3.300000e+00	2.742735e-06	
67	3.350000e+00	2.563260e-06	
68	3.400000e+00	2.408063e-06	
69	3.450000e+00	2.272806e-06	
70	3.500000e+00	2.154081e-06	
71	3.550000e+00	2.049179e-06	
72	3.600000e+00	1.955933e-06	
73	3.650000e+00	1.872586e-06	
74	3.700000e+00	1.797706e-06	
75	3.750000e+00	1.730116e-06	
76	3.800000e+00	1.668841e-06	
77	3.850000e+00	1.613065e-06	
78	3.900000e+00	1.562106e-06	
79	3.950000e+00	1.515385e-06	
80	4.000000e+00	1.472410e-06	
81	4.050000e+00	1.432762e-06	
82	4.100000e+00	1.396079e-06	
83	4.150000e+00	1.362049e-06	
84	4.200000e+00	1.330402e-06	
85	4.250000e+00	1.300903e-06	
86	4.300000e+00	1.273345e-06	
87	4.350000e+00	1.247546e-06	
88	4.400000e+00	1.223348e-06	
89	4.450000e+00	1.200608e-06	
90	4.500000e+00	1.179202e-06	
91	4.550000e+00	1.159018e-06	
92	4.600000e+00	1.139955e-06	
93	4.650000e+00	1.121926e-06	
94	4.700000e+00	1.104849e-06	
95	4.750000e+00	1.088652e-06	
96	4.800000e+00	1.073270e-06	
97	4.850000e+00	1.058644e-06	
98	4.900000e+00	1.044720e-06	
99	4.950000e+00	1.031450e-06	
100	5.000000e+00	1.018790e-06	
101	5.050000e+00	1.006699e-06	
102	5.100000e+00	9.951393e-07	
103	5.150000e+00	9.840779e-07	
104	5.200000e+00	9.734836e-07	
105	5.250000e+00	9.633278e-07	
106	5.300000e+00	9.535840e-07	
107	5.350000e+00	9.442280e-07	
108	5.400000e+00	9.352373e-07	
109	5.450000e+00	9.265914e-07	
110	5.500000e+00	9.182708e-07	
111	5.550000e+00	9.102578e-07	
112	5.600000e+00	9.025358e-07	

Index   v-sweep         rds             
--------------------------------------------------------------------------------
113	5.650000e+00	8.950894e-07	
114	5.700000e+00	8.879043e-07	
115	5.750000e+00	8.809670e-07	
116	5.800000e+00	8.742652e-07	
117	5.850000e+00	8.677871e-07	
118	5.900000e+00	8.615219e-07	
119	5.950000e+00	8.554592e-07	
120	6.000000e+00	8.495896e-07	
121	6.050000e+00	8.439040e-07	
122	6.100000e+00	8.383941e-07	
123	6.150000e+00	8.330518e-07	
124	6.200000e+00	8.278697e-07	
125	6.250000e+00	8.228407e-07	
126	6.300000e+00	8.179583e-07	
127	6.350000e+00	8.132161e-07	
128	6.400000e+00	8.086083e-07	
129	6.450000e+00	8.041293e-07	
130	6.500000e+00	7.997739e-07	
131	6.550000e+00	7.955369e-07	
132	6.600000e+00	7.914137e-07	
Reset re-loads circuit ***************************

Circuit: ***************************

Doing analysis at TEMP = 125.000000 and TNOM = 125.000000


No. of Data Rows : 133
                          ***************************
                          DC transfer characteristic  Mon Jan  9 13:58:39  2023
--------------------------------------------------------------------------------
Index   v-sweep         rds             
--------------------------------------------------------------------------------
0	0.000000e+00	4.429540e-04	
1	5.000000e-02	4.358087e-04	
2	1.000000e-01	4.286942e-04	
3	1.500000e-01	4.216103e-04	
4	2.000000e-01	4.145569e-04	
5	2.500000e-01	4.075338e-04	
6	3.000000e-01	4.005408e-04	
7	3.500000e-01	3.935777e-04	
8	4.000000e-01	3.866445e-04	
9	4.500000e-01	3.797409e-04	
10	5.000000e-01	3.728668e-04	
11	5.500000e-01	3.660220e-04	
12	6.000000e-01	3.592064e-04	
13	6.500000e-01	3.524197e-04	
14	7.000000e-01	3.456619e-04	
15	7.500000e-01	3.389328e-04	
16	8.000000e-01	3.322322e-04	
17	8.500000e-01	3.255599e-04	
18	9.000000e-01	3.189159e-04	
19	9.500000e-01	3.122998e-04	
20	1.000000e+00	3.057117e-04	
21	1.050000e+00	2.991514e-04	
22	1.100000e+00	2.926186e-04	
23	1.150000e+00	2.861132e-04	
24	1.200000e+00	2.796351e-04	
25	1.250000e+00	2.731841e-04	
26	1.300000e+00	2.667601e-04	
27	1.350000e+00	2.603629e-04	
28	1.400000e+00	2.539923e-04	
29	1.450000e+00	2.476483e-04	
30	1.500000e+00	2.413305e-04	
31	1.550000e+00	2.350390e-04	
32	1.600000e+00	2.287734e-04	
33	1.650000e+00	2.225337e-04	
34	1.700000e+00	2.163197e-04	
35	1.750000e+00	2.101312e-04	
36	1.800000e+00	2.039680e-04	
37	1.850000e+00	1.978299e-04	
38	1.900000e+00	1.917168e-04	
39	1.950000e+00	1.856285e-04	
40	2.000000e+00	1.795646e-04	
41	2.050000e+00	1.735251e-04	
42	2.100000e+00	1.675096e-04	
43	2.150000e+00	1.615179e-04	
44	2.200000e+00	1.555496e-04	
45	2.250000e+00	1.496045e-04	
46	2.300000e+00	1.436822e-04	
47	2.350000e+00	1.377822e-04	
48	2.400000e+00	1.319040e-04	
49	2.450000e+00	1.260470e-04	
50	2.500000e+00	1.202107e-04	
51	2.550000e+00	1.143941e-04	
52	2.600000e+00	1.085963e-04	
53	2.650000e+00	1.028163e-04	
54	2.700000e+00	9.705282e-05	

Index   v-sweep         rds             
--------------------------------------------------------------------------------
55	2.750000e+00	9.130435e-05	
56	2.800000e+00	8.556941e-05	
57	2.850000e+00	7.984654e-05	
58	2.900000e+00	7.413469e-05	
59	2.950000e+00	6.843401e-05	
60	3.000000e+00	6.274720e-05	
61	3.050000e+00	5.708192e-05	
62	3.100000e+00	5.145484e-05	
63	3.150000e+00	4.589732e-05	
64	3.200000e+00	4.046218e-05	
65	3.250000e+00	3.522839e-05	
66	3.300000e+00	3.029855e-05	
67	3.350000e+00	2.578389e-05	
68	3.400000e+00	2.177864e-05	
69	3.450000e+00	1.833518e-05	
70	3.500000e+00	1.545378e-05	
71	3.550000e+00	1.309057e-05	
72	3.600000e+00	1.117596e-05	
73	3.650000e+00	9.632808e-06	
74	3.700000e+00	8.388556e-06	
75	3.750000e+00	7.380953e-06	
76	3.800000e+00	6.559380e-06	
77	3.850000e+00	5.883920e-06	
78	3.900000e+00	5.323595e-06	
79	3.950000e+00	4.854525e-06	
80	4.000000e+00	4.458318e-06	
81	4.050000e+00	4.120763e-06	
82	4.100000e+00	3.830824e-06	
83	4.150000e+00	3.579869e-06	
84	4.200000e+00	3.361096e-06	
85	4.250000e+00	3.169106e-06	
86	4.300000e+00	2.999573e-06	
87	4.350000e+00	2.849010e-06	
88	4.400000e+00	2.714579e-06	
89	4.450000e+00	2.593958e-06	
90	4.500000e+00	2.485229e-06	
91	4.550000e+00	2.386800e-06	
92	4.600000e+00	2.297341e-06	
93	4.650000e+00	2.215731e-06	
94	4.700000e+00	2.141025e-06	
95	4.750000e+00	2.072415e-06	
96	4.800000e+00	2.009214e-06	
97	4.850000e+00	1.950829e-06	
98	4.900000e+00	1.896749e-06	
99	4.950000e+00	1.846531e-06	
100	5.000000e+00	1.799789e-06	
101	5.050000e+00	1.756185e-06	
102	5.100000e+00	1.715422e-06	
103	5.150000e+00	1.677240e-06	
104	5.200000e+00	1.641408e-06	
105	5.250000e+00	1.607722e-06	
106	5.300000e+00	1.575998e-06	
107	5.350000e+00	1.546075e-06	
108	5.400000e+00	1.517808e-06	
109	5.450000e+00	1.491065e-06	
110	5.500000e+00	1.465730e-06	
111	5.550000e+00	1.441696e-06	
112	5.600000e+00	1.418869e-06	

Index   v-sweep         rds             
--------------------------------------------------------------------------------
113	5.650000e+00	1.397160e-06	
114	5.700000e+00	1.376493e-06	
115	5.750000e+00	1.356794e-06	
116	5.800000e+00	1.338000e-06	
117	5.850000e+00	1.320049e-06	
118	5.900000e+00	1.302887e-06	
119	5.950000e+00	1.286466e-06	
120	6.000000e+00	1.270737e-06	
121	6.050000e+00	1.255660e-06	
122	6.100000e+00	1.241195e-06	
123	6.150000e+00	1.227306e-06	
124	6.200000e+00	1.213961e-06	
125	6.250000e+00	1.201127e-06	
126	6.300000e+00	1.188777e-06	
127	6.350000e+00	1.176885e-06	
128	6.400000e+00	1.165425e-06	
129	6.450000e+00	1.154376e-06	
130	6.500000e+00	1.143715e-06	
131	6.550000e+00	1.133422e-06	
132	6.600000e+00	1.123480e-06	
Reset re-loads circuit ***************************

Circuit: ***************************

Doing analysis at TEMP = 125.000000 and TNOM = 125.000000


No. of Data Rows : 133
                          ***************************
                          DC transfer characteristic  Mon Jan  9 13:58:39  2023
--------------------------------------------------------------------------------
Index   v-sweep         rds             
--------------------------------------------------------------------------------
0	0.000000e+00	4.876317e-04	
1	5.000000e-02	4.812420e-04	
2	1.000000e-01	4.748773e-04	
3	1.500000e-01	4.685376e-04	
4	2.000000e-01	4.622227e-04	
5	2.500000e-01	4.559326e-04	
6	3.000000e-01	4.496670e-04	
7	3.500000e-01	4.434259e-04	
8	4.000000e-01	4.372091e-04	
9	4.500000e-01	4.310166e-04	
10	5.000000e-01	4.248481e-04	
11	5.500000e-01	4.187036e-04	
12	6.000000e-01	4.125830e-04	
13	6.500000e-01	4.064862e-04	
14	7.000000e-01	4.004129e-04	
15	7.500000e-01	3.943632e-04	
16	8.000000e-01	3.883368e-04	
17	8.500000e-01	3.823338e-04	
18	9.000000e-01	3.763538e-04	
19	9.500000e-01	3.703970e-04	
20	1.000000e+00	3.644630e-04	
21	1.050000e+00	3.585519e-04	
22	1.100000e+00	3.526634e-04	
23	1.150000e+00	3.467976e-04	
24	1.200000e+00	3.409542e-04	
25	1.250000e+00	3.351332e-04	
26	1.300000e+00	3.293344e-04	
27	1.350000e+00	3.235578e-04	
28	1.400000e+00	3.178032e-04	
29	1.450000e+00	3.120705e-04	
30	1.500000e+00	3.063596e-04	
31	1.550000e+00	3.006705e-04	
32	1.600000e+00	2.950028e-04	
33	1.650000e+00	2.893567e-04	
34	1.700000e+00	2.837319e-04	
35	1.750000e+00	2.781284e-04	
36	1.800000e+00	2.725460e-04	
37	1.850000e+00	2.669846e-04	
38	1.900000e+00	2.614442e-04	
39	1.950000e+00	2.559245e-04	
40	2.000000e+00	2.504255e-04	
41	2.050000e+00	2.449471e-04	
42	2.100000e+00	2.394891e-04	
43	2.150000e+00	2.340515e-04	
44	2.200000e+00	2.286341e-04	
45	2.250000e+00	2.232367e-04	
46	2.300000e+00	2.178593e-04	
47	2.350000e+00	2.125018e-04	
48	2.400000e+00	2.071639e-04	
49	2.450000e+00	2.018455e-04	
50	2.500000e+00	1.965466e-04	
51	2.550000e+00	1.912668e-04	
52	2.600000e+00	1.860062e-04	
53	2.650000e+00	1.807644e-04	
54	2.700000e+00	1.755413e-04	

Index   v-sweep         rds             
--------------------------------------------------------------------------------
55	2.750000e+00	1.703366e-04	
56	2.800000e+00	1.651503e-04	
57	2.850000e+00	1.599818e-04	
58	2.900000e+00	1.548311e-04	
59	2.950000e+00	1.496977e-04	
60	3.000000e+00	1.445813e-04	
61	3.050000e+00	1.394814e-04	
62	3.100000e+00	1.343976e-04	
63	3.150000e+00	1.293292e-04	
64	3.200000e+00	1.242755e-04	
65	3.250000e+00	1.192357e-04	
66	3.300000e+00	1.142088e-04	
67	3.350000e+00	1.091937e-04	
68	3.400000e+00	1.041889e-04	
69	3.450000e+00	9.919264e-05	
70	3.500000e+00	9.420299e-05	
71	3.550000e+00	8.921758e-05	
72	3.600000e+00	8.423369e-05	
73	3.650000e+00	7.924840e-05	
74	3.700000e+00	7.425876e-05	
75	3.750000e+00	6.926231e-05	
76	3.800000e+00	6.425815e-05	
77	3.850000e+00	5.924862e-05	
78	3.900000e+00	5.424216e-05	
79	3.950000e+00	4.925737e-05	
80	4.000000e+00	4.432790e-05	
81	4.050000e+00	3.950660e-05	
82	4.100000e+00	3.486615e-05	
83	4.150000e+00	3.049265e-05	
84	4.200000e+00	2.647154e-05	
85	4.250000e+00	2.286986e-05	
86	4.300000e+00	1.972264e-05	
87	4.350000e+00	1.702929e-05	
88	4.400000e+00	1.475992e-05	
89	4.450000e+00	1.286675e-05	
90	4.500000e+00	1.129509e-05	
91	4.550000e+00	9.991361e-06	
92	4.600000e+00	8.907417e-06	
93	4.650000e+00	8.002247e-06	
94	4.700000e+00	7.242030e-06	
95	4.750000e+00	6.599399e-06	
96	4.800000e+00	6.052436e-06	
97	4.850000e+00	5.583669e-06	
98	4.900000e+00	5.179173e-06	
99	4.950000e+00	4.827829e-06	
100	5.000000e+00	4.520725e-06	
101	5.050000e+00	4.250680e-06	
102	5.100000e+00	4.011881e-06	
103	5.150000e+00	3.799588e-06	
104	5.200000e+00	3.609919e-06	
105	5.250000e+00	3.439671e-06	
106	5.300000e+00	3.286185e-06	
107	5.350000e+00	3.147245e-06	
108	5.400000e+00	3.020989e-06	
109	5.450000e+00	2.905846e-06	
110	5.500000e+00	2.800484e-06	
111	5.550000e+00	2.703766e-06	
112	5.600000e+00	2.614719e-06	

Index   v-sweep         rds             
--------------------------------------------------------------------------------
113	5.650000e+00	2.532504e-06	
114	5.700000e+00	2.456398e-06	
115	5.750000e+00	2.385771e-06	
116	5.800000e+00	2.320075e-06	
117	5.850000e+00	2.258831e-06	
118	5.900000e+00	2.201616e-06	
119	5.950000e+00	2.148060e-06	
120	6.000000e+00	2.097835e-06	
121	6.050000e+00	2.050648e-06	
122	6.100000e+00	2.006241e-06	
123	6.150000e+00	1.964383e-06	
124	6.200000e+00	1.924867e-06	
125	6.250000e+00	1.887507e-06	
126	6.300000e+00	1.852136e-06	
127	6.350000e+00	1.818604e-06	
128	6.400000e+00	1.786775e-06	
129	6.450000e+00	1.756525e-06	
130	6.500000e+00	1.727743e-06	
131	6.550000e+00	1.700327e-06	
132	6.600000e+00	1.674184e-06	
Reset re-loads circuit ***************************

Circuit: ***************************

Note: No ".plot", ".print", or ".fourier" lines; no simulations run
