
Note: Compatibility modes selected: hs

Warning: m=xx on .subckt line will override multiplier m hierarchy!


Circuit: ***************************

Doing analysis at TEMP = 125.000000 and TNOM = 125.000000


No. of Data Rows : 133
                          ***************************
                          DC transfer characteristic  Mon Jan  9 13:58:40  2023
--------------------------------------------------------------------------------
Index   v-sweep         rds             
--------------------------------------------------------------------------------
0	0.000000e+00	2.726817e-05	
1	5.000000e-02	2.370250e-05	
2	1.000000e-01	2.021866e-05	
3	1.500000e-01	1.682245e-05	
4	2.000000e-01	1.353020e-05	
5	2.500000e-01	1.038691e-05	
6	3.000000e-01	7.514908e-06	
7	3.500000e-01	5.184742e-06	
8	4.000000e-01	3.677960e-06	
9	4.500000e-01	2.881375e-06	
10	5.000000e-01	2.453294e-06	
11	5.500000e-01	2.186114e-06	
12	6.000000e-01	1.996713e-06	
13	6.500000e-01	1.851733e-06	
14	7.000000e-01	1.735624e-06	
15	7.500000e-01	1.639917e-06	
16	8.000000e-01	1.559419e-06	
17	8.500000e-01	1.490672e-06	
18	9.000000e-01	1.431244e-06	
19	9.500000e-01	1.379353e-06	
20	1.000000e+00	1.333654e-06	
21	1.050000e+00	1.293111e-06	
22	1.100000e+00	1.256908e-06	
23	1.150000e+00	1.224393e-06	
24	1.200000e+00	1.195042e-06	
25	1.250000e+00	1.168421e-06	
26	1.300000e+00	1.144177e-06	
27	1.350000e+00	1.122011e-06	
28	1.400000e+00	1.101675e-06	
29	1.450000e+00	1.082957e-06	
30	1.500000e+00	1.065678e-06	
31	1.550000e+00	1.049681e-06	
32	1.600000e+00	1.034835e-06	
33	1.650000e+00	1.021024e-06	
34	1.700000e+00	1.008147e-06	
35	1.750000e+00	9.961161e-07	
36	1.800000e+00	9.848533e-07	
37	1.850000e+00	9.742906e-07	
38	1.900000e+00	9.643673e-07	
39	1.950000e+00	9.550296e-07	
40	2.000000e+00	9.462294e-07	
41	2.050000e+00	9.379238e-07	
42	2.100000e+00	9.300742e-07	
43	2.150000e+00	9.226458e-07	
44	2.200000e+00	9.156074e-07	
45	2.250000e+00	9.089307e-07	
46	2.300000e+00	9.025899e-07	
47	2.350000e+00	8.965617e-07	
48	2.400000e+00	8.908249e-07	
49	2.450000e+00	8.853601e-07	
50	2.500000e+00	8.801494e-07	
51	2.550000e+00	8.751768e-07	
52	2.600000e+00	8.704272e-07	
53	2.650000e+00	8.658869e-07	
54	2.700000e+00	8.615433e-07	

Index   v-sweep         rds             
--------------------------------------------------------------------------------
55	2.750000e+00	8.573848e-07	
56	2.800000e+00	8.534006e-07	
57	2.850000e+00	8.495806e-07	
58	2.900000e+00	8.459158e-07	
59	2.950000e+00	8.423975e-07	
60	3.000000e+00	8.390177e-07	
61	3.050000e+00	8.357691e-07	
62	3.100000e+00	8.326448e-07	
63	3.150000e+00	8.296383e-07	
64	3.200000e+00	8.267436e-07	
65	3.250000e+00	8.239551e-07	
66	3.300000e+00	8.212676e-07	
67	3.350000e+00	8.186762e-07	
68	3.400000e+00	8.161762e-07	
69	3.450000e+00	8.137632e-07	
70	3.500000e+00	8.114334e-07	
71	3.550000e+00	8.091827e-07	
72	3.600000e+00	8.070077e-07	
73	3.650000e+00	8.049049e-07	
74	3.700000e+00	8.028711e-07	
75	3.750000e+00	8.009034e-07	
76	3.800000e+00	7.989988e-07	
77	3.850000e+00	7.971547e-07	
78	3.900000e+00	7.953686e-07	
79	3.950000e+00	7.936379e-07	
80	4.000000e+00	7.919606e-07	
81	4.050000e+00	7.903343e-07	
82	4.100000e+00	7.887571e-07	
83	4.150000e+00	7.872269e-07	
84	4.200000e+00	7.857421e-07	
85	4.250000e+00	7.843007e-07	
86	4.300000e+00	7.829011e-07	
87	4.350000e+00	7.815418e-07	
88	4.400000e+00	7.802212e-07	
89	4.450000e+00	7.789379e-07	
90	4.500000e+00	7.776906e-07	
91	4.550000e+00	7.764778e-07	
92	4.600000e+00	7.752984e-07	
93	4.650000e+00	7.741511e-07	
94	4.700000e+00	7.730349e-07	
95	4.750000e+00	7.719487e-07	
96	4.800000e+00	7.708913e-07	
97	4.850000e+00	7.698619e-07	
98	4.900000e+00	7.688595e-07	
99	4.950000e+00	7.678830e-07	
100	5.000000e+00	7.669318e-07	
101	5.050000e+00	7.660049e-07	
102	5.100000e+00	7.651016e-07	
103	5.150000e+00	7.642210e-07	
104	5.200000e+00	7.633625e-07	
105	5.250000e+00	7.625253e-07	
106	5.300000e+00	7.617088e-07	
107	5.350000e+00	7.609122e-07	
108	5.400000e+00	7.601351e-07	
109	5.450000e+00	7.593767e-07	
110	5.500000e+00	7.586365e-07	
111	5.550000e+00	7.579139e-07	
112	5.600000e+00	7.572084e-07	

Index   v-sweep         rds             
--------------------------------------------------------------------------------
113	5.650000e+00	7.565196e-07	
114	5.700000e+00	7.558468e-07	
115	5.750000e+00	7.551896e-07	
116	5.800000e+00	7.545475e-07	
117	5.850000e+00	7.539202e-07	
118	5.900000e+00	7.533071e-07	
119	5.950000e+00	7.527079e-07	
120	6.000000e+00	7.521221e-07	
121	6.050000e+00	7.515494e-07	
122	6.100000e+00	7.509894e-07	
123	6.150000e+00	7.504417e-07	
124	6.200000e+00	7.499060e-07	
125	6.250000e+00	7.493820e-07	
126	6.300000e+00	7.488693e-07	
127	6.350000e+00	7.483676e-07	
128	6.400000e+00	7.478766e-07	
129	6.450000e+00	7.473960e-07	
130	6.500000e+00	7.469256e-07	
131	6.550000e+00	7.464650e-07	
132	6.600000e+00	7.460140e-07	
Reset re-loads circuit ***************************

Circuit: ***************************

Doing analysis at TEMP = 125.000000 and TNOM = 125.000000


No. of Data Rows : 133
                          ***************************
                          DC transfer characteristic  Mon Jan  9 13:58:40  2023
--------------------------------------------------------------------------------
Index   v-sweep         rds             
--------------------------------------------------------------------------------
0	0.000000e+00	6.611670e-05	
1	5.000000e-02	6.227126e-05	
2	1.000000e-01	5.851253e-05	
3	1.500000e-01	5.483831e-05	
4	2.000000e-01	5.124649e-05	
5	2.500000e-01	4.773502e-05	
6	3.000000e-01	4.430204e-05	
7	3.500000e-01	4.094588e-05	
8	4.000000e-01	3.766523e-05	
9	4.500000e-01	3.445928e-05	
10	5.000000e-01	3.132802e-05	
11	5.500000e-01	2.827273e-05	
12	6.000000e-01	2.529696e-05	
13	6.500000e-01	2.240845e-05	
14	7.000000e-01	1.962299e-05	
15	7.500000e-01	1.697141e-05	
16	8.000000e-01	1.450921e-05	
17	8.500000e-01	1.231828e-05	
18	9.000000e-01	1.047782e-05	
19	9.500000e-01	9.010711e-06	
20	1.000000e+00	7.870935e-06	
21	1.050000e+00	6.984295e-06	
22	1.100000e+00	6.283975e-06	
23	1.150000e+00	5.720260e-06	
24	1.200000e+00	5.258169e-06	
25	1.250000e+00	4.873174e-06	
26	1.300000e+00	4.547830e-06	
27	1.350000e+00	4.269483e-06	
28	1.400000e+00	4.028767e-06	
29	1.450000e+00	3.818623e-06	
30	1.500000e+00	3.633636e-06	
31	1.550000e+00	3.469588e-06	
32	1.600000e+00	3.323147e-06	
33	1.650000e+00	3.191649e-06	
34	1.700000e+00	3.072938e-06	
35	1.750000e+00	2.965251e-06	
36	1.800000e+00	2.867134e-06	
37	1.850000e+00	2.777376e-06	
38	1.900000e+00	2.694962e-06	
39	1.950000e+00	2.619034e-06	
40	2.000000e+00	2.548862e-06	
41	2.050000e+00	2.483820e-06	
42	2.100000e+00	2.423372e-06	
43	2.150000e+00	2.367052e-06	
44	2.200000e+00	2.314454e-06	
45	2.250000e+00	2.265225e-06	
46	2.300000e+00	2.219054e-06	
47	2.350000e+00	2.175668e-06	
48	2.400000e+00	2.134825e-06	
49	2.450000e+00	2.096310e-06	
50	2.500000e+00	2.059930e-06	
51	2.550000e+00	2.025516e-06	
52	2.600000e+00	1.992914e-06	
53	2.650000e+00	1.961986e-06	
54	2.700000e+00	1.932608e-06	

Index   v-sweep         rds             
--------------------------------------------------------------------------------
55	2.750000e+00	1.904667e-06	
56	2.800000e+00	1.878062e-06	
57	2.850000e+00	1.852699e-06	
58	2.900000e+00	1.828497e-06	
59	2.950000e+00	1.805376e-06	
60	3.000000e+00	1.783268e-06	
61	3.050000e+00	1.762107e-06	
62	3.100000e+00	1.741836e-06	
63	3.150000e+00	1.722400e-06	
64	3.200000e+00	1.703748e-06	
65	3.250000e+00	1.685836e-06	
66	3.300000e+00	1.668620e-06	
67	3.350000e+00	1.652062e-06	
68	3.400000e+00	1.636124e-06	
69	3.450000e+00	1.620774e-06	
70	3.500000e+00	1.605979e-06	
71	3.550000e+00	1.591710e-06	
72	3.600000e+00	1.577941e-06	
73	3.650000e+00	1.564646e-06	
74	3.700000e+00	1.551800e-06	
75	3.750000e+00	1.539383e-06	
76	3.800000e+00	1.527373e-06	
77	3.850000e+00	1.515751e-06	
78	3.900000e+00	1.504499e-06	
79	3.950000e+00	1.493600e-06	
80	4.000000e+00	1.483037e-06	
81	4.050000e+00	1.472795e-06	
82	4.100000e+00	1.462861e-06	
83	4.150000e+00	1.453220e-06	
84	4.200000e+00	1.443861e-06	
85	4.250000e+00	1.434771e-06	
86	4.300000e+00	1.425939e-06	
87	4.350000e+00	1.417355e-06	
88	4.400000e+00	1.409007e-06	
89	4.450000e+00	1.400888e-06	
90	4.500000e+00	1.392987e-06	
91	4.550000e+00	1.385297e-06	
92	4.600000e+00	1.377809e-06	
93	4.650000e+00	1.370515e-06	
94	4.700000e+00	1.363408e-06	
95	4.750000e+00	1.356481e-06	
96	4.800000e+00	1.349728e-06	
97	4.850000e+00	1.343141e-06	
98	4.900000e+00	1.336716e-06	
99	4.950000e+00	1.330447e-06	
100	5.000000e+00	1.324327e-06	
101	5.050000e+00	1.318352e-06	
102	5.100000e+00	1.312517e-06	
103	5.150000e+00	1.306817e-06	
104	5.200000e+00	1.301248e-06	
105	5.250000e+00	1.295804e-06	
106	5.300000e+00	1.290483e-06	
107	5.350000e+00	1.285280e-06	
108	5.400000e+00	1.280191e-06	
109	5.450000e+00	1.275213e-06	
110	5.500000e+00	1.270342e-06	
111	5.550000e+00	1.265575e-06	
112	5.600000e+00	1.260908e-06	

Index   v-sweep         rds             
--------------------------------------------------------------------------------
113	5.650000e+00	1.256340e-06	
114	5.700000e+00	1.251865e-06	
115	5.750000e+00	1.247483e-06	
116	5.800000e+00	1.243189e-06	
117	5.850000e+00	1.238982e-06	
118	5.900000e+00	1.234859e-06	
119	5.950000e+00	1.230817e-06	
120	6.000000e+00	1.226855e-06	
121	6.050000e+00	1.222969e-06	
122	6.100000e+00	1.219159e-06	
123	6.150000e+00	1.215420e-06	
124	6.200000e+00	1.211753e-06	
125	6.250000e+00	1.208155e-06	
126	6.300000e+00	1.204623e-06	
127	6.350000e+00	1.201156e-06	
128	6.400000e+00	1.197753e-06	
129	6.450000e+00	1.194412e-06	
130	6.500000e+00	1.191130e-06	
131	6.550000e+00	1.187908e-06	
132	6.600000e+00	1.184742e-06	
Reset re-loads circuit ***************************

Circuit: ***************************

Doing analysis at TEMP = 125.000000 and TNOM = 125.000000


No. of Data Rows : 133
                          ***************************
                          DC transfer characteristic  Mon Jan  9 13:58:40  2023
--------------------------------------------------------------------------------
Index   v-sweep         rds             
--------------------------------------------------------------------------------
0	0.000000e+00	9.377940e-05	
1	5.000000e-02	8.991307e-05	
2	1.000000e-01	8.612948e-05	
3	1.500000e-01	8.242656e-05	
4	2.000000e-01	7.880227e-05	
5	2.500000e-01	7.525456e-05	
6	3.000000e-01	7.178143e-05	
7	3.500000e-01	6.838086e-05	
8	4.000000e-01	6.505093e-05	
9	4.500000e-01	6.178974e-05	
10	5.000000e-01	5.859552e-05	
11	5.500000e-01	5.546661e-05	
12	6.000000e-01	5.240149e-05	
13	6.500000e-01	4.939879e-05	
14	7.000000e-01	4.645732e-05	
15	7.500000e-01	4.357608e-05	
16	8.000000e-01	4.075427e-05	
17	8.500000e-01	3.799133e-05	
18	9.000000e-01	3.528699e-05	
19	9.500000e-01	3.264139e-05	
20	1.000000e+00	3.005527e-05	
21	1.050000e+00	2.753034e-05	
22	1.100000e+00	2.507007e-05	
23	1.150000e+00	2.268123e-05	
24	1.200000e+00	2.037707e-05	
25	1.250000e+00	1.818250e-05	
26	1.300000e+00	1.613818e-05	
27	1.350000e+00	1.429374e-05	
28	1.400000e+00	1.268665e-05	
29	1.450000e+00	1.132429e-05	
30	1.500000e+00	1.018637e-05	
31	1.550000e+00	9.239238e-06	
32	1.600000e+00	8.447898e-06	
33	1.650000e+00	7.781702e-06	
34	1.700000e+00	7.215752e-06	
35	1.750000e+00	6.730450e-06	
36	1.800000e+00	6.310540e-06	
37	1.850000e+00	5.944136e-06	
38	1.900000e+00	5.621936e-06	
39	1.950000e+00	5.336594e-06	
40	2.000000e+00	5.082262e-06	
41	2.050000e+00	4.854236e-06	
42	2.100000e+00	4.648700e-06	
43	2.150000e+00	4.462529e-06	
44	2.200000e+00	4.293144e-06	
45	2.250000e+00	4.138399e-06	
46	2.300000e+00	3.996495e-06	
47	2.350000e+00	3.865912e-06	
48	2.400000e+00	3.745361e-06	
49	2.450000e+00	3.633738e-06	
50	2.500000e+00	3.530095e-06	
51	2.550000e+00	3.433613e-06	
52	2.600000e+00	3.343580e-06	
53	2.650000e+00	3.259375e-06	
54	2.700000e+00	3.180455e-06	

Index   v-sweep         rds             
--------------------------------------------------------------------------------
55	2.750000e+00	3.106340e-06	
56	2.800000e+00	3.036607e-06	
57	2.850000e+00	2.970883e-06	
58	2.900000e+00	2.908833e-06	
59	2.950000e+00	2.850160e-06	
60	3.000000e+00	2.794596e-06	
61	3.050000e+00	2.741904e-06	
62	3.100000e+00	2.691868e-06	
63	3.150000e+00	2.644292e-06	
64	3.200000e+00	2.599001e-06	
65	3.250000e+00	2.555836e-06	
66	3.300000e+00	2.514651e-06	
67	3.350000e+00	2.475313e-06	
68	3.400000e+00	2.437703e-06	
69	3.450000e+00	2.401709e-06	
70	3.500000e+00	2.367231e-06	
71	3.550000e+00	2.334174e-06	
72	3.600000e+00	2.302454e-06	
73	3.650000e+00	2.271992e-06	
74	3.700000e+00	2.242714e-06	
75	3.750000e+00	2.214553e-06	
76	3.800000e+00	2.187448e-06	
77	3.850000e+00	2.161340e-06	
78	3.900000e+00	2.136175e-06	
79	3.950000e+00	2.111905e-06	
80	4.000000e+00	2.088481e-06	
81	4.050000e+00	2.065861e-06	
82	4.100000e+00	2.044005e-06	
83	4.150000e+00	2.022875e-06	
84	4.200000e+00	2.002435e-06	
85	4.250000e+00	1.982653e-06	
86	4.300000e+00	1.963497e-06	
87	4.350000e+00	1.944939e-06	
88	4.400000e+00	1.926950e-06	
89	4.450000e+00	1.909506e-06	
90	4.500000e+00	1.892582e-06	
91	4.550000e+00	1.876156e-06	
92	4.600000e+00	1.860206e-06	
93	4.650000e+00	1.844712e-06	
94	4.700000e+00	1.829655e-06	
95	4.750000e+00	1.815016e-06	
96	4.800000e+00	1.800779e-06	
97	4.850000e+00	1.786928e-06	
98	4.900000e+00	1.773447e-06	
99	4.950000e+00	1.760321e-06	
100	5.000000e+00	1.747538e-06	
101	5.050000e+00	1.735083e-06	
102	5.100000e+00	1.722946e-06	
103	5.150000e+00	1.711113e-06	
104	5.200000e+00	1.699573e-06	
105	5.250000e+00	1.688317e-06	
106	5.300000e+00	1.677333e-06	
107	5.350000e+00	1.666613e-06	
108	5.400000e+00	1.656146e-06	
109	5.450000e+00	1.645925e-06	
110	5.500000e+00	1.635940e-06	
111	5.550000e+00	1.626185e-06	
112	5.600000e+00	1.616650e-06	

Index   v-sweep         rds             
--------------------------------------------------------------------------------
113	5.650000e+00	1.607329e-06	
114	5.700000e+00	1.598216e-06	
115	5.750000e+00	1.589302e-06	
116	5.800000e+00	1.580582e-06	
117	5.850000e+00	1.572050e-06	
118	5.900000e+00	1.563700e-06	
119	5.950000e+00	1.555526e-06	
120	6.000000e+00	1.547523e-06	
121	6.050000e+00	1.539685e-06	
122	6.100000e+00	1.532008e-06	
123	6.150000e+00	1.524487e-06	
124	6.200000e+00	1.517117e-06	
125	6.250000e+00	1.509894e-06	
126	6.300000e+00	1.502814e-06	
127	6.350000e+00	1.495872e-06	
128	6.400000e+00	1.489066e-06	
129	6.450000e+00	1.482390e-06	
130	6.500000e+00	1.475841e-06	
131	6.550000e+00	1.469416e-06	
132	6.600000e+00	1.463112e-06	
Reset re-loads circuit ***************************

Circuit: ***************************

Doing analysis at TEMP = 125.000000 and TNOM = 125.000000


No. of Data Rows : 133
                          ***************************
                          DC transfer characteristic  Mon Jan  9 13:58:40  2023
--------------------------------------------------------------------------------
Index   v-sweep         rds             
--------------------------------------------------------------------------------
0	0.000000e+00	1.144022e-04	
1	5.000000e-02	1.106623e-04	
2	1.000000e-01	1.069957e-04	
3	1.500000e-01	1.034008e-04	
4	2.000000e-01	9.987575e-05	
5	2.500000e-01	9.641905e-05	
6	3.000000e-01	9.302901e-05	
7	3.500000e-01	8.970398e-05	
8	4.000000e-01	8.644231e-05	
9	4.500000e-01	8.324236e-05	
10	5.000000e-01	8.010255e-05	
11	5.500000e-01	7.702129e-05	
12	6.000000e-01	7.399710e-05	
13	6.500000e-01	7.102853e-05	
14	7.000000e-01	6.811423e-05	
15	7.500000e-01	6.525295e-05	
16	8.000000e-01	6.244351e-05	
17	8.500000e-01	5.968485e-05	
18	9.000000e-01	5.697599e-05	
19	9.500000e-01	5.431607e-05	
20	1.000000e+00	5.170427e-05	
21	1.050000e+00	4.913986e-05	
22	1.100000e+00	4.662216e-05	
23	1.150000e+00	4.415052e-05	
24	1.200000e+00	4.172424e-05	
25	1.250000e+00	3.934259e-05	
26	1.300000e+00	3.700466e-05	
27	1.350000e+00	3.470926e-05	
28	1.400000e+00	3.245467e-05	
29	1.450000e+00	3.023848e-05	
30	1.500000e+00	2.805738e-05	
31	1.550000e+00	2.590783e-05	
32	1.600000e+00	2.378875e-05	
33	1.650000e+00	2.170812e-05	
34	1.700000e+00	1.969172e-05	
35	1.750000e+00	1.778494e-05	
36	1.800000e+00	1.603847e-05	
37	1.850000e+00	1.448689e-05	
38	1.900000e+00	1.313861e-05	
39	1.950000e+00	1.198101e-05	
40	2.000000e+00	1.099092e-05	
41	2.050000e+00	1.014276e-05	
42	2.100000e+00	9.412810e-06	
43	2.150000e+00	8.780725e-06	
44	2.200000e+00	8.229692e-06	
45	2.250000e+00	7.746057e-06	
46	2.300000e+00	7.318793e-06	
47	2.350000e+00	6.938992e-06	
48	2.400000e+00	6.599428e-06	
49	2.450000e+00	6.294210e-06	
50	2.500000e+00	6.018506e-06	
51	2.550000e+00	5.768322e-06	
52	2.600000e+00	5.540337e-06	
53	2.650000e+00	5.331770e-06	
54	2.700000e+00	5.140278e-06	

Index   v-sweep         rds             
--------------------------------------------------------------------------------
55	2.750000e+00	4.963876e-06	
56	2.800000e+00	4.800868e-06	
57	2.850000e+00	4.649802e-06	
58	2.900000e+00	4.509426e-06	
59	2.950000e+00	4.378655e-06	
60	3.000000e+00	4.256544e-06	
61	3.050000e+00	4.142269e-06	
62	3.100000e+00	4.035105e-06	
63	3.150000e+00	3.934413e-06	
64	3.200000e+00	3.839628e-06	
65	3.250000e+00	3.750250e-06	
66	3.300000e+00	3.665832e-06	
67	3.350000e+00	3.585974e-06	
68	3.400000e+00	3.510319e-06	
69	3.450000e+00	3.438547e-06	
70	3.500000e+00	3.370367e-06	
71	3.550000e+00	3.305519e-06	
72	3.600000e+00	3.243764e-06	
73	3.650000e+00	3.184889e-06	
74	3.700000e+00	3.128697e-06	
75	3.750000e+00	3.075011e-06	
76	3.800000e+00	3.023666e-06	
77	3.850000e+00	2.974515e-06	
78	3.900000e+00	2.927420e-06	
79	3.950000e+00	2.882256e-06	
80	4.000000e+00	2.838907e-06	
81	4.050000e+00	2.797266e-06	
82	4.100000e+00	2.757234e-06	
83	4.150000e+00	2.718721e-06	
84	4.200000e+00	2.681643e-06	
85	4.250000e+00	2.645920e-06	
86	4.300000e+00	2.611481e-06	
87	4.350000e+00	2.578258e-06	
88	4.400000e+00	2.546187e-06	
89	4.450000e+00	2.515211e-06	
90	4.500000e+00	2.485274e-06	
91	4.550000e+00	2.456325e-06	
92	4.600000e+00	2.428317e-06	
93	4.650000e+00	2.401204e-06	
94	4.700000e+00	2.374945e-06	
95	4.750000e+00	2.349500e-06	
96	4.800000e+00	2.324832e-06	
97	4.850000e+00	2.300907e-06	
98	4.900000e+00	2.277690e-06	
99	4.950000e+00	2.255153e-06	
100	5.000000e+00	2.233264e-06	
101	5.050000e+00	2.211998e-06	
102	5.100000e+00	2.191328e-06	
103	5.150000e+00	2.171230e-06	
104	5.200000e+00	2.151679e-06	
105	5.250000e+00	2.132656e-06	
106	5.300000e+00	2.114138e-06	
107	5.350000e+00	2.096106e-06	
108	5.400000e+00	2.078541e-06	
109	5.450000e+00	2.061427e-06	
110	5.500000e+00	2.044744e-06	
111	5.550000e+00	2.028479e-06	
112	5.600000e+00	2.012615e-06	

Index   v-sweep         rds             
--------------------------------------------------------------------------------
113	5.650000e+00	1.997139e-06	
114	5.700000e+00	1.982035e-06	
115	5.750000e+00	1.967292e-06	
116	5.800000e+00	1.952897e-06	
117	5.850000e+00	1.938837e-06	
118	5.900000e+00	1.925102e-06	
119	5.950000e+00	1.911680e-06	
120	6.000000e+00	1.898561e-06	
121	6.050000e+00	1.885736e-06	
122	6.100000e+00	1.873194e-06	
123	6.150000e+00	1.860927e-06	
124	6.200000e+00	1.848925e-06	
125	6.250000e+00	1.837182e-06	
126	6.300000e+00	1.825687e-06	
127	6.350000e+00	1.814435e-06	
128	6.400000e+00	1.803418e-06	
129	6.450000e+00	1.792628e-06	
130	6.500000e+00	1.782059e-06	
131	6.550000e+00	1.771704e-06	
132	6.600000e+00	1.761557e-06	
Reset re-loads circuit ***************************

Circuit: ***************************

Doing analysis at TEMP = 125.000000 and TNOM = 125.000000


No. of Data Rows : 133
                          ***************************
                          DC transfer characteristic  Mon Jan  9 13:58:40  2023
--------------------------------------------------------------------------------
Index   v-sweep         rds             
--------------------------------------------------------------------------------
0	0.000000e+00	1.292941e-04	
1	5.000000e-02	1.257754e-04	
2	1.000000e-01	1.223189e-04	
3	1.500000e-01	1.189235e-04	
4	2.000000e-01	1.155879e-04	
5	2.500000e-01	1.123106e-04	
6	3.000000e-01	1.090906e-04	
7	3.500000e-01	1.059266e-04	
8	4.000000e-01	1.028172e-04	
9	4.500000e-01	9.976127e-05	
10	5.000000e-01	9.675748e-05	
11	5.500000e-01	9.380460e-05	
12	6.000000e-01	9.090139e-05	
13	6.500000e-01	8.804664e-05	
14	7.000000e-01	8.523918e-05	
15	7.500000e-01	8.247789e-05	
16	8.000000e-01	7.976169e-05	
17	8.500000e-01	7.708956e-05	
18	9.000000e-01	7.446055e-05	
19	9.500000e-01	7.187376e-05	
20	1.000000e+00	6.932838e-05	
21	1.050000e+00	6.682363e-05	
22	1.100000e+00	6.435884e-05	
23	1.150000e+00	6.193337e-05	
24	1.200000e+00	5.954663e-05	
25	1.250000e+00	5.719808e-05	
26	1.300000e+00	5.488723e-05	
27	1.350000e+00	5.261359e-05	
28	1.400000e+00	5.037666e-05	
29	1.450000e+00	4.817595e-05	
30	1.500000e+00	4.601088e-05	
31	1.550000e+00	4.388078e-05	
32	1.600000e+00	4.178477e-05	
33	1.650000e+00	3.972166e-05	
34	1.700000e+00	3.768979e-05	
35	1.750000e+00	3.568670e-05	
36	1.800000e+00	3.370880e-05	
37	1.850000e+00	3.175088e-05	
38	1.900000e+00	2.980592e-05	
39	1.950000e+00	2.786579e-05	
40	2.000000e+00	2.592433e-05	
41	2.050000e+00	2.398414e-05	
42	2.100000e+00	2.206492e-05	
43	2.150000e+00	2.020606e-05	
44	2.200000e+00	1.845638e-05	
45	2.250000e+00	1.685648e-05	
46	2.300000e+00	1.542716e-05	
47	2.350000e+00	1.416939e-05	
48	2.400000e+00	1.307103e-05	
49	2.450000e+00	1.211391e-05	
50	2.500000e+00	1.127865e-05	
51	2.550000e+00	1.054712e-05	
52	2.600000e+00	9.903439e-06	
53	2.650000e+00	9.334113e-06	
54	2.700000e+00	8.827887e-06	

Index   v-sweep         rds             
--------------------------------------------------------------------------------
55	2.750000e+00	8.375423e-06	
56	2.800000e+00	7.968994e-06	
57	2.850000e+00	7.602191e-06	
58	2.900000e+00	7.269682e-06	
59	2.950000e+00	6.967008e-06	
60	3.000000e+00	6.690428e-06	
61	3.050000e+00	6.436780e-06	
62	3.100000e+00	6.203381e-06	
63	3.150000e+00	5.987941e-06	
64	3.200000e+00	5.788496e-06	
65	3.250000e+00	5.603355e-06	
66	3.300000e+00	5.431053e-06	
67	3.350000e+00	5.270314e-06	
68	3.400000e+00	5.120025e-06	
69	3.450000e+00	4.979210e-06	
70	3.500000e+00	4.847010e-06	
71	3.550000e+00	4.722664e-06	
72	3.600000e+00	4.605499e-06	
73	3.650000e+00	4.494916e-06	
74	3.700000e+00	4.390378e-06	
75	3.750000e+00	4.291409e-06	
76	3.800000e+00	4.197576e-06	
77	3.850000e+00	4.108494e-06	
78	3.900000e+00	4.023813e-06	
79	3.950000e+00	3.943217e-06	
80	4.000000e+00	3.866418e-06	
81	4.050000e+00	3.793157e-06	
82	4.100000e+00	3.723196e-06	
83	4.150000e+00	3.656318e-06	
84	4.200000e+00	3.592326e-06	
85	4.250000e+00	3.531036e-06	
86	4.300000e+00	3.472282e-06	
87	4.350000e+00	3.415912e-06	
88	4.400000e+00	3.361783e-06	
89	4.450000e+00	3.309766e-06	
90	4.500000e+00	3.259739e-06	
91	4.550000e+00	3.211592e-06	
92	4.600000e+00	3.165220e-06	
93	4.650000e+00	3.120528e-06	
94	4.700000e+00	3.077426e-06	
95	4.750000e+00	3.035833e-06	
96	4.800000e+00	2.995669e-06	
97	4.850000e+00	2.956864e-06	
98	4.900000e+00	2.919349e-06	
99	4.950000e+00	2.883062e-06	
100	5.000000e+00	2.847944e-06	
101	5.050000e+00	2.813939e-06	
102	5.100000e+00	2.780997e-06	
103	5.150000e+00	2.749067e-06	
104	5.200000e+00	2.718104e-06	
105	5.250000e+00	2.688066e-06	
106	5.300000e+00	2.658912e-06	
107	5.350000e+00	2.630603e-06	
108	5.400000e+00	2.603105e-06	
109	5.450000e+00	2.576382e-06	
110	5.500000e+00	2.550402e-06	
111	5.550000e+00	2.525136e-06	
112	5.600000e+00	2.500555e-06	

Index   v-sweep         rds             
--------------------------------------------------------------------------------
113	5.650000e+00	2.476631e-06	
114	5.700000e+00	2.453339e-06	
115	5.750000e+00	2.430655e-06	
116	5.800000e+00	2.408554e-06	
117	5.850000e+00	2.387016e-06	
118	5.900000e+00	2.366020e-06	
119	5.950000e+00	2.345545e-06	
120	6.000000e+00	2.325573e-06	
121	6.050000e+00	2.306085e-06	
122	6.100000e+00	2.287066e-06	
123	6.150000e+00	2.268497e-06	
124	6.200000e+00	2.250365e-06	
125	6.250000e+00	2.232653e-06	
126	6.300000e+00	2.215349e-06	
127	6.350000e+00	2.198438e-06	
128	6.400000e+00	2.181907e-06	
129	6.450000e+00	2.165745e-06	
130	6.500000e+00	2.149938e-06	
131	6.550000e+00	2.134477e-06	
132	6.600000e+00	2.119350e-06	
Reset re-loads circuit ***************************

Circuit: ***************************

Doing analysis at TEMP = 125.000000 and TNOM = 125.000000


No. of Data Rows : 133
                          ***************************
                          DC transfer characteristic  Mon Jan  9 13:58:40  2023
--------------------------------------------------------------------------------
Index   v-sweep         rds             
--------------------------------------------------------------------------------
0	0.000000e+00	1.416522e-04	
1	5.000000e-02	1.383642e-04	
2	1.000000e-01	1.351288e-04	
3	1.500000e-01	1.319450e-04	
4	2.000000e-01	1.288117e-04	
5	2.500000e-01	1.257280e-04	
6	3.000000e-01	1.226930e-04	
7	3.500000e-01	1.197058e-04	
8	4.000000e-01	1.167653e-04	
9	4.500000e-01	1.138706e-04	
10	5.000000e-01	1.110208e-04	
11	5.500000e-01	1.082148e-04	
12	6.000000e-01	1.054518e-04	
13	6.500000e-01	1.027307e-04	
14	7.000000e-01	1.000507e-04	
15	7.500000e-01	9.741076e-05	
16	8.000000e-01	9.481002e-05	
17	8.500000e-01	9.224761e-05	
18	9.000000e-01	8.972267e-05	
19	9.500000e-01	8.723441e-05	
20	1.000000e+00	8.478205e-05	
21	1.050000e+00	8.236488e-05	
22	1.100000e+00	7.998221e-05	
23	1.150000e+00	7.763343e-05	
24	1.200000e+00	7.531793e-05	
25	1.250000e+00	7.303518e-05	
26	1.300000e+00	7.078468e-05	
27	1.350000e+00	6.856599e-05	
28	1.400000e+00	6.637868e-05	
29	1.450000e+00	6.422237e-05	
30	1.500000e+00	6.209671e-05	
31	1.550000e+00	6.000136e-05	
32	1.600000e+00	5.793601e-05	
33	1.650000e+00	5.590033e-05	
34	1.700000e+00	5.389401e-05	
35	1.750000e+00	5.191670e-05	
36	1.800000e+00	4.996799e-05	
37	1.850000e+00	4.804742e-05	
38	1.900000e+00	4.615439e-05	
39	1.950000e+00	4.428811e-05	
40	2.000000e+00	4.244751e-05	
41	2.050000e+00	4.063108e-05	
42	2.100000e+00	3.883667e-05	
43	2.150000e+00	3.706117e-05	
44	2.200000e+00	3.530009e-05	
45	2.250000e+00	3.354711e-05	
46	2.300000e+00	3.179384e-05	
47	2.350000e+00	3.003031e-05	
48	2.400000e+00	2.824735e-05	
49	2.450000e+00	2.644191e-05	
50	2.500000e+00	2.462424e-05	
51	2.550000e+00	2.282245e-05	
52	2.600000e+00	2.107844e-05	
53	2.650000e+00	1.943532e-05	
54	2.700000e+00	1.792486e-05	

Index   v-sweep         rds             
--------------------------------------------------------------------------------
55	2.750000e+00	1.656200e-05	
56	2.800000e+00	1.534701e-05	
57	2.850000e+00	1.427058e-05	
58	2.900000e+00	1.331888e-05	
59	2.950000e+00	1.247677e-05	
60	3.000000e+00	1.172976e-05	
61	3.050000e+00	1.106476e-05	
62	3.100000e+00	1.047036e-05	
63	3.150000e+00	9.936830e-06	
64	3.200000e+00	9.455891e-06	
65	3.250000e+00	9.020562e-06	
66	3.300000e+00	8.624950e-06	
67	3.350000e+00	8.264070e-06	
68	3.400000e+00	7.933695e-06	
69	3.450000e+00	7.630228e-06	
70	3.500000e+00	7.350596e-06	
71	3.550000e+00	7.092160e-06	
72	3.600000e+00	6.852648e-06	
73	3.650000e+00	6.630093e-06	
74	3.700000e+00	6.422787e-06	
75	3.750000e+00	6.229238e-06	
76	3.800000e+00	6.048140e-06	
77	3.850000e+00	5.878344e-06	
78	3.900000e+00	5.718837e-06	
79	3.950000e+00	5.568723e-06	
80	4.000000e+00	5.427203e-06	
81	4.050000e+00	5.293569e-06	
82	4.100000e+00	5.167184e-06	
83	4.150000e+00	5.047480e-06	
84	4.200000e+00	4.933944e-06	
85	4.250000e+00	4.826117e-06	
86	4.300000e+00	4.723582e-06	
87	4.350000e+00	4.625961e-06	
88	4.400000e+00	4.532911e-06	
89	4.450000e+00	4.444122e-06	
90	4.500000e+00	4.359308e-06	
91	4.550000e+00	4.278211e-06	
92	4.600000e+00	4.200594e-06	
93	4.650000e+00	4.126237e-06	
94	4.700000e+00	4.054942e-06	
95	4.750000e+00	3.986523e-06	
96	4.800000e+00	3.920812e-06	
97	4.850000e+00	3.857652e-06	
98	4.900000e+00	3.796897e-06	
99	4.950000e+00	3.738414e-06	
100	5.000000e+00	3.682078e-06	
101	5.050000e+00	3.627774e-06	
102	5.100000e+00	3.575394e-06	
103	5.150000e+00	3.524839e-06	
104	5.200000e+00	3.476015e-06	
105	5.250000e+00	3.428835e-06	
106	5.300000e+00	3.383219e-06	
107	5.350000e+00	3.339089e-06	
108	5.400000e+00	3.296376e-06	
109	5.450000e+00	3.255012e-06	
110	5.500000e+00	3.214934e-06	
111	5.550000e+00	3.176085e-06	
112	5.600000e+00	3.138409e-06	

Index   v-sweep         rds             
--------------------------------------------------------------------------------
113	5.650000e+00	3.101854e-06	
114	5.700000e+00	3.066371e-06	
115	5.750000e+00	3.031913e-06	
116	5.800000e+00	2.998439e-06	
117	5.850000e+00	2.965906e-06	
118	5.900000e+00	2.934275e-06	
119	5.950000e+00	2.903511e-06	
120	6.000000e+00	2.873578e-06	
121	6.050000e+00	2.844444e-06	
122	6.100000e+00	2.816078e-06	
123	6.150000e+00	2.788449e-06	
124	6.200000e+00	2.761530e-06	
125	6.250000e+00	2.735295e-06	
126	6.300000e+00	2.709719e-06	
127	6.350000e+00	2.684776e-06	
128	6.400000e+00	2.660445e-06	
129	6.450000e+00	2.636704e-06	
130	6.500000e+00	2.613532e-06	
131	6.550000e+00	2.590909e-06	
132	6.600000e+00	2.568817e-06	
Reset re-loads circuit ***************************

Circuit: ***************************

Note: No ".plot", ".print", or ".fourier" lines; no simulations run
