
Note: Compatibility modes selected: hs

Warning: m=xx on .subckt line will override multiplier m hierarchy!


Circuit: ***************************

Doing analysis at TEMP = 25.000000 and TNOM = 25.000000


No. of Data Rows : 133
                          ***************************
                          DC transfer characteristic  Mon Jan  9 13:58:37  2023
--------------------------------------------------------------------------------
Index   v-sweep         rds             
--------------------------------------------------------------------------------
0	0.000000e+00	6.670085e-05	
1	5.000000e-02	5.353826e-05	
2	1.000000e-01	4.052758e-05	
3	1.500000e-01	2.786041e-05	
4	2.000000e-01	1.620026e-05	
5	2.500000e-01	7.331356e-06	
6	3.000000e-01	2.814799e-06	
7	3.500000e-01	1.202366e-06	
8	4.000000e-01	6.455403e-07	
9	4.500000e-01	4.224368e-07	
10	5.000000e-01	3.170482e-07	
11	5.500000e-01	2.600570e-07	
12	6.000000e-01	2.258436e-07	
13	6.500000e-01	2.035879e-07	
14	7.000000e-01	1.881811e-07	
15	7.500000e-01	1.769808e-07	
16	8.000000e-01	1.685148e-07	
17	8.500000e-01	1.619106e-07	
18	9.000000e-01	1.566241e-07	
19	9.500000e-01	1.523009e-07	
20	1.000000e+00	1.487014e-07	
21	1.050000e+00	1.456585e-07	
22	1.100000e+00	1.430526e-07	
23	1.150000e+00	1.407956e-07	
24	1.200000e+00	1.388218e-07	
25	1.250000e+00	1.370806e-07	
26	1.300000e+00	1.355331e-07	
27	1.350000e+00	1.341485e-07	
28	1.400000e+00	1.329021e-07	
29	1.450000e+00	1.317741e-07	
30	1.500000e+00	1.307483e-07	
31	1.550000e+00	1.298113e-07	
32	1.600000e+00	1.289519e-07	
33	1.650000e+00	1.281609e-07	
34	1.700000e+00	1.274303e-07	
35	1.750000e+00	1.267535e-07	
36	1.800000e+00	1.261246e-07	
37	1.850000e+00	1.255387e-07	
38	1.900000e+00	1.249916e-07	
39	1.950000e+00	1.244794e-07	
40	2.000000e+00	1.239990e-07	
41	2.050000e+00	1.235474e-07	
42	2.100000e+00	1.231222e-07	
43	2.150000e+00	1.227210e-07	
44	2.200000e+00	1.223419e-07	
45	2.250000e+00	1.219832e-07	
46	2.300000e+00	1.216431e-07	
47	2.350000e+00	1.213203e-07	
48	2.400000e+00	1.210136e-07	
49	2.450000e+00	1.207216e-07	
50	2.500000e+00	1.204435e-07	
51	2.550000e+00	1.201782e-07	
52	2.600000e+00	1.199248e-07	
53	2.650000e+00	1.196826e-07	
54	2.700000e+00	1.194509e-07	

Index   v-sweep         rds             
--------------------------------------------------------------------------------
55	2.750000e+00	1.192290e-07	
56	2.800000e+00	1.190163e-07	
57	2.850000e+00	1.188121e-07	
58	2.900000e+00	1.186161e-07	
59	2.950000e+00	1.184278e-07	
60	3.000000e+00	1.182466e-07	
61	3.050000e+00	1.180723e-07	
62	3.100000e+00	1.179044e-07	
63	3.150000e+00	1.177425e-07	
64	3.200000e+00	1.175864e-07	
65	3.250000e+00	1.174358e-07	
66	3.300000e+00	1.172904e-07	
67	3.350000e+00	1.171498e-07	
68	3.400000e+00	1.170140e-07	
69	3.450000e+00	1.168826e-07	
70	3.500000e+00	1.167554e-07	
71	3.550000e+00	1.166323e-07	
72	3.600000e+00	1.165130e-07	
73	3.650000e+00	1.163973e-07	
74	3.700000e+00	1.162852e-07	
75	3.750000e+00	1.161764e-07	
76	3.800000e+00	1.160709e-07	
77	3.850000e+00	1.159683e-07	
78	3.900000e+00	1.158688e-07	
79	3.950000e+00	1.157720e-07	
80	4.000000e+00	1.156779e-07	
81	4.050000e+00	1.155865e-07	
82	4.100000e+00	1.154975e-07	
83	4.150000e+00	1.154108e-07	
84	4.200000e+00	1.153265e-07	
85	4.250000e+00	1.152444e-07	
86	4.300000e+00	1.151644e-07	
87	4.350000e+00	1.150864e-07	
88	4.400000e+00	1.150104e-07	
89	4.450000e+00	1.149363e-07	
90	4.500000e+00	1.148640e-07	
91	4.550000e+00	1.147934e-07	
92	4.600000e+00	1.147246e-07	
93	4.650000e+00	1.146574e-07	
94	4.700000e+00	1.145917e-07	
95	4.750000e+00	1.145276e-07	
96	4.800000e+00	1.144649e-07	
97	4.850000e+00	1.144037e-07	
98	4.900000e+00	1.143439e-07	
99	4.950000e+00	1.142853e-07	
100	5.000000e+00	1.142281e-07	
101	5.050000e+00	1.141721e-07	
102	5.100000e+00	1.141173e-07	
103	5.150000e+00	1.140637e-07	
104	5.200000e+00	1.140112e-07	
105	5.250000e+00	1.139599e-07	
106	5.300000e+00	1.139095e-07	
107	5.350000e+00	1.138602e-07	
108	5.400000e+00	1.138119e-07	
109	5.450000e+00	1.137646e-07	
110	5.500000e+00	1.137182e-07	
111	5.550000e+00	1.136728e-07	
112	5.600000e+00	1.136282e-07	

Index   v-sweep         rds             
--------------------------------------------------------------------------------
113	5.650000e+00	1.135845e-07	
114	5.700000e+00	1.135416e-07	
115	5.750000e+00	1.134996e-07	
116	5.800000e+00	1.134583e-07	
117	5.850000e+00	1.134178e-07	
118	5.900000e+00	1.133781e-07	
119	5.950000e+00	1.133390e-07	
120	6.000000e+00	1.133007e-07	
121	6.050000e+00	1.132631e-07	
122	6.100000e+00	1.132262e-07	
123	6.150000e+00	1.131899e-07	
124	6.200000e+00	1.131543e-07	
125	6.250000e+00	1.131192e-07	
126	6.300000e+00	1.130848e-07	
127	6.350000e+00	1.130510e-07	
128	6.400000e+00	1.130178e-07	
129	6.450000e+00	1.129851e-07	
130	6.500000e+00	1.129530e-07	
131	6.550000e+00	1.129214e-07	
132	6.600000e+00	1.128903e-07	
Reset re-loads circuit ***************************

Circuit: ***************************

Doing analysis at TEMP = 25.000000 and TNOM = 25.000000


No. of Data Rows : 133
                          ***************************
                          DC transfer characteristic  Mon Jan  9 13:58:37  2023
--------------------------------------------------------------------------------
Index   v-sweep         rds             
--------------------------------------------------------------------------------
0	0.000000e+00	2.706439e-04	
1	5.000000e-02	2.565297e-04	
2	1.000000e-01	2.424850e-04	
3	1.500000e-01	2.285097e-04	
4	2.000000e-01	2.146036e-04	
5	2.500000e-01	2.007666e-04	
6	3.000000e-01	1.869989e-04	
7	3.500000e-01	1.733008e-04	
8	4.000000e-01	1.596732e-04	
9	4.500000e-01	1.461176e-04	
10	5.000000e-01	1.326366e-04	
11	5.500000e-01	1.192349e-04	
12	6.000000e-01	1.059209e-04	
13	6.500000e-01	9.271029e-05	
14	7.000000e-01	7.963304e-05	
15	7.500000e-01	6.674847e-05	
16	8.000000e-01	5.417647e-05	
17	8.500000e-01	4.215634e-05	
18	9.000000e-01	3.112627e-05	
19	9.500000e-01	2.172804e-05	
20	1.000000e+00	1.454181e-05	
21	1.050000e+00	9.646876e-06	
22	1.100000e+00	6.574096e-06	
23	1.150000e+00	4.699379e-06	
24	1.200000e+00	3.539906e-06	
25	1.250000e+00	2.796956e-06	
26	1.300000e+00	2.300357e-06	
27	1.350000e+00	1.954381e-06	
28	1.400000e+00	1.704124e-06	
29	1.450000e+00	1.517056e-06	
30	1.500000e+00	1.373202e-06	
31	1.550000e+00	1.259853e-06	
32	1.600000e+00	1.168652e-06	
33	1.650000e+00	1.093936e-06	
34	1.700000e+00	1.031760e-06	
35	1.750000e+00	9.793105e-07	
36	1.800000e+00	9.345350e-07	
37	1.850000e+00	8.959071e-07	
38	1.900000e+00	8.622712e-07	
39	1.950000e+00	8.327385e-07	
40	2.000000e+00	8.066157e-07	
41	2.050000e+00	7.833546e-07	
42	2.100000e+00	7.625168e-07	
43	2.150000e+00	7.437479e-07	
44	2.200000e+00	7.267583e-07	
45	2.250000e+00	7.113096e-07	
46	2.300000e+00	6.972036e-07	
47	2.350000e+00	6.842743e-07	
48	2.400000e+00	6.723819e-07	
49	2.450000e+00	6.614074e-07	
50	2.500000e+00	6.512494e-07	
51	2.550000e+00	6.418208e-07	
52	2.600000e+00	6.330463e-07	
53	2.650000e+00	6.248606e-07	
54	2.700000e+00	6.172067e-07	

Index   v-sweep         rds             
--------------------------------------------------------------------------------
55	2.750000e+00	6.100348e-07	
56	2.800000e+00	6.033009e-07	
57	2.850000e+00	5.969664e-07	
58	2.900000e+00	5.909968e-07	
59	2.950000e+00	5.853618e-07	
60	3.000000e+00	5.800341e-07	
61	3.050000e+00	5.749893e-07	
62	3.100000e+00	5.702056e-07	
63	3.150000e+00	5.656633e-07	
64	3.200000e+00	5.613446e-07	
65	3.250000e+00	5.572336e-07	
66	3.300000e+00	5.533156e-07	
67	3.350000e+00	5.495774e-07	
68	3.400000e+00	5.460069e-07	
69	3.450000e+00	5.425932e-07	
70	3.500000e+00	5.393262e-07	
71	3.550000e+00	5.361966e-07	
72	3.600000e+00	5.331961e-07	
73	3.650000e+00	5.303167e-07	
74	3.700000e+00	5.275514e-07	
75	3.750000e+00	5.248935e-07	
76	3.800000e+00	5.223369e-07	
77	3.850000e+00	5.198759e-07	
78	3.900000e+00	5.175053e-07	
79	3.950000e+00	5.152202e-07	
80	4.000000e+00	5.130161e-07	
81	4.050000e+00	5.108887e-07	
82	4.100000e+00	5.088342e-07	
83	4.150000e+00	5.068489e-07	
84	4.200000e+00	5.049293e-07	
85	4.250000e+00	5.030722e-07	
86	4.300000e+00	5.012747e-07	
87	4.350000e+00	4.995340e-07	
88	4.400000e+00	4.978473e-07	
89	4.450000e+00	4.962123e-07	
90	4.500000e+00	4.946265e-07	
91	4.550000e+00	4.930879e-07	
92	4.600000e+00	4.915943e-07	
93	4.650000e+00	4.901439e-07	
94	4.700000e+00	4.887347e-07	
95	4.750000e+00	4.873650e-07	
96	4.800000e+00	4.860333e-07	
97	4.850000e+00	4.847379e-07	
98	4.900000e+00	4.834775e-07	
99	4.950000e+00	4.822505e-07	
100	5.000000e+00	4.810558e-07	
101	5.050000e+00	4.798920e-07	
102	5.100000e+00	4.787579e-07	
103	5.150000e+00	4.776525e-07	
104	5.200000e+00	4.765747e-07	
105	5.250000e+00	4.755235e-07	
106	5.300000e+00	4.744979e-07	
107	5.350000e+00	4.734969e-07	
108	5.400000e+00	4.725198e-07	
109	5.450000e+00	4.715656e-07	
110	5.500000e+00	4.706336e-07	
111	5.550000e+00	4.697230e-07	
112	5.600000e+00	4.688331e-07	

Index   v-sweep         rds             
--------------------------------------------------------------------------------
113	5.650000e+00	4.679631e-07	
114	5.700000e+00	4.671125e-07	
115	5.750000e+00	4.662806e-07	
116	5.800000e+00	4.654668e-07	
117	5.850000e+00	4.646706e-07	
118	5.900000e+00	4.638912e-07	
119	5.950000e+00	4.631283e-07	
120	6.000000e+00	4.623813e-07	
121	6.050000e+00	4.616497e-07	
122	6.100000e+00	4.609330e-07	
123	6.150000e+00	4.602309e-07	
124	6.200000e+00	4.595428e-07	
125	6.250000e+00	4.588684e-07	
126	6.300000e+00	4.582072e-07	
127	6.350000e+00	4.575589e-07	
128	6.400000e+00	4.569231e-07	
129	6.450000e+00	4.562995e-07	
130	6.500000e+00	4.556876e-07	
131	6.550000e+00	4.550872e-07	
132	6.600000e+00	4.544979e-07	
Reset re-loads circuit ***************************

Circuit: ***************************

Doing analysis at TEMP = 25.000000 and TNOM = 25.000000


No. of Data Rows : 133
                          ***************************
                          DC transfer characteristic  Mon Jan  9 13:58:37  2023
--------------------------------------------------------------------------------
Index   v-sweep         rds             
--------------------------------------------------------------------------------
0	0.000000e+00	4.410655e-04	
1	5.000000e-02	4.275765e-04	
2	1.000000e-01	4.141548e-04	
3	1.500000e-01	4.008001e-04	
4	2.000000e-01	3.875119e-04	
5	2.500000e-01	3.742898e-04	
6	3.000000e-01	3.611334e-04	
7	3.500000e-01	3.480423e-04	
8	4.000000e-01	3.350161e-04	
9	4.500000e-01	3.220543e-04	
10	5.000000e-01	3.091567e-04	
11	5.500000e-01	2.963227e-04	
12	6.000000e-01	2.835521e-04	
13	6.500000e-01	2.708444e-04	
14	7.000000e-01	2.581993e-04	
15	7.500000e-01	2.456163e-04	
16	8.000000e-01	2.330952e-04	
17	8.500000e-01	2.206356e-04	
18	9.000000e-01	2.082373e-04	
19	9.500000e-01	1.959000e-04	
20	1.000000e+00	1.836235e-04	
21	1.050000e+00	1.714080e-04	
22	1.100000e+00	1.592537e-04	
23	1.150000e+00	1.471615e-04	
24	1.200000e+00	1.351331e-04	
25	1.250000e+00	1.231719e-04	
26	1.300000e+00	1.112843e-04	
27	1.350000e+00	9.948243e-05	
28	1.400000e+00	8.778959e-05	
29	1.450000e+00	7.624987e-05	
30	1.500000e+00	6.494598e-05	
31	1.550000e+00	5.402687e-05	
32	1.600000e+00	4.373820e-05	
33	1.650000e+00	3.442494e-05	
34	1.700000e+00	2.645462e-05	
35	1.750000e+00	2.006111e-05	
36	1.800000e+00	1.522690e-05	
37	1.850000e+00	1.171783e-05	
38	1.900000e+00	9.216890e-06	
39	1.950000e+00	7.433676e-06	
40	2.000000e+00	6.146124e-06	
41	2.050000e+00	5.198777e-06	
42	2.100000e+00	4.486845e-06	
43	2.150000e+00	3.940375e-06	
44	2.200000e+00	3.512416e-06	
45	2.250000e+00	3.171029e-06	
46	2.300000e+00	2.894119e-06	
47	2.350000e+00	2.666115e-06	
48	2.400000e+00	2.475844e-06	
49	2.450000e+00	2.315144e-06	
50	2.500000e+00	2.177952e-06	
51	2.550000e+00	2.059694e-06	
52	2.600000e+00	1.956867e-06	
53	2.650000e+00	1.866756e-06	
54	2.700000e+00	1.787226e-06	

Index   v-sweep         rds             
--------------------------------------------------------------------------------
55	2.750000e+00	1.716581e-06	
56	2.800000e+00	1.653459e-06	
57	2.850000e+00	1.596756e-06	
58	2.900000e+00	1.545570e-06	
59	2.950000e+00	1.499154e-06	
60	3.000000e+00	1.456888e-06	
61	3.050000e+00	1.418254e-06	
62	3.100000e+00	1.382813e-06	
63	3.150000e+00	1.350195e-06	
64	3.200000e+00	1.320081e-06	
65	3.250000e+00	1.292201e-06	
66	3.300000e+00	1.266319e-06	
67	3.350000e+00	1.242232e-06	
68	3.400000e+00	1.219762e-06	
69	3.450000e+00	1.198756e-06	
70	3.500000e+00	1.179076e-06	
71	3.550000e+00	1.160603e-06	
72	3.600000e+00	1.143231e-06	
73	3.650000e+00	1.126865e-06	
74	3.700000e+00	1.111423e-06	
75	3.750000e+00	1.096828e-06	
76	3.800000e+00	1.083015e-06	
77	3.850000e+00	1.069922e-06	
78	3.900000e+00	1.057496e-06	
79	3.950000e+00	1.045686e-06	
80	4.000000e+00	1.034450e-06	
81	4.050000e+00	1.023747e-06	
82	4.100000e+00	1.013540e-06	
83	4.150000e+00	1.003795e-06	
84	4.200000e+00	9.944829e-07	
85	4.250000e+00	9.855752e-07	
86	4.300000e+00	9.770463e-07	
87	4.350000e+00	9.688730e-07	
88	4.400000e+00	9.610335e-07	
89	4.450000e+00	9.535081e-07	
90	4.500000e+00	9.462783e-07	
91	4.550000e+00	9.393273e-07	
92	4.600000e+00	9.326394e-07	
93	4.650000e+00	9.261999e-07	
94	4.700000e+00	9.199956e-07	
95	4.750000e+00	9.140137e-07	
96	4.800000e+00	9.082426e-07	
97	4.850000e+00	9.026716e-07	
98	4.900000e+00	8.972903e-07	
99	4.950000e+00	8.920894e-07	
100	5.000000e+00	8.870600e-07	
101	5.050000e+00	8.821939e-07	
102	5.100000e+00	8.774831e-07	
103	5.150000e+00	8.729206e-07	
104	5.200000e+00	8.684994e-07	
105	5.250000e+00	8.642131e-07	
106	5.300000e+00	8.600558e-07	
107	5.350000e+00	8.560215e-07	
108	5.400000e+00	8.521052e-07	
109	5.450000e+00	8.483016e-07	
110	5.500000e+00	8.446060e-07	
111	5.550000e+00	8.410139e-07	
112	5.600000e+00	8.375211e-07	

Index   v-sweep         rds             
--------------------------------------------------------------------------------
113	5.650000e+00	8.341235e-07	
114	5.700000e+00	8.308173e-07	
115	5.750000e+00	8.275989e-07	
116	5.800000e+00	8.244648e-07	
117	5.850000e+00	8.214118e-07	
118	5.900000e+00	8.184369e-07	
119	5.950000e+00	8.155371e-07	
120	6.000000e+00	8.127095e-07	
121	6.050000e+00	8.099516e-07	
122	6.100000e+00	8.072609e-07	
123	6.150000e+00	8.046348e-07	
124	6.200000e+00	8.020712e-07	
125	6.250000e+00	7.995679e-07	
126	6.300000e+00	7.971227e-07	
127	6.350000e+00	7.947337e-07	
128	6.400000e+00	7.923989e-07	
129	6.450000e+00	7.901166e-07	
130	6.500000e+00	7.878851e-07	
131	6.550000e+00	7.857026e-07	
132	6.600000e+00	7.835676e-07	
Reset re-loads circuit ***************************

Circuit: ***************************

Doing analysis at TEMP = 25.000000 and TNOM = 25.000000


No. of Data Rows : 133
                          ***************************
                          DC transfer characteristic  Mon Jan  9 13:58:37  2023
--------------------------------------------------------------------------------
Index   v-sweep         rds             
--------------------------------------------------------------------------------
0	0.000000e+00	5.763013e-04	
1	5.000000e-02	5.637912e-04	
2	1.000000e-01	5.513410e-04	
3	1.500000e-01	5.389503e-04	
4	2.000000e-01	5.266187e-04	
5	2.500000e-01	5.143459e-04	
6	3.000000e-01	5.021316e-04	
7	3.500000e-01	4.899753e-04	
8	4.000000e-01	4.778767e-04	
9	4.500000e-01	4.658355e-04	
10	5.000000e-01	4.538513e-04	
11	5.500000e-01	4.419238e-04	
12	6.000000e-01	4.300526e-04	
13	6.500000e-01	4.182374e-04	
14	7.000000e-01	4.064778e-04	
15	7.500000e-01	3.947735e-04	
16	8.000000e-01	3.831241e-04	
17	8.500000e-01	3.715293e-04	
18	9.000000e-01	3.599887e-04	
19	9.500000e-01	3.485019e-04	
20	1.000000e+00	3.370687e-04	
21	1.050000e+00	3.256886e-04	
22	1.100000e+00	3.143613e-04	
23	1.150000e+00	3.030863e-04	
24	1.200000e+00	2.918633e-04	
25	1.250000e+00	2.806919e-04	
26	1.300000e+00	2.695715e-04	
27	1.350000e+00	2.585018e-04	
28	1.400000e+00	2.474823e-04	
29	1.450000e+00	2.365123e-04	
30	1.500000e+00	2.255914e-04	
31	1.550000e+00	2.147188e-04	
32	1.600000e+00	2.038938e-04	
33	1.650000e+00	1.931155e-04	
34	1.700000e+00	1.823831e-04	
35	1.750000e+00	1.716955e-04	
36	1.800000e+00	1.610514e-04	
37	1.850000e+00	1.504497e-04	
38	1.900000e+00	1.398893e-04	
39	1.950000e+00	1.293694e-04	
40	2.000000e+00	1.188904e-04	
41	2.050000e+00	1.084553e-04	
42	2.100000e+00	9.807223e-05	
43	2.150000e+00	8.776010e-05	
44	2.200000e+00	7.755753e-05	
45	2.250000e+00	6.753756e-05	
46	2.300000e+00	5.782626e-05	
47	2.350000e+00	4.861629e-05	
48	2.400000e+00	4.015581e-05	
49	2.450000e+00	3.269472e-05	
50	2.500000e+00	2.640192e-05	
51	2.550000e+00	2.130682e-05	
52	2.600000e+00	1.730625e-05	
53	2.650000e+00	1.422108e-05	
54	2.700000e+00	1.185667e-05	

Index   v-sweep         rds             
--------------------------------------------------------------------------------
55	2.750000e+00	1.003987e-05	
56	2.800000e+00	8.632105e-06	
57	2.850000e+00	7.528529e-06	
58	2.900000e+00	6.652031e-06	
59	2.950000e+00	5.946491e-06	
60	3.000000e+00	5.371085e-06	
61	3.050000e+00	4.895950e-06	
62	3.100000e+00	4.499043e-06	
63	3.150000e+00	4.163921e-06	
64	3.200000e+00	3.878173e-06	
65	3.250000e+00	3.632325e-06	
66	3.300000e+00	3.419059e-06	
67	3.350000e+00	3.232659e-06	
68	3.400000e+00	3.068615e-06	
69	3.450000e+00	2.923332e-06	
70	3.500000e+00	2.793915e-06	
71	3.550000e+00	2.678016e-06	
72	3.600000e+00	2.573710e-06	
73	3.650000e+00	2.479412e-06	
74	3.700000e+00	2.393802e-06	
75	3.750000e+00	2.315776e-06	
76	3.800000e+00	2.244404e-06	
77	3.850000e+00	2.178898e-06	
78	3.900000e+00	2.118588e-06	
79	3.950000e+00	2.062896e-06	
80	4.000000e+00	2.011328e-06	
81	4.050000e+00	1.963456e-06	
82	4.100000e+00	1.918906e-06	
83	4.150000e+00	1.877354e-06	
84	4.200000e+00	1.838513e-06	
85	4.250000e+00	1.802135e-06	
86	4.300000e+00	1.767997e-06	
87	4.350000e+00	1.735903e-06	
88	4.400000e+00	1.705679e-06	
89	4.450000e+00	1.677170e-06	
90	4.500000e+00	1.650236e-06	
91	4.550000e+00	1.624754e-06	
92	4.600000e+00	1.600611e-06	
93	4.650000e+00	1.577707e-06	
94	4.700000e+00	1.555950e-06	
95	4.750000e+00	1.535257e-06	
96	4.800000e+00	1.515554e-06	
97	4.850000e+00	1.496773e-06	
98	4.900000e+00	1.478851e-06	
99	4.950000e+00	1.461732e-06	
100	5.000000e+00	1.445363e-06	
101	5.050000e+00	1.429698e-06	
102	5.100000e+00	1.414693e-06	
103	5.150000e+00	1.400306e-06	
104	5.200000e+00	1.386502e-06	
105	5.250000e+00	1.373246e-06	
106	5.300000e+00	1.360506e-06	
107	5.350000e+00	1.348254e-06	
108	5.400000e+00	1.336462e-06	
109	5.450000e+00	1.325105e-06	
110	5.500000e+00	1.314160e-06	
111	5.550000e+00	1.303605e-06	
112	5.600000e+00	1.293420e-06	

Index   v-sweep         rds             
--------------------------------------------------------------------------------
113	5.650000e+00	1.283585e-06	
114	5.700000e+00	1.274084e-06	
115	5.750000e+00	1.264900e-06	
116	5.800000e+00	1.256017e-06	
117	5.850000e+00	1.247421e-06	
118	5.900000e+00	1.239099e-06	
119	5.950000e+00	1.231037e-06	
120	6.000000e+00	1.223225e-06	
121	6.050000e+00	1.215649e-06	
122	6.100000e+00	1.208301e-06	
123	6.150000e+00	1.201170e-06	
124	6.200000e+00	1.194247e-06	
125	6.250000e+00	1.187522e-06	
126	6.300000e+00	1.180988e-06	
127	6.350000e+00	1.174637e-06	
128	6.400000e+00	1.168460e-06	
129	6.450000e+00	1.162452e-06	
130	6.500000e+00	1.156605e-06	
131	6.550000e+00	1.150913e-06	
132	6.600000e+00	1.145370e-06	
Reset re-loads circuit ***************************

Circuit: ***************************

Doing analysis at TEMP = 25.000000 and TNOM = 25.000000


No. of Data Rows : 133
                          ***************************
                          DC transfer characteristic  Mon Jan  9 13:58:37  2023
--------------------------------------------------------------------------------
Index   v-sweep         rds             
--------------------------------------------------------------------------------
0	0.000000e+00	6.778986e-04	
1	5.000000e-02	6.665388e-04	
2	1.000000e-01	6.552295e-04	
3	1.500000e-01	6.439705e-04	
4	2.000000e-01	6.327615e-04	
5	2.500000e-01	6.216023e-04	
6	3.000000e-01	6.104925e-04	
7	3.500000e-01	5.994318e-04	
8	4.000000e-01	5.884201e-04	
9	4.500000e-01	5.774570e-04	
10	5.000000e-01	5.665422e-04	
11	5.500000e-01	5.556756e-04	
12	6.000000e-01	5.448567e-04	
13	6.500000e-01	5.340854e-04	
14	7.000000e-01	5.233613e-04	
15	7.500000e-01	5.126843e-04	
16	8.000000e-01	5.020540e-04	
17	8.500000e-01	4.914702e-04	
18	9.000000e-01	4.809325e-04	
19	9.500000e-01	4.704409e-04	
20	1.000000e+00	4.599949e-04	
21	1.050000e+00	4.495943e-04	
22	1.100000e+00	4.392388e-04	
23	1.150000e+00	4.289283e-04	
24	1.200000e+00	4.186623e-04	
25	1.250000e+00	4.084407e-04	
26	1.300000e+00	3.982632e-04	
27	1.350000e+00	3.881294e-04	
28	1.400000e+00	3.780392e-04	
29	1.450000e+00	3.679923e-04	
30	1.500000e+00	3.579882e-04	
31	1.550000e+00	3.480269e-04	
32	1.600000e+00	3.381079e-04	
33	1.650000e+00	3.282309e-04	
34	1.700000e+00	3.183957e-04	
35	1.750000e+00	3.086018e-04	
36	1.800000e+00	2.988489e-04	
37	1.850000e+00	2.891367e-04	
38	1.900000e+00	2.794647e-04	
39	1.950000e+00	2.698324e-04	
40	2.000000e+00	2.602393e-04	
41	2.050000e+00	2.506850e-04	
42	2.100000e+00	2.411688e-04	
43	2.150000e+00	2.316899e-04	
44	2.200000e+00	2.222475e-04	
45	2.250000e+00	2.128408e-04	
46	2.300000e+00	2.034685e-04	
47	2.350000e+00	1.941294e-04	
48	2.400000e+00	1.848219e-04	
49	2.450000e+00	1.755440e-04	
50	2.500000e+00	1.662935e-04	
51	2.550000e+00	1.570677e-04	
52	2.600000e+00	1.478633e-04	
53	2.650000e+00	1.386766e-04	
54	2.700000e+00	1.295037e-04	

Index   v-sweep         rds             
--------------------------------------------------------------------------------
55	2.750000e+00	1.203405e-04	
56	2.800000e+00	1.111841e-04	
57	2.850000e+00	1.020347e-04	
58	2.900000e+00	9.289928e-05	
59	2.950000e+00	8.379811e-05	
60	3.000000e+00	7.477489e-05	
61	3.050000e+00	6.590950e-05	
62	3.100000e+00	5.732885e-05	
63	3.150000e+00	4.920617e-05	
64	3.200000e+00	4.173770e-05	
65	3.250000e+00	3.509721e-05	
66	3.300000e+00	2.938832e-05	
67	3.350000e+00	2.462188e-05	
68	3.400000e+00	2.072807e-05	
69	3.450000e+00	1.758936e-05	
70	3.500000e+00	1.507373e-05	
71	3.550000e+00	1.305692e-05	
72	3.600000e+00	1.143275e-05	
73	3.650000e+00	1.011539e-05	
74	3.700000e+00	9.037625e-06	
75	3.750000e+00	8.147610e-06	
76	3.800000e+00	7.405652e-06	
77	3.850000e+00	6.781353e-06	
78	3.900000e+00	6.251358e-06	
79	3.950000e+00	5.797614e-06	
80	4.000000e+00	5.406070e-06	
81	4.050000e+00	5.065702e-06	
82	4.100000e+00	4.767785e-06	
83	4.150000e+00	4.505363e-06	
84	4.200000e+00	4.272840e-06	
85	4.250000e+00	4.065680e-06	
86	4.300000e+00	3.880179e-06	
87	4.350000e+00	3.713287e-06	
88	4.400000e+00	3.562480e-06	
89	4.450000e+00	3.425651e-06	
90	4.500000e+00	3.301031e-06	
91	4.550000e+00	3.187130e-06	
92	4.600000e+00	3.082678e-06	
93	4.650000e+00	2.986596e-06	
94	4.700000e+00	2.897955e-06	
95	4.750000e+00	2.815955e-06	
96	4.800000e+00	2.739904e-06	
97	4.850000e+00	2.669199e-06	
98	4.900000e+00	2.603316e-06	
99	4.950000e+00	2.541793e-06	
100	5.000000e+00	2.484225e-06	
101	5.050000e+00	2.430254e-06	
102	5.100000e+00	2.379563e-06	
103	5.150000e+00	2.331871e-06	
104	5.200000e+00	2.286925e-06	
105	5.250000e+00	2.244503e-06	
106	5.300000e+00	2.204402e-06	
107	5.350000e+00	2.166443e-06	
108	5.400000e+00	2.130461e-06	
109	5.450000e+00	2.096311e-06	
110	5.500000e+00	2.063859e-06	
111	5.550000e+00	2.032984e-06	
112	5.600000e+00	2.003577e-06	

Index   v-sweep         rds             
--------------------------------------------------------------------------------
113	5.650000e+00	1.975537e-06	
114	5.700000e+00	1.948774e-06	
115	5.750000e+00	1.923204e-06	
116	5.800000e+00	1.898751e-06	
117	5.850000e+00	1.875343e-06	
118	5.900000e+00	1.852918e-06	
119	5.950000e+00	1.831415e-06	
120	6.000000e+00	1.810779e-06	
121	6.050000e+00	1.790961e-06	
122	6.100000e+00	1.771914e-06	
123	6.150000e+00	1.753593e-06	
124	6.200000e+00	1.735960e-06	
125	6.250000e+00	1.718976e-06	
126	6.300000e+00	1.702607e-06	
127	6.350000e+00	1.686820e-06	
128	6.400000e+00	1.671587e-06	
129	6.450000e+00	1.656878e-06	
130	6.500000e+00	1.642667e-06	
131	6.550000e+00	1.628930e-06	
132	6.600000e+00	1.615644e-06	
Reset re-loads circuit ***************************

Circuit: ***************************

Doing analysis at TEMP = 25.000000 and TNOM = 25.000000


No. of Data Rows : 133
                          ***************************
                          DC transfer characteristic  Mon Jan  9 13:58:37  2023
--------------------------------------------------------------------------------
Index   v-sweep         rds             
--------------------------------------------------------------------------------
0	0.000000e+00	7.489368e-04	
1	5.000000e-02	7.387865e-04	
2	1.000000e-01	7.286775e-04	
3	1.500000e-01	7.186097e-04	
4	2.000000e-01	7.085828e-04	
5	2.500000e-01	6.985966e-04	
6	3.000000e-01	6.886509e-04	
7	3.500000e-01	6.787456e-04	
8	4.000000e-01	6.688803e-04	
9	4.500000e-01	6.590550e-04	
10	5.000000e-01	6.492693e-04	
11	5.500000e-01	6.395232e-04	
12	6.000000e-01	6.298163e-04	
13	6.500000e-01	6.201486e-04	
14	7.000000e-01	6.105197e-04	
15	7.500000e-01	6.009295e-04	
16	8.000000e-01	5.913778e-04	
17	8.500000e-01	5.818645e-04	
18	9.000000e-01	5.723892e-04	
19	9.500000e-01	5.629518e-04	
20	1.000000e+00	5.535522e-04	
21	1.050000e+00	5.441901e-04	
22	1.100000e+00	5.348653e-04	
23	1.150000e+00	5.255776e-04	
24	1.200000e+00	5.163269e-04	
25	1.250000e+00	5.071129e-04	
26	1.300000e+00	4.979355e-04	
27	1.350000e+00	4.887944e-04	
28	1.400000e+00	4.796896e-04	
29	1.450000e+00	4.706207e-04	
30	1.500000e+00	4.615876e-04	
31	1.550000e+00	4.525901e-04	
32	1.600000e+00	4.436281e-04	
33	1.650000e+00	4.347012e-04	
34	1.700000e+00	4.258094e-04	
35	1.750000e+00	4.169524e-04	
36	1.800000e+00	4.081300e-04	
37	1.850000e+00	3.993421e-04	
38	1.900000e+00	3.905884e-04	
39	1.950000e+00	3.818687e-04	
40	2.000000e+00	3.731828e-04	
41	2.050000e+00	3.645306e-04	
42	2.100000e+00	3.559117e-04	
43	2.150000e+00	3.473259e-04	
44	2.200000e+00	3.387731e-04	
45	2.250000e+00	3.302530e-04	
46	2.300000e+00	3.217653e-04	
47	2.350000e+00	3.133098e-04	
48	2.400000e+00	3.048861e-04	
49	2.450000e+00	2.964939e-04	
50	2.500000e+00	2.881331e-04	
51	2.550000e+00	2.798031e-04	
52	2.600000e+00	2.715035e-04	
53	2.650000e+00	2.632340e-04	
54	2.700000e+00	2.549941e-04	

Index   v-sweep         rds             
--------------------------------------------------------------------------------
55	2.750000e+00	2.467832e-04	
56	2.800000e+00	2.386007e-04	
57	2.850000e+00	2.304459e-04	
58	2.900000e+00	2.223179e-04	
59	2.950000e+00	2.142158e-04	
60	3.000000e+00	2.061384e-04	
61	3.050000e+00	1.980844e-04	
62	3.100000e+00	1.900521e-04	
63	3.150000e+00	1.820395e-04	
64	3.200000e+00	1.740444e-04	
65	3.250000e+00	1.660639e-04	
66	3.300000e+00	1.580944e-04	
67	3.350000e+00	1.501319e-04	
68	3.400000e+00	1.421714e-04	
69	3.450000e+00	1.342071e-04	
70	3.500000e+00	1.262325e-04	
71	3.550000e+00	1.182406e-04	
72	3.600000e+00	1.102251e-04	
73	3.650000e+00	1.021816e-04	
74	3.700000e+00	9.411150e-05	
75	3.750000e+00	8.602677e-05	
76	3.800000e+00	7.795796e-05	
77	3.850000e+00	6.996349e-05	
78	3.900000e+00	6.213751e-05	
79	3.950000e+00	5.461027e-05	
80	4.000000e+00	4.753489e-05	
81	4.050000e+00	4.105982e-05	
82	4.100000e+00	3.529629e-05	
83	4.150000e+00	3.029588e-05	
84	4.200000e+00	2.604777e-05	
85	4.250000e+00	2.249296e-05	
86	4.300000e+00	1.954550e-05	
87	4.350000e+00	1.711135e-05	
88	4.400000e+00	1.510093e-05	
89	4.450000e+00	1.343542e-05	
90	4.500000e+00	1.204872e-05	
91	4.550000e+00	1.088693e-05	
92	4.600000e+00	9.906859e-06	
93	4.650000e+00	9.074155e-06	
94	4.700000e+00	8.361582e-06	
95	4.750000e+00	7.747530e-06	
96	4.800000e+00	7.214807e-06	
97	4.850000e+00	6.749670e-06	
98	4.900000e+00	6.341076e-06	
99	4.950000e+00	5.980097e-06	
100	5.000000e+00	5.659471e-06	
101	5.050000e+00	5.373254e-06	
102	5.100000e+00	5.116549e-06	
103	5.150000e+00	4.885297e-06	
104	5.200000e+00	4.676114e-06	
105	5.250000e+00	4.486165e-06	
106	5.300000e+00	4.313054e-06	
107	5.350000e+00	4.154755e-06	
108	5.400000e+00	4.009537e-06	
109	5.450000e+00	3.875922e-06	
110	5.500000e+00	3.752636e-06	
111	5.550000e+00	3.638578e-06	
112	5.600000e+00	3.532793e-06	

Index   v-sweep         rds             
--------------------------------------------------------------------------------
113	5.650000e+00	3.434451e-06	
114	5.700000e+00	3.342822e-06	
115	5.750000e+00	3.257270e-06	
116	5.800000e+00	3.177231e-06	
117	5.850000e+00	3.102207e-06	
118	5.900000e+00	3.031759e-06	
119	5.950000e+00	2.965494e-06	
120	6.000000e+00	2.903063e-06	
121	6.050000e+00	2.844152e-06	
122	6.100000e+00	2.788481e-06	
123	6.150000e+00	2.735798e-06	
124	6.200000e+00	2.685876e-06	
125	6.250000e+00	2.638509e-06	
126	6.300000e+00	2.593512e-06	
127	6.350000e+00	2.550715e-06	
128	6.400000e+00	2.509966e-06	
129	6.450000e+00	2.471125e-06	
130	6.500000e+00	2.434063e-06	
131	6.550000e+00	2.398665e-06	
132	6.600000e+00	2.364823e-06	
Reset re-loads circuit ***************************

Circuit: ***************************

Note: No ".plot", ".print", or ".fourier" lines; no simulations run
