
Note: Compatibility modes selected: hs

Warning: m=xx on .subckt line will override multiplier m hierarchy!


Circuit: ***************************

Doing analysis at TEMP = 125.000000 and TNOM = 125.000000


No. of Data Rows : 133
                          ***************************
                          DC transfer characteristic  Mon Jan  9 13:58:39  2023
--------------------------------------------------------------------------------
Index   v-sweep         rds             
--------------------------------------------------------------------------------
0	0.000000e+00	3.026695e-04	
1	5.000000e-02	2.461442e-04	
2	1.000000e-01	1.916854e-04	
3	1.500000e-01	1.399130e-04	
4	2.000000e-01	9.294350e-05	
5	2.500000e-01	5.645872e-05	
6	3.000000e-01	3.610741e-05	
7	3.500000e-01	2.737190e-05	
8	4.000000e-01	2.324295e-05	
9	4.500000e-01	2.078490e-05	
10	5.000000e-01	1.907393e-05	
11	5.500000e-01	1.777825e-05	
12	6.000000e-01	1.674936e-05	
13	6.500000e-01	1.590751e-05	
14	7.000000e-01	1.520410e-05	
15	7.500000e-01	1.460697e-05	
16	8.000000e-01	1.409361e-05	
17	8.500000e-01	1.364763e-05	
18	9.000000e-01	1.325673e-05	
19	9.500000e-01	1.291147e-05	
20	1.000000e+00	1.260447e-05	
21	1.050000e+00	1.232987e-05	
22	1.100000e+00	1.208292e-05	
23	1.150000e+00	1.185980e-05	
24	1.200000e+00	1.165732e-05	
25	1.250000e+00	1.147286e-05	
26	1.300000e+00	1.130420e-05	
27	1.350000e+00	1.114949e-05	
28	1.400000e+00	1.100714e-05	
29	1.450000e+00	1.087579e-05	
30	1.500000e+00	1.075428e-05	
31	1.550000e+00	1.064161e-05	
32	1.600000e+00	1.053688e-05	
33	1.650000e+00	1.043935e-05	
34	1.700000e+00	1.034833e-05	
35	1.750000e+00	1.026324e-05	
36	1.800000e+00	1.018355e-05	
37	1.850000e+00	1.010880e-05	
38	1.900000e+00	1.003857e-05	
39	1.950000e+00	9.972498e-06	
40	2.000000e+00	9.910248e-06	
41	2.050000e+00	9.851525e-06	
42	2.100000e+00	9.796060e-06	
43	2.150000e+00	9.743613e-06	
44	2.200000e+00	9.693964e-06	
45	2.250000e+00	9.646914e-06	
46	2.300000e+00	9.602284e-06	
47	2.350000e+00	9.559907e-06	
48	2.400000e+00	9.519635e-06	
49	2.450000e+00	9.481329e-06	
50	2.500000e+00	9.444863e-06	
51	2.550000e+00	9.410122e-06	
52	2.600000e+00	9.376998e-06	
53	2.650000e+00	9.345394e-06	
54	2.700000e+00	9.315220e-06	

Index   v-sweep         rds             
--------------------------------------------------------------------------------
55	2.750000e+00	9.286391e-06	
56	2.800000e+00	9.258829e-06	
57	2.850000e+00	9.232464e-06	
58	2.900000e+00	9.207229e-06	
59	2.950000e+00	9.183061e-06	
60	3.000000e+00	9.159903e-06	
61	3.050000e+00	9.137701e-06	
62	3.100000e+00	9.116406e-06	
63	3.150000e+00	9.095970e-06	
64	3.200000e+00	9.076350e-06	
65	3.250000e+00	9.057506e-06	
66	3.300000e+00	9.039398e-06	
67	3.350000e+00	9.021991e-06	
68	3.400000e+00	9.005251e-06	
69	3.450000e+00	8.989147e-06	
70	3.500000e+00	8.973649e-06	
71	3.550000e+00	8.958728e-06	
72	3.600000e+00	8.944359e-06	
73	3.650000e+00	8.930518e-06	
74	3.700000e+00	8.917179e-06	
75	3.750000e+00	8.904321e-06	
76	3.800000e+00	8.891924e-06	
77	3.850000e+00	8.879968e-06	
78	3.900000e+00	8.868433e-06	
79	3.950000e+00	8.857302e-06	
80	4.000000e+00	8.846559e-06	
81	4.050000e+00	8.836188e-06	
82	4.100000e+00	8.826173e-06	
83	4.150000e+00	8.816500e-06	
84	4.200000e+00	8.807156e-06	
85	4.250000e+00	8.798127e-06	
86	4.300000e+00	8.789402e-06	
87	4.350000e+00	8.780968e-06	
88	4.400000e+00	8.772815e-06	
89	4.450000e+00	8.764932e-06	
90	4.500000e+00	8.757309e-06	
91	4.550000e+00	8.749935e-06	
92	4.600000e+00	8.742803e-06	
93	4.650000e+00	8.735904e-06	
94	4.700000e+00	8.729228e-06	
95	4.750000e+00	8.722768e-06	
96	4.800000e+00	8.716516e-06	
97	4.850000e+00	8.710465e-06	
98	4.900000e+00	8.704608e-06	
99	4.950000e+00	8.698938e-06	
100	5.000000e+00	8.693449e-06	
101	5.050000e+00	8.688135e-06	
102	5.100000e+00	8.682989e-06	
103	5.150000e+00	8.678007e-06	
104	5.200000e+00	8.673182e-06	
105	5.250000e+00	8.668509e-06	
106	5.300000e+00	8.663985e-06	
107	5.350000e+00	8.659602e-06	
108	5.400000e+00	8.655358e-06	
109	5.450000e+00	8.651248e-06	
110	5.500000e+00	8.647266e-06	
111	5.550000e+00	8.643411e-06	
112	5.600000e+00	8.639676e-06	

Index   v-sweep         rds             
--------------------------------------------------------------------------------
113	5.650000e+00	8.636059e-06	
114	5.700000e+00	8.632556e-06	
115	5.750000e+00	8.629164e-06	
116	5.800000e+00	8.625878e-06	
117	5.850000e+00	8.622696e-06	
118	5.900000e+00	8.619615e-06	
119	5.950000e+00	8.616632e-06	
120	6.000000e+00	8.613743e-06	
121	6.050000e+00	8.610946e-06	
122	6.100000e+00	8.608238e-06	
123	6.150000e+00	8.605616e-06	
124	6.200000e+00	8.603079e-06	
125	6.250000e+00	8.600623e-06	
126	6.300000e+00	8.598246e-06	
127	6.350000e+00	8.595946e-06	
128	6.400000e+00	8.593721e-06	
129	6.450000e+00	8.591568e-06	
130	6.500000e+00	8.589486e-06	
131	6.550000e+00	8.587472e-06	
132	6.600000e+00	8.585524e-06	
Reset re-loads circuit ***************************

Circuit: ***************************

Doing analysis at TEMP = 125.000000 and TNOM = 125.000000


No. of Data Rows : 133
                          ***************************
                          DC transfer characteristic  Mon Jan  9 13:58:40  2023
--------------------------------------------------------------------------------
Index   v-sweep         rds             
--------------------------------------------------------------------------------
0	0.000000e+00	9.442167e-04	
1	5.000000e-02	8.783968e-04	
2	1.000000e-01	8.145051e-04	
3	1.500000e-01	7.524791e-04	
4	2.000000e-01	6.922598e-04	
5	2.500000e-01	6.337931e-04	
6	3.000000e-01	5.770313e-04	
7	3.500000e-01	5.219363e-04	
8	4.000000e-01	4.684851e-04	
9	4.500000e-01	4.166809e-04	
10	5.000000e-01	3.665749e-04	
11	5.500000e-01	3.183145e-04	
12	6.000000e-01	2.722422e-04	
13	6.500000e-01	2.290804e-04	
14	7.000000e-01	1.901353e-04	
15	7.500000e-01	1.570919e-04	
16	8.000000e-01	1.309544e-04	
17	8.500000e-01	1.112037e-04	
18	9.000000e-01	9.640048e-05	
19	9.500000e-01	8.513249e-05	
20	1.000000e+00	7.635494e-05	
21	1.050000e+00	6.935802e-05	
22	1.100000e+00	6.366455e-05	
23	1.150000e+00	5.894856e-05	
24	1.200000e+00	5.498218e-05	
25	1.250000e+00	5.160215e-05	
26	1.300000e+00	4.868889e-05	
27	1.350000e+00	4.615294e-05	
28	1.400000e+00	4.392616e-05	
29	1.450000e+00	4.195577e-05	
30	1.500000e+00	4.020029e-05	
31	1.550000e+00	3.862668e-05	
32	1.600000e+00	3.720832e-05	
33	1.650000e+00	3.592349e-05	
34	1.700000e+00	3.475436e-05	
35	1.750000e+00	3.368611e-05	
36	1.800000e+00	3.270633e-05	
37	1.850000e+00	3.180457e-05	
38	1.900000e+00	3.097195e-05	
39	1.950000e+00	3.020089e-05	
40	2.000000e+00	2.948487e-05	
41	2.050000e+00	2.881826e-05	
42	2.100000e+00	2.819616e-05	
43	2.150000e+00	2.761431e-05	
44	2.200000e+00	2.706896e-05	
45	2.250000e+00	2.655682e-05	
46	2.300000e+00	2.607498e-05	
47	2.350000e+00	2.562087e-05	
48	2.400000e+00	2.519217e-05	
49	2.450000e+00	2.478684e-05	
50	2.500000e+00	2.440305e-05	
51	2.550000e+00	2.403914e-05	
52	2.600000e+00	2.369363e-05	
53	2.650000e+00	2.336518e-05	
54	2.700000e+00	2.305256e-05	

Index   v-sweep         rds             
--------------------------------------------------------------------------------
55	2.750000e+00	2.275468e-05	
56	2.800000e+00	2.247053e-05	
57	2.850000e+00	2.219920e-05	
58	2.900000e+00	2.193985e-05	
59	2.950000e+00	2.169172e-05	
60	3.000000e+00	2.145411e-05	
61	3.050000e+00	2.122637e-05	
62	3.100000e+00	2.100790e-05	
63	3.150000e+00	2.079817e-05	
64	3.200000e+00	2.059667e-05	
65	3.250000e+00	2.040293e-05	
66	3.300000e+00	2.021652e-05	
67	3.350000e+00	2.003704e-05	
68	3.400000e+00	1.986411e-05	
69	3.450000e+00	1.969739e-05	
70	3.500000e+00	1.953656e-05	
71	3.550000e+00	1.938131e-05	
72	3.600000e+00	1.923137e-05	
73	3.650000e+00	1.908648e-05	
74	3.700000e+00	1.894638e-05	
75	3.750000e+00	1.881085e-05	
76	3.800000e+00	1.867967e-05	
77	3.850000e+00	1.855265e-05	
78	3.900000e+00	1.842959e-05	
79	3.950000e+00	1.831031e-05	
80	4.000000e+00	1.819465e-05	
81	4.050000e+00	1.808244e-05	
82	4.100000e+00	1.797354e-05	
83	4.150000e+00	1.786781e-05	
84	4.200000e+00	1.776511e-05	
85	4.250000e+00	1.766533e-05	
86	4.300000e+00	1.756833e-05	
87	4.350000e+00	1.747401e-05	
88	4.400000e+00	1.738226e-05	
89	4.450000e+00	1.729297e-05	
90	4.500000e+00	1.720607e-05	
91	4.550000e+00	1.712145e-05	
92	4.600000e+00	1.703902e-05	
93	4.650000e+00	1.695871e-05	
94	4.700000e+00	1.688043e-05	
95	4.750000e+00	1.680412e-05	
96	4.800000e+00	1.672970e-05	
97	4.850000e+00	1.665711e-05	
98	4.900000e+00	1.658627e-05	
99	4.950000e+00	1.651714e-05	
100	5.000000e+00	1.644964e-05	
101	5.050000e+00	1.638373e-05	
102	5.100000e+00	1.631935e-05	
103	5.150000e+00	1.625645e-05	
104	5.200000e+00	1.619499e-05	
105	5.250000e+00	1.613491e-05	
106	5.300000e+00	1.607617e-05	
107	5.350000e+00	1.601872e-05	
108	5.400000e+00	1.596254e-05	
109	5.450000e+00	1.590757e-05	
110	5.500000e+00	1.585378e-05	
111	5.550000e+00	1.580114e-05	
112	5.600000e+00	1.574960e-05	

Index   v-sweep         rds             
--------------------------------------------------------------------------------
113	5.650000e+00	1.569914e-05	
114	5.700000e+00	1.564973e-05	
115	5.750000e+00	1.560133e-05	
116	5.800000e+00	1.555391e-05	
117	5.850000e+00	1.550744e-05	
118	5.900000e+00	1.546191e-05	
119	5.950000e+00	1.541728e-05	
120	6.000000e+00	1.537352e-05	
121	6.050000e+00	1.533061e-05	
122	6.100000e+00	1.528854e-05	
123	6.150000e+00	1.524727e-05	
124	6.200000e+00	1.520678e-05	
125	6.250000e+00	1.516706e-05	
126	6.300000e+00	1.512808e-05	
127	6.350000e+00	1.508982e-05	
128	6.400000e+00	1.505227e-05	
129	6.450000e+00	1.501540e-05	
130	6.500000e+00	1.497920e-05	
131	6.550000e+00	1.494365e-05	
132	6.600000e+00	1.490873e-05	
Reset re-loads circuit ***************************

Circuit: ***************************

Doing analysis at TEMP = 125.000000 and TNOM = 125.000000


No. of Data Rows : 133
                          ***************************
                          DC transfer characteristic  Mon Jan  9 13:58:40  2023
--------------------------------------------------------------------------------
Index   v-sweep         rds             
--------------------------------------------------------------------------------
0	0.000000e+00	1.417426e-03	
1	5.000000e-02	1.349323e-03	
2	1.000000e-01	1.283067e-03	
3	1.500000e-01	1.218599e-03	
4	2.000000e-01	1.155863e-03	
5	2.500000e-01	1.094805e-03	
6	3.000000e-01	1.035371e-03	
7	3.500000e-01	9.775100e-04	
8	4.000000e-01	9.211732e-04	
9	4.500000e-01	8.663134e-04	
10	5.000000e-01	8.128856e-04	
11	5.500000e-01	7.608475e-04	
12	6.000000e-01	7.101594e-04	
13	6.500000e-01	6.607839e-04	
14	7.000000e-01	6.126868e-04	
15	7.500000e-01	5.658361e-04	
16	8.000000e-01	5.202028e-04	
17	8.500000e-01	4.757608e-04	
18	9.000000e-01	4.324883e-04	
19	9.500000e-01	3.903741e-04	
20	1.000000e+00	3.494418e-04	
21	1.050000e+00	3.098274e-04	
22	1.100000e+00	2.719544e-04	
23	1.150000e+00	2.367193e-04	
24	1.200000e+00	2.053184e-04	
25	1.250000e+00	1.785961e-04	
26	1.300000e+00	1.565988e-04	
27	1.350000e+00	1.387579e-04	
28	1.400000e+00	1.242961e-04	
29	1.450000e+00	1.124855e-04	
30	1.500000e+00	1.027331e-04	
31	1.550000e+00	9.458308e-05	
32	1.600000e+00	8.769171e-05	
33	1.650000e+00	8.180034e-05	
34	1.700000e+00	7.671318e-05	
35	1.750000e+00	7.228046e-05	
36	1.800000e+00	6.838635e-05	
37	1.850000e+00	6.494017e-05	
38	1.900000e+00	6.187011e-05	
39	1.950000e+00	5.911867e-05	
40	2.000000e+00	5.663935e-05	
41	2.050000e+00	5.439415e-05	
42	2.100000e+00	5.235178e-05	
43	2.150000e+00	5.048620e-05	
44	2.200000e+00	4.877565e-05	
45	2.250000e+00	4.720173e-05	
46	2.300000e+00	4.574884e-05	
47	2.350000e+00	4.440366e-05	
48	2.400000e+00	4.315473e-05	
49	2.450000e+00	4.199216e-05	
50	2.500000e+00	4.090736e-05	
51	2.550000e+00	3.989284e-05	
52	2.600000e+00	3.894202e-05	
53	2.650000e+00	3.804914e-05	
54	2.700000e+00	3.720910e-05	

Index   v-sweep         rds             
--------------------------------------------------------------------------------
55	2.750000e+00	3.641737e-05	
56	2.800000e+00	3.566994e-05	
57	2.850000e+00	3.496321e-05	
58	2.900000e+00	3.429396e-05	
59	2.950000e+00	3.365933e-05	
60	3.000000e+00	3.305670e-05	
61	3.050000e+00	3.248373e-05	
62	3.100000e+00	3.193831e-05	
63	3.150000e+00	3.141850e-05	
64	3.200000e+00	3.092256e-05	
65	3.250000e+00	3.044890e-05	
66	3.300000e+00	2.999605e-05	
67	3.350000e+00	2.956268e-05	
68	3.400000e+00	2.914758e-05	
69	3.450000e+00	2.874962e-05	
70	3.500000e+00	2.836777e-05	
71	3.550000e+00	2.800108e-05	
72	3.600000e+00	2.764866e-05	
73	3.650000e+00	2.730972e-05	
74	3.700000e+00	2.698349e-05	
75	3.750000e+00	2.666929e-05	
76	3.800000e+00	2.636645e-05	
77	3.850000e+00	2.607440e-05	
78	3.900000e+00	2.579255e-05	
79	3.950000e+00	2.552040e-05	
80	4.000000e+00	2.525745e-05	
81	4.050000e+00	2.500325e-05	
82	4.100000e+00	2.475738e-05	
83	4.150000e+00	2.451943e-05	
84	4.200000e+00	2.428904e-05	
85	4.250000e+00	2.406585e-05	
86	4.300000e+00	2.384953e-05	
87	4.350000e+00	2.363978e-05	
88	4.400000e+00	2.343630e-05	
89	4.450000e+00	2.323881e-05	
90	4.500000e+00	2.304707e-05	
91	4.550000e+00	2.286083e-05	
92	4.600000e+00	2.267986e-05	
93	4.650000e+00	2.250393e-05	
94	4.700000e+00	2.233285e-05	
95	4.750000e+00	2.216642e-05	
96	4.800000e+00	2.200446e-05	
97	4.850000e+00	2.184678e-05	
98	4.900000e+00	2.169323e-05	
99	4.950000e+00	2.154365e-05	
100	5.000000e+00	2.139789e-05	
101	5.050000e+00	2.125580e-05	
102	5.100000e+00	2.111726e-05	
103	5.150000e+00	2.098213e-05	
104	5.200000e+00	2.085029e-05	
105	5.250000e+00	2.072163e-05	
106	5.300000e+00	2.059603e-05	
107	5.350000e+00	2.047339e-05	
108	5.400000e+00	2.035361e-05	
109	5.450000e+00	2.023659e-05	
110	5.500000e+00	2.012223e-05	
111	5.550000e+00	2.001046e-05	
112	5.600000e+00	1.990119e-05	

Index   v-sweep         rds             
--------------------------------------------------------------------------------
113	5.650000e+00	1.979433e-05	
114	5.700000e+00	1.968981e-05	
115	5.750000e+00	1.958755e-05	
116	5.800000e+00	1.948749e-05	
117	5.850000e+00	1.938956e-05	
118	5.900000e+00	1.929369e-05	
119	5.950000e+00	1.919982e-05	
120	6.000000e+00	1.910788e-05	
121	6.050000e+00	1.901783e-05	
122	6.100000e+00	1.892961e-05	
123	6.150000e+00	1.884316e-05	
124	6.200000e+00	1.875843e-05	
125	6.250000e+00	1.867538e-05	
126	6.300000e+00	1.859395e-05	
127	6.350000e+00	1.851411e-05	
128	6.400000e+00	1.843580e-05	
129	6.450000e+00	1.835899e-05	
130	6.500000e+00	1.828363e-05	
131	6.550000e+00	1.820969e-05	
132	6.600000e+00	1.813712e-05	
Reset re-loads circuit ***************************

Circuit: ***************************

Doing analysis at TEMP = 125.000000 and TNOM = 125.000000


No. of Data Rows : 133
                          ***************************
                          DC transfer characteristic  Mon Jan  9 13:58:40  2023
--------------------------------------------------------------------------------
Index   v-sweep         rds             
--------------------------------------------------------------------------------
0	0.000000e+00	1.730383e-03	
1	5.000000e-02	1.664727e-03	
2	1.000000e-01	1.600665e-03	
3	1.500000e-01	1.538151e-03	
4	2.000000e-01	1.477142e-03	
5	2.500000e-01	1.417596e-03	
6	3.000000e-01	1.359471e-03	
7	3.500000e-01	1.302727e-03	
8	4.000000e-01	1.247324e-03	
9	4.500000e-01	1.193224e-03	
10	5.000000e-01	1.140389e-03	
11	5.500000e-01	1.088784e-03	
12	6.000000e-01	1.038373e-03	
13	6.500000e-01	9.891238e-04	
14	7.000000e-01	9.410033e-04	
15	7.500000e-01	8.939809e-04	
16	8.000000e-01	8.480268e-04	
17	8.500000e-01	8.031120e-04	
18	9.000000e-01	7.592079e-04	
19	9.500000e-01	7.162858e-04	
20	1.000000e+00	6.743157e-04	
21	1.050000e+00	6.332646e-04	
22	1.100000e+00	5.930941e-04	
23	1.150000e+00	5.537553e-04	
24	1.200000e+00	5.151816e-04	
25	1.250000e+00	4.772787e-04	
26	1.300000e+00	4.399149e-04	
27	1.350000e+00	4.029286e-04	
28	1.400000e+00	3.661972e-04	
29	1.450000e+00	3.298271e-04	
30	1.500000e+00	2.944194e-04	
31	1.550000e+00	2.611032e-04	
32	1.600000e+00	2.310810e-04	
33	1.650000e+00	2.050488e-04	
34	1.700000e+00	1.830364e-04	
35	1.750000e+00	1.646336e-04	
36	1.800000e+00	1.492702e-04	
37	1.850000e+00	1.363867e-04	
38	1.900000e+00	1.255023e-04	
39	1.950000e+00	1.162274e-04	
40	2.000000e+00	1.082541e-04	
41	2.050000e+00	1.013410e-04	
42	2.100000e+00	9.529906e-05	
43	2.150000e+00	8.997912e-05	
44	2.200000e+00	8.526291e-05	
45	2.250000e+00	8.105577e-05	
46	2.300000e+00	7.728130e-05	
47	2.350000e+00	7.387728e-05	
48	2.400000e+00	7.079265e-05	
49	2.450000e+00	6.798514e-05	
50	2.500000e+00	6.541954e-05	
51	2.550000e+00	6.306625e-05	
52	2.600000e+00	6.090027e-05	
53	2.650000e+00	5.890033e-05	
54	2.700000e+00	5.704822e-05	

Index   v-sweep         rds             
--------------------------------------------------------------------------------
55	2.750000e+00	5.532831e-05	
56	2.800000e+00	5.372704e-05	
57	2.850000e+00	5.223265e-05	
58	2.900000e+00	5.083487e-05	
59	2.950000e+00	4.952470e-05	
60	3.000000e+00	4.829421e-05	
61	3.050000e+00	4.713641e-05	
62	3.100000e+00	4.604507e-05	
63	3.150000e+00	4.501468e-05	
64	3.200000e+00	4.404031e-05	
65	3.250000e+00	4.311752e-05	
66	3.300000e+00	4.224237e-05	
67	3.350000e+00	4.141128e-05	
68	3.400000e+00	4.062102e-05	
69	3.450000e+00	3.986867e-05	
70	3.500000e+00	3.915160e-05	
71	3.550000e+00	3.846738e-05	
72	3.600000e+00	3.781382e-05	
73	3.650000e+00	3.718893e-05	
74	3.700000e+00	3.659087e-05	
75	3.750000e+00	3.601795e-05	
76	3.800000e+00	3.546863e-05	
77	3.850000e+00	3.494150e-05	
78	3.900000e+00	3.443524e-05	
79	3.950000e+00	3.394865e-05	
80	4.000000e+00	3.348060e-05	
81	4.050000e+00	3.303007e-05	
82	4.100000e+00	3.259610e-05	
83	4.150000e+00	3.217779e-05	
84	4.200000e+00	3.177431e-05	
85	4.250000e+00	3.138491e-05	
86	4.300000e+00	3.100885e-05	
87	4.350000e+00	3.064548e-05	
88	4.400000e+00	3.029415e-05	
89	4.450000e+00	2.995430e-05	
90	4.500000e+00	2.962536e-05	
91	4.550000e+00	2.930683e-05	
92	4.600000e+00	2.899822e-05	
93	4.650000e+00	2.869908e-05	
94	4.700000e+00	2.840899e-05	
95	4.750000e+00	2.812754e-05	
96	4.800000e+00	2.785436e-05	
97	4.850000e+00	2.758909e-05	
98	4.900000e+00	2.733140e-05	
99	4.950000e+00	2.708097e-05	
100	5.000000e+00	2.683750e-05	
101	5.050000e+00	2.660071e-05	
102	5.100000e+00	2.637034e-05	
103	5.150000e+00	2.614611e-05	
104	5.200000e+00	2.592781e-05	
105	5.250000e+00	2.571520e-05	
106	5.300000e+00	2.550806e-05	
107	5.350000e+00	2.530618e-05	
108	5.400000e+00	2.510939e-05	
109	5.450000e+00	2.491747e-05	
110	5.500000e+00	2.473028e-05	
111	5.550000e+00	2.454762e-05	
112	5.600000e+00	2.436935e-05	

Index   v-sweep         rds             
--------------------------------------------------------------------------------
113	5.650000e+00	2.419531e-05	
114	5.700000e+00	2.402535e-05	
115	5.750000e+00	2.385934e-05	
116	5.800000e+00	2.369715e-05	
117	5.850000e+00	2.353864e-05	
118	5.900000e+00	2.338370e-05	
119	5.950000e+00	2.323222e-05	
120	6.000000e+00	2.308407e-05	
121	6.050000e+00	2.293916e-05	
122	6.100000e+00	2.279738e-05	
123	6.150000e+00	2.265864e-05	
124	6.200000e+00	2.252284e-05	
125	6.250000e+00	2.238989e-05	
126	6.300000e+00	2.225971e-05	
127	6.350000e+00	2.213222e-05	
128	6.400000e+00	2.200734e-05	
129	6.450000e+00	2.188498e-05	
130	6.500000e+00	2.176509e-05	
131	6.550000e+00	2.164758e-05	
132	6.600000e+00	2.153239e-05	
Reset re-loads circuit ***************************

Circuit: ***************************

Doing analysis at TEMP = 125.000000 and TNOM = 125.000000


No. of Data Rows : 133
                          ***************************
                          DC transfer characteristic  Mon Jan  9 13:58:40  2023
--------------------------------------------------------------------------------
Index   v-sweep         rds             
--------------------------------------------------------------------------------
0	0.000000e+00	1.965773e-03	
1	5.000000e-02	1.904155e-03	
2	1.000000e-01	1.843865e-03	
3	1.500000e-01	1.784870e-03	
4	2.000000e-01	1.727138e-03	
5	2.500000e-01	1.670637e-03	
6	3.000000e-01	1.615338e-03	
7	3.500000e-01	1.561209e-03	
8	4.000000e-01	1.508221e-03	
9	4.500000e-01	1.456345e-03	
10	5.000000e-01	1.405553e-03	
11	5.500000e-01	1.355816e-03	
12	6.000000e-01	1.307108e-03	
13	6.500000e-01	1.259403e-03	
14	7.000000e-01	1.212674e-03	
15	7.500000e-01	1.166899e-03	
16	8.000000e-01	1.122052e-03	
17	8.500000e-01	1.078110e-03	
18	9.000000e-01	1.035053e-03	
19	9.500000e-01	9.928571e-04	
20	1.000000e+00	9.515029e-04	
21	1.050000e+00	9.109698e-04	
22	1.100000e+00	8.712376e-04	
23	1.150000e+00	8.322862e-04	
24	1.200000e+00	7.940950e-04	
25	1.250000e+00	7.566420e-04	
26	1.300000e+00	7.199032e-04	
27	1.350000e+00	6.838504e-04	
28	1.400000e+00	6.484487e-04	
29	1.450000e+00	6.136527e-04	
30	1.500000e+00	5.793992e-04	
31	1.550000e+00	5.455983e-04	
32	1.600000e+00	5.121193e-04	
33	1.650000e+00	4.787797e-04	
34	1.700000e+00	4.453480e-04	
35	1.750000e+00	4.116000e-04	
36	1.800000e+00	3.774740e-04	
37	1.850000e+00	3.433079e-04	
38	1.900000e+00	3.099671e-04	
39	1.950000e+00	2.786186e-04	
40	2.000000e+00	2.502508e-04	
41	2.050000e+00	2.253454e-04	
42	2.100000e+00	2.038876e-04	
43	2.150000e+00	1.855597e-04	
44	2.200000e+00	1.699283e-04	
45	2.250000e+00	1.565574e-04	
46	2.300000e+00	1.450589e-04	
47	2.350000e+00	1.351063e-04	
48	2.400000e+00	1.264327e-04	
49	2.450000e+00	1.188221e-04	
50	2.500000e+00	1.121005e-04	
51	2.550000e+00	1.061274e-04	
52	2.600000e+00	1.007888e-04	
53	2.650000e+00	9.599189e-05	
54	2.700000e+00	9.166031e-05	

Index   v-sweep         rds             
--------------------------------------------------------------------------------
55	2.750000e+00	8.773108e-05	
56	2.800000e+00	8.415176e-05	
57	2.850000e+00	8.087845e-05	
58	2.900000e+00	7.787417e-05	
59	2.950000e+00	7.510754e-05	
60	3.000000e+00	7.255183e-05	
61	3.050000e+00	7.018410e-05	
62	3.100000e+00	6.798459e-05	
63	3.150000e+00	6.593617e-05	
64	3.200000e+00	6.402395e-05	
65	3.250000e+00	6.223491e-05	
66	3.300000e+00	6.055764e-05	
67	3.350000e+00	5.898205e-05	
68	3.400000e+00	5.749925e-05	
69	3.450000e+00	5.610134e-05	
70	3.500000e+00	5.478129e-05	
71	3.550000e+00	5.353282e-05	
72	3.600000e+00	5.235029e-05	
73	3.650000e+00	5.122866e-05	
74	3.700000e+00	5.016337e-05	
75	3.750000e+00	4.915030e-05	
76	3.800000e+00	4.818572e-05	
77	3.850000e+00	4.726627e-05	
78	3.900000e+00	4.638886e-05	
79	3.950000e+00	4.555070e-05	
80	4.000000e+00	4.474922e-05	
81	4.050000e+00	4.398207e-05	
82	4.100000e+00	4.324712e-05	
83	4.150000e+00	4.254239e-05	
84	4.200000e+00	4.186606e-05	
85	4.250000e+00	4.121645e-05	
86	4.300000e+00	4.059204e-05	
87	4.350000e+00	3.999137e-05	
88	4.400000e+00	3.941314e-05	
89	4.450000e+00	3.885612e-05	
90	4.500000e+00	3.831916e-05	
91	4.550000e+00	3.780122e-05	
92	4.600000e+00	3.730129e-05	
93	4.650000e+00	3.681847e-05	
94	4.700000e+00	3.635189e-05	
95	4.750000e+00	3.590076e-05	
96	4.800000e+00	3.546433e-05	
97	4.850000e+00	3.504189e-05	
98	4.900000e+00	3.463279e-05	
99	4.950000e+00	3.423640e-05	
100	5.000000e+00	3.385216e-05	
101	5.050000e+00	3.347951e-05	
102	5.100000e+00	3.311795e-05	
103	5.150000e+00	3.276699e-05	
104	5.200000e+00	3.242617e-05	
105	5.250000e+00	3.209507e-05	
106	5.300000e+00	3.177328e-05	
107	5.350000e+00	3.146042e-05	
108	5.400000e+00	3.115612e-05	
109	5.450000e+00	3.086005e-05	
110	5.500000e+00	3.057188e-05	
111	5.550000e+00	3.029131e-05	
112	5.600000e+00	3.001803e-05	

Index   v-sweep         rds             
--------------------------------------------------------------------------------
113	5.650000e+00	2.975178e-05	
114	5.700000e+00	2.949230e-05	
115	5.750000e+00	2.923932e-05	
116	5.800000e+00	2.899262e-05	
117	5.850000e+00	2.875197e-05	
118	5.900000e+00	2.851716e-05	
119	5.950000e+00	2.828798e-05	
120	6.000000e+00	2.806423e-05	
121	6.050000e+00	2.784574e-05	
122	6.100000e+00	2.763231e-05	
123	6.150000e+00	2.742379e-05	
124	6.200000e+00	2.722001e-05	
125	6.250000e+00	2.702081e-05	
126	6.300000e+00	2.682606e-05	
127	6.350000e+00	2.663560e-05	
128	6.400000e+00	2.644930e-05	
129	6.450000e+00	2.626704e-05	
130	6.500000e+00	2.608868e-05	
131	6.550000e+00	2.591411e-05	
132	6.600000e+00	2.574321e-05	
Reset re-loads circuit ***************************

Circuit: ***************************

Doing analysis at TEMP = 125.000000 and TNOM = 125.000000


No. of Data Rows : 133
                          ***************************
                          DC transfer characteristic  Mon Jan  9 13:58:40  2023
--------------------------------------------------------------------------------
Index   v-sweep         rds             
--------------------------------------------------------------------------------
0	0.000000e+00	2.092452e-03	
1	5.000000e-02	2.036638e-03	
2	1.000000e-01	1.981885e-03	
3	1.500000e-01	1.928170e-03	
4	2.000000e-01	1.875470e-03	
5	2.500000e-01	1.823764e-03	
6	3.000000e-01	1.773029e-03	
7	3.500000e-01	1.723244e-03	
8	4.000000e-01	1.674388e-03	
9	4.500000e-01	1.626440e-03	
10	5.000000e-01	1.579380e-03	
11	5.500000e-01	1.533188e-03	
12	6.000000e-01	1.487845e-03	
13	6.500000e-01	1.443330e-03	
14	7.000000e-01	1.399627e-03	
15	7.500000e-01	1.356715e-03	
16	8.000000e-01	1.314578e-03	
17	8.500000e-01	1.273198e-03	
18	9.000000e-01	1.232558e-03	
19	9.500000e-01	1.192642e-03	
20	1.000000e+00	1.153435e-03	
21	1.050000e+00	1.114921e-03	
22	1.100000e+00	1.077086e-03	
23	1.150000e+00	1.039914e-03	
24	1.200000e+00	1.003393e-03	
25	1.250000e+00	9.675085e-04	
26	1.300000e+00	9.322473e-04	
27	1.350000e+00	8.975960e-04	
28	1.400000e+00	8.635415e-04	
29	1.450000e+00	8.300699e-04	
30	1.500000e+00	7.971671e-04	
31	1.550000e+00	7.648174e-04	
32	1.600000e+00	7.330033e-04	
33	1.650000e+00	7.017042e-04	
34	1.700000e+00	6.708946e-04	
35	1.750000e+00	6.405413e-04	
36	1.800000e+00	6.105996e-04	
37	1.850000e+00	5.810066e-04	
38	1.900000e+00	5.516727e-04	
39	1.950000e+00	5.224707e-04	
40	2.000000e+00	4.932259e-04	
41	2.050000e+00	4.637189e-04	
42	2.100000e+00	4.337250e-04	
43	2.150000e+00	4.031213e-04	
44	2.200000e+00	3.720591e-04	
45	2.250000e+00	3.410985e-04	
46	2.300000e+00	3.111384e-04	
47	2.350000e+00	2.831172e-04	
48	2.400000e+00	2.576990e-04	
49	2.450000e+00	2.351533e-04	
50	2.500000e+00	2.154243e-04	
51	2.550000e+00	1.982675e-04	
52	2.600000e+00	1.833636e-04	
53	2.650000e+00	1.703893e-04	
54	2.700000e+00	1.590492e-04	

Index   v-sweep         rds             
--------------------------------------------------------------------------------
55	2.750000e+00	1.490883e-04	
56	2.800000e+00	1.402919e-04	
57	2.850000e+00	1.324814e-04	
58	2.900000e+00	1.255096e-04	
59	2.950000e+00	1.192547e-04	
60	3.000000e+00	1.136161e-04	
61	3.050000e+00	1.085101e-04	
62	3.100000e+00	1.038670e-04	
63	3.150000e+00	9.962808e-05	
64	3.200000e+00	9.574409e-05	
65	3.250000e+00	9.217312e-05	
66	3.300000e+00	8.887952e-05	
67	3.350000e+00	8.583270e-05	
68	3.400000e+00	8.300635e-05	
69	3.450000e+00	8.037772e-05	
70	3.500000e+00	7.792701e-05	
71	3.550000e+00	7.563699e-05	
72	3.600000e+00	7.349251e-05	
73	3.650000e+00	7.148027e-05	
74	3.700000e+00	6.958853e-05	
75	3.750000e+00	6.780688e-05	
76	3.800000e+00	6.612606e-05	
77	3.850000e+00	6.453782e-05	
78	3.900000e+00	6.303478e-05	
79	3.950000e+00	6.161031e-05	
80	4.000000e+00	6.025845e-05	
81	4.050000e+00	5.897383e-05	
82	4.100000e+00	5.775159e-05	
83	4.150000e+00	5.658731e-05	
84	4.200000e+00	5.547701e-05	
85	4.250000e+00	5.441703e-05	
86	4.300000e+00	5.340405e-05	
87	4.350000e+00	5.243504e-05	
88	4.400000e+00	5.150719e-05	
89	4.450000e+00	5.061797e-05	
90	4.500000e+00	4.976503e-05	
91	4.550000e+00	4.894619e-05	
92	4.600000e+00	4.815947e-05	
93	4.650000e+00	4.740302e-05	
94	4.700000e+00	4.667514e-05	
95	4.750000e+00	4.597424e-05	
96	4.800000e+00	4.529887e-05	
97	4.850000e+00	4.464767e-05	
98	4.900000e+00	4.401935e-05	
99	4.950000e+00	4.341276e-05	
100	5.000000e+00	4.282678e-05	
101	5.050000e+00	4.226039e-05	
102	5.100000e+00	4.171263e-05	
103	5.150000e+00	4.118260e-05	
104	5.200000e+00	4.066946e-05	
105	5.250000e+00	4.017242e-05	
106	5.300000e+00	3.969075e-05	
107	5.350000e+00	3.922373e-05	
108	5.400000e+00	3.877073e-05	
109	5.450000e+00	3.833113e-05	
110	5.500000e+00	3.790434e-05	
111	5.550000e+00	3.748982e-05	
112	5.600000e+00	3.708706e-05	

Index   v-sweep         rds             
--------------------------------------------------------------------------------
113	5.650000e+00	3.669556e-05	
114	5.700000e+00	3.631488e-05	
115	5.750000e+00	3.594456e-05	
116	5.800000e+00	3.558420e-05	
117	5.850000e+00	3.523341e-05	
118	5.900000e+00	3.489182e-05	
119	5.950000e+00	3.455908e-05	
120	6.000000e+00	3.423485e-05	
121	6.050000e+00	3.391883e-05	
122	6.100000e+00	3.361071e-05	
123	6.150000e+00	3.331019e-05	
124	6.200000e+00	3.301702e-05	
125	6.250000e+00	3.273094e-05	
126	6.300000e+00	3.245169e-05	
127	6.350000e+00	3.217904e-05	
128	6.400000e+00	3.191277e-05	
129	6.450000e+00	3.165266e-05	
130	6.500000e+00	3.139851e-05	
131	6.550000e+00	3.115013e-05	
132	6.600000e+00	3.090732e-05	
Reset re-loads circuit ***************************

Circuit: ***************************

Note: No ".plot", ".print", or ".fourier" lines; no simulations run
