
Note: Compatibility modes selected: hs

Warning: m=xx on .subckt line will override multiplier m hierarchy!


Circuit: ***************************

Doing analysis at TEMP = -40.000000 and TNOM = -40.000000


No. of Data Rows : 133
                          ***************************
                          DC transfer characteristic  Mon Jan  9 13:58:39  2023
--------------------------------------------------------------------------------
Index   v-sweep         rds             
--------------------------------------------------------------------------------
0	0.000000e+00	1.237239e-06	
1	5.000000e-02	9.788022e-07	
2	1.000000e-01	7.232493e-07	
3	1.500000e-01	4.757915e-07	
4	2.000000e-01	2.548089e-07	
5	2.500000e-01	1.028507e-07	
6	3.000000e-01	3.683174e-08	
7	3.500000e-01	1.549820e-08	
8	4.000000e-01	8.335936e-09	
9	4.500000e-01	5.506258e-09	
10	5.000000e-01	4.199337e-09	
11	5.500000e-01	3.515459e-09	
12	6.000000e-01	3.121155e-09	
13	6.500000e-01	2.875872e-09	
14	7.000000e-01	2.713785e-09	
15	7.500000e-01	2.601309e-09	
16	8.000000e-01	2.520060e-09	
17	8.500000e-01	2.459374e-09	
18	9.000000e-01	2.412751e-09	
19	9.500000e-01	2.376066e-09	
20	1.000000e+00	2.346600e-09	
21	1.050000e+00	2.322508e-09	
22	1.100000e+00	2.302504e-09	
23	1.150000e+00	2.285666e-09	
24	1.200000e+00	2.271323e-09	
25	1.250000e+00	2.258976e-09	
26	1.300000e+00	2.248246e-09	
27	1.350000e+00	2.238842e-09	
28	1.400000e+00	2.230538e-09	
29	1.450000e+00	2.223154e-09	
30	1.500000e+00	2.216549e-09	
31	1.550000e+00	2.210607e-09	
32	1.600000e+00	2.205233e-09	
33	1.650000e+00	2.200351e-09	
34	1.700000e+00	2.195896e-09	
35	1.750000e+00	2.191816e-09	
36	1.800000e+00	2.188065e-09	
37	1.850000e+00	2.184604e-09	
38	1.900000e+00	2.181402e-09	
39	1.950000e+00	2.178431e-09	
40	2.000000e+00	2.175666e-09	
41	2.050000e+00	2.173087e-09	
42	2.100000e+00	2.170676e-09	
43	2.150000e+00	2.168416e-09	
44	2.200000e+00	2.166294e-09	
45	2.250000e+00	2.164298e-09	
46	2.300000e+00	2.162416e-09	
47	2.350000e+00	2.160639e-09	
48	2.400000e+00	2.158959e-09	
49	2.450000e+00	2.157368e-09	
50	2.500000e+00	2.155859e-09	
51	2.550000e+00	2.154426e-09	
52	2.600000e+00	2.153062e-09	
53	2.650000e+00	2.151764e-09	
54	2.700000e+00	2.150527e-09	

Index   v-sweep         rds             
--------------------------------------------------------------------------------
55	2.750000e+00	2.149346e-09	
56	2.800000e+00	2.148217e-09	
57	2.850000e+00	2.147138e-09	
58	2.900000e+00	2.146105e-09	
59	2.950000e+00	2.145115e-09	
60	3.000000e+00	2.144165e-09	
61	3.050000e+00	2.143254e-09	
62	3.100000e+00	2.142378e-09	
63	3.150000e+00	2.141536e-09	
64	3.200000e+00	2.140726e-09	
65	3.250000e+00	2.139946e-09	
66	3.300000e+00	2.139195e-09	
67	3.350000e+00	2.138470e-09	
68	3.400000e+00	2.137771e-09	
69	3.450000e+00	2.137096e-09	
70	3.500000e+00	2.136444e-09	
71	3.550000e+00	2.135813e-09	
72	3.600000e+00	2.135204e-09	
73	3.650000e+00	2.134614e-09	
74	3.700000e+00	2.134043e-09	
75	3.750000e+00	2.133490e-09	
76	3.800000e+00	2.132954e-09	
77	3.850000e+00	2.132434e-09	
78	3.900000e+00	2.131930e-09	
79	3.950000e+00	2.131441e-09	
80	4.000000e+00	2.130966e-09	
81	4.050000e+00	2.130504e-09	
82	4.100000e+00	2.130056e-09	
83	4.150000e+00	2.129620e-09	
84	4.200000e+00	2.129196e-09	
85	4.250000e+00	2.128784e-09	
86	4.300000e+00	2.128383e-09	
87	4.350000e+00	2.127992e-09	
88	4.400000e+00	2.127612e-09	
89	4.450000e+00	2.127241e-09	
90	4.500000e+00	2.126880e-09	
91	4.550000e+00	2.126528e-09	
92	4.600000e+00	2.126184e-09	
93	4.650000e+00	2.125850e-09	
94	4.700000e+00	2.125523e-09	
95	4.750000e+00	2.125204e-09	
96	4.800000e+00	2.124893e-09	
97	4.850000e+00	2.124589e-09	
98	4.900000e+00	2.124292e-09	
99	4.950000e+00	2.124002e-09	
100	5.000000e+00	2.123718e-09	
101	5.050000e+00	2.123441e-09	
102	5.100000e+00	2.123170e-09	
103	5.150000e+00	2.122905e-09	
104	5.200000e+00	2.122646e-09	
105	5.250000e+00	2.122392e-09	
106	5.300000e+00	2.122144e-09	
107	5.350000e+00	2.121901e-09	
108	5.400000e+00	2.121663e-09	
109	5.450000e+00	2.121430e-09	
110	5.500000e+00	2.121201e-09	
111	5.550000e+00	2.120978e-09	
112	5.600000e+00	2.120759e-09	

Index   v-sweep         rds             
--------------------------------------------------------------------------------
113	5.650000e+00	2.120544e-09	
114	5.700000e+00	2.120333e-09	
115	5.750000e+00	2.120127e-09	
116	5.800000e+00	2.119924e-09	
117	5.850000e+00	2.119726e-09	
118	5.900000e+00	2.119531e-09	
119	5.950000e+00	2.119340e-09	
120	6.000000e+00	2.119152e-09	
121	6.050000e+00	2.118968e-09	
122	6.100000e+00	2.118788e-09	
123	6.150000e+00	2.118610e-09	
124	6.200000e+00	2.118436e-09	
125	6.250000e+00	2.118265e-09	
126	6.300000e+00	2.118097e-09	
127	6.350000e+00	2.117932e-09	
128	6.400000e+00	2.117770e-09	
129	6.450000e+00	2.117610e-09	
130	6.500000e+00	2.117454e-09	
131	6.550000e+00	2.117300e-09	
132	6.600000e+00	2.117148e-09	
Reset re-loads circuit ***************************

Circuit: ***************************

Doing analysis at TEMP = -40.000000 and TNOM = -40.000000


No. of Data Rows : 133
                          ***************************
                          DC transfer characteristic  Mon Jan  9 13:58:39  2023
--------------------------------------------------------------------------------
Index   v-sweep         rds             
--------------------------------------------------------------------------------
0	0.000000e+00	5.357434e-06	
1	5.000000e-02	5.086059e-06	
2	1.000000e-01	4.815370e-06	
3	1.500000e-01	4.545367e-06	
4	2.000000e-01	4.276054e-06	
5	2.500000e-01	4.007436e-06	
6	3.000000e-01	3.739521e-06	
7	3.500000e-01	3.472322e-06	
8	4.000000e-01	3.205860e-06	
9	4.500000e-01	2.940170e-06	
10	5.000000e-01	2.675306e-06	
11	5.500000e-01	2.411363e-06	
12	6.000000e-01	2.148503e-06	
13	6.500000e-01	1.887018e-06	
14	7.000000e-01	1.627448e-06	
15	7.500000e-01	1.370835e-06	
16	8.000000e-01	1.119229e-06	
17	8.500000e-01	8.766761e-07	
18	9.000000e-01	6.507114e-07	
19	9.500000e-01	4.532463e-07	
20	1.000000e+00	2.973431e-07	
21	1.050000e+00	1.886166e-07	
22	1.100000e+00	1.204856e-07	
23	1.150000e+00	8.017824e-08	
24	1.200000e+00	5.649825e-08	
25	1.250000e+00	4.223270e-08	
26	1.300000e+00	3.329473e-08	
27	1.350000e+00	2.745177e-08	
28	1.400000e+00	2.347405e-08	
29	1.450000e+00	2.066495e-08	
30	1.500000e+00	1.861581e-08	
31	1.550000e+00	1.707808e-08	
32	1.600000e+00	1.589526e-08	
33	1.650000e+00	1.496561e-08	
34	1.700000e+00	1.422102e-08	
35	1.750000e+00	1.361469e-08	
36	1.800000e+00	1.311366e-08	
37	1.850000e+00	1.269426e-08	
38	1.900000e+00	1.233911e-08	
39	1.950000e+00	1.203526e-08	
40	2.000000e+00	1.177287e-08	
41	2.050000e+00	1.154440e-08	
42	2.100000e+00	1.134396e-08	
43	2.150000e+00	1.116691e-08	
44	2.200000e+00	1.100953e-08	
45	2.250000e+00	1.086884e-08	
46	2.300000e+00	1.074242e-08	
47	2.350000e+00	1.062827e-08	
48	2.400000e+00	1.052475e-08	
49	2.450000e+00	1.043048e-08	
50	2.500000e+00	1.034432e-08	
51	2.550000e+00	1.026528e-08	
52	2.600000e+00	1.019254e-08	
53	2.650000e+00	1.012540e-08	
54	2.700000e+00	1.006326e-08	

Index   v-sweep         rds             
--------------------------------------------------------------------------------
55	2.750000e+00	1.000557e-08	
56	2.800000e+00	9.951903e-09	
57	2.850000e+00	9.901848e-09	
58	2.900000e+00	9.855062e-09	
59	2.950000e+00	9.811241e-09	
60	3.000000e+00	9.770118e-09	
61	3.050000e+00	9.731455e-09	
62	3.100000e+00	9.695040e-09	
63	3.150000e+00	9.660687e-09	
64	3.200000e+00	9.628228e-09	
65	3.250000e+00	9.597513e-09	
66	3.300000e+00	9.568407e-09	
67	3.350000e+00	9.540788e-09	
68	3.400000e+00	9.514547e-09	
69	3.450000e+00	9.489584e-09	
70	3.500000e+00	9.465810e-09	
71	3.550000e+00	9.443142e-09	
72	3.600000e+00	9.421506e-09	
73	3.650000e+00	9.400834e-09	
74	3.700000e+00	9.381063e-09	
75	3.750000e+00	9.362136e-09	
76	3.800000e+00	9.344002e-09	
77	3.850000e+00	9.326611e-09	
78	3.900000e+00	9.309919e-09	
79	3.950000e+00	9.293886e-09	
80	4.000000e+00	9.278473e-09	
81	4.050000e+00	9.263645e-09	
82	4.100000e+00	9.249371e-09	
83	4.150000e+00	9.235619e-09	
84	4.200000e+00	9.222363e-09	
85	4.250000e+00	9.209575e-09	
86	4.300000e+00	9.197232e-09	
87	4.350000e+00	9.185311e-09	
88	4.400000e+00	9.173791e-09	
89	4.450000e+00	9.162652e-09	
90	4.500000e+00	9.151875e-09	
91	4.550000e+00	9.141444e-09	
92	4.600000e+00	9.131343e-09	
93	4.650000e+00	9.121555e-09	
94	4.700000e+00	9.112067e-09	
95	4.750000e+00	9.102865e-09	
96	4.800000e+00	9.093936e-09	
97	4.850000e+00	9.085269e-09	
98	4.900000e+00	9.076852e-09	
99	4.950000e+00	9.068675e-09	
100	5.000000e+00	9.060728e-09	
101	5.050000e+00	9.053001e-09	
102	5.100000e+00	9.045485e-09	
103	5.150000e+00	9.038172e-09	
104	5.200000e+00	9.031053e-09	
105	5.250000e+00	9.024122e-09	
106	5.300000e+00	9.017370e-09	
107	5.350000e+00	9.010791e-09	
108	5.400000e+00	9.004379e-09	
109	5.450000e+00	8.998127e-09	
110	5.500000e+00	8.992030e-09	
111	5.550000e+00	8.986081e-09	
112	5.600000e+00	8.980275e-09	

Index   v-sweep         rds             
--------------------------------------------------------------------------------
113	5.650000e+00	8.974608e-09	
114	5.700000e+00	8.969075e-09	
115	5.750000e+00	8.963670e-09	
116	5.800000e+00	8.958389e-09	
117	5.850000e+00	8.953229e-09	
118	5.900000e+00	8.948185e-09	
119	5.950000e+00	8.943253e-09	
120	6.000000e+00	8.938430e-09	
121	6.050000e+00	8.933712e-09	
122	6.100000e+00	8.929096e-09	
123	6.150000e+00	8.924578e-09	
124	6.200000e+00	8.920155e-09	
125	6.250000e+00	8.915825e-09	
126	6.300000e+00	8.911585e-09	
127	6.350000e+00	8.907431e-09	
128	6.400000e+00	8.903362e-09	
129	6.450000e+00	8.899374e-09	
130	6.500000e+00	8.895465e-09	
131	6.550000e+00	8.891634e-09	
132	6.600000e+00	8.887877e-09	
Reset re-loads circuit ***************************

Circuit: ***************************

Doing analysis at TEMP = -40.000000 and TNOM = -40.000000


No. of Data Rows : 133
                          ***************************
                          DC transfer characteristic  Mon Jan  9 13:58:39  2023
--------------------------------------------------------------------------------
Index   v-sweep         rds             
--------------------------------------------------------------------------------
0	0.000000e+00	8.934520e-06	
1	5.000000e-02	8.678129e-06	
2	1.000000e-01	8.422421e-06	
3	1.500000e-01	8.167393e-06	
4	2.000000e-01	7.913042e-06	
5	2.500000e-01	7.659367e-06	
6	3.000000e-01	7.406365e-06	
7	3.500000e-01	7.154034e-06	
8	4.000000e-01	6.902372e-06	
9	4.500000e-01	6.651377e-06	
10	5.000000e-01	6.401046e-06	
11	5.500000e-01	6.151377e-06	
12	6.000000e-01	5.902369e-06	
13	6.500000e-01	5.654019e-06	
14	7.000000e-01	5.406327e-06	
15	7.500000e-01	5.159291e-06	
16	8.000000e-01	4.912910e-06	
17	8.500000e-01	4.667184e-06	
18	9.000000e-01	4.422114e-06	
19	9.500000e-01	4.177701e-06	
20	1.000000e+00	3.933951e-06	
21	1.050000e+00	3.690872e-06	
22	1.100000e+00	3.448476e-06	
23	1.150000e+00	3.206786e-06	
24	1.200000e+00	2.965837e-06	
25	1.250000e+00	2.725691e-06	
26	1.300000e+00	2.486446e-06	
27	1.350000e+00	2.248270e-06	
28	1.400000e+00	2.011454e-06	
29	1.450000e+00	1.776498e-06	
30	1.500000e+00	1.544286e-06	
31	1.550000e+00	1.316365e-06	
32	1.600000e+00	1.095389e-06	
33	1.650000e+00	8.856560e-07	
34	1.700000e+00	6.933746e-07	
35	1.750000e+00	5.258443e-07	
36	1.800000e+00	3.889935e-07	
37	1.850000e+00	2.844903e-07	
38	1.900000e+00	2.090348e-07	
39	1.950000e+00	1.564206e-07	
40	2.000000e+00	1.201979e-07	
41	2.050000e+00	9.515040e-08	
42	2.100000e+00	7.756841e-08	
43	2.150000e+00	6.497290e-08	
44	2.200000e+00	5.574676e-08	
45	2.250000e+00	4.883760e-08	
46	2.300000e+00	4.355396e-08	
47	2.350000e+00	3.943439e-08	
48	2.400000e+00	3.616526e-08	
49	2.450000e+00	3.352928e-08	
50	2.500000e+00	3.137301e-08	
51	2.550000e+00	2.958615e-08	
52	2.600000e+00	2.808802e-08	
53	2.650000e+00	2.681865e-08	
54	2.700000e+00	2.573280e-08	

Index   v-sweep         rds             
--------------------------------------------------------------------------------
55	2.750000e+00	2.479588e-08	
56	2.800000e+00	2.398106e-08	
57	2.850000e+00	2.326734e-08	
58	2.900000e+00	2.263807e-08	
59	2.950000e+00	2.207991e-08	
60	3.000000e+00	2.158209e-08	
61	3.050000e+00	2.113582e-08	
62	3.100000e+00	2.073387e-08	
63	3.150000e+00	2.037028e-08	
64	3.200000e+00	2.004005e-08	
65	3.250000e+00	1.973899e-08	
66	3.300000e+00	1.946357e-08	
67	3.350000e+00	1.921079e-08	
68	3.400000e+00	1.897807e-08	
69	3.450000e+00	1.876321e-08	
70	3.500000e+00	1.856430e-08	
71	3.550000e+00	1.837971e-08	
72	3.600000e+00	1.820799e-08	
73	3.650000e+00	1.804789e-08	
74	3.700000e+00	1.789831e-08	
75	3.750000e+00	1.775827e-08	
76	3.800000e+00	1.762693e-08	
77	3.850000e+00	1.750351e-08	
78	3.900000e+00	1.738735e-08	
79	3.950000e+00	1.727784e-08	
80	4.000000e+00	1.717445e-08	
81	4.050000e+00	1.707668e-08	
82	4.100000e+00	1.698411e-08	
83	4.150000e+00	1.689634e-08	
84	4.200000e+00	1.681302e-08	
85	4.250000e+00	1.673382e-08	
86	4.300000e+00	1.665846e-08	
87	4.350000e+00	1.658667e-08	
88	4.400000e+00	1.651820e-08	
89	4.450000e+00	1.645284e-08	
90	4.500000e+00	1.639038e-08	
91	4.550000e+00	1.633065e-08	
92	4.600000e+00	1.627346e-08	
93	4.650000e+00	1.621866e-08	
94	4.700000e+00	1.616612e-08	
95	4.750000e+00	1.611569e-08	
96	4.800000e+00	1.606725e-08	
97	4.850000e+00	1.602069e-08	
98	4.900000e+00	1.597591e-08	
99	4.950000e+00	1.593280e-08	
100	5.000000e+00	1.589128e-08	
101	5.050000e+00	1.585126e-08	
102	5.100000e+00	1.581266e-08	
103	5.150000e+00	1.577542e-08	
104	5.200000e+00	1.573945e-08	
105	5.250000e+00	1.570470e-08	
106	5.300000e+00	1.567111e-08	
107	5.350000e+00	1.563862e-08	
108	5.400000e+00	1.560718e-08	
109	5.450000e+00	1.557674e-08	
110	5.500000e+00	1.554725e-08	
111	5.550000e+00	1.551867e-08	
112	5.600000e+00	1.549097e-08	

Index   v-sweep         rds             
--------------------------------------------------------------------------------
113	5.650000e+00	1.546409e-08	
114	5.700000e+00	1.543801e-08	
115	5.750000e+00	1.541268e-08	
116	5.800000e+00	1.538809e-08	
117	5.850000e+00	1.536419e-08	
118	5.900000e+00	1.534097e-08	
119	5.950000e+00	1.531838e-08	
120	6.000000e+00	1.529641e-08	
121	6.050000e+00	1.527503e-08	
122	6.100000e+00	1.525422e-08	
123	6.150000e+00	1.523395e-08	
124	6.200000e+00	1.521421e-08	
125	6.250000e+00	1.519498e-08	
126	6.300000e+00	1.517623e-08	
127	6.350000e+00	1.515794e-08	
128	6.400000e+00	1.514011e-08	
129	6.450000e+00	1.512272e-08	
130	6.500000e+00	1.510574e-08	
131	6.550000e+00	1.508917e-08	
132	6.600000e+00	1.507299e-08	
Reset re-loads circuit ***************************

Circuit: ***************************

Doing analysis at TEMP = -40.000000 and TNOM = -40.000000


No. of Data Rows : 133
                          ***************************
                          DC transfer characteristic  Mon Jan  9 13:58:39  2023
--------------------------------------------------------------------------------
Index   v-sweep         rds             
--------------------------------------------------------------------------------
0	0.000000e+00	1.181475e-05	
1	5.000000e-02	1.157918e-05	
2	1.000000e-01	1.134421e-05	
3	1.500000e-01	1.110986e-05	
4	2.000000e-01	1.087612e-05	
5	2.500000e-01	1.064299e-05	
6	3.000000e-01	1.041047e-05	
7	3.500000e-01	1.017855e-05	
8	4.000000e-01	9.947228e-06	
9	4.500000e-01	9.716509e-06	
10	5.000000e-01	9.486387e-06	
11	5.500000e-01	9.256860e-06	
12	6.000000e-01	9.027927e-06	
13	6.500000e-01	8.799585e-06	
14	7.000000e-01	8.571832e-06	
15	7.500000e-01	8.344666e-06	
16	8.000000e-01	8.118085e-06	
17	8.500000e-01	7.892086e-06	
18	9.000000e-01	7.666667e-06	
19	9.500000e-01	7.441826e-06	
20	1.000000e+00	7.217560e-06	
21	1.050000e+00	6.993867e-06	
22	1.100000e+00	6.770745e-06	
23	1.150000e+00	6.548191e-06	
24	1.200000e+00	6.326202e-06	
25	1.250000e+00	6.104775e-06	
26	1.300000e+00	5.883909e-06	
27	1.350000e+00	5.663598e-06	
28	1.400000e+00	5.443842e-06	
29	1.450000e+00	5.224635e-06	
30	1.500000e+00	5.005976e-06	
31	1.550000e+00	4.787860e-06	
32	1.600000e+00	4.570283e-06	
33	1.650000e+00	4.353242e-06	
34	1.700000e+00	4.136735e-06	
35	1.750000e+00	3.920757e-06	
36	1.800000e+00	3.705308e-06	
37	1.850000e+00	3.490388e-06	
38	1.900000e+00	3.276002e-06	
39	1.950000e+00	3.062162e-06	
40	2.000000e+00	2.848890e-06	
41	2.050000e+00	2.636233e-06	
42	2.100000e+00	2.424272e-06	
43	2.150000e+00	2.213149e-06	
44	2.200000e+00	2.003118e-06	
45	2.250000e+00	1.794615e-06	
46	2.300000e+00	1.588386e-06	
47	2.350000e+00	1.385679e-06	
48	2.400000e+00	1.188503e-06	
49	2.450000e+00	9.998842e-07	
50	2.500000e+00	8.239309e-07	
51	2.550000e+00	6.653852e-07	
52	2.600000e+00	5.284883e-07	
53	2.650000e+00	4.155611e-07	
54	2.700000e+00	3.262148e-07	

Index   v-sweep         rds             
--------------------------------------------------------------------------------
55	2.750000e+00	2.577406e-07	
56	2.800000e+00	2.062630e-07	
57	2.850000e+00	1.678460e-07	
58	2.900000e+00	1.391198e-07	
59	2.950000e+00	1.174623e-07	
60	3.000000e+00	1.009385e-07	
61	3.050000e+00	8.815730e-08	
62	3.100000e+00	7.812882e-08	
63	3.150000e+00	7.014834e-08	
64	3.200000e+00	6.371124e-08	
65	3.250000e+00	5.845269e-08	
66	3.300000e+00	5.410590e-08	
67	3.350000e+00	5.047342e-08	
68	3.400000e+00	4.740728e-08	
69	3.450000e+00	4.479524e-08	
70	3.500000e+00	4.255117e-08	
71	3.550000e+00	4.060821e-08	
72	3.600000e+00	3.891392e-08	
73	3.650000e+00	3.742674e-08	
74	3.700000e+00	3.611344e-08	
75	3.750000e+00	3.494718e-08	
76	3.800000e+00	3.390614e-08	
77	3.850000e+00	3.297241e-08	
78	3.900000e+00	3.213119e-08	
79	3.950000e+00	3.137019e-08	
80	4.000000e+00	3.067908e-08	
81	4.050000e+00	3.004920e-08	
82	4.100000e+00	2.947317e-08	
83	4.150000e+00	2.894474e-08	
84	4.200000e+00	2.845854e-08	
85	4.250000e+00	2.800994e-08	
86	4.300000e+00	2.759496e-08	
87	4.350000e+00	2.721013e-08	
88	4.400000e+00	2.685242e-08	
89	4.450000e+00	2.651920e-08	
90	4.500000e+00	2.620814e-08	
91	4.550000e+00	2.591720e-08	
92	4.600000e+00	2.564456e-08	
93	4.650000e+00	2.538863e-08	
94	4.700000e+00	2.514797e-08	
95	4.750000e+00	2.492131e-08	
96	4.800000e+00	2.470750e-08	
97	4.850000e+00	2.450553e-08	
98	4.900000e+00	2.431448e-08	
99	4.950000e+00	2.413350e-08	
100	5.000000e+00	2.396186e-08	
101	5.050000e+00	2.379888e-08	
102	5.100000e+00	2.364393e-08	
103	5.150000e+00	2.349646e-08	
104	5.200000e+00	2.335596e-08	
105	5.250000e+00	2.322195e-08	
106	5.300000e+00	2.309402e-08	
107	5.350000e+00	2.297177e-08	
108	5.400000e+00	2.285483e-08	
109	5.450000e+00	2.274290e-08	
110	5.500000e+00	2.263565e-08	
111	5.550000e+00	2.253280e-08	
112	5.600000e+00	2.243411e-08	

Index   v-sweep         rds             
--------------------------------------------------------------------------------
113	5.650000e+00	2.233933e-08	
114	5.700000e+00	2.224823e-08	
115	5.750000e+00	2.216062e-08	
116	5.800000e+00	2.207630e-08	
117	5.850000e+00	2.199509e-08	
118	5.900000e+00	2.191684e-08	
119	5.950000e+00	2.184137e-08	
120	6.000000e+00	2.176856e-08	
121	6.050000e+00	2.169827e-08	
122	6.100000e+00	2.163037e-08	
123	6.150000e+00	2.156475e-08	
124	6.200000e+00	2.150129e-08	
125	6.250000e+00	2.143990e-08	
126	6.300000e+00	2.138047e-08	
127	6.350000e+00	2.132291e-08	
128	6.400000e+00	2.126715e-08	
129	6.450000e+00	2.121309e-08	
130	6.500000e+00	2.116067e-08	
131	6.550000e+00	2.110981e-08	
132	6.600000e+00	2.106044e-08	
Reset re-loads circuit ***************************

Circuit: ***************************

Doing analysis at TEMP = -40.000000 and TNOM = -40.000000


No. of Data Rows : 133
                          ***************************
                          DC transfer characteristic  Mon Jan  9 13:58:39  2023
--------------------------------------------------------------------------------
Index   v-sweep         rds             
--------------------------------------------------------------------------------
0	0.000000e+00	1.404261e-05	
1	5.000000e-02	1.383018e-05	
2	1.000000e-01	1.361826e-05	
3	1.500000e-01	1.340687e-05	
4	2.000000e-01	1.319600e-05	
5	2.500000e-01	1.298565e-05	
6	3.000000e-01	1.277581e-05	
7	3.500000e-01	1.256649e-05	
8	4.000000e-01	1.235768e-05	
9	4.500000e-01	1.214938e-05	
10	5.000000e-01	1.194159e-05	
11	5.500000e-01	1.173431e-05	
12	6.000000e-01	1.152754e-05	
13	6.500000e-01	1.132127e-05	
14	7.000000e-01	1.111550e-05	
15	7.500000e-01	1.091023e-05	
16	8.000000e-01	1.070547e-05	
17	8.500000e-01	1.050120e-05	
18	9.000000e-01	1.029743e-05	
19	9.500000e-01	1.009415e-05	
20	1.000000e+00	9.891367e-06	
21	1.050000e+00	9.689073e-06	
22	1.100000e+00	9.487270e-06	
23	1.150000e+00	9.285954e-06	
24	1.200000e+00	9.085124e-06	
25	1.250000e+00	8.884778e-06	
26	1.300000e+00	8.684914e-06	
27	1.350000e+00	8.485531e-06	
28	1.400000e+00	8.286627e-06	
29	1.450000e+00	8.088199e-06	
30	1.500000e+00	7.890246e-06	
31	1.550000e+00	7.692765e-06	
32	1.600000e+00	7.495755e-06	
33	1.650000e+00	7.299214e-06	
34	1.700000e+00	7.103138e-06	
35	1.750000e+00	6.907526e-06	
36	1.800000e+00	6.712375e-06	
37	1.850000e+00	6.517683e-06	
38	1.900000e+00	6.323446e-06	
39	1.950000e+00	6.129661e-06	
40	2.000000e+00	5.936326e-06	
41	2.050000e+00	5.743436e-06	
42	2.100000e+00	5.550987e-06	
43	2.150000e+00	5.358976e-06	
44	2.200000e+00	5.167398e-06	
45	2.250000e+00	4.976246e-06	
46	2.300000e+00	4.785516e-06	
47	2.350000e+00	4.595201e-06	
48	2.400000e+00	4.405293e-06	
49	2.450000e+00	4.215784e-06	
50	2.500000e+00	4.026665e-06	
51	2.550000e+00	3.837925e-06	
52	2.600000e+00	3.649554e-06	
53	2.650000e+00	3.461541e-06	
54	2.700000e+00	3.273873e-06	

Index   v-sweep         rds             
--------------------------------------------------------------------------------
55	2.750000e+00	3.086541e-06	
56	2.800000e+00	2.899539e-06	
57	2.850000e+00	2.712870e-06	
58	2.900000e+00	2.526550e-06	
59	2.950000e+00	2.340628e-06	
60	3.000000e+00	2.155204e-06	
61	3.050000e+00	1.970466e-06	
62	3.100000e+00	1.786756e-06	
63	3.150000e+00	1.604659e-06	
64	3.200000e+00	1.425137e-06	
65	3.250000e+00	1.249695e-06	
66	3.300000e+00	1.080521e-06	
67	3.350000e+00	9.205087e-07	
68	3.400000e+00	7.729999e-07	
69	3.450000e+00	6.411840e-07	
70	3.500000e+00	5.273073e-07	
71	3.550000e+00	4.320793e-07	
72	3.600000e+00	3.546050e-07	
73	3.650000e+00	2.928214e-07	
74	3.700000e+00	2.441320e-07	
75	3.750000e+00	2.059375e-07	
76	3.800000e+00	1.759419e-07	
77	3.850000e+00	1.522631e-07	
78	3.900000e+00	1.334250e-07	
79	3.950000e+00	1.182990e-07	
80	4.000000e+00	1.060323e-07	
81	4.050000e+00	9.598356e-08	
82	4.100000e+00	8.766971e-08	
83	4.150000e+00	8.072530e-08	
84	4.200000e+00	7.487199e-08	
85	4.250000e+00	6.989615e-08	
86	4.300000e+00	6.563237e-08	
87	4.350000e+00	6.195150e-08	
88	4.400000e+00	5.875178e-08	
89	4.450000e+00	5.595237e-08	
90	4.500000e+00	5.348850e-08	
91	4.550000e+00	5.130785e-08	
92	4.600000e+00	4.936787e-08	
93	4.650000e+00	4.763365e-08	
94	4.700000e+00	4.607639e-08	
95	4.750000e+00	4.467214e-08	
96	4.800000e+00	4.340091e-08	
97	4.850000e+00	4.224586e-08	
98	4.900000e+00	4.119275e-08	
99	4.950000e+00	4.022948e-08	
100	5.000000e+00	3.934571e-08	
101	5.050000e+00	3.853255e-08	
102	5.100000e+00	3.778236e-08	
103	5.150000e+00	3.708849e-08	
104	5.200000e+00	3.644518e-08	
105	5.250000e+00	3.584738e-08	
106	5.300000e+00	3.529068e-08	
107	5.350000e+00	3.477120e-08	
108	5.400000e+00	3.428552e-08	
109	5.450000e+00	3.383058e-08	
110	5.500000e+00	3.340372e-08	
111	5.550000e+00	3.300252e-08	
112	5.600000e+00	3.262485e-08	

Index   v-sweep         rds             
--------------------------------------------------------------------------------
113	5.650000e+00	3.226878e-08	
114	5.700000e+00	3.193260e-08	
115	5.750000e+00	3.161475e-08	
116	5.800000e+00	3.131385e-08	
117	5.850000e+00	3.102862e-08	
118	5.900000e+00	3.075793e-08	
119	5.950000e+00	3.050073e-08	
120	6.000000e+00	3.025608e-08	
121	6.050000e+00	3.002312e-08	
122	6.100000e+00	2.980106e-08	
123	6.150000e+00	2.958918e-08	
124	6.200000e+00	2.938682e-08	
125	6.250000e+00	2.919339e-08	
126	6.300000e+00	2.900831e-08	
127	6.350000e+00	2.883109e-08	
128	6.400000e+00	2.866125e-08	
129	6.450000e+00	2.849835e-08	
130	6.500000e+00	2.834198e-08	
131	6.550000e+00	2.819179e-08	
132	6.600000e+00	2.804741e-08	
Reset re-loads circuit ***************************

Circuit: ***************************

Doing analysis at TEMP = -40.000000 and TNOM = -40.000000


No. of Data Rows : 133
                          ***************************
                          DC transfer characteristic  Mon Jan  9 13:58:39  2023
--------------------------------------------------------------------------------
Index   v-sweep         rds             
--------------------------------------------------------------------------------
0	0.000000e+00	1.561548e-05	
1	5.000000e-02	1.542680e-05	
2	1.000000e-01	1.523856e-05	
3	1.500000e-01	1.505074e-05	
4	2.000000e-01	1.486334e-05	
5	2.500000e-01	1.467637e-05	
6	3.000000e-01	1.448983e-05	
7	3.500000e-01	1.430371e-05	
8	4.000000e-01	1.411801e-05	
9	4.500000e-01	1.393272e-05	
10	5.000000e-01	1.374786e-05	
11	5.500000e-01	1.356341e-05	
12	6.000000e-01	1.337938e-05	
13	6.500000e-01	1.319577e-05	
14	7.000000e-01	1.301257e-05	
15	7.500000e-01	1.282978e-05	
16	8.000000e-01	1.264740e-05	
17	8.500000e-01	1.246543e-05	
18	9.000000e-01	1.228387e-05	
19	9.500000e-01	1.210272e-05	
20	1.000000e+00	1.192198e-05	
21	1.050000e+00	1.174164e-05	
22	1.100000e+00	1.156170e-05	
23	1.150000e+00	1.138217e-05	
24	1.200000e+00	1.120304e-05	
25	1.250000e+00	1.102430e-05	
26	1.300000e+00	1.084597e-05	
27	1.350000e+00	1.066804e-05	
28	1.400000e+00	1.049050e-05	
29	1.450000e+00	1.031335e-05	
30	1.500000e+00	1.013661e-05	
31	1.550000e+00	9.960249e-06	
32	1.600000e+00	9.784284e-06	
33	1.650000e+00	9.608709e-06	
34	1.700000e+00	9.433523e-06	
35	1.750000e+00	9.258724e-06	
36	1.800000e+00	9.084312e-06	
37	1.850000e+00	8.910284e-06	
38	1.900000e+00	8.736640e-06	
39	1.950000e+00	8.563377e-06	
40	2.000000e+00	8.390496e-06	
41	2.050000e+00	8.217993e-06	
42	2.100000e+00	8.045868e-06	
43	2.150000e+00	7.874118e-06	
44	2.200000e+00	7.702743e-06	
45	2.250000e+00	7.531740e-06	
46	2.300000e+00	7.361109e-06	
47	2.350000e+00	7.190846e-06	
48	2.400000e+00	7.020950e-06	
49	2.450000e+00	6.851418e-06	
50	2.500000e+00	6.682250e-06	
51	2.550000e+00	6.513441e-06	
52	2.600000e+00	6.344991e-06	
53	2.650000e+00	6.176895e-06	
54	2.700000e+00	6.009151e-06	

Index   v-sweep         rds             
--------------------------------------------------------------------------------
55	2.750000e+00	5.841756e-06	
56	2.800000e+00	5.674706e-06	
57	2.850000e+00	5.507998e-06	
58	2.900000e+00	5.341626e-06	
59	2.950000e+00	5.175586e-06	
60	3.000000e+00	5.009873e-06	
61	3.050000e+00	4.844480e-06	
62	3.100000e+00	4.679401e-06	
63	3.150000e+00	4.514627e-06	
64	3.200000e+00	4.350149e-06	
65	3.250000e+00	4.185957e-06	
66	3.300000e+00	4.022039e-06	
67	3.350000e+00	3.858382e-06	
68	3.400000e+00	3.694970e-06	
69	3.450000e+00	3.531785e-06	
70	3.500000e+00	3.368808e-06	
71	3.550000e+00	3.206016e-06	
72	3.600000e+00	3.043386e-06	
73	3.650000e+00	2.880892e-06	
74	3.700000e+00	2.718512e-06	
75	3.750000e+00	2.556226e-06	
76	3.800000e+00	2.394028e-06	
77	3.850000e+00	2.231936e-06	
78	3.900000e+00	2.070008e-06	
79	3.950000e+00	1.908383e-06	
80	4.000000e+00	1.747320e-06	
81	4.050000e+00	1.587277e-06	
82	4.100000e+00	1.429007e-06	
83	4.150000e+00	1.273660e-06	
84	4.200000e+00	1.122879e-06	
85	4.250000e+00	9.787962e-07	
86	4.300000e+00	8.438773e-07	
87	4.350000e+00	7.205685e-07	
88	4.400000e+00	6.108205e-07	
89	4.450000e+00	5.156772e-07	
90	4.500000e+00	4.351116e-07	
91	4.550000e+00	3.681615e-07	
92	4.600000e+00	3.132558e-07	
93	4.650000e+00	2.685723e-07	
94	4.700000e+00	2.323125e-07	
95	4.750000e+00	2.028617e-07	
96	4.800000e+00	1.788535e-07	
97	4.850000e+00	1.591736e-07	
98	4.900000e+00	1.429334e-07	
99	4.950000e+00	1.294334e-07	
100	5.000000e+00	1.181257e-07	
101	5.050000e+00	1.085823e-07	
102	5.100000e+00	1.004679e-07	
103	5.150000e+00	9.351903e-08	
104	5.200000e+00	8.752736e-08	
105	5.250000e+00	8.232749e-08	
106	5.300000e+00	7.778708e-08	
107	5.350000e+00	7.379958e-08	
108	5.400000e+00	7.027867e-08	
109	5.450000e+00	6.715391e-08	
110	5.500000e+00	6.436750e-08	
111	5.550000e+00	6.187167e-08	
112	5.600000e+00	5.962672e-08	

Index   v-sweep         rds             
--------------------------------------------------------------------------------
113	5.650000e+00	5.759947e-08	
114	5.700000e+00	5.576202e-08	
115	5.750000e+00	5.409080e-08	
116	5.800000e+00	5.256578e-08	
117	5.850000e+00	5.116989e-08	
118	5.900000e+00	4.988846e-08	
119	5.950000e+00	4.870887e-08	
120	6.000000e+00	4.762021e-08	
121	6.050000e+00	4.661300e-08	
122	6.100000e+00	4.567898e-08	
123	6.150000e+00	4.481092e-08	
124	6.200000e+00	4.400247e-08	
125	6.250000e+00	4.324804e-08	
126	6.300000e+00	4.254269e-08	
127	6.350000e+00	4.188203e-08	
128	6.400000e+00	4.126219e-08	
129	6.450000e+00	4.067968e-08	
130	6.500000e+00	4.013140e-08	
131	6.550000e+00	3.961458e-08	
132	6.600000e+00	3.912671e-08	
Reset re-loads circuit ***************************

Circuit: ***************************

Note: No ".plot", ".print", or ".fourier" lines; no simulations run
