
Note: Compatibility modes selected: hs

Warning: m=xx on .subckt line will override multiplier m hierarchy!


Circuit: ***************************

Doing analysis at TEMP = 125.000000 and TNOM = 125.000000


No. of Data Rows : 133
                          ***************************
                          DC transfer characteristic  Mon Jan  9 13:58:40  2023
--------------------------------------------------------------------------------
Index   v-sweep         rds             
--------------------------------------------------------------------------------
0	0.000000e+00	2.034462e-05	
1	5.000000e-02	1.754997e-05	
2	1.000000e-01	1.480821e-05	
3	1.500000e-01	1.212550e-05	
4	2.000000e-01	9.518697e-06	
5	2.500000e-01	7.035508e-06	
6	3.000000e-01	4.807172e-06	
7	3.500000e-01	3.099127e-06	
8	4.000000e-01	2.094621e-06	
9	4.500000e-01	1.600240e-06	
10	5.000000e-01	1.341172e-06	
11	5.500000e-01	1.181202e-06	
12	6.000000e-01	1.068801e-06	
13	6.500000e-01	9.833352e-07	
14	7.000000e-01	9.151761e-07	
15	7.500000e-01	8.591183e-07	
16	8.000000e-01	8.120080e-07	
17	8.500000e-01	7.717717e-07	
18	9.000000e-01	7.369652e-07	
19	9.500000e-01	7.065391e-07	
20	1.000000e+00	6.797069e-07	
21	1.050000e+00	6.558643e-07	
22	1.100000e+00	6.345376e-07	
23	1.150000e+00	6.153496e-07	
24	1.200000e+00	5.979958e-07	
25	1.250000e+00	5.822271e-07	
26	1.300000e+00	5.678380e-07	
27	1.350000e+00	5.546570e-07	
28	1.400000e+00	5.425400e-07	
29	1.450000e+00	5.313651e-07	
30	1.500000e+00	5.210282e-07	
31	1.550000e+00	5.114399e-07	
32	1.600000e+00	5.025232e-07	
33	1.650000e+00	4.942113e-07	
34	1.700000e+00	4.864459e-07	
35	1.750000e+00	4.791759e-07	
36	1.800000e+00	4.723564e-07	
37	1.850000e+00	4.659478e-07	
38	1.900000e+00	4.599148e-07	
39	1.950000e+00	4.542263e-07	
40	2.000000e+00	4.488542e-07	
41	2.050000e+00	4.437736e-07	
42	2.100000e+00	4.389621e-07	
43	2.150000e+00	4.343994e-07	
44	2.200000e+00	4.300672e-07	
45	2.250000e+00	4.259491e-07	
46	2.300000e+00	4.220301e-07	
47	2.350000e+00	4.182965e-07	
48	2.400000e+00	4.147359e-07	
49	2.450000e+00	4.113370e-07	
50	2.500000e+00	4.080894e-07	
51	2.550000e+00	4.049835e-07	
52	2.600000e+00	4.020106e-07	
53	2.650000e+00	3.991627e-07	
54	2.700000e+00	3.964323e-07	

Index   v-sweep         rds             
--------------------------------------------------------------------------------
55	2.750000e+00	3.938127e-07	
56	2.800000e+00	3.912974e-07	
57	2.850000e+00	3.888806e-07	
58	2.900000e+00	3.865569e-07	
59	2.950000e+00	3.843213e-07	
60	3.000000e+00	3.821690e-07	
61	3.050000e+00	3.800956e-07	
62	3.100000e+00	3.780972e-07	
63	3.150000e+00	3.761699e-07	
64	3.200000e+00	3.743101e-07	
65	3.250000e+00	3.725146e-07	
66	3.300000e+00	3.707802e-07	
67	3.350000e+00	3.691040e-07	
68	3.400000e+00	3.674834e-07	
69	3.450000e+00	3.659156e-07	
70	3.500000e+00	3.643983e-07	
71	3.550000e+00	3.629293e-07	
72	3.600000e+00	3.615064e-07	
73	3.650000e+00	3.601276e-07	
74	3.700000e+00	3.587909e-07	
75	3.750000e+00	3.574946e-07	
76	3.800000e+00	3.562371e-07	
77	3.850000e+00	3.550166e-07	
78	3.900000e+00	3.538317e-07	
79	3.950000e+00	3.526809e-07	
80	4.000000e+00	3.515629e-07	
81	4.050000e+00	3.504764e-07	
82	4.100000e+00	3.494202e-07	
83	4.150000e+00	3.483930e-07	
84	4.200000e+00	3.473939e-07	
85	4.250000e+00	3.464216e-07	
86	4.300000e+00	3.454753e-07	
87	4.350000e+00	3.445540e-07	
88	4.400000e+00	3.436568e-07	
89	4.450000e+00	3.427828e-07	
90	4.500000e+00	3.419312e-07	
91	4.550000e+00	3.411012e-07	
92	4.600000e+00	3.402921e-07	
93	4.650000e+00	3.395031e-07	
94	4.700000e+00	3.387335e-07	
95	4.750000e+00	3.379828e-07	
96	4.800000e+00	3.372502e-07	
97	4.850000e+00	3.365352e-07	
98	4.900000e+00	3.358373e-07	
99	4.950000e+00	3.351557e-07	
100	5.000000e+00	3.344901e-07	
101	5.050000e+00	3.338399e-07	
102	5.100000e+00	3.332047e-07	
103	5.150000e+00	3.325839e-07	
104	5.200000e+00	3.319772e-07	
105	5.250000e+00	3.313841e-07	
106	5.300000e+00	3.308041e-07	
107	5.350000e+00	3.302370e-07	
108	5.400000e+00	3.296822e-07	
109	5.450000e+00	3.291396e-07	
110	5.500000e+00	3.286086e-07	
111	5.550000e+00	3.280889e-07	
112	5.600000e+00	3.275804e-07	

Index   v-sweep         rds             
--------------------------------------------------------------------------------
113	5.650000e+00	3.270825e-07	
114	5.700000e+00	3.265951e-07	
115	5.750000e+00	3.261177e-07	
116	5.800000e+00	3.256503e-07	
117	5.850000e+00	3.251924e-07	
118	5.900000e+00	3.247438e-07	
119	5.950000e+00	3.243043e-07	
120	6.000000e+00	3.238737e-07	
121	6.050000e+00	3.234516e-07	
122	6.100000e+00	3.230378e-07	
123	6.150000e+00	3.226323e-07	
124	6.200000e+00	3.222346e-07	
125	6.250000e+00	3.218447e-07	
126	6.300000e+00	3.214623e-07	
127	6.350000e+00	3.210872e-07	
128	6.400000e+00	3.207193e-07	
129	6.450000e+00	3.203584e-07	
130	6.500000e+00	3.200043e-07	
131	6.550000e+00	3.196568e-07	
132	6.600000e+00	3.193157e-07	
Reset re-loads circuit ***************************

Circuit: ***************************

Doing analysis at TEMP = 125.000000 and TNOM = 125.000000


No. of Data Rows : 133
                          ***************************
                          DC transfer characteristic  Mon Jan  9 13:58:40  2023
--------------------------------------------------------------------------------
Index   v-sweep         rds             
--------------------------------------------------------------------------------
0	0.000000e+00	5.155389e-05	
1	5.000000e-02	4.858542e-05	
2	1.000000e-01	4.567190e-05	
3	1.500000e-01	4.281220e-05	
4	2.000000e-01	4.000525e-05	
5	2.500000e-01	3.725005e-05	
6	3.000000e-01	3.454568e-05	
7	3.500000e-01	3.189140e-05	
8	4.000000e-01	2.928666e-05	
9	4.500000e-01	2.673128e-05	
10	5.000000e-01	2.422566e-05	
11	5.500000e-01	2.177120e-05	
12	6.000000e-01	1.937114e-05	
13	6.500000e-01	1.703228e-05	
14	7.000000e-01	1.476837e-05	
15	7.500000e-01	1.260664e-05	
16	8.000000e-01	1.059722e-05	
17	8.500000e-01	8.816609e-06	
18	9.000000e-01	7.341826e-06	
19	9.500000e-01	6.196530e-06	
20	1.000000e+00	5.335052e-06	
21	1.050000e+00	4.684375e-06	
22	1.100000e+00	4.181734e-06	
23	1.150000e+00	3.783264e-06	
24	1.200000e+00	3.459917e-06	
25	1.250000e+00	3.192319e-06	
26	1.300000e+00	2.967196e-06	
27	1.350000e+00	2.775176e-06	
28	1.400000e+00	2.609463e-06	
29	1.450000e+00	2.465004e-06	
30	1.500000e+00	2.337964e-06	
31	1.550000e+00	2.225378e-06	
32	1.600000e+00	2.124921e-06	
33	1.650000e+00	2.034739e-06	
34	1.700000e+00	1.953337e-06	
35	1.750000e+00	1.879498e-06	
36	1.800000e+00	1.812220e-06	
37	1.850000e+00	1.750668e-06	
38	1.900000e+00	1.694146e-06	
39	1.950000e+00	1.642063e-06	
40	2.000000e+00	1.593919e-06	
41	2.050000e+00	1.549285e-06	
42	2.100000e+00	1.507794e-06	
43	2.150000e+00	1.469127e-06	
44	2.200000e+00	1.433006e-06	
45	2.250000e+00	1.399190e-06	
46	2.300000e+00	1.367466e-06	
47	2.350000e+00	1.337646e-06	
48	2.400000e+00	1.309567e-06	
49	2.450000e+00	1.283080e-06	
50	2.500000e+00	1.258054e-06	
51	2.550000e+00	1.234374e-06	
52	2.600000e+00	1.211934e-06	
53	2.650000e+00	1.190639e-06	
54	2.700000e+00	1.170406e-06	

Index   v-sweep         rds             
--------------------------------------------------------------------------------
55	2.750000e+00	1.151156e-06	
56	2.800000e+00	1.132822e-06	
57	2.850000e+00	1.115339e-06	
58	2.900000e+00	1.098650e-06	
59	2.950000e+00	1.082702e-06	
60	3.000000e+00	1.067449e-06	
61	3.050000e+00	1.052844e-06	
62	3.100000e+00	1.038850e-06	
63	3.150000e+00	1.025428e-06	
64	3.200000e+00	1.012544e-06	
65	3.250000e+00	1.000167e-06	
66	3.300000e+00	9.882686e-07	
67	3.350000e+00	9.768208e-07	
68	3.400000e+00	9.657990e-07	
69	3.450000e+00	9.551802e-07	
70	3.500000e+00	9.449429e-07	
71	3.550000e+00	9.350672e-07	
72	3.600000e+00	9.255344e-07	
73	3.650000e+00	9.163272e-07	
74	3.700000e+00	9.074294e-07	
75	3.750000e+00	8.988257e-07	
76	3.800000e+00	8.905021e-07	
77	3.850000e+00	8.824452e-07	
78	3.900000e+00	8.746426e-07	
79	3.950000e+00	8.670826e-07	
80	4.000000e+00	8.597541e-07	
81	4.050000e+00	8.526469e-07	
82	4.100000e+00	8.457512e-07	
83	4.150000e+00	8.390579e-07	
84	4.200000e+00	8.325582e-07	
85	4.250000e+00	8.262440e-07	
86	4.300000e+00	8.201076e-07	
87	4.350000e+00	8.141417e-07	
88	4.400000e+00	8.083394e-07	
89	4.450000e+00	8.026942e-07	
90	4.500000e+00	7.971998e-07	
91	4.550000e+00	7.918504e-07	
92	4.600000e+00	7.866405e-07	
93	4.650000e+00	7.815647e-07	
94	4.700000e+00	7.766180e-07	
95	4.750000e+00	7.717957e-07	
96	4.800000e+00	7.670931e-07	
97	4.850000e+00	7.625060e-07	
98	4.900000e+00	7.580302e-07	
99	4.950000e+00	7.536619e-07	
100	5.000000e+00	7.493972e-07	
101	5.050000e+00	7.452326e-07	
102	5.100000e+00	7.411647e-07	
103	5.150000e+00	7.371902e-07	
104	5.200000e+00	7.333060e-07	
105	5.250000e+00	7.295091e-07	
106	5.300000e+00	7.257968e-07	
107	5.350000e+00	7.221662e-07	
108	5.400000e+00	7.186147e-07	
109	5.450000e+00	7.151399e-07	
110	5.500000e+00	7.117394e-07	
111	5.550000e+00	7.084108e-07	
112	5.600000e+00	7.051520e-07	

Index   v-sweep         rds             
--------------------------------------------------------------------------------
113	5.650000e+00	7.019608e-07	
114	5.700000e+00	6.988353e-07	
115	5.750000e+00	6.957734e-07	
116	5.800000e+00	6.927733e-07	
117	5.850000e+00	6.898332e-07	
118	5.900000e+00	6.869513e-07	
119	5.950000e+00	6.841261e-07	
120	6.000000e+00	6.813558e-07	
121	6.050000e+00	6.786390e-07	
122	6.100000e+00	6.759742e-07	
123	6.150000e+00	6.733599e-07	
124	6.200000e+00	6.707947e-07	
125	6.250000e+00	6.682774e-07	
126	6.300000e+00	6.658067e-07	
127	6.350000e+00	6.633812e-07	
128	6.400000e+00	6.609998e-07	
129	6.450000e+00	6.586614e-07	
130	6.500000e+00	6.563649e-07	
131	6.550000e+00	6.541091e-07	
132	6.600000e+00	6.518931e-07	
Reset re-loads circuit ***************************

Circuit: ***************************

Doing analysis at TEMP = 125.000000 and TNOM = 125.000000


No. of Data Rows : 133
                          ***************************
                          DC transfer characteristic  Mon Jan  9 13:58:40  2023
--------------------------------------------------------------------------------
Index   v-sweep         rds             
--------------------------------------------------------------------------------
0	0.000000e+00	7.717971e-05	
1	5.000000e-02	7.417400e-05	
2	1.000000e-01	7.122244e-05	
3	1.500000e-01	6.832387e-05	
4	2.000000e-01	6.547716e-05	
5	2.500000e-01	6.268119e-05	
6	3.000000e-01	5.993486e-05	
7	3.500000e-01	5.723707e-05	
8	4.000000e-01	5.458676e-05	
9	4.500000e-01	5.198291e-05	
10	5.000000e-01	4.942451e-05	
11	5.500000e-01	4.691062e-05	
12	6.000000e-01	4.444036e-05	
13	6.500000e-01	4.201291e-05	
14	7.000000e-01	3.962754e-05	
15	7.500000e-01	3.728358e-05	
16	8.000000e-01	3.498048e-05	
17	8.500000e-01	3.271782e-05	
18	9.000000e-01	3.049531e-05	
19	9.500000e-01	2.831293e-05	
20	1.000000e+00	2.617097e-05	
21	1.050000e+00	2.407029e-05	
22	1.100000e+00	2.201274e-05	
23	1.150000e+00	2.000189e-05	
24	1.200000e+00	1.804458e-05	
25	1.250000e+00	1.615349e-05	
26	1.300000e+00	1.435095e-05	
27	1.350000e+00	1.267131e-05	
28	1.400000e+00	1.115563e-05	
29	1.450000e+00	9.835694e-06	
30	1.500000e+00	8.719416e-06	
31	1.550000e+00	7.791081e-06	
32	1.600000e+00	7.022670e-06	
33	1.650000e+00	6.384418e-06	
34	1.700000e+00	5.850120e-06	
35	1.750000e+00	5.398542e-06	
36	1.800000e+00	5.013071e-06	
37	1.850000e+00	4.680866e-06	
38	1.900000e+00	4.392000e-06	
39	1.950000e+00	4.138754e-06	
40	2.000000e+00	3.915075e-06	
41	2.050000e+00	3.716171e-06	
42	2.100000e+00	3.538208e-06	
43	2.150000e+00	3.378091e-06	
44	2.200000e+00	3.233297e-06	
45	2.250000e+00	3.101749e-06	
46	2.300000e+00	2.981729e-06	
47	2.350000e+00	2.871796e-06	
48	2.400000e+00	2.770742e-06	
49	2.450000e+00	2.677541e-06	
50	2.500000e+00	2.591317e-06	
51	2.550000e+00	2.511322e-06	
52	2.600000e+00	2.436907e-06	
53	2.650000e+00	2.367513e-06	
54	2.700000e+00	2.302650e-06	

Index   v-sweep         rds             
--------------------------------------------------------------------------------
55	2.750000e+00	2.241892e-06	
56	2.800000e+00	2.184863e-06	
57	2.850000e+00	2.131231e-06	
58	2.900000e+00	2.080704e-06	
59	2.950000e+00	2.033021e-06	
60	3.000000e+00	1.987950e-06	
61	3.050000e+00	1.945282e-06	
62	3.100000e+00	1.904832e-06	
63	3.150000e+00	1.866432e-06	
64	3.200000e+00	1.829931e-06	
65	3.250000e+00	1.795192e-06	
66	3.300000e+00	1.762091e-06	
67	3.350000e+00	1.730516e-06	
68	3.400000e+00	1.700363e-06	
69	3.450000e+00	1.671540e-06	
70	3.500000e+00	1.643960e-06	
71	3.550000e+00	1.617546e-06	
72	3.600000e+00	1.592226e-06	
73	3.650000e+00	1.567933e-06	
74	3.700000e+00	1.544606e-06	
75	3.750000e+00	1.522189e-06	
76	3.800000e+00	1.500631e-06	
77	3.850000e+00	1.479882e-06	
78	3.900000e+00	1.459899e-06	
79	3.950000e+00	1.440641e-06	
80	4.000000e+00	1.422068e-06	
81	4.050000e+00	1.404145e-06	
82	4.100000e+00	1.386838e-06	
83	4.150000e+00	1.370117e-06	
84	4.200000e+00	1.353953e-06	
85	4.250000e+00	1.338318e-06	
86	4.300000e+00	1.323186e-06	
87	4.350000e+00	1.308535e-06	
88	4.400000e+00	1.294342e-06	
89	4.450000e+00	1.280586e-06	
90	4.500000e+00	1.267246e-06	
91	4.550000e+00	1.254305e-06	
92	4.600000e+00	1.241746e-06	
93	4.650000e+00	1.229550e-06	
94	4.700000e+00	1.217704e-06	
95	4.750000e+00	1.206193e-06	
96	4.800000e+00	1.195002e-06	
97	4.850000e+00	1.184118e-06	
98	4.900000e+00	1.173530e-06	
99	4.950000e+00	1.163225e-06	
100	5.000000e+00	1.153192e-06	
101	5.050000e+00	1.143421e-06	
102	5.100000e+00	1.133902e-06	
103	5.150000e+00	1.124625e-06	
104	5.200000e+00	1.115581e-06	
105	5.250000e+00	1.106762e-06	
106	5.300000e+00	1.098160e-06	
107	5.350000e+00	1.089766e-06	
108	5.400000e+00	1.081573e-06	
109	5.450000e+00	1.073575e-06	
110	5.500000e+00	1.065765e-06	
111	5.550000e+00	1.058135e-06	
112	5.600000e+00	1.050681e-06	

Index   v-sweep         rds             
--------------------------------------------------------------------------------
113	5.650000e+00	1.043395e-06	
114	5.700000e+00	1.036274e-06	
115	5.750000e+00	1.029310e-06	
116	5.800000e+00	1.022500e-06	
117	5.850000e+00	1.015837e-06	
118	5.900000e+00	1.009319e-06	
119	5.950000e+00	1.002939e-06	
120	6.000000e+00	9.966943e-07	
121	6.050000e+00	9.905800e-07	
122	6.100000e+00	9.845924e-07	
123	6.150000e+00	9.787276e-07	
124	6.200000e+00	9.729821e-07	
125	6.250000e+00	9.673522e-07	
126	6.300000e+00	9.618347e-07	
127	6.350000e+00	9.564262e-07	
128	6.400000e+00	9.511237e-07	
129	6.450000e+00	9.459243e-07	
130	6.500000e+00	9.408249e-07	
131	6.550000e+00	9.358228e-07	
132	6.600000e+00	9.309154e-07	
Reset re-loads circuit ***************************

Circuit: ***************************

Doing analysis at TEMP = 125.000000 and TNOM = 125.000000


No. of Data Rows : 133
                          ***************************
                          DC transfer characteristic  Mon Jan  9 13:58:40  2023
--------------------------------------------------------------------------------
Index   v-sweep         rds             
--------------------------------------------------------------------------------
0	0.000000e+00	9.507466e-05	
1	5.000000e-02	9.217687e-05	
2	1.000000e-01	8.932732e-05	
3	1.500000e-01	8.652504e-05	
4	2.000000e-01	8.376911e-05	
5	2.500000e-01	8.105860e-05	
6	3.000000e-01	7.839259e-05	
7	3.500000e-01	7.577016e-05	
8	4.000000e-01	7.319042e-05	
9	4.500000e-01	7.065245e-05	
10	5.000000e-01	6.815537e-05	
11	5.500000e-01	6.569832e-05	
12	6.000000e-01	6.328045e-05	
13	6.500000e-01	6.090094e-05	
14	7.000000e-01	5.855901e-05	
15	7.500000e-01	5.625390e-05	
16	8.000000e-01	5.398492e-05	
17	8.500000e-01	5.175139e-05	
18	9.000000e-01	4.955268e-05	
19	9.500000e-01	4.738821e-05	
20	1.000000e+00	4.525742e-05	
21	1.050000e+00	4.315979e-05	
22	1.100000e+00	4.109485e-05	
23	1.150000e+00	3.906213e-05	
24	1.200000e+00	3.706119e-05	
25	1.250000e+00	3.509158e-05	
26	1.300000e+00	3.315287e-05	
27	1.350000e+00	3.124457e-05	
28	1.400000e+00	2.936614e-05	
29	1.450000e+00	2.751694e-05	
30	1.500000e+00	2.569616e-05	
31	1.550000e+00	2.390285e-05	
32	1.600000e+00	2.213606e-05	
33	1.650000e+00	2.039556e-05	
34	1.700000e+00	1.868397e-05	
35	1.750000e+00	1.701077e-05	
36	1.800000e+00	1.539728e-05	
37	1.850000e+00	1.387708e-05	
38	1.900000e+00	1.248674e-05	
39	1.950000e+00	1.125148e-05	
40	2.000000e+00	1.017766e-05	
41	2.050000e+00	9.255706e-06	
42	2.100000e+00	8.467601e-06	
43	2.150000e+00	7.793135e-06	
44	2.200000e+00	7.213375e-06	
45	2.250000e+00	6.711996e-06	
46	2.300000e+00	6.275477e-06	
47	2.350000e+00	5.892825e-06	
48	2.400000e+00	5.555167e-06	
49	2.450000e+00	5.255338e-06	
50	2.500000e+00	4.987534e-06	
51	2.550000e+00	4.747031e-06	
52	2.600000e+00	4.529958e-06	
53	2.650000e+00	4.333120e-06	
54	2.700000e+00	4.153865e-06	

Index   v-sweep         rds             
--------------------------------------------------------------------------------
55	2.750000e+00	3.989974e-06	
56	2.800000e+00	3.839582e-06	
57	2.850000e+00	3.701108e-06	
58	2.900000e+00	3.573205e-06	
59	2.950000e+00	3.454719e-06	
60	3.000000e+00	3.344658e-06	
61	3.050000e+00	3.242162e-06	
62	3.100000e+00	3.146482e-06	
63	3.150000e+00	3.056967e-06	
64	3.200000e+00	2.973044e-06	
65	3.250000e+00	2.894207e-06	
66	3.300000e+00	2.820011e-06	
67	3.350000e+00	2.750061e-06	
68	3.400000e+00	2.684004e-06	
69	3.450000e+00	2.621526e-06	
70	3.500000e+00	2.562346e-06	
71	3.550000e+00	2.506211e-06	
72	3.600000e+00	2.452892e-06	
73	3.650000e+00	2.402184e-06	
74	3.700000e+00	2.353901e-06	
75	3.750000e+00	2.307873e-06	
76	3.800000e+00	2.263948e-06	
77	3.850000e+00	2.221985e-06	
78	3.900000e+00	2.181855e-06	
79	3.950000e+00	2.143443e-06	
80	4.000000e+00	2.106640e-06	
81	4.050000e+00	2.071348e-06	
82	4.100000e+00	2.037476e-06	
83	4.150000e+00	2.004941e-06	
84	4.200000e+00	1.973665e-06	
85	4.250000e+00	1.943577e-06	
86	4.300000e+00	1.914611e-06	
87	4.350000e+00	1.886705e-06	
88	4.400000e+00	1.859803e-06	
89	4.450000e+00	1.833852e-06	
90	4.500000e+00	1.808802e-06	
91	4.550000e+00	1.784607e-06	
92	4.600000e+00	1.761225e-06	
93	4.650000e+00	1.738615e-06	
94	4.700000e+00	1.716741e-06	
95	4.750000e+00	1.695566e-06	
96	4.800000e+00	1.675059e-06	
97	4.850000e+00	1.655188e-06	
98	4.900000e+00	1.635924e-06	
99	4.950000e+00	1.617240e-06	
100	5.000000e+00	1.599110e-06	
101	5.050000e+00	1.581511e-06	
102	5.100000e+00	1.564419e-06	
103	5.150000e+00	1.547813e-06	
104	5.200000e+00	1.531673e-06	
105	5.250000e+00	1.515980e-06	
106	5.300000e+00	1.500714e-06	
107	5.350000e+00	1.485861e-06	
108	5.400000e+00	1.471402e-06	
109	5.450000e+00	1.457323e-06	
110	5.500000e+00	1.443609e-06	
111	5.550000e+00	1.430246e-06	
112	5.600000e+00	1.417221e-06	

Index   v-sweep         rds             
--------------------------------------------------------------------------------
113	5.650000e+00	1.404522e-06	
114	5.700000e+00	1.392136e-06	
115	5.750000e+00	1.380053e-06	
116	5.800000e+00	1.368261e-06	
117	5.850000e+00	1.356751e-06	
118	5.900000e+00	1.345512e-06	
119	5.950000e+00	1.334535e-06	
120	6.000000e+00	1.323812e-06	
121	6.050000e+00	1.313333e-06	
122	6.100000e+00	1.303091e-06	
123	6.150000e+00	1.293078e-06	
124	6.200000e+00	1.283286e-06	
125	6.250000e+00	1.273709e-06	
126	6.300000e+00	1.264340e-06	
127	6.350000e+00	1.255171e-06	
128	6.400000e+00	1.246198e-06	
129	6.450000e+00	1.237413e-06	
130	6.500000e+00	1.228812e-06	
131	6.550000e+00	1.220388e-06	
132	6.600000e+00	1.212136e-06	
Reset re-loads circuit ***************************

Circuit: ***************************

Doing analysis at TEMP = 125.000000 and TNOM = 125.000000


No. of Data Rows : 133
                          ***************************
                          DC transfer characteristic  Mon Jan  9 13:58:40  2023
--------------------------------------------------------------------------------
Index   v-sweep         rds             
--------------------------------------------------------------------------------
0	0.000000e+00	1.084434e-04	
1	5.000000e-02	1.057162e-04	
2	1.000000e-01	1.030302e-04	
3	1.500000e-01	1.003847e-04	
4	2.000000e-01	9.777901e-05	
5	2.500000e-01	9.521242e-05	
6	3.000000e-01	9.268418e-05	
7	3.500000e-01	9.019360e-05	
8	4.000000e-01	8.773997e-05	
9	4.500000e-01	8.532257e-05	
10	5.000000e-01	8.294071e-05	
11	5.500000e-01	8.059370e-05	
12	6.000000e-01	7.828083e-05	
13	6.500000e-01	7.600143e-05	
14	7.000000e-01	7.375484e-05	
15	7.500000e-01	7.154041e-05	
16	8.000000e-01	6.935751e-05	
17	8.500000e-01	6.720554e-05	
18	9.000000e-01	6.508393e-05	
19	9.500000e-01	6.299212e-05	
20	1.000000e+00	6.092959e-05	
21	1.050000e+00	5.889584e-05	
22	1.100000e+00	5.689040e-05	
23	1.150000e+00	5.491283e-05	
24	1.200000e+00	5.296272e-05	
25	1.250000e+00	5.103968e-05	
26	1.300000e+00	4.914332e-05	
27	1.350000e+00	4.727330e-05	
28	1.400000e+00	4.542927e-05	
29	1.450000e+00	4.361088e-05	
30	1.500000e+00	4.181779e-05	
31	1.550000e+00	4.004964e-05	
32	1.600000e+00	3.830603e-05	
33	1.650000e+00	3.658651e-05	
34	1.700000e+00	3.489054e-05	
35	1.750000e+00	3.321745e-05	
36	1.800000e+00	3.156633e-05	
37	1.850000e+00	2.993596e-05	
38	1.900000e+00	2.832462e-05	
39	1.950000e+00	2.672989e-05	
40	2.000000e+00	2.514850e-05	
41	2.050000e+00	2.357636e-05	
42	2.100000e+00	2.200932e-05	
43	2.150000e+00	2.044551e-05	
44	2.200000e+00	1.888976e-05	
45	2.250000e+00	1.735864e-05	
46	2.300000e+00	1.588153e-05	
47	2.350000e+00	1.449367e-05	
48	2.400000e+00	1.322445e-05	
49	2.450000e+00	1.208922e-05	
50	2.500000e+00	1.108889e-05	
51	2.550000e+00	1.021438e-05	
52	2.600000e+00	9.451796e-06	
53	2.650000e+00	8.786074e-06	
54	2.700000e+00	8.202992e-06	

Index   v-sweep         rds             
--------------------------------------------------------------------------------
55	2.750000e+00	7.689993e-06	
56	2.800000e+00	7.236365e-06	
57	2.850000e+00	6.833140e-06	
58	2.900000e+00	6.472865e-06	
59	2.950000e+00	6.149362e-06	
60	3.000000e+00	5.857504e-06	
61	3.050000e+00	5.593025e-06	
62	3.100000e+00	5.352357e-06	
63	3.150000e+00	5.132505e-06	
64	3.200000e+00	4.930939e-06	
65	3.250000e+00	4.745515e-06	
66	3.300000e+00	4.574401e-06	
67	3.350000e+00	4.416027e-06	
68	3.400000e+00	4.269043e-06	
69	3.450000e+00	4.132277e-06	
70	3.500000e+00	4.004713e-06	
71	3.550000e+00	3.885461e-06	
72	3.600000e+00	3.773743e-06	
73	3.650000e+00	3.668874e-06	
74	3.700000e+00	3.570248e-06	
75	3.750000e+00	3.477328e-06	
76	3.800000e+00	3.389637e-06	
77	3.850000e+00	3.306748e-06	
78	3.900000e+00	3.228280e-06	
79	3.950000e+00	3.153891e-06	
80	4.000000e+00	3.083274e-06	
81	4.050000e+00	3.016149e-06	
82	4.100000e+00	2.952267e-06	
83	4.150000e+00	2.891398e-06	
84	4.200000e+00	2.833335e-06	
85	4.250000e+00	2.777890e-06	
86	4.300000e+00	2.724891e-06	
87	4.350000e+00	2.674180e-06	
88	4.400000e+00	2.625613e-06	
89	4.450000e+00	2.579057e-06	
90	4.500000e+00	2.534391e-06	
91	4.550000e+00	2.491502e-06	
92	4.600000e+00	2.450287e-06	
93	4.650000e+00	2.410649e-06	
94	4.700000e+00	2.372502e-06	
95	4.750000e+00	2.335762e-06	
96	4.800000e+00	2.300353e-06	
97	4.850000e+00	2.266205e-06	
98	4.900000e+00	2.233252e-06	
99	4.950000e+00	2.201433e-06	
100	5.000000e+00	2.170689e-06	
101	5.050000e+00	2.140969e-06	
102	5.100000e+00	2.112221e-06	
103	5.150000e+00	2.084400e-06	
104	5.200000e+00	2.057461e-06	
105	5.250000e+00	2.031363e-06	
106	5.300000e+00	2.006068e-06	
107	5.350000e+00	1.981539e-06	
108	5.400000e+00	1.957743e-06	
109	5.450000e+00	1.934646e-06	
110	5.500000e+00	1.912220e-06	
111	5.550000e+00	1.890436e-06	
112	5.600000e+00	1.869266e-06	

Index   v-sweep         rds             
--------------------------------------------------------------------------------
113	5.650000e+00	1.848685e-06	
114	5.700000e+00	1.828669e-06	
115	5.750000e+00	1.809195e-06	
116	5.800000e+00	1.790243e-06	
117	5.850000e+00	1.771791e-06	
118	5.900000e+00	1.753820e-06	
119	5.950000e+00	1.736312e-06	
120	6.000000e+00	1.719249e-06	
121	6.050000e+00	1.702615e-06	
122	6.100000e+00	1.686394e-06	
123	6.150000e+00	1.670572e-06	
124	6.200000e+00	1.655133e-06	
125	6.250000e+00	1.640065e-06	
126	6.300000e+00	1.625354e-06	
127	6.350000e+00	1.610989e-06	
128	6.400000e+00	1.596957e-06	
129	6.450000e+00	1.583247e-06	
130	6.500000e+00	1.569848e-06	
131	6.550000e+00	1.556751e-06	
132	6.600000e+00	1.543945e-06	
Reset re-loads circuit ***************************

Circuit: ***************************

Doing analysis at TEMP = 125.000000 and TNOM = 125.000000


No. of Data Rows : 133
                          ***************************
                          DC transfer characteristic  Mon Jan  9 13:58:40  2023
--------------------------------------------------------------------------------
Index   v-sweep         rds             
--------------------------------------------------------------------------------
0	0.000000e+00	1.172965e-04	
1	5.000000e-02	1.147860e-04	
2	1.000000e-01	1.123097e-04	
3	1.500000e-01	1.098671e-04	
4	2.000000e-01	1.074576e-04	
5	2.500000e-01	1.050807e-04	
6	3.000000e-01	1.027359e-04	
7	3.500000e-01	1.004227e-04	
8	4.000000e-01	9.814042e-05	
9	4.500000e-01	9.588864e-05	
10	5.000000e-01	9.366683e-05	
11	5.500000e-01	9.147444e-05	
12	6.000000e-01	8.931096e-05	
13	6.500000e-01	8.717587e-05	
14	7.000000e-01	8.506865e-05	
15	7.500000e-01	8.298880e-05	
16	8.000000e-01	8.093582e-05	
17	8.500000e-01	7.890921e-05	
18	9.000000e-01	7.690851e-05	
19	9.500000e-01	7.493325e-05	
20	1.000000e+00	7.298299e-05	
21	1.050000e+00	7.105730e-05	
22	1.100000e+00	6.915576e-05	
23	1.150000e+00	6.727798e-05	
24	1.200000e+00	6.542360e-05	
25	1.250000e+00	6.359224e-05	
26	1.300000e+00	6.178359e-05	
27	1.350000e+00	5.999732e-05	
28	1.400000e+00	5.823313e-05	
29	1.450000e+00	5.649074e-05	
30	1.500000e+00	5.476987e-05	
31	1.550000e+00	5.307028e-05	
32	1.600000e+00	5.139172e-05	
33	1.650000e+00	4.973394e-05	
34	1.700000e+00	4.809673e-05	
35	1.750000e+00	4.647984e-05	
36	1.800000e+00	4.488304e-05	
37	1.850000e+00	4.330609e-05	
38	1.900000e+00	4.174873e-05	
39	1.950000e+00	4.021064e-05	
40	2.000000e+00	3.869150e-05	
41	2.050000e+00	3.719088e-05	
42	2.100000e+00	3.570827e-05	
43	2.150000e+00	3.424298e-05	
44	2.200000e+00	3.279413e-05	
45	2.250000e+00	3.136045e-05	
46	2.300000e+00	2.994023e-05	
47	2.350000e+00	2.853106e-05	
48	2.400000e+00	2.712960e-05	
49	2.450000e+00	2.573146e-05	
50	2.500000e+00	2.433129e-05	
51	2.550000e+00	2.292369e-05	
52	2.600000e+00	2.150550e-05	
53	2.650000e+00	2.007973e-05	
54	2.700000e+00	1.865958e-05	

Index   v-sweep         rds             
--------------------------------------------------------------------------------
55	2.750000e+00	1.726942e-05	
56	2.800000e+00	1.593977e-05	
57	2.850000e+00	1.469860e-05	
58	2.900000e+00	1.356433e-05	
59	2.950000e+00	1.254380e-05	
60	3.000000e+00	1.163451e-05	
61	3.050000e+00	1.082823e-05	
62	3.100000e+00	1.011416e-05	
63	3.150000e+00	9.481015e-06	
64	3.200000e+00	8.918107e-06	
65	3.250000e+00	8.415873e-06	
66	3.300000e+00	7.965993e-06	
67	3.350000e+00	7.561344e-06	
68	3.400000e+00	7.195878e-06	
69	3.450000e+00	6.864474e-06	
70	3.500000e+00	6.562797e-06	
71	3.550000e+00	6.287174e-06	
72	3.600000e+00	6.034480e-06	
73	3.650000e+00	5.802051e-06	
74	3.700000e+00	5.587605e-06	
75	3.750000e+00	5.389178e-06	
76	3.800000e+00	5.205076e-06	
77	3.850000e+00	5.033829e-06	
78	3.900000e+00	4.874158e-06	
79	3.950000e+00	4.724944e-06	
80	4.000000e+00	4.585207e-06	
81	4.050000e+00	4.454082e-06	
82	4.100000e+00	4.330807e-06	
83	4.150000e+00	4.214703e-06	
84	4.200000e+00	4.105170e-06	
85	4.250000e+00	4.001670e-06	
86	4.300000e+00	3.903722e-06	
87	4.350000e+00	3.810895e-06	
88	4.400000e+00	3.722800e-06	
89	4.450000e+00	3.639088e-06	
90	4.500000e+00	3.559441e-06	
91	4.550000e+00	3.483572e-06	
92	4.600000e+00	3.411221e-06	
93	4.650000e+00	3.342149e-06	
94	4.700000e+00	3.276141e-06	
95	4.750000e+00	3.212997e-06	
96	4.800000e+00	3.152537e-06	
97	4.850000e+00	3.094594e-06	
98	4.900000e+00	3.039015e-06	
99	4.950000e+00	2.985658e-06	
100	5.000000e+00	2.934394e-06	
101	5.050000e+00	2.885102e-06	
102	5.100000e+00	2.837672e-06	
103	5.150000e+00	2.792000e-06	
104	5.200000e+00	2.747992e-06	
105	5.250000e+00	2.705557e-06	
106	5.300000e+00	2.664614e-06	
107	5.350000e+00	2.625085e-06	
108	5.400000e+00	2.586900e-06	
109	5.450000e+00	2.549991e-06	
110	5.500000e+00	2.514295e-06	
111	5.550000e+00	2.479754e-06	
112	5.600000e+00	2.446312e-06	

Index   v-sweep         rds             
--------------------------------------------------------------------------------
113	5.650000e+00	2.413920e-06	
114	5.700000e+00	2.382528e-06	
115	5.750000e+00	2.352091e-06	
116	5.800000e+00	2.322566e-06	
117	5.850000e+00	2.293914e-06	
118	5.900000e+00	2.266096e-06	
119	5.950000e+00	2.239077e-06	
120	6.000000e+00	2.212823e-06	
121	6.050000e+00	2.187302e-06	
122	6.100000e+00	2.162485e-06	
123	6.150000e+00	2.138343e-06	
124	6.200000e+00	2.114849e-06	
125	6.250000e+00	2.091978e-06	
126	6.300000e+00	2.069706e-06	
127	6.350000e+00	2.048009e-06	
128	6.400000e+00	2.026867e-06	
129	6.450000e+00	2.006257e-06	
130	6.500000e+00	1.986162e-06	
131	6.550000e+00	1.966562e-06	
132	6.600000e+00	1.947439e-06	
Reset re-loads circuit ***************************

Circuit: ***************************

Note: No ".plot", ".print", or ".fourier" lines; no simulations run
