
Note: Compatibility modes selected: hs

Warning: m=xx on .subckt line will override multiplier m hierarchy!


Circuit: ***************************

Doing analysis at TEMP = -40.000000 and TNOM = -40.000000


No. of Data Rows : 133
                          ***************************
                          DC transfer characteristic  Mon Jan  9 13:58:39  2023
--------------------------------------------------------------------------------
Index   v-sweep         rds             
--------------------------------------------------------------------------------
0	0.000000e+00	2.386365e-06	
1	5.000000e-02	1.853317e-06	
2	1.000000e-01	1.328646e-06	
3	1.500000e-01	8.276353e-07	
4	2.000000e-01	4.037021e-07	
5	2.500000e-01	1.510655e-07	
6	3.000000e-01	5.701962e-08	
7	3.500000e-01	2.729866e-08	
8	4.000000e-01	1.658041e-08	
9	4.500000e-01	1.191752e-08	
10	5.000000e-01	9.543082e-09	
11	5.500000e-01	8.179221e-09	
12	6.000000e-01	7.320977e-09	
13	6.500000e-01	6.741811e-09	
14	7.000000e-01	6.329140e-09	
15	7.500000e-01	6.022193e-09	
16	8.000000e-01	5.785876e-09	
17	8.500000e-01	5.598760e-09	
18	9.000000e-01	5.447132e-09	
19	9.500000e-01	5.321868e-09	
20	1.000000e+00	5.216683e-09	
21	1.050000e+00	5.127125e-09	
22	1.100000e+00	5.049955e-09	
23	1.150000e+00	4.982768e-09	
24	1.200000e+00	4.923741e-09	
25	1.250000e+00	4.871466e-09	
26	1.300000e+00	4.824843e-09	
27	1.350000e+00	4.782999e-09	
28	1.400000e+00	4.745231e-09	
29	1.450000e+00	4.710967e-09	
30	1.500000e+00	4.679740e-09	
31	1.550000e+00	4.651159e-09	
32	1.600000e+00	4.624902e-09	
33	1.650000e+00	4.600694e-09	
34	1.700000e+00	4.578303e-09	
35	1.750000e+00	4.557531e-09	
36	1.800000e+00	4.538208e-09	
37	1.850000e+00	4.520187e-09	
38	1.900000e+00	4.503340e-09	
39	1.950000e+00	4.487555e-09	
40	2.000000e+00	4.472735e-09	
41	2.050000e+00	4.458795e-09	
42	2.100000e+00	4.445657e-09	
43	2.150000e+00	4.433255e-09	
44	2.200000e+00	4.421527e-09	
45	2.250000e+00	4.410422e-09	
46	2.300000e+00	4.399889e-09	
47	2.350000e+00	4.389887e-09	
48	2.400000e+00	4.380376e-09	
49	2.450000e+00	4.371321e-09	
50	2.500000e+00	4.362689e-09	
51	2.550000e+00	4.354453e-09	
52	2.600000e+00	4.346585e-09	
53	2.650000e+00	4.339062e-09	
54	2.700000e+00	4.331861e-09	

Index   v-sweep         rds             
--------------------------------------------------------------------------------
55	2.750000e+00	4.324962e-09	
56	2.800000e+00	4.318346e-09	
57	2.850000e+00	4.311997e-09	
58	2.900000e+00	4.305899e-09	
59	2.950000e+00	4.300037e-09	
60	3.000000e+00	4.294399e-09	
61	3.050000e+00	4.288970e-09	
62	3.100000e+00	4.283741e-09	
63	3.150000e+00	4.278700e-09	
64	3.200000e+00	4.273838e-09	
65	3.250000e+00	4.269145e-09	
66	3.300000e+00	4.264612e-09	
67	3.350000e+00	4.260232e-09	
68	3.400000e+00	4.255997e-09	
69	3.450000e+00	4.251900e-09	
70	3.500000e+00	4.247935e-09	
71	3.550000e+00	4.244094e-09	
72	3.600000e+00	4.240374e-09	
73	3.650000e+00	4.236767e-09	
74	3.700000e+00	4.233269e-09	
75	3.750000e+00	4.229876e-09	
76	3.800000e+00	4.226582e-09	
77	3.850000e+00	4.223384e-09	
78	3.900000e+00	4.220276e-09	
79	3.950000e+00	4.217257e-09	
80	4.000000e+00	4.214321e-09	
81	4.050000e+00	4.211466e-09	
82	4.100000e+00	4.208688e-09	
83	4.150000e+00	4.205984e-09	
84	4.200000e+00	4.203351e-09	
85	4.250000e+00	4.200788e-09	
86	4.300000e+00	4.198290e-09	
87	4.350000e+00	4.195856e-09	
88	4.400000e+00	4.193482e-09	
89	4.450000e+00	4.191168e-09	
90	4.500000e+00	4.188911e-09	
91	4.550000e+00	4.186708e-09	
92	4.600000e+00	4.184558e-09	
93	4.650000e+00	4.182459e-09	
94	4.700000e+00	4.180410e-09	
95	4.750000e+00	4.178407e-09	
96	4.800000e+00	4.176451e-09	
97	4.850000e+00	4.174539e-09	
98	4.900000e+00	4.172671e-09	
99	4.950000e+00	4.170843e-09	
100	5.000000e+00	4.169056e-09	
101	5.050000e+00	4.167308e-09	
102	5.100000e+00	4.165597e-09	
103	5.150000e+00	4.163923e-09	
104	5.200000e+00	4.162284e-09	
105	5.250000e+00	4.160679e-09	
106	5.300000e+00	4.159108e-09	
107	5.350000e+00	4.157569e-09	
108	5.400000e+00	4.156061e-09	
109	5.450000e+00	4.154584e-09	
110	5.500000e+00	4.153136e-09	
111	5.550000e+00	4.151716e-09	
112	5.600000e+00	4.150325e-09	

Index   v-sweep         rds             
--------------------------------------------------------------------------------
113	5.650000e+00	4.148960e-09	
114	5.700000e+00	4.147622e-09	
115	5.750000e+00	4.146309e-09	
116	5.800000e+00	4.145021e-09	
117	5.850000e+00	4.143757e-09	
118	5.900000e+00	4.142516e-09	
119	5.950000e+00	4.141298e-09	
120	6.000000e+00	4.140103e-09	
121	6.050000e+00	4.138929e-09	
122	6.100000e+00	4.137776e-09	
123	6.150000e+00	4.136644e-09	
124	6.200000e+00	4.135532e-09	
125	6.250000e+00	4.134439e-09	
126	6.300000e+00	4.133365e-09	
127	6.350000e+00	4.132310e-09	
128	6.400000e+00	4.131273e-09	
129	6.450000e+00	4.130253e-09	
130	6.500000e+00	4.129250e-09	
131	6.550000e+00	4.128265e-09	
132	6.600000e+00	4.127295e-09	
Reset re-loads circuit ***************************

Circuit: ***************************

Doing analysis at TEMP = -40.000000 and TNOM = -40.000000


No. of Data Rows : 133
                          ***************************
                          DC transfer characteristic  Mon Jan  9 13:58:39  2023
--------------------------------------------------------------------------------
Index   v-sweep         rds             
--------------------------------------------------------------------------------
0	0.000000e+00	1.076996e-05	
1	5.000000e-02	1.019881e-05	
2	1.000000e-01	9.630527e-06	
3	1.500000e-01	9.065094e-06	
4	2.000000e-01	8.502504e-06	
5	2.500000e-01	7.942754e-06	
6	3.000000e-01	7.385846e-06	
7	3.500000e-01	6.831794e-06	
8	4.000000e-01	6.280629e-06	
9	4.500000e-01	5.732409e-06	
10	5.000000e-01	5.187245e-06	
11	5.500000e-01	4.645337e-06	
12	6.000000e-01	4.107062e-06	
13	6.500000e-01	3.573143e-06	
14	7.000000e-01	3.045020e-06	
15	7.500000e-01	2.525645e-06	
16	8.000000e-01	2.021147e-06	
17	8.500000e-01	1.543806e-06	
18	9.000000e-01	1.115200e-06	
19	9.500000e-01	7.632415e-07	
20	1.000000e+00	5.062473e-07	
21	1.050000e+00	3.377918e-07	
22	1.100000e+00	2.339231e-07	
23	1.150000e+00	1.704563e-07	
24	1.200000e+00	1.307000e-07	
25	1.250000e+00	1.047940e-07	
26	1.300000e+00	8.718345e-08	
27	1.350000e+00	7.472621e-08	
28	1.400000e+00	6.559674e-08	
29	1.450000e+00	5.869710e-08	
30	1.500000e+00	5.334276e-08	
31	1.550000e+00	4.909195e-08	
32	1.600000e+00	4.565041e-08	
33	1.650000e+00	4.281643e-08	
34	1.700000e+00	4.044807e-08	
35	1.750000e+00	3.844315e-08	
36	1.800000e+00	3.672655e-08	
37	1.850000e+00	3.524202e-08	
38	1.900000e+00	3.394669e-08	
39	1.950000e+00	3.280744e-08	
40	2.000000e+00	3.179828e-08	
41	2.050000e+00	3.089859e-08	
42	2.100000e+00	3.009182e-08	
43	2.150000e+00	2.936452e-08	
44	2.200000e+00	2.870571e-08	
45	2.250000e+00	2.810629e-08	
46	2.300000e+00	2.755870e-08	
47	2.350000e+00	2.705658e-08	
48	2.400000e+00	2.659456e-08	
49	2.450000e+00	2.616809e-08	
50	2.500000e+00	2.577325e-08	
51	2.550000e+00	2.540670e-08	
52	2.600000e+00	2.506553e-08	
53	2.650000e+00	2.474721e-08	
54	2.700000e+00	2.444955e-08	

Index   v-sweep         rds             
--------------------------------------------------------------------------------
55	2.750000e+00	2.417061e-08	
56	2.800000e+00	2.390870e-08	
57	2.850000e+00	2.366232e-08	
58	2.900000e+00	2.343013e-08	
59	2.950000e+00	2.321095e-08	
60	3.000000e+00	2.300373e-08	
61	3.050000e+00	2.280753e-08	
62	3.100000e+00	2.262148e-08	
63	3.150000e+00	2.244483e-08	
64	3.200000e+00	2.227689e-08	
65	3.250000e+00	2.211703e-08	
66	3.300000e+00	2.196468e-08	
67	3.350000e+00	2.181934e-08	
68	3.400000e+00	2.168053e-08	
69	3.450000e+00	2.154782e-08	
70	3.500000e+00	2.142083e-08	
71	3.550000e+00	2.129919e-08	
72	3.600000e+00	2.118257e-08	
73	3.650000e+00	2.107067e-08	
74	3.700000e+00	2.096321e-08	
75	3.750000e+00	2.085994e-08	
76	3.800000e+00	2.076061e-08	
77	3.850000e+00	2.066500e-08	
78	3.900000e+00	2.057291e-08	
79	3.950000e+00	2.048415e-08	
80	4.000000e+00	2.039855e-08	
81	4.050000e+00	2.031593e-08	
82	4.100000e+00	2.023615e-08	
83	4.150000e+00	2.015906e-08	
84	4.200000e+00	2.008453e-08	
85	4.250000e+00	2.001244e-08	
86	4.300000e+00	1.994266e-08	
87	4.350000e+00	1.987509e-08	
88	4.400000e+00	1.980962e-08	
89	4.450000e+00	1.974617e-08	
90	4.500000e+00	1.968463e-08	
91	4.550000e+00	1.962493e-08	
92	4.600000e+00	1.956697e-08	
93	4.650000e+00	1.951070e-08	
94	4.700000e+00	1.945603e-08	
95	4.750000e+00	1.940290e-08	
96	4.800000e+00	1.935125e-08	
97	4.850000e+00	1.930100e-08	
98	4.900000e+00	1.925212e-08	
99	4.950000e+00	1.920454e-08	
100	5.000000e+00	1.915821e-08	
101	5.050000e+00	1.911308e-08	
102	5.100000e+00	1.906911e-08	
103	5.150000e+00	1.902626e-08	
104	5.200000e+00	1.898448e-08	
105	5.250000e+00	1.894373e-08	
106	5.300000e+00	1.890397e-08	
107	5.350000e+00	1.886518e-08	
108	5.400000e+00	1.882731e-08	
109	5.450000e+00	1.879033e-08	
110	5.500000e+00	1.875421e-08	
111	5.550000e+00	1.871893e-08	
112	5.600000e+00	1.868444e-08	

Index   v-sweep         rds             
--------------------------------------------------------------------------------
113	5.650000e+00	1.865074e-08	
114	5.700000e+00	1.861779e-08	
115	5.750000e+00	1.858556e-08	
116	5.800000e+00	1.855404e-08	
117	5.850000e+00	1.852319e-08	
118	5.900000e+00	1.849301e-08	
119	5.950000e+00	1.846346e-08	
120	6.000000e+00	1.843453e-08	
121	6.050000e+00	1.840619e-08	
122	6.100000e+00	1.837844e-08	
123	6.150000e+00	1.835125e-08	
124	6.200000e+00	1.832461e-08	
125	6.250000e+00	1.829850e-08	
126	6.300000e+00	1.827290e-08	
127	6.350000e+00	1.824780e-08	
128	6.400000e+00	1.822319e-08	
129	6.450000e+00	1.819905e-08	
130	6.500000e+00	1.817536e-08	
131	6.550000e+00	1.815212e-08	
132	6.600000e+00	1.812932e-08	
Reset re-loads circuit ***************************

Circuit: ***************************

Doing analysis at TEMP = -40.000000 and TNOM = -40.000000


No. of Data Rows : 133
                          ***************************
                          DC transfer characteristic  Mon Jan  9 13:58:39  2023
--------------------------------------------------------------------------------
Index   v-sweep         rds             
--------------------------------------------------------------------------------
0	0.000000e+00	1.783517e-05	
1	5.000000e-02	1.728459e-05	
2	1.000000e-01	1.673691e-05	
3	1.500000e-01	1.619212e-05	
4	2.000000e-01	1.565019e-05	
5	2.500000e-01	1.511111e-05	
6	3.000000e-01	1.457485e-05	
7	3.500000e-01	1.404140e-05	
8	4.000000e-01	1.351074e-05	
9	4.500000e-01	1.298284e-05	
10	5.000000e-01	1.245769e-05	
11	5.500000e-01	1.193527e-05	
12	6.000000e-01	1.141556e-05	
13	6.500000e-01	1.089854e-05	
14	7.000000e-01	1.038418e-05	
15	7.500000e-01	9.872476e-06	
16	8.000000e-01	9.363396e-06	
17	8.500000e-01	8.856921e-06	
18	9.000000e-01	8.353028e-06	
19	9.500000e-01	7.851697e-06	
20	1.000000e+00	7.352906e-06	
21	1.050000e+00	6.856636e-06	
22	1.100000e+00	6.362874e-06	
23	1.150000e+00	5.871622e-06	
24	1.200000e+00	5.382908e-06	
25	1.250000e+00	4.896822e-06	
26	1.300000e+00	4.413578e-06	
27	1.350000e+00	3.933641e-06	
28	1.400000e+00	3.457992e-06	
29	1.450000e+00	2.988633e-06	
30	1.500000e+00	2.529497e-06	
31	1.550000e+00	2.087809e-06	
32	1.600000e+00	1.675319e-06	
33	1.650000e+00	1.307588e-06	
34	1.700000e+00	9.992537e-07	
35	1.750000e+00	7.570431e-07	
36	1.800000e+00	5.767623e-07	
37	1.850000e+00	4.468844e-07	
38	1.900000e+00	3.543224e-07	
39	1.950000e+00	2.879914e-07	
40	2.000000e+00	2.397325e-07	
41	2.050000e+00	2.039247e-07	
42	2.100000e+00	1.767928e-07	
43	2.150000e+00	1.558090e-07	
44	2.200000e+00	1.392658e-07	
45	2.250000e+00	1.259927e-07	
46	2.300000e+00	1.151731e-07	
47	2.350000e+00	1.062270e-07	
48	2.400000e+00	9.873493e-08	
49	2.450000e+00	9.238839e-08	
50	2.500000e+00	8.695673e-08	
51	2.550000e+00	8.226491e-08	
52	2.600000e+00	7.817823e-08	
53	2.650000e+00	7.459171e-08	
54	2.700000e+00	7.142251e-08	

Index   v-sweep         rds             
--------------------------------------------------------------------------------
55	2.750000e+00	6.860458e-08	
56	2.800000e+00	6.608470e-08	
57	2.850000e+00	6.381959e-08	
58	2.900000e+00	6.177373e-08	
59	2.950000e+00	5.991775e-08	
60	3.000000e+00	5.822717e-08	
61	3.050000e+00	5.668146e-08	
62	3.100000e+00	5.526327e-08	
63	3.150000e+00	5.395785e-08	
64	3.200000e+00	5.275260e-08	
65	3.250000e+00	5.163669e-08	
66	3.300000e+00	5.060077e-08	
67	3.350000e+00	4.963673e-08	
68	3.400000e+00	4.873750e-08	
69	3.450000e+00	4.789688e-08	
70	3.500000e+00	4.710944e-08	
71	3.550000e+00	4.637039e-08	
72	3.600000e+00	4.567548e-08	
73	3.650000e+00	4.502094e-08	
74	3.700000e+00	4.440341e-08	
75	3.750000e+00	4.381989e-08	
76	3.800000e+00	4.326769e-08	
77	3.850000e+00	4.274440e-08	
78	3.900000e+00	4.224783e-08	
79	3.950000e+00	4.177603e-08	
80	4.000000e+00	4.132720e-08	
81	4.050000e+00	4.089974e-08	
82	4.100000e+00	4.049217e-08	
83	4.150000e+00	4.010316e-08	
84	4.200000e+00	3.973149e-08	
85	4.250000e+00	3.937602e-08	
86	4.300000e+00	3.903575e-08	
87	4.350000e+00	3.870972e-08	
88	4.400000e+00	3.839708e-08	
89	4.450000e+00	3.809702e-08	
90	4.500000e+00	3.780880e-08	
91	4.550000e+00	3.753175e-08	
92	4.600000e+00	3.726524e-08	
93	4.650000e+00	3.700868e-08	
94	4.700000e+00	3.676153e-08	
95	4.750000e+00	3.652329e-08	
96	4.800000e+00	3.629348e-08	
97	4.850000e+00	3.607169e-08	
98	4.900000e+00	3.585749e-08	
99	4.950000e+00	3.565050e-08	
100	5.000000e+00	3.545038e-08	
101	5.050000e+00	3.525678e-08	
102	5.100000e+00	3.506940e-08	
103	5.150000e+00	3.488795e-08	
104	5.200000e+00	3.471214e-08	
105	5.250000e+00	3.454173e-08	
106	5.300000e+00	3.437648e-08	
107	5.350000e+00	3.421614e-08	
108	5.400000e+00	3.406051e-08	
109	5.450000e+00	3.390939e-08	
110	5.500000e+00	3.376258e-08	
111	5.550000e+00	3.361991e-08	
112	5.600000e+00	3.348119e-08	

Index   v-sweep         rds             
--------------------------------------------------------------------------------
113	5.650000e+00	3.334628e-08	
114	5.700000e+00	3.321502e-08	
115	5.750000e+00	3.308726e-08	
116	5.800000e+00	3.296287e-08	
117	5.850000e+00	3.284171e-08	
118	5.900000e+00	3.272367e-08	
119	5.950000e+00	3.260862e-08	
120	6.000000e+00	3.249646e-08	
121	6.050000e+00	3.238707e-08	
122	6.100000e+00	3.228036e-08	
123	6.150000e+00	3.217622e-08	
124	6.200000e+00	3.207458e-08	
125	6.250000e+00	3.197534e-08	
126	6.300000e+00	3.187842e-08	
127	6.350000e+00	3.178373e-08	
128	6.400000e+00	3.169121e-08	
129	6.450000e+00	3.160077e-08	
130	6.500000e+00	3.151236e-08	
131	6.550000e+00	3.142590e-08	
132	6.600000e+00	3.134133e-08	
Reset re-loads circuit ***************************

Circuit: ***************************

Doing analysis at TEMP = -40.000000 and TNOM = -40.000000


No. of Data Rows : 133
                          ***************************
                          DC transfer characteristic  Mon Jan  9 13:58:39  2023
--------------------------------------------------------------------------------
Index   v-sweep         rds             
--------------------------------------------------------------------------------
0	0.000000e+00	2.360704e-05	
1	5.000000e-02	2.309064e-05	
2	1.000000e-01	2.257690e-05	
3	1.500000e-01	2.206580e-05	
4	2.000000e-01	2.155731e-05	
5	2.500000e-01	2.105144e-05	
6	3.000000e-01	2.054815e-05	
7	3.500000e-01	2.004743e-05	
8	4.000000e-01	1.954927e-05	
9	4.500000e-01	1.905364e-05	
10	5.000000e-01	1.856054e-05	
11	5.500000e-01	1.806993e-05	
12	6.000000e-01	1.758182e-05	
13	6.500000e-01	1.709617e-05	
14	7.000000e-01	1.661297e-05	
15	7.500000e-01	1.613220e-05	
16	8.000000e-01	1.565386e-05	
17	8.500000e-01	1.517791e-05	
18	9.000000e-01	1.470435e-05	
19	9.500000e-01	1.423314e-05	
20	1.000000e+00	1.376429e-05	
21	1.050000e+00	1.329776e-05	
22	1.100000e+00	1.283354e-05	
23	1.150000e+00	1.237160e-05	
24	1.200000e+00	1.191193e-05	
25	1.250000e+00	1.145450e-05	
26	1.300000e+00	1.099929e-05	
27	1.350000e+00	1.054627e-05	
28	1.400000e+00	1.009541e-05	
29	1.450000e+00	9.646683e-06	
30	1.500000e+00	9.200044e-06	
31	1.550000e+00	8.755452e-06	
32	1.600000e+00	8.312857e-06	
33	1.650000e+00	7.872202e-06	
34	1.700000e+00	7.433414e-06	
35	1.750000e+00	6.996412e-06	
36	1.800000e+00	6.561096e-06	
37	1.850000e+00	6.127351e-06	
38	1.900000e+00	5.695047e-06	
39	1.950000e+00	5.264050e-06	
40	2.000000e+00	4.834252e-06	
41	2.050000e+00	4.405633e-06	
42	2.100000e+00	3.978402e-06	
43	2.150000e+00	3.553267e-06	
44	2.200000e+00	3.131922e-06	
45	2.250000e+00	2.717809e-06	
46	2.300000e+00	2.317014e-06	
47	2.350000e+00	1.938729e-06	
48	2.400000e+00	1.594253e-06	
49	2.450000e+00	1.293999e-06	
50	2.500000e+00	1.043821e-06	
51	2.550000e+00	8.432555e-07	
52	2.600000e+00	6.867219e-07	
53	2.650000e+00	5.662510e-07	
54	2.700000e+00	4.738216e-07	

Index   v-sweep         rds             
--------------------------------------------------------------------------------
55	2.750000e+00	4.025758e-07	
56	2.800000e+00	3.471377e-07	
57	2.850000e+00	3.034798e-07	
58	2.900000e+00	2.686489e-07	
59	2.950000e+00	2.404935e-07	
60	3.000000e+00	2.174440e-07	
61	3.050000e+00	1.983473e-07	
62	3.100000e+00	1.823483e-07	
63	3.150000e+00	1.688061e-07	
64	3.200000e+00	1.572345e-07	
65	3.250000e+00	1.472608e-07	
66	3.300000e+00	1.385959e-07	
67	3.350000e+00	1.310132e-07	
68	3.400000e+00	1.243330e-07	
69	3.450000e+00	1.184118e-07	
70	3.500000e+00	1.131337e-07	
71	3.550000e+00	1.084044e-07	
72	3.600000e+00	1.041465e-07	
73	3.650000e+00	1.002959e-07	
74	3.700000e+00	9.679936e-08	
75	3.750000e+00	9.361212e-08	
76	3.800000e+00	9.069649e-08	
77	3.850000e+00	8.802048e-08	
78	3.900000e+00	8.555677e-08	
79	3.950000e+00	8.328196e-08	
80	4.000000e+00	8.117583e-08	
81	4.050000e+00	7.922092e-08	
82	4.100000e+00	7.740200e-08	
83	4.150000e+00	7.570580e-08	
84	4.200000e+00	7.412066e-08	
85	4.250000e+00	7.263633e-08	
86	4.300000e+00	7.124376e-08	
87	4.350000e+00	6.993491e-08	
88	4.400000e+00	6.870265e-08	
89	4.450000e+00	6.754063e-08	
90	4.500000e+00	6.644314e-08	
91	4.550000e+00	6.540508e-08	
92	4.600000e+00	6.442187e-08	
93	4.650000e+00	6.348936e-08	
94	4.700000e+00	6.260382e-08	
95	4.750000e+00	6.176186e-08	
96	4.800000e+00	6.096041e-08	
97	4.850000e+00	6.019667e-08	
98	4.900000e+00	5.946810e-08	
99	4.950000e+00	5.877236e-08	
100	5.000000e+00	5.810733e-08	
101	5.050000e+00	5.747105e-08	
102	5.100000e+00	5.686174e-08	
103	5.150000e+00	5.627774e-08	
104	5.200000e+00	5.571754e-08	
105	5.250000e+00	5.517973e-08	
106	5.300000e+00	5.466302e-08	
107	5.350000e+00	5.416621e-08	
108	5.400000e+00	5.368819e-08	
109	5.450000e+00	5.322794e-08	
110	5.500000e+00	5.278449e-08	
111	5.550000e+00	5.235696e-08	
112	5.600000e+00	5.194451e-08	

Index   v-sweep         rds             
--------------------------------------------------------------------------------
113	5.650000e+00	5.154637e-08	
114	5.700000e+00	5.116183e-08	
115	5.750000e+00	5.079020e-08	
116	5.800000e+00	5.043085e-08	
117	5.850000e+00	5.008320e-08	
118	5.900000e+00	4.974669e-08	
119	5.950000e+00	4.942080e-08	
120	6.000000e+00	4.910505e-08	
121	6.050000e+00	4.879896e-08	
122	6.100000e+00	4.850212e-08	
123	6.150000e+00	4.821411e-08	
124	6.200000e+00	4.793455e-08	
125	6.250000e+00	4.766308e-08	
126	6.300000e+00	4.739935e-08	
127	6.350000e+00	4.714305e-08	
128	6.400000e+00	4.689387e-08	
129	6.450000e+00	4.665152e-08	
130	6.500000e+00	4.641573e-08	
131	6.550000e+00	4.618623e-08	
132	6.600000e+00	4.596278e-08	
Reset re-loads circuit ***************************

Circuit: ***************************

Doing analysis at TEMP = -40.000000 and TNOM = -40.000000


No. of Data Rows : 133
                          ***************************
                          DC transfer characteristic  Mon Jan  9 13:58:39  2023
--------------------------------------------------------------------------------
Index   v-sweep         rds             
--------------------------------------------------------------------------------
0	0.000000e+00	2.793609e-05	
1	5.000000e-02	2.746289e-05	
2	1.000000e-01	2.699197e-05	
3	1.500000e-01	2.652332e-05	
4	2.000000e-01	2.605693e-05	
5	2.500000e-01	2.559279e-05	
6	3.000000e-01	2.513087e-05	
7	3.500000e-01	2.467118e-05	
8	4.000000e-01	2.421368e-05	
9	4.500000e-01	2.375838e-05	
10	5.000000e-01	2.330525e-05	
11	5.500000e-01	2.285429e-05	
12	6.000000e-01	2.240547e-05	
13	6.500000e-01	2.195880e-05	
14	7.000000e-01	2.151424e-05	
15	7.500000e-01	2.107179e-05	
16	8.000000e-01	2.063144e-05	
17	8.500000e-01	2.019317e-05	
18	9.000000e-01	1.975698e-05	
19	9.500000e-01	1.932284e-05	
20	1.000000e+00	1.889074e-05	
21	1.050000e+00	1.846067e-05	
22	1.100000e+00	1.803262e-05	
23	1.150000e+00	1.760658e-05	
24	1.200000e+00	1.718252e-05	
25	1.250000e+00	1.676044e-05	
26	1.300000e+00	1.634033e-05	
27	1.350000e+00	1.592216e-05	
28	1.400000e+00	1.550593e-05	
29	1.450000e+00	1.509162e-05	
30	1.500000e+00	1.467921e-05	
31	1.550000e+00	1.426870e-05	
32	1.600000e+00	1.386006e-05	
33	1.650000e+00	1.345328e-05	
34	1.700000e+00	1.304834e-05	
35	1.750000e+00	1.264523e-05	
36	1.800000e+00	1.224391e-05	
37	1.850000e+00	1.184438e-05	
38	1.900000e+00	1.144660e-05	
39	1.950000e+00	1.105056e-05	
40	2.000000e+00	1.065622e-05	
41	2.050000e+00	1.026355e-05	
42	2.100000e+00	9.872513e-06	
43	2.150000e+00	9.483065e-06	
44	2.200000e+00	9.095156e-06	
45	2.250000e+00	8.708725e-06	
46	2.300000e+00	8.323700e-06	
47	2.350000e+00	7.939996e-06	
48	2.400000e+00	7.557506e-06	
49	2.450000e+00	7.176102e-06	
50	2.500000e+00	6.795627e-06	
51	2.550000e+00	6.415890e-06	
52	2.600000e+00	6.036660e-06	
53	2.650000e+00	5.657664e-06	
54	2.700000e+00	5.278591e-06	

Index   v-sweep         rds             
--------------------------------------------------------------------------------
55	2.750000e+00	4.899114e-06	
56	2.800000e+00	4.518947e-06	
57	2.850000e+00	4.137964e-06	
58	2.900000e+00	3.756434e-06	
59	2.950000e+00	3.375407e-06	
60	3.000000e+00	2.997291e-06	
61	3.050000e+00	2.626489e-06	
62	3.100000e+00	2.269742e-06	
63	3.150000e+00	1.935632e-06	
64	3.200000e+00	1.632898e-06	
65	3.250000e+00	1.368111e-06	
66	3.300000e+00	1.143960e-06	
67	3.350000e+00	9.590882e-07	
68	3.400000e+00	8.092676e-07	
69	3.450000e+00	6.889713e-07	
70	3.500000e+00	5.926117e-07	
71	3.550000e+00	5.152224e-07	
72	3.600000e+00	4.526972e-07	
73	3.650000e+00	4.017785e-07	
74	3.700000e+00	3.599384e-07	
75	3.750000e+00	3.252359e-07	
76	3.800000e+00	2.961846e-07	
77	3.850000e+00	2.716442e-07	
78	3.900000e+00	2.507356e-07	
79	3.950000e+00	2.327767e-07	
80	4.000000e+00	2.172341e-07	
81	4.050000e+00	2.036875e-07	
82	4.100000e+00	1.918029e-07	
83	4.150000e+00	1.813126e-07	
84	4.200000e+00	1.720006e-07	
85	4.250000e+00	1.636911e-07	
86	4.300000e+00	1.562398e-07	
87	4.350000e+00	1.495278e-07	
88	4.400000e+00	1.434561e-07	
89	4.450000e+00	1.379420e-07	
90	4.500000e+00	1.329158e-07	
91	4.550000e+00	1.283187e-07	
92	4.600000e+00	1.241003e-07	
93	4.650000e+00	1.202180e-07	
94	4.700000e+00	1.166346e-07	
95	4.750000e+00	1.133185e-07	
96	4.800000e+00	1.102420e-07	
97	4.850000e+00	1.073810e-07	
98	4.900000e+00	1.047145e-07	
99	4.950000e+00	1.022241e-07	
100	5.000000e+00	9.989344e-08	
101	5.050000e+00	9.770819e-08	
102	5.100000e+00	9.565559e-08	
103	5.150000e+00	9.372432e-08	
104	5.200000e+00	9.190427e-08	
105	5.250000e+00	9.018639e-08	
106	5.300000e+00	8.856256e-08	
107	5.350000e+00	8.702550e-08	
108	5.400000e+00	8.556862e-08	
109	5.450000e+00	8.418599e-08	
110	5.500000e+00	8.287222e-08	
111	5.550000e+00	8.162242e-08	
112	5.600000e+00	8.043216e-08	

Index   v-sweep         rds             
--------------------------------------------------------------------------------
113	5.650000e+00	7.929738e-08	
114	5.700000e+00	7.821438e-08	
115	5.750000e+00	7.717979e-08	
116	5.800000e+00	7.619051e-08	
117	5.850000e+00	7.524369e-08	
118	5.900000e+00	7.433671e-08	
119	5.950000e+00	7.346717e-08	
120	6.000000e+00	7.263285e-08	
121	6.050000e+00	7.183169e-08	
122	6.100000e+00	7.106180e-08	
123	6.150000e+00	7.032141e-08	
124	6.200000e+00	6.960890e-08	
125	6.250000e+00	6.892275e-08	
126	6.300000e+00	6.826156e-08	
127	6.350000e+00	6.762400e-08	
128	6.400000e+00	6.700887e-08	
129	6.450000e+00	6.641501e-08	
130	6.500000e+00	6.584137e-08	
131	6.550000e+00	6.528694e-08	
132	6.600000e+00	6.475080e-08	
Reset re-loads circuit ***************************

Circuit: ***************************

Doing analysis at TEMP = -40.000000 and TNOM = -40.000000


No. of Data Rows : 133
                          ***************************
                          DC transfer characteristic  Mon Jan  9 13:58:39  2023
--------------------------------------------------------------------------------
Index   v-sweep         rds             
--------------------------------------------------------------------------------
0	0.000000e+00	3.106598e-05	
1	5.000000e-02	3.063949e-05	
2	1.000000e-01	3.021490e-05	
3	1.500000e-01	2.979220e-05	
4	2.000000e-01	2.937137e-05	
5	2.500000e-01	2.895241e-05	
6	3.000000e-01	2.853530e-05	
7	3.500000e-01	2.812003e-05	
8	4.000000e-01	2.770660e-05	
9	4.500000e-01	2.729500e-05	
10	5.000000e-01	2.688520e-05	
11	5.500000e-01	2.647721e-05	
12	6.000000e-01	2.607101e-05	
13	6.500000e-01	2.566660e-05	
14	7.000000e-01	2.526396e-05	
15	7.500000e-01	2.486308e-05	
16	8.000000e-01	2.446395e-05	
17	8.500000e-01	2.406657e-05	
18	9.000000e-01	2.367092e-05	
19	9.500000e-01	2.327699e-05	
20	1.000000e+00	2.288477e-05	
21	1.050000e+00	2.249426e-05	
22	1.100000e+00	2.210545e-05	
23	1.150000e+00	2.171831e-05	
24	1.200000e+00	2.133286e-05	
25	1.250000e+00	2.094906e-05	
26	1.300000e+00	2.056693e-05	
27	1.350000e+00	2.018643e-05	
28	1.400000e+00	1.980758e-05	
29	1.450000e+00	1.943035e-05	
30	1.500000e+00	1.905474e-05	
31	1.550000e+00	1.868073e-05	
32	1.600000e+00	1.830832e-05	
33	1.650000e+00	1.793750e-05	
34	1.700000e+00	1.756826e-05	
35	1.750000e+00	1.720058e-05	
36	1.800000e+00	1.683446e-05	
37	1.850000e+00	1.646989e-05	
38	1.900000e+00	1.610686e-05	
39	1.950000e+00	1.574535e-05	
40	2.000000e+00	1.538536e-05	
41	2.050000e+00	1.502687e-05	
42	2.100000e+00	1.466988e-05	
43	2.150000e+00	1.431437e-05	
44	2.200000e+00	1.396032e-05	
45	2.250000e+00	1.360774e-05	
46	2.300000e+00	1.325659e-05	
47	2.350000e+00	1.290687e-05	
48	2.400000e+00	1.255857e-05	
49	2.450000e+00	1.221165e-05	
50	2.500000e+00	1.186612e-05	
51	2.550000e+00	1.152194e-05	
52	2.600000e+00	1.117909e-05	
53	2.650000e+00	1.083755e-05	
54	2.700000e+00	1.049729e-05	

Index   v-sweep         rds             
--------------------------------------------------------------------------------
55	2.750000e+00	1.015827e-05	
56	2.800000e+00	9.820466e-06	
57	2.850000e+00	9.483822e-06	
58	2.900000e+00	9.148292e-06	
59	2.950000e+00	8.813812e-06	
60	3.000000e+00	8.480312e-06	
61	3.050000e+00	8.147703e-06	
62	3.100000e+00	7.815880e-06	
63	3.150000e+00	7.484716e-06	
64	3.200000e+00	7.154055e-06	
65	3.250000e+00	6.823708e-06	
66	3.300000e+00	6.493443e-06	
67	3.350000e+00	6.162980e-06	
68	3.400000e+00	5.831984e-06	
69	3.450000e+00	5.500062e-06	
70	3.500000e+00	5.166767e-06	
71	3.550000e+00	4.831627e-06	
72	3.600000e+00	4.494209e-06	
73	3.650000e+00	4.154241e-06	
74	3.700000e+00	3.811838e-06	
75	3.750000e+00	3.467848e-06	
76	3.800000e+00	3.124302e-06	
77	3.850000e+00	2.784867e-06	
78	3.900000e+00	2.455022e-06	
79	3.950000e+00	2.141652e-06	
80	4.000000e+00	1.851900e-06	
81	4.050000e+00	1.591626e-06	
82	4.100000e+00	1.364156e-06	
83	4.150000e+00	1.169894e-06	
84	4.200000e+00	1.006819e-06	
85	4.250000e+00	8.714200e-07	
86	4.300000e+00	7.596078e-07	
87	4.350000e+00	6.673646e-07	
88	4.400000e+00	5.910920e-07	
89	4.450000e+00	5.277403e-07	
90	4.500000e+00	4.748091e-07	
91	4.550000e+00	4.302874e-07	
92	4.600000e+00	3.925740e-07	
93	4.650000e+00	3.603992e-07	
94	4.700000e+00	3.327566e-07	
95	4.750000e+00	3.088463e-07	
96	4.800000e+00	2.880299e-07	
97	4.850000e+00	2.697955e-07	
98	4.900000e+00	2.537299e-07	
99	4.950000e+00	2.394979e-07	
100	5.000000e+00	2.268255e-07	
101	5.050000e+00	2.154876e-07	
102	5.100000e+00	2.052981e-07	
103	5.150000e+00	1.961021e-07	
104	5.200000e+00	1.877698e-07	
105	5.250000e+00	1.801923e-07	
106	5.300000e+00	1.732772e-07	
107	5.350000e+00	1.669461e-07	
108	5.400000e+00	1.611318e-07	
109	5.450000e+00	1.557767e-07	
110	5.500000e+00	1.508312e-07	
111	5.550000e+00	1.462523e-07	
112	5.600000e+00	1.420025e-07	

Index   v-sweep         rds             
--------------------------------------------------------------------------------
113	5.650000e+00	1.380491e-07	
114	5.700000e+00	1.343636e-07	
115	5.750000e+00	1.309206e-07	
116	5.800000e+00	1.276981e-07	
117	5.850000e+00	1.246763e-07	
118	5.900000e+00	1.218378e-07	
119	5.950000e+00	1.191669e-07	
120	6.000000e+00	1.166499e-07	
121	6.050000e+00	1.142742e-07	
122	6.100000e+00	1.120287e-07	
123	6.150000e+00	1.099033e-07	
124	6.200000e+00	1.078890e-07	
125	6.250000e+00	1.059776e-07	
126	6.300000e+00	1.041615e-07	
127	6.350000e+00	1.024341e-07	
128	6.400000e+00	1.007892e-07	
129	6.450000e+00	9.922129e-08	
130	6.500000e+00	9.772512e-08	
131	6.550000e+00	9.629606e-08	
132	6.600000e+00	9.492982e-08	
Reset re-loads circuit ***************************

Circuit: ***************************

Note: No ".plot", ".print", or ".fourier" lines; no simulations run
