
Note: Compatibility modes selected: hs

Warning: m=xx on .subckt line will override multiplier m hierarchy!


Circuit: ***************************

Doing analysis at TEMP = -40.000000 and TNOM = -40.000000


No. of Data Rows : 133
                          ***************************
                          DC transfer characteristic  Mon Jan  9 13:58:39  2023
--------------------------------------------------------------------------------
Index   v-sweep         rds             
--------------------------------------------------------------------------------
0	0.000000e+00	5.339590e-05	
1	5.000000e-02	3.529363e-05	
2	1.000000e-01	1.923249e-05	
3	1.500000e-01	8.521043e-06	
4	2.000000e-01	4.471075e-06	
5	2.500000e-01	3.128058e-06	
6	3.000000e-01	2.515281e-06	
7	3.500000e-01	2.158301e-06	
8	4.000000e-01	1.920804e-06	
9	4.500000e-01	1.750097e-06	
10	5.000000e-01	1.621064e-06	
11	5.500000e-01	1.519990e-06	
12	6.000000e-01	1.438660e-06	
13	6.500000e-01	1.371824e-06	
14	7.000000e-01	1.315952e-06	
15	7.500000e-01	1.268581e-06	
16	8.000000e-01	1.227935e-06	
17	8.500000e-01	1.192701e-06	
18	9.000000e-01	1.161887e-06	
19	9.500000e-01	1.134728e-06	
20	1.000000e+00	1.110628e-06	
21	1.050000e+00	1.089110e-06	
22	1.100000e+00	1.069792e-06	
23	1.150000e+00	1.052366e-06	
24	1.200000e+00	1.036574e-06	
25	1.250000e+00	1.022206e-06	
26	1.300000e+00	1.009085e-06	
27	1.350000e+00	9.970624e-07	
28	1.400000e+00	9.860111e-07	
29	1.450000e+00	9.758236e-07	
30	1.500000e+00	9.664072e-07	
31	1.550000e+00	9.576819e-07	
32	1.600000e+00	9.495784e-07	
33	1.650000e+00	9.420361e-07	
34	1.700000e+00	9.350020e-07	
35	1.750000e+00	9.284294e-07	
36	1.800000e+00	9.222772e-07	
37	1.850000e+00	9.165088e-07	
38	1.900000e+00	9.110919e-07	
39	1.950000e+00	9.059974e-07	
40	2.000000e+00	9.011995e-07	
41	2.050000e+00	8.966750e-07	
42	2.100000e+00	8.924028e-07	
43	2.150000e+00	8.883641e-07	
44	2.200000e+00	8.845419e-07	
45	2.250000e+00	8.809206e-07	
46	2.300000e+00	8.774862e-07	
47	2.350000e+00	8.742259e-07	
48	2.400000e+00	8.711280e-07	
49	2.450000e+00	8.681818e-07	
50	2.500000e+00	8.653774e-07	
51	2.550000e+00	8.627060e-07	
52	2.600000e+00	8.601592e-07	
53	2.650000e+00	8.577294e-07	
54	2.700000e+00	8.554097e-07	

Index   v-sweep         rds             
--------------------------------------------------------------------------------
55	2.750000e+00	8.531935e-07	
56	2.800000e+00	8.510749e-07	
57	2.850000e+00	8.490482e-07	
58	2.900000e+00	8.471084e-07	
59	2.950000e+00	8.452506e-07	
60	3.000000e+00	8.434705e-07	
61	3.050000e+00	8.417638e-07	
62	3.100000e+00	8.401268e-07	
63	3.150000e+00	8.385557e-07	
64	3.200000e+00	8.370472e-07	
65	3.250000e+00	8.355983e-07	
66	3.300000e+00	8.342059e-07	
67	3.350000e+00	8.328672e-07	
68	3.400000e+00	8.315797e-07	
69	3.450000e+00	8.303410e-07	
70	3.500000e+00	8.291487e-07	
71	3.550000e+00	8.280008e-07	
72	3.600000e+00	8.268951e-07	
73	3.650000e+00	8.258298e-07	
74	3.700000e+00	8.248030e-07	
75	3.750000e+00	8.238131e-07	
76	3.800000e+00	8.228585e-07	
77	3.850000e+00	8.219376e-07	
78	3.900000e+00	8.210490e-07	
79	3.950000e+00	8.201914e-07	
80	4.000000e+00	8.193635e-07	
81	4.050000e+00	8.185640e-07	
82	4.100000e+00	8.177917e-07	
83	4.150000e+00	8.170457e-07	
84	4.200000e+00	8.163248e-07	
85	4.250000e+00	8.156281e-07	
86	4.300000e+00	8.149546e-07	
87	4.350000e+00	8.143034e-07	
88	4.400000e+00	8.136737e-07	
89	4.450000e+00	8.130647e-07	
90	4.500000e+00	8.124755e-07	
91	4.550000e+00	8.119055e-07	
92	4.600000e+00	8.113539e-07	
93	4.650000e+00	8.108200e-07	
94	4.700000e+00	8.103033e-07	
95	4.750000e+00	8.098032e-07	
96	4.800000e+00	8.093189e-07	
97	4.850000e+00	8.088500e-07	
98	4.900000e+00	8.083960e-07	
99	4.950000e+00	8.079562e-07	
100	5.000000e+00	8.075303e-07	
101	5.050000e+00	8.071178e-07	
102	5.100000e+00	8.067181e-07	
103	5.150000e+00	8.063310e-07	
104	5.200000e+00	8.059559e-07	
105	5.250000e+00	8.055924e-07	
106	5.300000e+00	8.052403e-07	
107	5.350000e+00	8.048990e-07	
108	5.400000e+00	8.045683e-07	
109	5.450000e+00	8.042479e-07	
110	5.500000e+00	8.039373e-07	
111	5.550000e+00	8.036364e-07	
112	5.600000e+00	8.033447e-07	

Index   v-sweep         rds             
--------------------------------------------------------------------------------
113	5.650000e+00	8.030620e-07	
114	5.700000e+00	8.027881e-07	
115	5.750000e+00	8.025225e-07	
116	5.800000e+00	8.022652e-07	
117	5.850000e+00	8.020159e-07	
118	5.900000e+00	8.017742e-07	
119	5.950000e+00	8.015400e-07	
120	6.000000e+00	8.013130e-07	
121	6.050000e+00	8.010931e-07	
122	6.100000e+00	8.008801e-07	
123	6.150000e+00	8.006736e-07	
124	6.200000e+00	8.004736e-07	
125	6.250000e+00	8.002798e-07	
126	6.300000e+00	8.000921e-07	
127	6.350000e+00	7.999103e-07	
128	6.400000e+00	7.997342e-07	
129	6.450000e+00	7.995637e-07	
130	6.500000e+00	7.993985e-07	
131	6.550000e+00	7.992387e-07	
132	6.600000e+00	7.990839e-07	
Reset re-loads circuit ***************************

Circuit: ***************************

Doing analysis at TEMP = -40.000000 and TNOM = -40.000000


No. of Data Rows : 133
                          ***************************
                          DC transfer characteristic  Mon Jan  9 13:58:39  2023
--------------------------------------------------------------------------------
Index   v-sweep         rds             
--------------------------------------------------------------------------------
0	0.000000e+00	2.552027e-04	
1	5.000000e-02	2.331668e-04	
2	1.000000e-01	2.120414e-04	
3	1.500000e-01	1.917807e-04	
4	2.000000e-01	1.723402e-04	
5	2.500000e-01	1.536766e-04	
6	3.000000e-01	1.357468e-04	
7	3.500000e-01	1.185062e-04	
8	4.000000e-01	1.019034e-04	
9	4.500000e-01	8.587833e-05	
10	5.000000e-01	7.039630e-05	
11	5.500000e-01	5.564274e-05	
12	6.000000e-01	4.241263e-05	
13	6.500000e-01	3.186618e-05	
14	7.000000e-01	2.434567e-05	
15	7.500000e-01	1.923141e-05	
16	8.000000e-01	1.572903e-05	
17	8.500000e-01	1.325599e-05	
18	9.000000e-01	1.144675e-05	
19	9.500000e-01	1.007864e-05	
20	1.000000e+00	9.013913e-06	
21	1.050000e+00	8.164772e-06	
22	1.100000e+00	7.473396e-06	
23	1.150000e+00	6.900488e-06	
24	1.200000e+00	6.418560e-06	
25	1.250000e+00	6.007882e-06	
26	1.300000e+00	5.653969e-06	
27	1.350000e+00	5.345965e-06	
28	1.400000e+00	5.075587e-06	
29	1.450000e+00	4.836412e-06	
30	1.500000e+00	4.623390e-06	
31	1.550000e+00	4.432494e-06	
32	1.600000e+00	4.260478e-06	
33	1.650000e+00	4.104699e-06	
34	1.700000e+00	3.962979e-06	
35	1.750000e+00	3.833513e-06	
36	1.800000e+00	3.714791e-06	
37	1.850000e+00	3.605538e-06	
38	1.900000e+00	3.504673e-06	
39	1.950000e+00	3.411273e-06	
40	2.000000e+00	3.324546e-06	
41	2.050000e+00	3.243805e-06	
42	2.100000e+00	3.168457e-06	
43	2.150000e+00	3.097982e-06	
44	2.200000e+00	3.031925e-06	
45	2.250000e+00	2.969887e-06	
46	2.300000e+00	2.911515e-06	
47	2.350000e+00	2.856495e-06	
48	2.400000e+00	2.804548e-06	
49	2.450000e+00	2.755427e-06	
50	2.500000e+00	2.708907e-06	
51	2.550000e+00	2.664790e-06	
52	2.600000e+00	2.622895e-06	
53	2.650000e+00	2.583060e-06	
54	2.700000e+00	2.545137e-06	

Index   v-sweep         rds             
--------------------------------------------------------------------------------
55	2.750000e+00	2.508994e-06	
56	2.800000e+00	2.474508e-06	
57	2.850000e+00	2.441570e-06	
58	2.900000e+00	2.410077e-06	
59	2.950000e+00	2.379938e-06	
60	3.000000e+00	2.351068e-06	
61	3.050000e+00	2.323389e-06	
62	3.100000e+00	2.296830e-06	
63	3.150000e+00	2.271324e-06	
64	3.200000e+00	2.246811e-06	
65	3.250000e+00	2.223233e-06	
66	3.300000e+00	2.200540e-06	
67	3.350000e+00	2.178683e-06	
68	3.400000e+00	2.157616e-06	
69	3.450000e+00	2.137298e-06	
70	3.500000e+00	2.117690e-06	
71	3.550000e+00	2.098756e-06	
72	3.600000e+00	2.080462e-06	
73	3.650000e+00	2.062776e-06	
74	3.700000e+00	2.045669e-06	
75	3.750000e+00	2.029113e-06	
76	3.800000e+00	2.013083e-06	
77	3.850000e+00	1.997553e-06	
78	3.900000e+00	1.982501e-06	
79	3.950000e+00	1.967906e-06	
80	4.000000e+00	1.953747e-06	
81	4.050000e+00	1.940005e-06	
82	4.100000e+00	1.926663e-06	
83	4.150000e+00	1.913702e-06	
84	4.200000e+00	1.901108e-06	
85	4.250000e+00	1.888865e-06	
86	4.300000e+00	1.876959e-06	
87	4.350000e+00	1.865376e-06	
88	4.400000e+00	1.854104e-06	
89	4.450000e+00	1.843129e-06	
90	4.500000e+00	1.832442e-06	
91	4.550000e+00	1.822030e-06	
92	4.600000e+00	1.811884e-06	
93	4.650000e+00	1.801993e-06	
94	4.700000e+00	1.792349e-06	
95	4.750000e+00	1.782941e-06	
96	4.800000e+00	1.773763e-06	
97	4.850000e+00	1.764804e-06	
98	4.900000e+00	1.756059e-06	
99	4.950000e+00	1.747519e-06	
100	5.000000e+00	1.739178e-06	
101	5.050000e+00	1.731028e-06	
102	5.100000e+00	1.723063e-06	
103	5.150000e+00	1.715278e-06	
104	5.200000e+00	1.707665e-06	
105	5.250000e+00	1.700221e-06	
106	5.300000e+00	1.692938e-06	
107	5.350000e+00	1.685813e-06	
108	5.400000e+00	1.678840e-06	
109	5.450000e+00	1.672015e-06	
110	5.500000e+00	1.665332e-06	
111	5.550000e+00	1.658788e-06	
112	5.600000e+00	1.652378e-06	

Index   v-sweep         rds             
--------------------------------------------------------------------------------
113	5.650000e+00	1.646098e-06	
114	5.700000e+00	1.639945e-06	
115	5.750000e+00	1.633915e-06	
116	5.800000e+00	1.628004e-06	
117	5.850000e+00	1.622209e-06	
118	5.900000e+00	1.616527e-06	
119	5.950000e+00	1.610953e-06	
120	6.000000e+00	1.605486e-06	
121	6.050000e+00	1.600123e-06	
122	6.100000e+00	1.594860e-06	
123	6.150000e+00	1.589695e-06	
124	6.200000e+00	1.584624e-06	
125	6.250000e+00	1.579647e-06	
126	6.300000e+00	1.574759e-06	
127	6.350000e+00	1.569960e-06	
128	6.400000e+00	1.565246e-06	
129	6.450000e+00	1.560615e-06	
130	6.500000e+00	1.556066e-06	
131	6.550000e+00	1.551595e-06	
132	6.600000e+00	1.547202e-06	
Reset re-loads circuit ***************************

Circuit: ***************************

Doing analysis at TEMP = -40.000000 and TNOM = -40.000000


No. of Data Rows : 133
                          ***************************
                          DC transfer characteristic  Mon Jan  9 13:58:39  2023
--------------------------------------------------------------------------------
Index   v-sweep         rds             
--------------------------------------------------------------------------------
0	0.000000e+00	4.118391e-04	
1	5.000000e-02	3.877940e-04	
2	1.000000e-01	3.646855e-04	
3	1.500000e-01	3.424694e-04	
4	2.000000e-01	3.211021e-04	
5	2.500000e-01	3.005410e-04	
6	3.000000e-01	2.807440e-04	
7	3.500000e-01	2.616698e-04	
8	4.000000e-01	2.432783e-04	
9	4.500000e-01	2.255298e-04	
10	5.000000e-01	2.083834e-04	
11	5.500000e-01	1.917937e-04	
12	6.000000e-01	1.757053e-04	
13	6.500000e-01	1.600416e-04	
14	7.000000e-01	1.446872e-04	
15	7.500000e-01	1.294632e-04	
16	8.000000e-01	1.141117e-04	
17	8.500000e-01	9.836539e-05	
18	9.000000e-01	8.225486e-05	
19	9.500000e-01	6.657589e-05	
20	1.000000e+00	5.273199e-05	
21	1.050000e+00	4.168814e-05	
22	1.100000e+00	3.343186e-05	
23	1.150000e+00	2.739829e-05	
24	1.200000e+00	2.296760e-05	
25	1.250000e+00	1.965542e-05	
26	1.300000e+00	1.712403e-05	
27	1.350000e+00	1.514595e-05	
28	1.400000e+00	1.356806e-05	
29	1.450000e+00	1.228593e-05	
30	1.500000e+00	1.122695e-05	
31	1.550000e+00	1.033962e-05	
32	1.600000e+00	9.586657e-06	
33	1.650000e+00	8.940555e-06	
34	1.700000e+00	8.380646e-06	
35	1.750000e+00	7.891159e-06	
36	1.800000e+00	7.459873e-06	
37	1.850000e+00	7.077189e-06	
38	1.900000e+00	6.735476e-06	
39	1.950000e+00	6.428597e-06	
40	2.000000e+00	6.151565e-06	
41	2.050000e+00	5.900291e-06	
42	2.100000e+00	5.671390e-06	
43	2.150000e+00	5.462038e-06	
44	2.200000e+00	5.269865e-06	
45	2.250000e+00	5.092862e-06	
46	2.300000e+00	4.929322e-06	
47	2.350000e+00	4.777780e-06	
48	2.400000e+00	4.636975e-06	
49	2.450000e+00	4.505817e-06	
50	2.500000e+00	4.383355e-06	
51	2.550000e+00	4.268760e-06	
52	2.600000e+00	4.161304e-06	
53	2.650000e+00	4.060345e-06	
54	2.700000e+00	3.965316e-06	

Index   v-sweep         rds             
--------------------------------------------------------------------------------
55	2.750000e+00	3.875714e-06	
56	2.800000e+00	3.791089e-06	
57	2.850000e+00	3.711041e-06	
58	2.900000e+00	3.635212e-06	
59	2.950000e+00	3.563279e-06	
60	3.000000e+00	3.494950e-06	
61	3.050000e+00	3.429963e-06	
62	3.100000e+00	3.368081e-06	
63	3.150000e+00	3.309088e-06	
64	3.200000e+00	3.252787e-06	
65	3.250000e+00	3.198999e-06	
66	3.300000e+00	3.147561e-06	
67	3.350000e+00	3.098322e-06	
68	3.400000e+00	3.051146e-06	
69	3.450000e+00	3.005906e-06	
70	3.500000e+00	2.962486e-06	
71	3.550000e+00	2.920779e-06	
72	3.600000e+00	2.880687e-06	
73	3.650000e+00	2.842117e-06	
74	3.700000e+00	2.804985e-06	
75	3.750000e+00	2.769213e-06	
76	3.800000e+00	2.734728e-06	
77	3.850000e+00	2.701462e-06	
78	3.900000e+00	2.669351e-06	
79	3.950000e+00	2.638337e-06	
80	4.000000e+00	2.608366e-06	
81	4.050000e+00	2.579384e-06	
82	4.100000e+00	2.551346e-06	
83	4.150000e+00	2.524205e-06	
84	4.200000e+00	2.497920e-06	
85	4.250000e+00	2.472450e-06	
86	4.300000e+00	2.447759e-06	
87	4.350000e+00	2.423812e-06	
88	4.400000e+00	2.400577e-06	
89	4.450000e+00	2.378021e-06	
90	4.500000e+00	2.356115e-06	
91	4.550000e+00	2.334833e-06	
92	4.600000e+00	2.314148e-06	
93	4.650000e+00	2.294036e-06	
94	4.700000e+00	2.274474e-06	
95	4.750000e+00	2.255438e-06	
96	4.800000e+00	2.236909e-06	
97	4.850000e+00	2.218867e-06	
98	4.900000e+00	2.201293e-06	
99	4.950000e+00	2.184169e-06	
100	5.000000e+00	2.167479e-06	
101	5.050000e+00	2.151206e-06	
102	5.100000e+00	2.135335e-06	
103	5.150000e+00	2.119851e-06	
104	5.200000e+00	2.104741e-06	
105	5.250000e+00	2.089992e-06	
106	5.300000e+00	2.075590e-06	
107	5.350000e+00	2.061525e-06	
108	5.400000e+00	2.047784e-06	
109	5.450000e+00	2.034356e-06	
110	5.500000e+00	2.021232e-06	
111	5.550000e+00	2.008401e-06	
112	5.600000e+00	1.995853e-06	

Index   v-sweep         rds             
--------------------------------------------------------------------------------
113	5.650000e+00	1.983580e-06	
114	5.700000e+00	1.971573e-06	
115	5.750000e+00	1.959823e-06	
116	5.800000e+00	1.948322e-06	
117	5.850000e+00	1.937063e-06	
118	5.900000e+00	1.926039e-06	
119	5.950000e+00	1.915241e-06	
120	6.000000e+00	1.904664e-06	
121	6.050000e+00	1.894301e-06	
122	6.100000e+00	1.884146e-06	
123	6.150000e+00	1.874192e-06	
124	6.200000e+00	1.864434e-06	
125	6.250000e+00	1.854866e-06	
126	6.300000e+00	1.845483e-06	
127	6.350000e+00	1.836280e-06	
128	6.400000e+00	1.827251e-06	
129	6.450000e+00	1.818393e-06	
130	6.500000e+00	1.809700e-06	
131	6.550000e+00	1.801168e-06	
132	6.600000e+00	1.792792e-06	
Reset re-loads circuit ***************************

Circuit: ***************************

Doing analysis at TEMP = -40.000000 and TNOM = -40.000000


No. of Data Rows : 133
                          ***************************
                          DC transfer characteristic  Mon Jan  9 13:58:39  2023
--------------------------------------------------------------------------------
Index   v-sweep         rds             
--------------------------------------------------------------------------------
0	0.000000e+00	5.227350e-04	
1	5.000000e-02	4.984164e-04	
2	1.000000e-01	4.749578e-04	
3	1.500000e-01	4.523229e-04	
4	2.000000e-01	4.304765e-04	
5	2.500000e-01	4.093835e-04	
6	3.000000e-01	3.890094e-04	
7	3.500000e-01	3.693200e-04	
8	4.000000e-01	3.502821e-04	
9	4.500000e-01	3.318635e-04	
10	5.000000e-01	3.140331e-04	
11	5.500000e-01	2.967611e-04	
12	6.000000e-01	2.800189e-04	
13	6.500000e-01	2.637779e-04	
14	7.000000e-01	2.480086e-04	
15	7.500000e-01	2.326783e-04	
16	8.000000e-01	2.177472e-04	
17	8.500000e-01	2.031632e-04	
18	9.000000e-01	1.888516e-04	
19	9.500000e-01	1.747007e-04	
20	1.000000e+00	1.605405e-04	
21	1.050000e+00	1.461216e-04	
22	1.100000e+00	1.311240e-04	
23	1.150000e+00	1.152768e-04	
24	1.200000e+00	9.867725e-05	
25	1.250000e+00	8.214150e-05	
26	1.300000e+00	6.700889e-05	
27	1.350000e+00	5.432753e-05	
28	1.400000e+00	4.434831e-05	
29	1.450000e+00	3.673245e-05	
30	1.500000e+00	3.095541e-05	
31	1.550000e+00	2.653742e-05	
32	1.600000e+00	2.310854e-05	
33	1.650000e+00	2.040172e-05	
34	1.700000e+00	1.822823e-05	
35	1.750000e+00	1.645480e-05	
36	1.800000e+00	1.498643e-05	
37	1.850000e+00	1.375445e-05	
38	1.900000e+00	1.270848e-05	
39	1.950000e+00	1.181097e-05	
40	2.000000e+00	1.103350e-05	
41	2.050000e+00	1.035424e-05	
42	2.100000e+00	9.756234e-06	
43	2.150000e+00	9.226104e-06	
44	2.200000e+00	8.753196e-06	
45	2.250000e+00	8.328930e-06	
46	2.300000e+00	7.946325e-06	
47	2.350000e+00	7.599652e-06	
48	2.400000e+00	7.284170e-06	
49	2.450000e+00	6.995924e-06	
50	2.500000e+00	6.731589e-06	
51	2.550000e+00	6.488354e-06	
52	2.600000e+00	6.263828e-06	
53	2.650000e+00	6.055961e-06	
54	2.700000e+00	5.862990e-06	

Index   v-sweep         rds             
--------------------------------------------------------------------------------
55	2.750000e+00	5.683389e-06	
56	2.800000e+00	5.515832e-06	
57	2.850000e+00	5.359161e-06	
58	2.900000e+00	5.212359e-06	
59	2.950000e+00	5.074533e-06	
60	3.000000e+00	4.944892e-06	
61	3.050000e+00	4.822735e-06	
62	3.100000e+00	4.707438e-06	
63	3.150000e+00	4.598444e-06	
64	3.200000e+00	4.495256e-06	
65	3.250000e+00	4.397424e-06	
66	3.300000e+00	4.304546e-06	
67	3.350000e+00	4.216258e-06	
68	3.400000e+00	4.132230e-06	
69	3.450000e+00	4.052164e-06	
70	3.500000e+00	3.975788e-06	
71	3.550000e+00	3.902854e-06	
72	3.600000e+00	3.833137e-06	
73	3.650000e+00	3.766429e-06	
74	3.700000e+00	3.702542e-06	
75	3.750000e+00	3.641301e-06	
76	3.800000e+00	3.582547e-06	
77	3.850000e+00	3.526131e-06	
78	3.900000e+00	3.471918e-06	
79	3.950000e+00	3.419782e-06	
80	4.000000e+00	3.369606e-06	
81	4.050000e+00	3.321284e-06	
82	4.100000e+00	3.274714e-06	
83	4.150000e+00	3.229803e-06	
84	4.200000e+00	3.186466e-06	
85	4.250000e+00	3.144621e-06	
86	4.300000e+00	3.104193e-06	
87	4.350000e+00	3.065111e-06	
88	4.400000e+00	3.027311e-06	
89	4.450000e+00	2.990730e-06	
90	4.500000e+00	2.955311e-06	
91	4.550000e+00	2.920999e-06	
92	4.600000e+00	2.887744e-06	
93	4.650000e+00	2.855499e-06	
94	4.700000e+00	2.824217e-06	
95	4.750000e+00	2.793858e-06	
96	4.800000e+00	2.764381e-06	
97	4.850000e+00	2.735749e-06	
98	4.900000e+00	2.707926e-06	
99	4.950000e+00	2.680879e-06	
100	5.000000e+00	2.654575e-06	
101	5.050000e+00	2.628986e-06	
102	5.100000e+00	2.604083e-06	
103	5.150000e+00	2.579838e-06	
104	5.200000e+00	2.556227e-06	
105	5.250000e+00	2.533226e-06	
106	5.300000e+00	2.510810e-06	
107	5.350000e+00	2.488960e-06	
108	5.400000e+00	2.467653e-06	
109	5.450000e+00	2.446870e-06	
110	5.500000e+00	2.426592e-06	
111	5.550000e+00	2.406802e-06	
112	5.600000e+00	2.387482e-06	

Index   v-sweep         rds             
--------------------------------------------------------------------------------
113	5.650000e+00	2.368616e-06	
114	5.700000e+00	2.350189e-06	
115	5.750000e+00	2.332186e-06	
116	5.800000e+00	2.314592e-06	
117	5.850000e+00	2.297395e-06	
118	5.900000e+00	2.280581e-06	
119	5.950000e+00	2.264138e-06	
120	6.000000e+00	2.248054e-06	
121	6.050000e+00	2.232318e-06	
122	6.100000e+00	2.216919e-06	
123	6.150000e+00	2.201846e-06	
124	6.200000e+00	2.187091e-06	
125	6.250000e+00	2.172642e-06	
126	6.300000e+00	2.158491e-06	
127	6.350000e+00	2.144628e-06	
128	6.400000e+00	2.131047e-06	
129	6.450000e+00	2.117738e-06	
130	6.500000e+00	2.104693e-06	
131	6.550000e+00	2.091906e-06	
132	6.600000e+00	2.079368e-06	
Reset re-loads circuit ***************************

Circuit: ***************************

Doing analysis at TEMP = -40.000000 and TNOM = -40.000000


No. of Data Rows : 133
                          ***************************
                          DC transfer characteristic  Mon Jan  9 13:58:39  2023
--------------------------------------------------------------------------------
Index   v-sweep         rds             
--------------------------------------------------------------------------------
0	0.000000e+00	6.005595e-04	
1	5.000000e-02	5.771419e-04	
2	1.000000e-01	5.544657e-04	
3	1.500000e-01	5.325035e-04	
4	2.000000e-01	5.112283e-04	
5	2.500000e-01	4.906136e-04	
6	3.000000e-01	4.706330e-04	
7	3.500000e-01	4.512603e-04	
8	4.000000e-01	4.324698e-04	
9	4.500000e-01	4.142361e-04	
10	5.000000e-01	3.965347e-04	
11	5.500000e-01	3.793416e-04	
12	6.000000e-01	3.626343e-04	
13	6.500000e-01	3.463911e-04	
14	7.000000e-01	3.305916e-04	
15	7.500000e-01	3.152161e-04	
16	8.000000e-01	3.002458e-04	
17	8.500000e-01	2.856615e-04	
18	9.000000e-01	2.714436e-04	
19	9.500000e-01	2.575699e-04	
20	1.000000e+00	2.440141e-04	
21	1.050000e+00	2.307425e-04	
22	1.100000e+00	2.177089e-04	
23	1.150000e+00	2.048476e-04	
24	1.200000e+00	1.920614e-04	
25	1.250000e+00	1.792062e-04	
26	1.300000e+00	1.660732e-04	
27	1.350000e+00	1.523831e-04	
28	1.400000e+00	1.378314e-04	
29	1.450000e+00	1.222502e-04	
30	1.500000e+00	1.058971e-04	
31	1.550000e+00	8.963864e-05	
32	1.600000e+00	7.466144e-05	
33	1.650000e+00	6.185219e-05	
34	1.700000e+00	5.147002e-05	
35	1.750000e+00	4.329380e-05	
36	1.800000e+00	3.691241e-05	
37	1.850000e+00	3.191451e-05	
38	1.900000e+00	2.796039e-05	
39	1.950000e+00	2.479111e-05	
40	2.000000e+00	2.221554e-05	
41	2.050000e+00	2.009396e-05	
42	2.100000e+00	1.832395e-05	
43	2.150000e+00	1.682983e-05	
44	2.200000e+00	1.555502e-05	
45	2.250000e+00	1.445673e-05	
46	2.300000e+00	1.350218e-05	
47	2.350000e+00	1.266592e-05	
48	2.400000e+00	1.192800e-05	
49	2.450000e+00	1.127258e-05	
50	2.500000e+00	1.068694e-05	
51	2.550000e+00	1.016082e-05	
52	2.600000e+00	9.685795e-06	
53	2.650000e+00	9.254946e-06	
54	2.700000e+00	8.862517e-06	

Index   v-sweep         rds             
--------------------------------------------------------------------------------
55	2.750000e+00	8.503694e-06	
56	2.800000e+00	8.174421e-06	
57	2.850000e+00	7.871258e-06	
58	2.900000e+00	7.591272e-06	
59	2.950000e+00	7.331945e-06	
60	3.000000e+00	7.091110e-06	
61	3.050000e+00	6.866884e-06	
62	3.100000e+00	6.657631e-06	
63	3.150000e+00	6.461921e-06	
64	3.200000e+00	6.278496e-06	
65	3.250000e+00	6.106250e-06	
66	3.300000e+00	5.944202e-06	
67	3.350000e+00	5.791484e-06	
68	3.400000e+00	5.647321e-06	
69	3.450000e+00	5.511021e-06	
70	3.500000e+00	5.381965e-06	
71	3.550000e+00	5.259596e-06	
72	3.600000e+00	5.143412e-06	
73	3.650000e+00	5.032961e-06	
74	3.700000e+00	4.927831e-06	
75	3.750000e+00	4.827651e-06	
76	3.800000e+00	4.732082e-06	
77	3.850000e+00	4.640816e-06	
78	3.900000e+00	4.553570e-06	
79	3.950000e+00	4.470087e-06	
80	4.000000e+00	4.390130e-06	
81	4.050000e+00	4.313483e-06	
82	4.100000e+00	4.239945e-06	
83	4.150000e+00	4.169333e-06	
84	4.200000e+00	4.101476e-06	
85	4.250000e+00	4.036217e-06	
86	4.300000e+00	3.973411e-06	
87	4.350000e+00	3.912924e-06	
88	4.400000e+00	3.854630e-06	
89	4.450000e+00	3.798412e-06	
90	4.500000e+00	3.744163e-06	
91	4.550000e+00	3.691782e-06	
92	4.600000e+00	3.641174e-06	
93	4.650000e+00	3.592252e-06	
94	4.700000e+00	3.544934e-06	
95	4.750000e+00	3.499142e-06	
96	4.800000e+00	3.454805e-06	
97	4.850000e+00	3.411854e-06	
98	4.900000e+00	3.370227e-06	
99	4.950000e+00	3.329863e-06	
100	5.000000e+00	3.290707e-06	
101	5.050000e+00	3.252706e-06	
102	5.100000e+00	3.215810e-06	
103	5.150000e+00	3.179972e-06	
104	5.200000e+00	3.145147e-06	
105	5.250000e+00	3.111294e-06	
106	5.300000e+00	3.078374e-06	
107	5.350000e+00	3.046348e-06	
108	5.400000e+00	3.015181e-06	
109	5.450000e+00	2.984841e-06	
110	5.500000e+00	2.955294e-06	
111	5.550000e+00	2.926510e-06	
112	5.600000e+00	2.898462e-06	

Index   v-sweep         rds             
--------------------------------------------------------------------------------
113	5.650000e+00	2.871122e-06	
114	5.700000e+00	2.844463e-06	
115	5.750000e+00	2.818462e-06	
116	5.800000e+00	2.793094e-06	
117	5.850000e+00	2.768337e-06	
118	5.900000e+00	2.744171e-06	
119	5.950000e+00	2.720574e-06	
120	6.000000e+00	2.697528e-06	
121	6.050000e+00	2.675013e-06	
122	6.100000e+00	2.653013e-06	
123	6.150000e+00	2.631510e-06	
124	6.200000e+00	2.610489e-06	
125	6.250000e+00	2.589933e-06	
126	6.300000e+00	2.569828e-06	
127	6.350000e+00	2.550160e-06	
128	6.400000e+00	2.530915e-06	
129	6.450000e+00	2.512080e-06	
130	6.500000e+00	2.493643e-06	
131	6.550000e+00	2.475592e-06	
132	6.600000e+00	2.457915e-06	
Reset re-loads circuit ***************************

Circuit: ***************************

Doing analysis at TEMP = -40.000000 and TNOM = -40.000000


No. of Data Rows : 133
                          ***************************
                          DC transfer characteristic  Mon Jan  9 13:58:39  2023
--------------------------------------------------------------------------------
Index   v-sweep         rds             
--------------------------------------------------------------------------------
0	0.000000e+00	6.641951e-04	
1	5.000000e-02	6.420049e-04	
2	1.000000e-01	6.204430e-04	
3	1.500000e-01	5.994889e-04	
4	2.000000e-01	5.791225e-04	
5	2.500000e-01	5.593237e-04	
6	3.000000e-01	5.400729e-04	
7	3.500000e-01	5.213504e-04	
8	4.000000e-01	5.031366e-04	
9	4.500000e-01	4.854123e-04	
10	5.000000e-01	4.681583e-04	
11	5.500000e-01	4.513561e-04	
12	6.000000e-01	4.349875e-04	
13	6.500000e-01	4.190350e-04	
14	7.000000e-01	4.034820e-04	
15	7.500000e-01	3.883127e-04	
16	8.000000e-01	3.735121e-04	
17	8.500000e-01	3.590660e-04	
18	9.000000e-01	3.449611e-04	
19	9.500000e-01	3.311846e-04	
20	1.000000e+00	3.177240e-04	
21	1.050000e+00	3.045668e-04	
22	1.100000e+00	2.917002e-04	
23	1.150000e+00	2.791097e-04	
24	1.200000e+00	2.667788e-04	
25	1.250000e+00	2.546869e-04	
26	1.300000e+00	2.428071e-04	
27	1.350000e+00	2.311029e-04	
28	1.400000e+00	2.195227e-04	
29	1.450000e+00	2.079924e-04	
30	1.500000e+00	1.964043e-04	
31	1.550000e+00	1.846039e-04	
32	1.600000e+00	1.723780e-04	
33	1.650000e+00	1.594596e-04	
34	1.700000e+00	1.455827e-04	
35	1.750000e+00	1.306289e-04	
36	1.800000e+00	1.148498e-04	
37	1.850000e+00	9.898839e-05	
38	1.900000e+00	8.406485e-05	
39	1.950000e+00	7.091876e-05	
40	2.000000e+00	5.991405e-05	
41	2.050000e+00	5.098406e-05	
42	2.100000e+00	4.383673e-05	
43	2.150000e+00	3.812579e-05	
44	2.200000e+00	3.353708e-05	
45	2.250000e+00	2.981537e-05	
46	2.300000e+00	2.676342e-05	
47	2.350000e+00	2.423198e-05	
48	2.400000e+00	2.210875e-05	
49	2.450000e+00	2.030905e-05	
50	2.500000e+00	1.876858e-05	
51	2.550000e+00	1.743806e-05	
52	2.600000e+00	1.627936e-05	
53	2.650000e+00	1.526266e-05	
54	2.700000e+00	1.436438e-05	

Index   v-sweep         rds             
--------------------------------------------------------------------------------
55	2.750000e+00	1.356573e-05	
56	2.800000e+00	1.285155e-05	
57	2.850000e+00	1.220954e-05	
58	2.900000e+00	1.162958e-05	
59	2.950000e+00	1.110335e-05	
60	3.000000e+00	1.062389e-05	
61	3.050000e+00	1.018539e-05	
62	3.100000e+00	9.782911e-06	
63	3.150000e+00	9.412299e-06	
64	3.200000e+00	9.069984e-06	
65	3.250000e+00	8.752904e-06	
66	3.300000e+00	8.458419e-06	
67	3.350000e+00	8.184237e-06	
68	3.400000e+00	7.928362e-06	
69	3.450000e+00	7.689049e-06	
70	3.500000e+00	7.464763e-06	
71	3.550000e+00	7.254152e-06	
72	3.600000e+00	7.056019e-06	
73	3.650000e+00	6.869302e-06	
74	3.700000e+00	6.693053e-06	
75	3.750000e+00	6.526428e-06	
76	3.800000e+00	6.368668e-06	
77	3.850000e+00	6.219091e-06	
78	3.900000e+00	6.077084e-06	
79	3.950000e+00	5.942092e-06	
80	4.000000e+00	5.813614e-06	
81	4.050000e+00	5.691194e-06	
82	4.100000e+00	5.574416e-06	
83	4.150000e+00	5.462904e-06	
84	4.200000e+00	5.356312e-06	
85	4.250000e+00	5.254325e-06	
86	4.300000e+00	5.156652e-06	
87	4.350000e+00	5.063029e-06	
88	4.400000e+00	4.973210e-06	
89	4.450000e+00	4.886971e-06	
90	4.500000e+00	4.804102e-06	
91	4.550000e+00	4.724413e-06	
92	4.600000e+00	4.647724e-06	
93	4.650000e+00	4.573871e-06	
94	4.700000e+00	4.502700e-06	
95	4.750000e+00	4.434070e-06	
96	4.800000e+00	4.367847e-06	
97	4.850000e+00	4.303909e-06	
98	4.900000e+00	4.242140e-06	
99	4.950000e+00	4.182432e-06	
100	5.000000e+00	4.124685e-06	
101	5.050000e+00	4.068805e-06	
102	5.100000e+00	4.014703e-06	
103	5.150000e+00	3.962297e-06	
104	5.200000e+00	3.911510e-06	
105	5.250000e+00	3.862267e-06	
106	5.300000e+00	3.814501e-06	
107	5.350000e+00	3.768147e-06	
108	5.400000e+00	3.723144e-06	
109	5.450000e+00	3.679435e-06	
110	5.500000e+00	3.636965e-06	
111	5.550000e+00	3.595683e-06	
112	5.600000e+00	3.555542e-06	

Index   v-sweep         rds             
--------------------------------------------------------------------------------
113	5.650000e+00	3.516494e-06	
114	5.700000e+00	3.478497e-06	
115	5.750000e+00	3.441510e-06	
116	5.800000e+00	3.405493e-06	
117	5.850000e+00	3.370411e-06	
118	5.900000e+00	3.336227e-06	
119	5.950000e+00	3.302909e-06	
120	6.000000e+00	3.270425e-06	
121	6.050000e+00	3.238745e-06	
122	6.100000e+00	3.207840e-06	
123	6.150000e+00	3.177683e-06	
124	6.200000e+00	3.148248e-06	
125	6.250000e+00	3.119510e-06	
126	6.300000e+00	3.091445e-06	
127	6.350000e+00	3.064031e-06	
128	6.400000e+00	3.037247e-06	
129	6.450000e+00	3.011071e-06	
130	6.500000e+00	2.985485e-06	
131	6.550000e+00	2.960468e-06	
132	6.600000e+00	2.936004e-06	
Reset re-loads circuit ***************************

Circuit: ***************************

Note: No ".plot", ".print", or ".fourier" lines; no simulations run
