
Note: Compatibility modes selected: hs

Warning: m=xx on .subckt line will override multiplier m hierarchy!


Circuit: ***************************

Doing analysis at TEMP = 125.000000 and TNOM = 125.000000


No. of Data Rows : 133
                          ***************************
                          DC transfer characteristic  Mon Jan  9 13:58:39  2023
--------------------------------------------------------------------------------
Index   v-sweep         rds             
--------------------------------------------------------------------------------
0	0.000000e+00	3.233151e-04	
1	5.000000e-02	2.677900e-04	
2	1.000000e-01	2.135743e-04	
3	1.500000e-01	1.610038e-04	
4	2.000000e-01	1.111710e-04	
5	2.500000e-01	6.745820e-05	
6	3.000000e-01	3.660726e-05	
7	3.500000e-01	2.105684e-05	
8	4.000000e-01	1.439870e-05	
9	4.500000e-01	1.120166e-05	
10	5.000000e-01	9.354751e-06	
11	5.500000e-01	8.129654e-06	
12	6.000000e-01	7.242090e-06	
13	6.500000e-01	6.561626e-06	
14	7.000000e-01	6.019567e-06	
15	7.500000e-01	5.575716e-06	
16	8.000000e-01	5.204644e-06	
17	8.500000e-01	4.889295e-06	
18	9.000000e-01	4.617712e-06	
19	9.500000e-01	4.381213e-06	
20	1.000000e+00	4.173318e-06	
21	1.050000e+00	3.989078e-06	
22	1.100000e+00	3.824640e-06	
23	1.150000e+00	3.676954e-06	
24	1.200000e+00	3.543572e-06	
25	1.250000e+00	3.422507e-06	
26	1.300000e+00	3.312123e-06	
27	1.350000e+00	3.211066e-06	
28	1.400000e+00	3.118201e-06	
29	1.450000e+00	3.032573e-06	
30	1.500000e+00	2.953368e-06	
31	1.550000e+00	2.879891e-06	
32	1.600000e+00	2.811544e-06	
33	1.650000e+00	2.747810e-06	
34	1.700000e+00	2.688239e-06	
35	1.750000e+00	2.632438e-06	
36	1.800000e+00	2.580062e-06	
37	1.850000e+00	2.530805e-06	
38	1.900000e+00	2.484400e-06	
39	1.950000e+00	2.440607e-06	
40	2.000000e+00	2.399212e-06	
41	2.050000e+00	2.360026e-06	
42	2.100000e+00	2.322878e-06	
43	2.150000e+00	2.287613e-06	
44	2.200000e+00	2.254093e-06	
45	2.250000e+00	2.222193e-06	
46	2.300000e+00	2.191800e-06	
47	2.350000e+00	2.162809e-06	
48	2.400000e+00	2.135126e-06	
49	2.450000e+00	2.108667e-06	
50	2.500000e+00	2.083352e-06	
51	2.550000e+00	2.059109e-06	
52	2.600000e+00	2.035873e-06	
53	2.650000e+00	2.013583e-06	
54	2.700000e+00	1.992182e-06	

Index   v-sweep         rds             
--------------------------------------------------------------------------------
55	2.750000e+00	1.971620e-06	
56	2.800000e+00	1.951847e-06	
57	2.850000e+00	1.932821e-06	
58	2.900000e+00	1.914500e-06	
59	2.950000e+00	1.896846e-06	
60	3.000000e+00	1.879824e-06	
61	3.050000e+00	1.863401e-06	
62	3.100000e+00	1.847546e-06	
63	3.150000e+00	1.832231e-06	
64	3.200000e+00	1.817429e-06	
65	3.250000e+00	1.803115e-06	
66	3.300000e+00	1.789265e-06	
67	3.350000e+00	1.775859e-06	
68	3.400000e+00	1.762874e-06	
69	3.450000e+00	1.750291e-06	
70	3.500000e+00	1.738094e-06	
71	3.550000e+00	1.726264e-06	
72	3.600000e+00	1.714785e-06	
73	3.650000e+00	1.703642e-06	
74	3.700000e+00	1.692822e-06	
75	3.750000e+00	1.682309e-06	
76	3.800000e+00	1.672093e-06	
77	3.850000e+00	1.662159e-06	
78	3.900000e+00	1.652498e-06	
79	3.950000e+00	1.643098e-06	
80	4.000000e+00	1.633949e-06	
81	4.050000e+00	1.625041e-06	
82	4.100000e+00	1.616366e-06	
83	4.150000e+00	1.607913e-06	
84	4.200000e+00	1.599675e-06	
85	4.250000e+00	1.591645e-06	
86	4.300000e+00	1.583813e-06	
87	4.350000e+00	1.576174e-06	
88	4.400000e+00	1.568720e-06	
89	4.450000e+00	1.561446e-06	
90	4.500000e+00	1.554343e-06	
91	4.550000e+00	1.547408e-06	
92	4.600000e+00	1.540633e-06	
93	4.650000e+00	1.534014e-06	
94	4.700000e+00	1.527545e-06	
95	4.750000e+00	1.521222e-06	
96	4.800000e+00	1.515039e-06	
97	4.850000e+00	1.508993e-06	
98	4.900000e+00	1.503078e-06	
99	4.950000e+00	1.497291e-06	
100	5.000000e+00	1.491628e-06	
101	5.050000e+00	1.486084e-06	
102	5.100000e+00	1.480657e-06	
103	5.150000e+00	1.475342e-06	
104	5.200000e+00	1.470137e-06	
105	5.250000e+00	1.465037e-06	
106	5.300000e+00	1.460041e-06	
107	5.350000e+00	1.455144e-06	
108	5.400000e+00	1.450344e-06	
109	5.450000e+00	1.445639e-06	
110	5.500000e+00	1.441025e-06	
111	5.550000e+00	1.436500e-06	
112	5.600000e+00	1.432061e-06	

Index   v-sweep         rds             
--------------------------------------------------------------------------------
113	5.650000e+00	1.427707e-06	
114	5.700000e+00	1.423434e-06	
115	5.750000e+00	1.419241e-06	
116	5.800000e+00	1.415126e-06	
117	5.850000e+00	1.411086e-06	
118	5.900000e+00	1.407119e-06	
119	5.950000e+00	1.403223e-06	
120	6.000000e+00	1.399398e-06	
121	6.050000e+00	1.395640e-06	
122	6.100000e+00	1.391948e-06	
123	6.150000e+00	1.388320e-06	
124	6.200000e+00	1.384755e-06	
125	6.250000e+00	1.381252e-06	
126	6.300000e+00	1.377808e-06	
127	6.350000e+00	1.374423e-06	
128	6.400000e+00	1.371094e-06	
129	6.450000e+00	1.367821e-06	
130	6.500000e+00	1.364602e-06	
131	6.550000e+00	1.361435e-06	
132	6.600000e+00	1.358320e-06	
Reset re-loads circuit ***************************

Circuit: ***************************

Doing analysis at TEMP = 125.000000 and TNOM = 125.000000


No. of Data Rows : 133
                          ***************************
                          DC transfer characteristic  Mon Jan  9 13:58:39  2023
--------------------------------------------------------------------------------
Index   v-sweep         rds             
--------------------------------------------------------------------------------
0	0.000000e+00	1.030601e-03	
1	5.000000e-02	9.671127e-04	
2	1.000000e-01	9.048857e-04	
3	1.500000e-01	8.438913e-04	
4	2.000000e-01	7.841020e-04	
5	2.500000e-01	7.254920e-04	
6	3.000000e-01	6.680377e-04	
7	3.500000e-01	6.117184e-04	
8	4.000000e-01	5.565184e-04	
9	4.500000e-01	5.024290e-04	
10	5.000000e-01	4.494550e-04	
11	5.500000e-01	3.976250e-04	
12	6.000000e-01	3.470158e-04	
13	6.500000e-01	2.978026e-04	
14	7.000000e-01	2.503686e-04	
15	7.500000e-01	2.055102e-04	
16	8.000000e-01	1.646923e-04	
17	8.500000e-01	1.299248e-04	
18	9.000000e-01	1.026718e-04	
19	9.500000e-01	8.267589e-05	
20	1.000000e+00	6.835676e-05	
21	1.050000e+00	5.799090e-05	
22	1.100000e+00	5.028316e-05	
23	1.150000e+00	4.437919e-05	
24	1.200000e+00	3.973179e-05	
25	1.250000e+00	3.598636e-05	
26	1.300000e+00	3.290705e-05	
27	1.350000e+00	3.033232e-05	
28	1.400000e+00	2.814840e-05	
29	1.450000e+00	2.627304e-05	
30	1.500000e+00	2.464545e-05	
31	1.550000e+00	2.321973e-05	
32	1.600000e+00	2.196063e-05	
33	1.650000e+00	2.084063e-05	
34	1.700000e+00	1.983794e-05	
35	1.750000e+00	1.893509e-05	
36	1.800000e+00	1.811790e-05	
37	1.850000e+00	1.737476e-05	
38	1.900000e+00	1.669607e-05	
39	1.950000e+00	1.607379e-05	
40	2.000000e+00	1.550119e-05	
41	2.050000e+00	1.497257e-05	
42	2.100000e+00	1.448305e-05	
43	2.150000e+00	1.402845e-05	
44	2.200000e+00	1.360518e-05	
45	2.250000e+00	1.321011e-05	
46	2.300000e+00	1.284052e-05	
47	2.350000e+00	1.249402e-05	
48	2.400000e+00	1.216853e-05	
49	2.450000e+00	1.186219e-05	
50	2.500000e+00	1.157336e-05	
51	2.550000e+00	1.130059e-05	
52	2.600000e+00	1.104257e-05	
53	2.650000e+00	1.079815e-05	
54	2.700000e+00	1.056627e-05	

Index   v-sweep         rds             
--------------------------------------------------------------------------------
55	2.750000e+00	1.034601e-05	
56	2.800000e+00	1.013650e-05	
57	2.850000e+00	9.936993e-06	
58	2.900000e+00	9.746777e-06	
59	2.950000e+00	9.565224e-06	
60	3.000000e+00	9.391757e-06	
61	3.050000e+00	9.225848e-06	
62	3.100000e+00	9.067016e-06	
63	3.150000e+00	8.914818e-06	
64	3.200000e+00	8.768848e-06	
65	3.250000e+00	8.628733e-06	
66	3.300000e+00	8.494129e-06	
67	3.350000e+00	8.364716e-06	
68	3.400000e+00	8.240203e-06	
69	3.450000e+00	8.120316e-06	
70	3.500000e+00	8.004802e-06	
71	3.550000e+00	7.893429e-06	
72	3.600000e+00	7.785977e-06	
73	3.650000e+00	7.682245e-06	
74	3.700000e+00	7.582042e-06	
75	3.750000e+00	7.485192e-06	
76	3.800000e+00	7.391531e-06	
77	3.850000e+00	7.300903e-06	
78	3.900000e+00	7.213165e-06	
79	3.950000e+00	7.128181e-06	
80	4.000000e+00	7.045824e-06	
81	4.050000e+00	6.965974e-06	
82	4.100000e+00	6.888519e-06	
83	4.150000e+00	6.813353e-06	
84	4.200000e+00	6.740377e-06	
85	4.250000e+00	6.669496e-06	
86	4.300000e+00	6.600623e-06	
87	4.350000e+00	6.533674e-06	
88	4.400000e+00	6.468568e-06	
89	4.450000e+00	6.405233e-06	
90	4.500000e+00	6.343596e-06	
91	4.550000e+00	6.283591e-06	
92	4.600000e+00	6.225154e-06	
93	4.650000e+00	6.168225e-06	
94	4.700000e+00	6.112747e-06	
95	4.750000e+00	6.058665e-06	
96	4.800000e+00	6.005927e-06	
97	4.850000e+00	5.954484e-06	
98	4.900000e+00	5.904290e-06	
99	4.950000e+00	5.855299e-06	
100	5.000000e+00	5.807470e-06	
101	5.050000e+00	5.760762e-06	
102	5.100000e+00	5.715136e-06	
103	5.150000e+00	5.670555e-06	
104	5.200000e+00	5.626984e-06	
105	5.250000e+00	5.584389e-06	
106	5.300000e+00	5.542739e-06	
107	5.350000e+00	5.502002e-06	
108	5.400000e+00	5.462150e-06	
109	5.450000e+00	5.423153e-06	
110	5.500000e+00	5.384984e-06	
111	5.550000e+00	5.347619e-06	
112	5.600000e+00	5.311032e-06	

Index   v-sweep         rds             
--------------------------------------------------------------------------------
113	5.650000e+00	5.275199e-06	
114	5.700000e+00	5.240098e-06	
115	5.750000e+00	5.205706e-06	
116	5.800000e+00	5.172002e-06	
117	5.850000e+00	5.138967e-06	
118	5.900000e+00	5.106580e-06	
119	5.950000e+00	5.074824e-06	
120	6.000000e+00	5.043680e-06	
121	6.050000e+00	5.013130e-06	
122	6.100000e+00	4.983159e-06	
123	6.150000e+00	4.953750e-06	
124	6.200000e+00	4.924887e-06	
125	6.250000e+00	4.896557e-06	
126	6.300000e+00	4.868743e-06	
127	6.350000e+00	4.841434e-06	
128	6.400000e+00	4.814614e-06	
129	6.450000e+00	4.788272e-06	
130	6.500000e+00	4.762394e-06	
131	6.550000e+00	4.736970e-06	
132	6.600000e+00	4.711987e-06	
Reset re-loads circuit ***************************

Circuit: ***************************

Doing analysis at TEMP = 125.000000 and TNOM = 125.000000


No. of Data Rows : 133
                          ***************************
                          DC transfer characteristic  Mon Jan  9 13:58:39  2023
--------------------------------------------------------------------------------
Index   v-sweep         rds             
--------------------------------------------------------------------------------
0	0.000000e+00	1.570260e-03	
1	5.000000e-02	1.505814e-03	
2	1.000000e-01	1.442578e-03	
3	1.500000e-01	1.380525e-03	
4	2.000000e-01	1.319628e-03	
5	2.500000e-01	1.259861e-03	
6	3.000000e-01	1.201199e-03	
7	3.500000e-01	1.143616e-03	
8	4.000000e-01	1.087089e-03	
9	4.500000e-01	1.031594e-03	
10	5.000000e-01	9.771089e-04	
11	5.500000e-01	9.236109e-04	
12	6.000000e-01	8.710787e-04	
13	6.500000e-01	8.194915e-04	
14	7.000000e-01	7.688291e-04	
15	7.500000e-01	7.190719e-04	
16	8.000000e-01	6.702010e-04	
17	8.500000e-01	6.221983e-04	
18	9.000000e-01	5.750465e-04	
19	9.500000e-01	5.287296e-04	
20	1.000000e+00	4.832342e-04	
21	1.050000e+00	4.385530e-04	
22	1.100000e+00	3.946941e-04	
23	1.150000e+00	3.517069e-04	
24	1.200000e+00	3.097435e-04	
25	1.250000e+00	2.691871e-04	
26	1.300000e+00	2.308240e-04	
27	1.350000e+00	1.958652e-04	
28	1.400000e+00	1.655346e-04	
29	1.450000e+00	1.404249e-04	
30	1.500000e+00	1.202803e-04	
31	1.550000e+00	1.043225e-04	
32	1.600000e+00	9.166190e-05	
33	1.650000e+00	8.152050e-05	
34	1.700000e+00	7.329003e-05	
35	1.750000e+00	6.651647e-05	
36	1.800000e+00	6.086591e-05	
37	1.850000e+00	5.609256e-05	
38	1.900000e+00	5.201394e-05	
39	1.950000e+00	4.849296e-05	
40	2.000000e+00	4.542526e-05	
41	2.050000e+00	4.273033e-05	
42	2.100000e+00	4.034526e-05	
43	2.150000e+00	3.822029e-05	
44	2.200000e+00	3.631563e-05	
45	2.250000e+00	3.459907e-05	
46	2.300000e+00	3.304436e-05	
47	2.350000e+00	3.162982e-05	
48	2.400000e+00	3.033748e-05	
49	2.450000e+00	2.915227e-05	
50	2.500000e+00	2.806149e-05	
51	2.550000e+00	2.705436e-05	
52	2.600000e+00	2.612166e-05	
53	2.650000e+00	2.525548e-05	
54	2.700000e+00	2.444899e-05	

Index   v-sweep         rds             
--------------------------------------------------------------------------------
55	2.750000e+00	2.369625e-05	
56	2.800000e+00	2.299208e-05	
57	2.850000e+00	2.233196e-05	
58	2.900000e+00	2.171188e-05	
59	2.950000e+00	2.112832e-05	
60	3.000000e+00	2.057817e-05	
61	3.050000e+00	2.005864e-05	
62	3.100000e+00	1.956726e-05	
63	3.150000e+00	1.910181e-05	
64	3.200000e+00	1.866028e-05	
65	3.250000e+00	1.824090e-05	
66	3.300000e+00	1.784203e-05	
67	3.350000e+00	1.746222e-05	
68	3.400000e+00	1.710013e-05	
69	3.450000e+00	1.675456e-05	
70	3.500000e+00	1.642440e-05	
71	3.550000e+00	1.610865e-05	
72	3.600000e+00	1.580638e-05	
73	3.650000e+00	1.551676e-05	
74	3.700000e+00	1.523901e-05	
75	3.750000e+00	1.497241e-05	
76	3.800000e+00	1.471631e-05	
77	3.850000e+00	1.447010e-05	
78	3.900000e+00	1.423323e-05	
79	3.950000e+00	1.400516e-05	
80	4.000000e+00	1.378543e-05	
81	4.050000e+00	1.357358e-05	
82	4.100000e+00	1.336919e-05	
83	4.150000e+00	1.317189e-05	
84	4.200000e+00	1.298131e-05	
85	4.250000e+00	1.279711e-05	
86	4.300000e+00	1.261898e-05	
87	4.350000e+00	1.244662e-05	
88	4.400000e+00	1.227976e-05	
89	4.450000e+00	1.211815e-05	
90	4.500000e+00	1.196153e-05	
91	4.550000e+00	1.180968e-05	
92	4.600000e+00	1.166239e-05	
93	4.650000e+00	1.151946e-05	
94	4.700000e+00	1.138069e-05	
95	4.750000e+00	1.124591e-05	
96	4.800000e+00	1.111495e-05	
97	4.850000e+00	1.098765e-05	
98	4.900000e+00	1.086385e-05	
99	4.950000e+00	1.074342e-05	
100	5.000000e+00	1.062623e-05	
101	5.050000e+00	1.051214e-05	
102	5.100000e+00	1.040103e-05	
103	5.150000e+00	1.029278e-05	
104	5.200000e+00	1.018730e-05	
105	5.250000e+00	1.008448e-05	
106	5.300000e+00	9.984207e-06	
107	5.350000e+00	9.886402e-06	
108	5.400000e+00	9.790971e-06	
109	5.450000e+00	9.697831e-06	
110	5.500000e+00	9.606900e-06	
111	5.550000e+00	9.518101e-06	
112	5.600000e+00	9.431361e-06	

Index   v-sweep         rds             
--------------------------------------------------------------------------------
113	5.650000e+00	9.346610e-06	
114	5.700000e+00	9.263781e-06	
115	5.750000e+00	9.182809e-06	
116	5.800000e+00	9.103635e-06	
117	5.850000e+00	9.026199e-06	
118	5.900000e+00	8.950445e-06	
119	5.950000e+00	8.876320e-06	
120	6.000000e+00	8.803772e-06	
121	6.050000e+00	8.732753e-06	
122	6.100000e+00	8.663216e-06	
123	6.150000e+00	8.595114e-06	
124	6.200000e+00	8.528405e-06	
125	6.250000e+00	8.463048e-06	
126	6.300000e+00	8.399001e-06	
127	6.350000e+00	8.336227e-06	
128	6.400000e+00	8.274689e-06	
129	6.450000e+00	8.214351e-06	
130	6.500000e+00	8.155180e-06	
131	6.550000e+00	8.097142e-06	
132	6.600000e+00	8.040206e-06	
Reset re-loads circuit ***************************

Circuit: ***************************

Doing analysis at TEMP = 125.000000 and TNOM = 125.000000


No. of Data Rows : 133
                          ***************************
                          DC transfer characteristic  Mon Jan  9 13:58:39  2023
--------------------------------------------------------------------------------
Index   v-sweep         rds             
--------------------------------------------------------------------------------
0	0.000000e+00	1.978205e-03	
1	5.000000e-02	1.915843e-03	
2	1.000000e-01	1.854550e-03	
3	1.500000e-01	1.794306e-03	
4	2.000000e-01	1.735088e-03	
5	2.500000e-01	1.676875e-03	
6	3.000000e-01	1.619646e-03	
7	3.500000e-01	1.563382e-03	
8	4.000000e-01	1.508062e-03	
9	4.500000e-01	1.453667e-03	
10	5.000000e-01	1.400177e-03	
11	5.500000e-01	1.347576e-03	
12	6.000000e-01	1.295843e-03	
13	6.500000e-01	1.244962e-03	
14	7.000000e-01	1.194916e-03	
15	7.500000e-01	1.145686e-03	
16	8.000000e-01	1.097257e-03	
17	8.500000e-01	1.049611e-03	
18	9.000000e-01	1.002734e-03	
19	9.500000e-01	9.566077e-04	
20	1.000000e+00	9.112170e-04	
21	1.050000e+00	8.665456e-04	
22	1.100000e+00	8.225765e-04	
23	1.150000e+00	7.792924e-04	
24	1.200000e+00	7.366743e-04	
25	1.250000e+00	6.947010e-04	
26	1.300000e+00	6.533478e-04	
27	1.350000e+00	6.125844e-04	
28	1.400000e+00	5.723720e-04	
29	1.450000e+00	5.326593e-04	
30	1.500000e+00	4.933776e-04	
31	1.550000e+00	4.544382e-04	
32	1.600000e+00	4.157399e-04	
33	1.650000e+00	3.772072e-04	
34	1.700000e+00	3.388921e-04	
35	1.750000e+00	3.011540e-04	
36	1.800000e+00	2.648181e-04	
37	1.850000e+00	2.310766e-04	
38	1.900000e+00	2.010418e-04	
39	1.950000e+00	1.752885e-04	
40	2.000000e+00	1.537591e-04	
41	2.050000e+00	1.359820e-04	
42	2.100000e+00	1.213370e-04	
43	2.150000e+00	1.092224e-04	
44	2.200000e+00	9.912454e-05	
45	2.250000e+00	9.063038e-05	
46	2.300000e+00	8.341645e-05	
47	2.350000e+00	7.723202e-05	
48	2.400000e+00	7.188283e-05	
49	2.450000e+00	6.721767e-05	
50	2.500000e+00	6.311798e-05	
51	2.550000e+00	5.949001e-05	
52	2.600000e+00	5.625895e-05	
53	2.650000e+00	5.336456e-05	
54	2.700000e+00	5.075790e-05	

Index   v-sweep         rds             
--------------------------------------------------------------------------------
55	2.750000e+00	4.839888e-05	
56	2.800000e+00	4.625439e-05	
57	2.850000e+00	4.429684e-05	
58	2.900000e+00	4.250315e-05	
59	2.950000e+00	4.085382e-05	
60	3.000000e+00	3.933227e-05	
61	3.050000e+00	3.792436e-05	
62	3.100000e+00	3.661793e-05	
63	3.150000e+00	3.540250e-05	
64	3.200000e+00	3.426893e-05	
65	3.250000e+00	3.320931e-05	
66	3.300000e+00	3.221666e-05	
67	3.350000e+00	3.128488e-05	
68	3.400000e+00	3.040856e-05	
69	3.450000e+00	2.958293e-05	
70	3.500000e+00	2.880374e-05	
71	3.550000e+00	2.806719e-05	
72	3.600000e+00	2.736989e-05	
73	3.650000e+00	2.670881e-05	
74	3.700000e+00	2.608121e-05	
75	3.750000e+00	2.548461e-05	
76	3.800000e+00	2.491678e-05	
77	3.850000e+00	2.437571e-05	
78	3.900000e+00	2.385955e-05	
79	3.950000e+00	2.336662e-05	
80	4.000000e+00	2.289539e-05	
81	4.050000e+00	2.244448e-05	
82	4.100000e+00	2.201259e-05	
83	4.150000e+00	2.159855e-05	
84	4.200000e+00	2.120129e-05	
85	4.250000e+00	2.081980e-05	
86	4.300000e+00	2.045317e-05	
87	4.350000e+00	2.010054e-05	
88	4.400000e+00	1.976114e-05	
89	4.450000e+00	1.943424e-05	
90	4.500000e+00	1.911915e-05	
91	4.550000e+00	1.881526e-05	
92	4.600000e+00	1.852197e-05	
93	4.650000e+00	1.823875e-05	
94	4.700000e+00	1.796509e-05	
95	4.750000e+00	1.770050e-05	
96	4.800000e+00	1.744456e-05	
97	4.850000e+00	1.719684e-05	
98	4.900000e+00	1.695695e-05	
99	4.950000e+00	1.672454e-05	
100	5.000000e+00	1.649925e-05	
101	5.050000e+00	1.628078e-05	
102	5.100000e+00	1.606880e-05	
103	5.150000e+00	1.586305e-05	
104	5.200000e+00	1.566324e-05	
105	5.250000e+00	1.546914e-05	
106	5.300000e+00	1.528049e-05	
107	5.350000e+00	1.509707e-05	
108	5.400000e+00	1.491868e-05	
109	5.450000e+00	1.474510e-05	
110	5.500000e+00	1.457615e-05	
111	5.550000e+00	1.441164e-05	
112	5.600000e+00	1.425141e-05	

Index   v-sweep         rds             
--------------------------------------------------------------------------------
113	5.650000e+00	1.409529e-05	
114	5.700000e+00	1.394312e-05	
115	5.750000e+00	1.379476e-05	
116	5.800000e+00	1.365007e-05	
117	5.850000e+00	1.350892e-05	
118	5.900000e+00	1.337117e-05	
119	5.950000e+00	1.323672e-05	
120	6.000000e+00	1.310543e-05	
121	6.050000e+00	1.297722e-05	
122	6.100000e+00	1.285196e-05	
123	6.150000e+00	1.272956e-05	
124	6.200000e+00	1.260992e-05	
125	6.250000e+00	1.249296e-05	
126	6.300000e+00	1.237858e-05	
127	6.350000e+00	1.226671e-05	
128	6.400000e+00	1.215726e-05	
129	6.450000e+00	1.205015e-05	
130	6.500000e+00	1.194532e-05	
131	6.550000e+00	1.184269e-05	
132	6.600000e+00	1.174220e-05	
Reset re-loads circuit ***************************

Circuit: ***************************

Doing analysis at TEMP = 125.000000 and TNOM = 125.000000


No. of Data Rows : 133
                          ***************************
                          DC transfer characteristic  Mon Jan  9 13:58:39  2023
--------------------------------------------------------------------------------
Index   v-sweep         rds             
--------------------------------------------------------------------------------
0	0.000000e+00	2.267040e-03	
1	5.000000e-02	2.208733e-03	
2	1.000000e-01	2.151326e-03	
3	1.500000e-01	2.094803e-03	
4	2.000000e-01	2.039146e-03	
5	2.500000e-01	1.984339e-03	
6	3.000000e-01	1.930368e-03	
7	3.500000e-01	1.877217e-03	
8	4.000000e-01	1.824870e-03	
9	4.500000e-01	1.773312e-03	
10	5.000000e-01	1.722530e-03	
11	5.500000e-01	1.672509e-03	
12	6.000000e-01	1.623235e-03	
13	6.500000e-01	1.574693e-03	
14	7.000000e-01	1.526872e-03	
15	7.500000e-01	1.479757e-03	
16	8.000000e-01	1.433336e-03	
17	8.500000e-01	1.387595e-03	
18	9.000000e-01	1.342523e-03	
19	9.500000e-01	1.298108e-03	
20	1.000000e+00	1.254336e-03	
21	1.050000e+00	1.211197e-03	
22	1.100000e+00	1.168679e-03	
23	1.150000e+00	1.126770e-03	
24	1.200000e+00	1.085459e-03	
25	1.250000e+00	1.044734e-03	
26	1.300000e+00	1.004583e-03	
27	1.350000e+00	9.649959e-04	
28	1.400000e+00	9.259593e-04	
29	1.450000e+00	8.874609e-04	
30	1.500000e+00	8.494870e-04	
31	1.550000e+00	8.120226e-04	
32	1.600000e+00	7.750505e-04	
33	1.650000e+00	7.385504e-04	
34	1.700000e+00	7.024977e-04	
35	1.750000e+00	6.668605e-04	
36	1.800000e+00	6.315971e-04	
37	1.850000e+00	5.966513e-04	
38	1.900000e+00	5.619459e-04	
39	1.950000e+00	5.273757e-04	
40	2.000000e+00	4.928019e-04	
41	2.050000e+00	4.580563e-04	
42	2.100000e+00	4.229724e-04	
43	2.150000e+00	3.874712e-04	
44	2.200000e+00	3.517129e-04	
45	2.250000e+00	3.162580e-04	
46	2.300000e+00	2.820776e-04	
47	2.350000e+00	2.502954e-04	
48	2.400000e+00	2.217922e-04	
49	2.450000e+00	1.969631e-04	
50	2.500000e+00	1.757433e-04	
51	2.550000e+00	1.577810e-04	
52	2.600000e+00	1.426128e-04	
53	2.650000e+00	1.297738e-04	
54	2.700000e+00	1.188504e-04	

Index   v-sweep         rds             
--------------------------------------------------------------------------------
55	2.750000e+00	1.094951e-04	
56	2.800000e+00	1.014250e-04	
57	2.850000e+00	9.441270e-05	
58	2.900000e+00	8.827614e-05	
59	2.950000e+00	8.286966e-05	
60	3.000000e+00	7.807617e-05	
61	3.050000e+00	7.380108e-05	
62	3.100000e+00	6.996745e-05	
63	3.150000e+00	6.651228e-05	
64	3.200000e+00	6.338364e-05	
65	3.250000e+00	6.053840e-05	
66	3.300000e+00	5.794054e-05	
67	3.350000e+00	5.555973e-05	
68	3.400000e+00	5.337034e-05	
69	3.450000e+00	5.135052e-05	
70	3.500000e+00	4.948160e-05	
71	3.550000e+00	4.774748e-05	
72	3.600000e+00	4.613427e-05	
73	3.650000e+00	4.462989e-05	
74	3.700000e+00	4.322380e-05	
75	3.750000e+00	4.190676e-05	
76	3.800000e+00	4.067065e-05	
77	3.850000e+00	3.950829e-05	
78	3.900000e+00	3.841333e-05	
79	3.950000e+00	3.738011e-05	
80	4.000000e+00	3.640359e-05	
81	4.050000e+00	3.547926e-05	
82	4.100000e+00	3.460307e-05	
83	4.150000e+00	3.377138e-05	
84	4.200000e+00	3.298090e-05	
85	4.250000e+00	3.222866e-05	
86	4.300000e+00	3.151196e-05	
87	4.350000e+00	3.082835e-05	
88	4.400000e+00	3.017561e-05	
89	4.450000e+00	2.955170e-05	
90	4.500000e+00	2.895476e-05	
91	4.550000e+00	2.838309e-05	
92	4.600000e+00	2.783512e-05	
93	4.650000e+00	2.730941e-05	
94	4.700000e+00	2.680464e-05	
95	4.750000e+00	2.631959e-05	
96	4.800000e+00	2.585313e-05	
97	4.850000e+00	2.540421e-05	
98	4.900000e+00	2.497187e-05	
99	4.950000e+00	2.455520e-05	
100	5.000000e+00	2.415338e-05	
101	5.050000e+00	2.376563e-05	
102	5.100000e+00	2.339121e-05	
103	5.150000e+00	2.302947e-05	
104	5.200000e+00	2.267977e-05	
105	5.250000e+00	2.234152e-05	
106	5.300000e+00	2.201417e-05	
107	5.350000e+00	2.169720e-05	
108	5.400000e+00	2.139013e-05	
109	5.450000e+00	2.109251e-05	
110	5.500000e+00	2.080390e-05	
111	5.550000e+00	2.052391e-05	
112	5.600000e+00	2.025216e-05	

Index   v-sweep         rds             
--------------------------------------------------------------------------------
113	5.650000e+00	1.998829e-05	
114	5.700000e+00	1.973197e-05	
115	5.750000e+00	1.948288e-05	
116	5.800000e+00	1.924071e-05	
117	5.850000e+00	1.900519e-05	
118	5.900000e+00	1.877605e-05	
119	5.950000e+00	1.855304e-05	
120	6.000000e+00	1.833591e-05	
121	6.050000e+00	1.812444e-05	
122	6.100000e+00	1.791842e-05	
123	6.150000e+00	1.771762e-05	
124	6.200000e+00	1.752188e-05	
125	6.250000e+00	1.733098e-05	
126	6.300000e+00	1.714477e-05	
127	6.350000e+00	1.696307e-05	
128	6.400000e+00	1.678573e-05	
129	6.450000e+00	1.661258e-05	
130	6.500000e+00	1.644350e-05	
131	6.550000e+00	1.627833e-05	
132	6.600000e+00	1.611694e-05	
Reset re-loads circuit ***************************

Circuit: ***************************

Doing analysis at TEMP = 125.000000 and TNOM = 125.000000


No. of Data Rows : 133
                          ***************************
                          DC transfer characteristic  Mon Jan  9 13:58:39  2023
--------------------------------------------------------------------------------
Index   v-sweep         rds             
--------------------------------------------------------------------------------
0	0.000000e+00	2.454347e-03	
1	5.000000e-02	2.401163e-03	
2	1.000000e-01	2.348711e-03	
3	1.500000e-01	2.296979e-03	
4	2.000000e-01	2.245957e-03	
5	2.500000e-01	2.195632e-03	
6	3.000000e-01	2.145992e-03	
7	3.500000e-01	2.097027e-03	
8	4.000000e-01	2.048725e-03	
9	4.500000e-01	2.001075e-03	
10	5.000000e-01	1.954067e-03	
11	5.500000e-01	1.907690e-03	
12	6.000000e-01	1.861935e-03	
13	6.500000e-01	1.816789e-03	
14	7.000000e-01	1.772245e-03	
15	7.500000e-01	1.728291e-03	
16	8.000000e-01	1.684919e-03	
17	8.500000e-01	1.642118e-03	
18	9.000000e-01	1.599880e-03	
19	9.500000e-01	1.558195e-03	
20	1.000000e+00	1.517054e-03	
21	1.050000e+00	1.476449e-03	
22	1.100000e+00	1.436370e-03	
23	1.150000e+00	1.396810e-03	
24	1.200000e+00	1.357759e-03	
25	1.250000e+00	1.319210e-03	
26	1.300000e+00	1.281155e-03	
27	1.350000e+00	1.243585e-03	
28	1.400000e+00	1.206492e-03	
29	1.450000e+00	1.169869e-03	
30	1.500000e+00	1.133708e-03	
31	1.550000e+00	1.098000e-03	
32	1.600000e+00	1.062738e-03	
33	1.650000e+00	1.027915e-03	
34	1.700000e+00	9.935205e-04	
35	1.750000e+00	9.595475e-04	
36	1.800000e+00	9.259866e-04	
37	1.850000e+00	8.928282e-04	
38	1.900000e+00	8.600616e-04	
39	1.950000e+00	8.276749e-04	
40	2.000000e+00	7.956542e-04	
41	2.050000e+00	7.639828e-04	
42	2.100000e+00	7.326403e-04	
43	2.150000e+00	7.016004e-04	
44	2.200000e+00	6.708294e-04	
45	2.250000e+00	6.402817e-04	
46	2.300000e+00	6.098963e-04	
47	2.350000e+00	5.795900e-04	
48	2.400000e+00	5.492509e-04	
49	2.450000e+00	5.187328e-04	
50	2.500000e+00	4.878567e-04	
51	2.550000e+00	4.564314e-04	
52	2.600000e+00	4.243123e-04	
53	2.650000e+00	3.915091e-04	
54	2.700000e+00	3.583211e-04	

Index   v-sweep         rds             
--------------------------------------------------------------------------------
55	2.750000e+00	3.254105e-04	
56	2.800000e+00	2.937068e-04	
57	2.850000e+00	2.641464e-04	
58	2.900000e+00	2.374032e-04	
59	2.950000e+00	2.137704e-04	
60	3.000000e+00	1.932071e-04	
61	3.050000e+00	1.754616e-04	
62	3.100000e+00	1.601894e-04	
63	3.150000e+00	1.470317e-04	
64	3.200000e+00	1.356562e-04	
65	3.250000e+00	1.257738e-04	
66	3.300000e+00	1.171410e-04	
67	3.350000e+00	1.095562e-04	
68	3.400000e+00	1.028534e-04	
69	3.450000e+00	9.689705e-05	
70	3.500000e+00	9.157558e-05	
71	3.550000e+00	8.679734e-05	
72	3.600000e+00	8.248650e-05	
73	3.650000e+00	7.858011e-05	
74	3.700000e+00	7.502558e-05	
75	3.750000e+00	7.177874e-05	
76	3.800000e+00	6.880229e-05	
77	3.850000e+00	6.606457e-05	
78	3.900000e+00	6.353854e-05	
79	3.950000e+00	6.120103e-05	
80	4.000000e+00	5.903205e-05	
81	4.050000e+00	5.701428e-05	
82	4.100000e+00	5.513269e-05	
83	4.150000e+00	5.337410e-05	
84	4.200000e+00	5.172700e-05	
85	4.250000e+00	5.018123e-05	
86	4.300000e+00	4.872782e-05	
87	4.350000e+00	4.735880e-05	
88	4.400000e+00	4.606712e-05	
89	4.450000e+00	4.484645e-05	
90	4.500000e+00	4.369113e-05	
91	4.550000e+00	4.259611e-05	
92	4.600000e+00	4.155682e-05	
93	4.650000e+00	4.056913e-05	
94	4.700000e+00	3.962933e-05	
95	4.750000e+00	3.873403e-05	
96	4.800000e+00	3.788016e-05	
97	4.850000e+00	3.706494e-05	
98	4.900000e+00	3.628581e-05	
99	4.950000e+00	3.554044e-05	
100	5.000000e+00	3.482669e-05	
101	5.050000e+00	3.414260e-05	
102	5.100000e+00	3.348637e-05	
103	5.150000e+00	3.285634e-05	
104	5.200000e+00	3.225098e-05	
105	5.250000e+00	3.166888e-05	
106	5.300000e+00	3.110872e-05	
107	5.350000e+00	3.056929e-05	
108	5.400000e+00	3.004946e-05	
109	5.450000e+00	2.954820e-05	
110	5.500000e+00	2.906453e-05	
111	5.550000e+00	2.859755e-05	
112	5.600000e+00	2.814640e-05	

Index   v-sweep         rds             
--------------------------------------------------------------------------------
113	5.650000e+00	2.771030e-05	
114	5.700000e+00	2.728851e-05	
115	5.750000e+00	2.688035e-05	
116	5.800000e+00	2.648516e-05	
117	5.850000e+00	2.610235e-05	
118	5.900000e+00	2.573133e-05	
119	5.950000e+00	2.537159e-05	
120	6.000000e+00	2.502261e-05	
121	6.050000e+00	2.468392e-05	
122	6.100000e+00	2.435508e-05	
123	6.150000e+00	2.403566e-05	
124	6.200000e+00	2.372528e-05	
125	6.250000e+00	2.342355e-05	
126	6.300000e+00	2.313012e-05	
127	6.350000e+00	2.284466e-05	
128	6.400000e+00	2.256685e-05	
129	6.450000e+00	2.229639e-05	
130	6.500000e+00	2.203299e-05	
131	6.550000e+00	2.177640e-05	
132	6.600000e+00	2.152634e-05	
Reset re-loads circuit ***************************

Circuit: ***************************

Note: No ".plot", ".print", or ".fourier" lines; no simulations run
