
Note: Compatibility modes selected: hs

Warning: m=xx on .subckt line will override multiplier m hierarchy!


Circuit: ***************************

Doing analysis at TEMP = 125.000000 and TNOM = 125.000000


No. of Data Rows : 133
                          ***************************
                          DC transfer characteristic  Mon Jan  9 13:58:39  2023
--------------------------------------------------------------------------------
Index   v-sweep         rds             
--------------------------------------------------------------------------------
0	0.000000e+00	1.624667e-04	
1	5.000000e-02	1.347127e-04	
2	1.000000e-01	1.076081e-04	
3	1.500000e-01	8.131584e-05	
4	2.000000e-01	5.636448e-05	
5	2.500000e-01	3.439282e-05	
6	3.000000e-01	1.873358e-05	
7	3.500000e-01	1.074879e-05	
8	4.000000e-01	7.320316e-06	
9	4.500000e-01	5.680614e-06	
10	5.000000e-01	4.737512e-06	
11	5.500000e-01	4.113788e-06	
12	6.000000e-01	3.662747e-06	
13	6.500000e-01	3.317358e-06	
14	7.000000e-01	3.042437e-06	
15	7.500000e-01	2.817452e-06	
16	8.000000e-01	2.629436e-06	
17	8.500000e-01	2.469706e-06	
18	9.000000e-01	2.332179e-06	
19	9.500000e-01	2.212445e-06	
20	1.000000e+00	2.107211e-06	
21	1.050000e+00	2.013965e-06	
22	1.100000e+00	1.930752e-06	
23	1.150000e+00	1.856024e-06	
24	1.200000e+00	1.788542e-06	
25	1.250000e+00	1.727296e-06	
26	1.300000e+00	1.671458e-06	
27	1.350000e+00	1.620343e-06	
28	1.400000e+00	1.573374e-06	
29	1.450000e+00	1.530067e-06	
30	1.500000e+00	1.490012e-06	
31	1.550000e+00	1.452855e-06	
32	1.600000e+00	1.418294e-06	
33	1.650000e+00	1.386067e-06	
34	1.700000e+00	1.355947e-06	
35	1.750000e+00	1.327733e-06	
36	1.800000e+00	1.301252e-06	
37	1.850000e+00	1.276349e-06	
38	1.900000e+00	1.252889e-06	
39	1.950000e+00	1.230749e-06	
40	2.000000e+00	1.209823e-06	
41	2.050000e+00	1.190014e-06	
42	2.100000e+00	1.171235e-06	
43	2.150000e+00	1.153408e-06	
44	2.200000e+00	1.136465e-06	
45	2.250000e+00	1.120340e-06	
46	2.300000e+00	1.104977e-06	
47	2.350000e+00	1.090323e-06	
48	2.400000e+00	1.076331e-06	
49	2.450000e+00	1.062958e-06	
50	2.500000e+00	1.050162e-06	
51	2.550000e+00	1.037910e-06	
52	2.600000e+00	1.026166e-06	
53	2.650000e+00	1.014900e-06	
54	2.700000e+00	1.004084e-06	

Index   v-sweep         rds             
--------------------------------------------------------------------------------
55	2.750000e+00	9.936911e-07	
56	2.800000e+00	9.836982e-07	
57	2.850000e+00	9.740824e-07	
58	2.900000e+00	9.648232e-07	
59	2.950000e+00	9.559013e-07	
60	3.000000e+00	9.472987e-07	
61	3.050000e+00	9.389989e-07	
62	3.100000e+00	9.309863e-07	
63	3.150000e+00	9.232466e-07	
64	3.200000e+00	9.157661e-07	
65	3.250000e+00	9.085323e-07	
66	3.300000e+00	9.015333e-07	
67	3.350000e+00	8.947580e-07	
68	3.400000e+00	8.881961e-07	
69	3.450000e+00	8.818377e-07	
70	3.500000e+00	8.756737e-07	
71	3.550000e+00	8.696954e-07	
72	3.600000e+00	8.638947e-07	
73	3.650000e+00	8.582639e-07	
74	3.700000e+00	8.527958e-07	
75	3.750000e+00	8.474835e-07	
76	3.800000e+00	8.423206e-07	
77	3.850000e+00	8.373010e-07	
78	3.900000e+00	8.324189e-07	
79	3.950000e+00	8.276688e-07	
80	4.000000e+00	8.230456e-07	
81	4.050000e+00	8.185443e-07	
82	4.100000e+00	8.141602e-07	
83	4.150000e+00	8.098889e-07	
84	4.200000e+00	8.057262e-07	
85	4.250000e+00	8.016681e-07	
86	4.300000e+00	7.977108e-07	
87	4.350000e+00	7.938506e-07	
88	4.400000e+00	7.900841e-07	
89	4.450000e+00	7.864079e-07	
90	4.500000e+00	7.828190e-07	
91	4.550000e+00	7.793143e-07	
92	4.600000e+00	7.758909e-07	
93	4.650000e+00	7.725462e-07	
94	4.700000e+00	7.692774e-07	
95	4.750000e+00	7.660822e-07	
96	4.800000e+00	7.629580e-07	
97	4.850000e+00	7.599027e-07	
98	4.900000e+00	7.569139e-07	
99	4.950000e+00	7.539897e-07	
100	5.000000e+00	7.511279e-07	
101	5.050000e+00	7.483267e-07	
102	5.100000e+00	7.455842e-07	
103	5.150000e+00	7.428986e-07	
104	5.200000e+00	7.402682e-07	
105	5.250000e+00	7.376914e-07	
106	5.300000e+00	7.351666e-07	
107	5.350000e+00	7.326922e-07	
108	5.400000e+00	7.302668e-07	
109	5.450000e+00	7.278891e-07	
110	5.500000e+00	7.255576e-07	
111	5.550000e+00	7.232710e-07	
112	5.600000e+00	7.210282e-07	

Index   v-sweep         rds             
--------------------------------------------------------------------------------
113	5.650000e+00	7.188278e-07	
114	5.700000e+00	7.166688e-07	
115	5.750000e+00	7.145500e-07	
116	5.800000e+00	7.124703e-07	
117	5.850000e+00	7.104287e-07	
118	5.900000e+00	7.084242e-07	
119	5.950000e+00	7.064558e-07	
120	6.000000e+00	7.045226e-07	
121	6.050000e+00	7.026236e-07	
122	6.100000e+00	7.007580e-07	
123	6.150000e+00	6.989250e-07	
124	6.200000e+00	6.971236e-07	
125	6.250000e+00	6.953532e-07	
126	6.300000e+00	6.936130e-07	
127	6.350000e+00	6.919022e-07	
128	6.400000e+00	6.902201e-07	
129	6.450000e+00	6.885661e-07	
130	6.500000e+00	6.869393e-07	
131	6.550000e+00	6.853393e-07	
132	6.600000e+00	6.837654e-07	
Reset re-loads circuit ***************************

Circuit: ***************************

Doing analysis at TEMP = 125.000000 and TNOM = 125.000000


No. of Data Rows : 133
                          ***************************
                          DC transfer characteristic  Mon Jan  9 13:58:39  2023
--------------------------------------------------------------------------------
Index   v-sweep         rds             
--------------------------------------------------------------------------------
0	0.000000e+00	5.146579e-04	
1	5.000000e-02	4.829919e-04	
2	1.000000e-01	4.519522e-04	
3	1.500000e-01	4.215242e-04	
4	2.000000e-01	3.916945e-04	
5	2.500000e-01	3.624502e-04	
6	3.000000e-01	3.337798e-04	
7	3.500000e-01	3.056731e-04	
8	4.000000e-01	2.781222e-04	
9	4.500000e-01	2.511232e-04	
10	5.000000e-01	2.246783e-04	
11	5.500000e-01	1.988020e-04	
12	6.000000e-01	1.735327e-04	
13	6.500000e-01	1.489575e-04	
14	7.000000e-01	1.252668e-04	
15	7.500000e-01	1.028561e-04	
16	8.000000e-01	8.245345e-05	
17	8.500000e-01	6.506119e-05	
18	9.000000e-01	5.141691e-05	
19	9.500000e-01	4.140159e-05	
20	1.000000e+00	3.422960e-05	
21	1.050000e+00	2.903864e-05	
22	1.100000e+00	2.517952e-05	
23	1.150000e+00	2.222388e-05	
24	1.200000e+00	1.989744e-05	
25	1.250000e+00	1.802256e-05	
26	1.300000e+00	1.648110e-05	
27	1.350000e+00	1.519220e-05	
28	1.400000e+00	1.409890e-05	
29	1.450000e+00	1.316004e-05	
30	1.500000e+00	1.234519e-05	
31	1.550000e+00	1.163137e-05	
32	1.600000e+00	1.100095e-05	
33	1.650000e+00	1.044016e-05	
34	1.700000e+00	9.938093e-06	
35	1.750000e+00	9.486000e-06	
36	1.800000e+00	9.076790e-06	
37	1.850000e+00	8.704649e-06	
38	1.900000e+00	8.364769e-06	
39	1.950000e+00	8.053137e-06	
40	2.000000e+00	7.766378e-06	
41	2.050000e+00	7.501633e-06	
42	2.100000e+00	7.256467e-06	
43	2.150000e+00	7.028789e-06	
44	2.200000e+00	6.816795e-06	
45	2.250000e+00	6.618922e-06	
46	2.300000e+00	6.433807e-06	
47	2.350000e+00	6.260258e-06	
48	2.400000e+00	6.097225e-06	
49	2.450000e+00	5.943783e-06	
50	2.500000e+00	5.799111e-06	
51	2.550000e+00	5.662480e-06	
52	2.600000e+00	5.533239e-06	
53	2.650000e+00	5.410805e-06	
54	2.700000e+00	5.294656e-06	

Index   v-sweep         rds             
--------------------------------------------------------------------------------
55	2.750000e+00	5.184321e-06	
56	2.800000e+00	5.079376e-06	
57	2.850000e+00	4.979434e-06	
58	2.900000e+00	4.884149e-06	
59	2.950000e+00	4.793202e-06	
60	3.000000e+00	4.706305e-06	
61	3.050000e+00	4.623194e-06	
62	3.100000e+00	4.543627e-06	
63	3.150000e+00	4.467383e-06	
64	3.200000e+00	4.394258e-06	
65	3.250000e+00	4.324066e-06	
66	3.300000e+00	4.256634e-06	
67	3.350000e+00	4.191803e-06	
68	3.400000e+00	4.129426e-06	
69	3.450000e+00	4.069366e-06	
70	3.500000e+00	4.011497e-06	
71	3.550000e+00	3.955701e-06	
72	3.600000e+00	3.901870e-06	
73	3.650000e+00	3.849902e-06	
74	3.700000e+00	3.799702e-06	
75	3.750000e+00	3.751181e-06	
76	3.800000e+00	3.704258e-06	
77	3.850000e+00	3.658855e-06	
78	3.900000e+00	3.614898e-06	
79	3.950000e+00	3.572322e-06	
80	4.000000e+00	3.531061e-06	
81	4.050000e+00	3.491056e-06	
82	4.100000e+00	3.452251e-06	
83	4.150000e+00	3.414593e-06	
84	4.200000e+00	3.378032e-06	
85	4.250000e+00	3.342520e-06	
86	4.300000e+00	3.308014e-06	
87	4.350000e+00	3.274472e-06	
88	4.400000e+00	3.241854e-06	
89	4.450000e+00	3.210122e-06	
90	4.500000e+00	3.179241e-06	
91	4.550000e+00	3.149178e-06	
92	4.600000e+00	3.119900e-06	
93	4.650000e+00	3.091377e-06	
94	4.700000e+00	3.063582e-06	
95	4.750000e+00	3.036485e-06	
96	4.800000e+00	3.010063e-06	
97	4.850000e+00	2.984289e-06	
98	4.900000e+00	2.959140e-06	
99	4.950000e+00	2.934595e-06	
100	5.000000e+00	2.910631e-06	
101	5.050000e+00	2.887229e-06	
102	5.100000e+00	2.864369e-06	
103	5.150000e+00	2.842032e-06	
104	5.200000e+00	2.820202e-06	
105	5.250000e+00	2.798861e-06	
106	5.300000e+00	2.777993e-06	
107	5.350000e+00	2.757582e-06	
108	5.400000e+00	2.737615e-06	
109	5.450000e+00	2.718076e-06	
110	5.500000e+00	2.698952e-06	
111	5.550000e+00	2.680231e-06	
112	5.600000e+00	2.661899e-06	

Index   v-sweep         rds             
--------------------------------------------------------------------------------
113	5.650000e+00	2.643945e-06	
114	5.700000e+00	2.626358e-06	
115	5.750000e+00	2.609126e-06	
116	5.800000e+00	2.592239e-06	
117	5.850000e+00	2.575687e-06	
118	5.900000e+00	2.559460e-06	
119	5.950000e+00	2.543549e-06	
120	6.000000e+00	2.527944e-06	
121	6.050000e+00	2.512637e-06	
122	6.100000e+00	2.497620e-06	
123	6.150000e+00	2.482885e-06	
124	6.200000e+00	2.468423e-06	
125	6.250000e+00	2.454228e-06	
126	6.300000e+00	2.440292e-06	
127	6.350000e+00	2.426609e-06	
128	6.400000e+00	2.413170e-06	
129	6.450000e+00	2.399972e-06	
130	6.500000e+00	2.387006e-06	
131	6.550000e+00	2.374266e-06	
132	6.600000e+00	2.361748e-06	
Reset re-loads circuit ***************************

Circuit: ***************************

Doing analysis at TEMP = 125.000000 and TNOM = 125.000000


No. of Data Rows : 133
                          ***************************
                          DC transfer characteristic  Mon Jan  9 13:58:40  2023
--------------------------------------------------------------------------------
Index   v-sweep         rds             
--------------------------------------------------------------------------------
0	0.000000e+00	7.869270e-04	
1	5.000000e-02	7.547407e-04	
2	1.000000e-01	7.231566e-04	
3	1.500000e-01	6.921610e-04	
4	2.000000e-01	6.617408e-04	
5	2.500000e-01	6.318828e-04	
6	3.000000e-01	6.025746e-04	
7	3.500000e-01	5.738038e-04	
8	4.000000e-01	5.455585e-04	
9	4.500000e-01	5.178271e-04	
10	5.000000e-01	4.905983e-04	
11	5.500000e-01	4.638610e-04	
12	6.000000e-01	4.376046e-04	
13	6.500000e-01	4.118188e-04	
14	7.000000e-01	3.864935e-04	
15	7.500000e-01	3.616191e-04	
16	8.000000e-01	3.371861e-04	
17	8.500000e-01	3.131855e-04	
18	9.000000e-01	2.896088e-04	
19	9.500000e-01	2.664481e-04	
20	1.000000e+00	2.436966e-04	
21	1.050000e+00	2.213504e-04	
22	1.100000e+00	1.994128e-04	
23	1.150000e+00	1.779060e-04	
24	1.200000e+00	1.568999e-04	
25	1.250000e+00	1.365719e-04	
26	1.300000e+00	1.172931e-04	
27	1.350000e+00	9.965150e-05	
28	1.400000e+00	8.426892e-05	
29	1.450000e+00	7.147857e-05	
30	1.500000e+00	6.118900e-05	
31	1.550000e+00	5.302846e-05	
32	1.600000e+00	4.655362e-05	
33	1.650000e+00	4.136993e-05	
34	1.700000e+00	3.716639e-05	
35	1.750000e+00	3.371001e-05	
36	1.800000e+00	3.082923e-05	
37	1.850000e+00	2.839768e-05	
38	1.900000e+00	2.632161e-05	
39	1.950000e+00	2.453063e-05	
40	2.000000e+00	2.297119e-05	
41	2.050000e+00	2.160201e-05	
42	2.100000e+00	2.039088e-05	
43	2.150000e+00	1.931232e-05	
44	2.200000e+00	1.834599e-05	
45	2.250000e+00	1.747542e-05	
46	2.300000e+00	1.668721e-05	
47	2.350000e+00	1.597029e-05	
48	2.400000e+00	1.531549e-05	
49	2.450000e+00	1.471514e-05	
50	2.500000e+00	1.416275e-05	
51	2.550000e+00	1.365284e-05	
52	2.600000e+00	1.318071e-05	
53	2.650000e+00	1.274235e-05	
54	2.700000e+00	1.233427e-05	

Index   v-sweep         rds             
--------------------------------------------------------------------------------
55	2.750000e+00	1.195345e-05	
56	2.800000e+00	1.159726e-05	
57	2.850000e+00	1.126340e-05	
58	2.900000e+00	1.094983e-05	
59	2.950000e+00	1.065478e-05	
60	3.000000e+00	1.037665e-05	
61	3.050000e+00	1.011403e-05	
62	3.100000e+00	9.865672e-06	
63	3.150000e+00	9.630439e-06	
64	3.200000e+00	9.407325e-06	
65	3.250000e+00	9.195417e-06	
66	3.300000e+00	8.993897e-06	
67	3.350000e+00	8.802019e-06	
68	3.400000e+00	8.619111e-06	
69	3.450000e+00	8.444560e-06	
70	3.500000e+00	8.277806e-06	
71	3.550000e+00	8.118341e-06	
72	3.600000e+00	7.965698e-06	
73	3.650000e+00	7.819449e-06	
74	3.700000e+00	7.679203e-06	
75	3.750000e+00	7.544597e-06	
76	3.800000e+00	7.415300e-06	
77	3.850000e+00	7.291003e-06	
78	3.900000e+00	7.171424e-06	
79	3.950000e+00	7.056299e-06	
80	4.000000e+00	6.945385e-06	
81	4.050000e+00	6.838455e-06	
82	4.100000e+00	6.735299e-06	
83	4.150000e+00	6.635721e-06	
84	4.200000e+00	6.539539e-06	
85	4.250000e+00	6.446582e-06	
86	4.300000e+00	6.356692e-06	
87	4.350000e+00	6.269719e-06	
88	4.400000e+00	6.185524e-06	
89	4.450000e+00	6.103977e-06	
90	4.500000e+00	6.024954e-06	
91	4.550000e+00	5.948342e-06	
92	4.600000e+00	5.874031e-06	
93	4.650000e+00	5.801921e-06	
94	4.700000e+00	5.731914e-06	
95	4.750000e+00	5.663921e-06	
96	4.800000e+00	5.597856e-06	
97	4.850000e+00	5.533639e-06	
98	4.900000e+00	5.471193e-06	
99	4.950000e+00	5.410448e-06	
100	5.000000e+00	5.351333e-06	
101	5.050000e+00	5.293786e-06	
102	5.100000e+00	5.237745e-06	
103	5.150000e+00	5.183152e-06	
104	5.200000e+00	5.129952e-06	
105	5.250000e+00	5.078092e-06	
106	5.300000e+00	5.027524e-06	
107	5.350000e+00	4.978199e-06	
108	5.400000e+00	4.930072e-06	
109	5.450000e+00	4.883102e-06	
110	5.500000e+00	4.837246e-06	
111	5.550000e+00	4.792467e-06	
112	5.600000e+00	4.748727e-06	

Index   v-sweep         rds             
--------------------------------------------------------------------------------
113	5.650000e+00	4.705990e-06	
114	5.700000e+00	4.664224e-06	
115	5.750000e+00	4.623394e-06	
116	5.800000e+00	4.583472e-06	
117	5.850000e+00	4.544427e-06	
118	5.900000e+00	4.506231e-06	
119	5.950000e+00	4.468856e-06	
120	6.000000e+00	4.432278e-06	
121	6.050000e+00	4.396471e-06	
122	6.100000e+00	4.361411e-06	
123	6.150000e+00	4.327076e-06	
124	6.200000e+00	4.293443e-06	
125	6.250000e+00	4.260492e-06	
126	6.300000e+00	4.228203e-06	
127	6.350000e+00	4.196555e-06	
128	6.400000e+00	4.165531e-06	
129	6.450000e+00	4.135113e-06	
130	6.500000e+00	4.105283e-06	
131	6.550000e+00	4.076024e-06	
132	6.600000e+00	4.047322e-06	
Reset re-loads circuit ***************************

Circuit: ***************************

Doing analysis at TEMP = 125.000000 and TNOM = 125.000000


No. of Data Rows : 133
                          ***************************
                          DC transfer characteristic  Mon Jan  9 13:58:40  2023
--------------------------------------------------------------------------------
Index   v-sweep         rds             
--------------------------------------------------------------------------------
0	0.000000e+00	9.878927e-04	
1	5.000000e-02	9.568084e-04	
2	1.000000e-01	9.262552e-04	
3	1.500000e-01	8.962221e-04	
4	2.000000e-01	8.666985e-04	
5	2.500000e-01	8.376739e-04	
6	3.000000e-01	8.091381e-04	
7	3.500000e-01	7.810810e-04	
8	4.000000e-01	7.534928e-04	
9	4.500000e-01	7.263640e-04	
10	5.000000e-01	6.996851e-04	
11	5.500000e-01	6.734469e-04	
12	6.000000e-01	6.476406e-04	
13	6.500000e-01	6.222572e-04	
14	7.000000e-01	5.972883e-04	
15	7.500000e-01	5.727253e-04	
16	8.000000e-01	5.485600e-04	
17	8.500000e-01	5.247842e-04	
18	9.000000e-01	5.013900e-04	
19	9.500000e-01	4.783694e-04	
20	1.000000e+00	4.557143e-04	
21	1.050000e+00	4.334168e-04	
22	1.100000e+00	4.114687e-04	
23	1.150000e+00	3.898613e-04	
24	1.200000e+00	3.685854e-04	
25	1.250000e+00	3.476305e-04	
26	1.300000e+00	3.269848e-04	
27	1.350000e+00	3.066334e-04	
28	1.400000e+00	2.865577e-04	
29	1.450000e+00	2.667329e-04	
30	1.500000e+00	2.471260e-04	
31	1.550000e+00	2.276945e-04	
32	1.600000e+00	2.083893e-04	
33	1.650000e+00	1.891731e-04	
34	1.700000e+00	1.700685e-04	
35	1.750000e+00	1.512451e-04	
36	1.800000e+00	1.330997e-04	
37	1.850000e+00	1.162171e-04	
38	1.900000e+00	1.011554e-04	
39	1.950000e+00	8.821539e-05	
40	2.000000e+00	7.738261e-05	
41	2.050000e+00	6.843045e-05	
42	2.100000e+00	6.105254e-05	
43	2.150000e+00	5.494865e-05	
44	2.200000e+00	4.986109e-05	
45	2.250000e+00	4.558200e-05	
46	2.300000e+00	4.194842e-05	
47	2.350000e+00	3.883393e-05	
48	2.400000e+00	3.614054e-05	
49	2.450000e+00	3.379195e-05	
50	2.500000e+00	3.172836e-05	
51	2.550000e+00	2.990247e-05	
52	2.600000e+00	2.827656e-05	
53	2.650000e+00	2.682024e-05	
54	2.700000e+00	2.550884e-05	

Index   v-sweep         rds             
--------------------------------------------------------------------------------
55	2.750000e+00	2.432214e-05	
56	2.800000e+00	2.324346e-05	
57	2.850000e+00	2.225891e-05	
58	2.900000e+00	2.135683e-05	
59	2.950000e+00	2.052741e-05	
60	3.000000e+00	1.976231e-05	
61	3.050000e+00	1.905439e-05	
62	3.100000e+00	1.839753e-05	
63	3.150000e+00	1.778646e-05	
64	3.200000e+00	1.721658e-05	
65	3.250000e+00	1.668389e-05	
66	3.300000e+00	1.618490e-05	
67	3.350000e+00	1.571652e-05	
68	3.400000e+00	1.527604e-05	
69	3.450000e+00	1.486105e-05	
70	3.500000e+00	1.446941e-05	
71	3.550000e+00	1.409922e-05	
72	3.600000e+00	1.374877e-05	
73	3.650000e+00	1.341653e-05	
74	3.700000e+00	1.310113e-05	
75	3.750000e+00	1.280131e-05	
76	3.800000e+00	1.251596e-05	
77	3.850000e+00	1.224405e-05	
78	3.900000e+00	1.198468e-05	
79	3.950000e+00	1.173698e-05	
80	4.000000e+00	1.150019e-05	
81	4.050000e+00	1.127362e-05	
82	4.100000e+00	1.105660e-05	
83	4.150000e+00	1.084857e-05	
84	4.200000e+00	1.064896e-05	
85	4.250000e+00	1.045728e-05	
86	4.300000e+00	1.027307e-05	
87	4.350000e+00	1.009590e-05	
88	4.400000e+00	9.925376e-06	
89	4.450000e+00	9.761133e-06	
90	4.500000e+00	9.602830e-06	
91	4.550000e+00	9.450152e-06	
92	4.600000e+00	9.302805e-06	
93	4.650000e+00	9.160516e-06	
94	4.700000e+00	9.023029e-06	
95	4.750000e+00	8.890107e-06	
96	4.800000e+00	8.761526e-06	
97	4.850000e+00	8.637078e-06	
98	4.900000e+00	8.516567e-06	
99	4.950000e+00	8.399810e-06	
100	5.000000e+00	8.286635e-06	
101	5.050000e+00	8.176881e-06	
102	5.100000e+00	8.070396e-06	
103	5.150000e+00	7.967035e-06	
104	5.200000e+00	7.866664e-06	
105	5.250000e+00	7.769157e-06	
106	5.300000e+00	7.674392e-06	
107	5.350000e+00	7.582257e-06	
108	5.400000e+00	7.492643e-06	
109	5.450000e+00	7.405450e-06	
110	5.500000e+00	7.320582e-06	
111	5.550000e+00	7.237947e-06	
112	5.600000e+00	7.157460e-06	

Index   v-sweep         rds             
--------------------------------------------------------------------------------
113	5.650000e+00	7.079037e-06	
114	5.700000e+00	7.002602e-06	
115	5.750000e+00	6.928080e-06	
116	5.800000e+00	6.855401e-06	
117	5.850000e+00	6.784499e-06	
118	5.900000e+00	6.715309e-06	
119	5.950000e+00	6.647771e-06	
120	6.000000e+00	6.581828e-06	
121	6.050000e+00	6.517424e-06	
122	6.100000e+00	6.454507e-06	
123	6.150000e+00	6.393026e-06	
124	6.200000e+00	6.332934e-06	
125	6.250000e+00	6.274185e-06	
126	6.300000e+00	6.216734e-06	
127	6.350000e+00	6.160541e-06	
128	6.400000e+00	6.105565e-06	
129	6.450000e+00	6.051768e-06	
130	6.500000e+00	5.999112e-06	
131	6.550000e+00	5.947564e-06	
132	6.600000e+00	5.897088e-06	
Reset re-loads circuit ***************************

Circuit: ***************************

Doing analysis at TEMP = 125.000000 and TNOM = 125.000000


No. of Data Rows : 133
                          ***************************
                          DC transfer characteristic  Mon Jan  9 13:58:40  2023
--------------------------------------------------------------------------------
Index   v-sweep         rds             
--------------------------------------------------------------------------------
0	0.000000e+00	1.134500e-03	
1	5.000000e-02	1.105396e-03	
2	1.000000e-01	1.076738e-03	
3	1.500000e-01	1.048521e-03	
4	2.000000e-01	1.020734e-03	
5	2.500000e-01	9.933709e-04	
6	3.000000e-01	9.664232e-04	
7	3.500000e-01	9.398834e-04	
8	4.000000e-01	9.137439e-04	
9	4.500000e-01	8.879975e-04	
10	5.000000e-01	8.626369e-04	
11	5.500000e-01	8.376549e-04	
12	6.000000e-01	8.130447e-04	
13	6.500000e-01	7.887995e-04	
14	7.000000e-01	7.649126e-04	
15	7.500000e-01	7.413774e-04	
16	8.000000e-01	7.181874e-04	
17	8.500000e-01	6.953365e-04	
18	9.000000e-01	6.728184e-04	
19	9.500000e-01	6.506271e-04	
20	1.000000e+00	6.287566e-04	
21	1.050000e+00	6.072010e-04	
22	1.100000e+00	5.859545e-04	
23	1.150000e+00	5.650115e-04	
24	1.200000e+00	5.443662e-04	
25	1.250000e+00	5.240130e-04	
26	1.300000e+00	5.039461e-04	
27	1.350000e+00	4.841597e-04	
28	1.400000e+00	4.646478e-04	
29	1.450000e+00	4.454043e-04	
30	1.500000e+00	4.264223e-04	
31	1.550000e+00	4.076946e-04	
32	1.600000e+00	3.892127e-04	
33	1.650000e+00	3.709668e-04	
34	1.700000e+00	3.529449e-04	
35	1.750000e+00	3.351316e-04	
36	1.800000e+00	3.175069e-04	
37	1.850000e+00	3.000438e-04	
38	1.900000e+00	2.827051e-04	
39	1.950000e+00	2.654405e-04	
40	2.000000e+00	2.481830e-04	
41	2.050000e+00	2.308504e-04	
42	2.100000e+00	2.133591e-04	
43	2.150000e+00	1.956626e-04	
44	2.200000e+00	1.778242e-04	
45	2.250000e+00	1.600990e-04	
46	2.300000e+00	1.429511e-04	
47	2.350000e+00	1.269393e-04	
48	2.400000e+00	1.125224e-04	
49	2.450000e+00	9.992489e-05	
50	2.500000e+00	8.913646e-05	
51	2.550000e+00	7.999397e-05	
52	2.600000e+00	7.227010e-05	
53	2.650000e+00	6.573231e-05	
54	2.700000e+00	6.017140e-05	

Index   v-sweep         rds             
--------------------------------------------------------------------------------
55	2.750000e+00	5.541081e-05	
56	2.800000e+00	5.130622e-05	
57	2.850000e+00	4.774145e-05	
58	2.900000e+00	4.462348e-05	
59	2.950000e+00	4.187782e-05	
60	3.000000e+00	3.944461e-05	
61	3.050000e+00	3.727550e-05	
62	3.100000e+00	3.533118e-05	
63	3.150000e+00	3.357948e-05	
64	3.200000e+00	3.199389e-05	
65	3.250000e+00	3.055240e-05	
66	3.300000e+00	2.923665e-05	
67	3.350000e+00	2.803118e-05	
68	3.400000e+00	2.692291e-05	
69	3.450000e+00	2.590074e-05	
70	3.500000e+00	2.495515e-05	
71	3.550000e+00	2.407796e-05	
72	3.600000e+00	2.326209e-05	
73	3.650000e+00	2.250140e-05	
74	3.700000e+00	2.179054e-05	
75	3.750000e+00	2.112481e-05	
76	3.800000e+00	2.050009e-05	
77	3.850000e+00	1.991272e-05	
78	3.900000e+00	1.935950e-05	
79	3.950000e+00	1.883753e-05	
80	4.000000e+00	1.834427e-05	
81	4.050000e+00	1.787743e-05	
82	4.100000e+00	1.743495e-05	
83	4.150000e+00	1.701499e-05	
84	4.200000e+00	1.661588e-05	
85	4.250000e+00	1.623611e-05	
86	4.300000e+00	1.587432e-05	
87	4.350000e+00	1.552927e-05	
88	4.400000e+00	1.519982e-05	
89	4.450000e+00	1.488495e-05	
90	4.500000e+00	1.458371e-05	
91	4.550000e+00	1.429525e-05	
92	4.600000e+00	1.401876e-05	
93	4.650000e+00	1.375353e-05	
94	4.700000e+00	1.349887e-05	
95	4.750000e+00	1.325418e-05	
96	4.800000e+00	1.301888e-05	
97	4.850000e+00	1.279245e-05	
98	4.900000e+00	1.257438e-05	
99	4.950000e+00	1.236424e-05	
100	5.000000e+00	1.216159e-05	
101	5.050000e+00	1.196605e-05	
102	5.100000e+00	1.177725e-05	
103	5.150000e+00	1.159484e-05	
104	5.200000e+00	1.141851e-05	
105	5.250000e+00	1.124796e-05	
106	5.300000e+00	1.108292e-05	
107	5.350000e+00	1.092311e-05	
108	5.400000e+00	1.076831e-05	
109	5.450000e+00	1.061827e-05	
110	5.500000e+00	1.047278e-05	
111	5.550000e+00	1.033164e-05	
112	5.600000e+00	1.019466e-05	

Index   v-sweep         rds             
--------------------------------------------------------------------------------
113	5.650000e+00	1.006165e-05	
114	5.700000e+00	9.932458e-06	
115	5.750000e+00	9.806910e-06	
116	5.800000e+00	9.684858e-06	
117	5.850000e+00	9.566159e-06	
118	5.900000e+00	9.450679e-06	
119	5.950000e+00	9.338289e-06	
120	6.000000e+00	9.228868e-06	
121	6.050000e+00	9.122301e-06	
122	6.100000e+00	9.018478e-06	
123	6.150000e+00	8.917298e-06	
124	6.200000e+00	8.818660e-06	
125	6.250000e+00	8.722472e-06	
126	6.300000e+00	8.628645e-06	
127	6.350000e+00	8.537094e-06	
128	6.400000e+00	8.447738e-06	
129	6.450000e+00	8.360501e-06	
130	6.500000e+00	8.275309e-06	
131	6.550000e+00	8.192093e-06	
132	6.600000e+00	8.110786e-06	
Reset re-loads circuit ***************************

Circuit: ***************************

Doing analysis at TEMP = 125.000000 and TNOM = 125.000000


No. of Data Rows : 133
                          ***************************
                          DC transfer characteristic  Mon Jan  9 13:58:40  2023
--------------------------------------------------------------------------------
Index   v-sweep         rds             
--------------------------------------------------------------------------------
0	0.000000e+00	1.228699e-03	
1	5.000000e-02	1.202139e-03	
2	1.000000e-01	1.175944e-03	
3	1.500000e-01	1.150108e-03	
4	2.000000e-01	1.124625e-03	
5	2.500000e-01	1.099489e-03	
6	3.000000e-01	1.074695e-03	
7	3.500000e-01	1.050237e-03	
8	4.000000e-01	1.026108e-03	
9	4.500000e-01	1.002305e-03	
10	5.000000e-01	9.788213e-04	
11	5.500000e-01	9.556520e-04	
12	6.000000e-01	9.327919e-04	
13	6.500000e-01	9.102360e-04	
14	7.000000e-01	8.879793e-04	
15	7.500000e-01	8.660170e-04	
16	8.000000e-01	8.443441e-04	
17	8.500000e-01	8.229561e-04	
18	9.000000e-01	8.018483e-04	
19	9.500000e-01	7.810161e-04	
20	1.000000e+00	7.604551e-04	
21	1.050000e+00	7.401608e-04	
22	1.100000e+00	7.201290e-04	
23	1.150000e+00	7.003555e-04	
24	1.200000e+00	6.808360e-04	
25	1.250000e+00	6.615665e-04	
26	1.300000e+00	6.425428e-04	
27	1.350000e+00	6.237611e-04	
28	1.400000e+00	6.052174e-04	
29	1.450000e+00	5.869077e-04	
30	1.500000e+00	5.688282e-04	
31	1.550000e+00	5.509749e-04	
32	1.600000e+00	5.333440e-04	
33	1.650000e+00	5.159314e-04	
34	1.700000e+00	4.987331e-04	
35	1.750000e+00	4.817449e-04	
36	1.800000e+00	4.649624e-04	
37	1.850000e+00	4.483807e-04	
38	1.900000e+00	4.319948e-04	
39	1.950000e+00	4.157987e-04	
40	2.000000e+00	3.997857e-04	
41	2.050000e+00	3.839477e-04	
42	2.100000e+00	3.682748e-04	
43	2.150000e+00	3.527544e-04	
44	2.200000e+00	3.373702e-04	
45	2.250000e+00	3.221006e-04	
46	2.300000e+00	3.069161e-04	
47	2.350000e+00	2.917772e-04	
48	2.400000e+00	2.766300e-04	
49	2.450000e+00	2.614044e-04	
50	2.500000e+00	2.460131e-04	
51	2.550000e+00	2.303610e-04	
52	2.600000e+00	2.143710e-04	
53	2.650000e+00	1.980346e-04	
54	2.700000e+00	1.814788e-04	

Index   v-sweep         rds             
--------------------------------------------------------------------------------
55	2.750000e+00	1.650101e-04	
56	2.800000e+00	1.490788e-04	
57	2.850000e+00	1.341586e-04	
58	2.900000e+00	1.206070e-04	
59	2.950000e+00	1.085954e-04	
60	3.000000e+00	9.812287e-05	
61	3.050000e+00	8.907494e-05	
62	3.100000e+00	8.128409e-05	
63	3.150000e+00	7.457136e-05	
64	3.200000e+00	6.876909e-05	
65	3.250000e+00	6.373032e-05	
66	3.300000e+00	5.933073e-05	
67	3.350000e+00	5.546714e-05	
68	3.400000e+00	5.205470e-05	
69	3.450000e+00	4.902380e-05	
70	3.500000e+00	4.631732e-05	
71	3.550000e+00	4.388828e-05	
72	3.600000e+00	4.169784e-05	
73	3.650000e+00	3.971375e-05	
74	3.700000e+00	3.790909e-05	
75	3.750000e+00	3.626126e-05	
76	3.800000e+00	3.475118e-05	
77	3.850000e+00	3.336268e-05	
78	3.900000e+00	3.208193e-05	
79	3.950000e+00	3.089710e-05	
80	4.000000e+00	2.979799e-05	
81	4.050000e+00	2.877576e-05	
82	4.100000e+00	2.782274e-05	
83	4.150000e+00	2.693223e-05	
84	4.200000e+00	2.609835e-05	
85	4.250000e+00	2.531591e-05	
86	4.300000e+00	2.458037e-05	
87	4.350000e+00	2.388766e-05	
88	4.400000e+00	2.323419e-05	
89	4.450000e+00	2.261674e-05	
90	4.500000e+00	2.203244e-05	
91	4.550000e+00	2.147871e-05	
92	4.600000e+00	2.095323e-05	
93	4.650000e+00	2.045391e-05	
94	4.700000e+00	1.997885e-05	
95	4.750000e+00	1.952635e-05	
96	4.800000e+00	1.909483e-05	
97	4.850000e+00	1.868289e-05	
98	4.900000e+00	1.828923e-05	
99	4.950000e+00	1.791266e-05	
100	5.000000e+00	1.755209e-05	
101	5.050000e+00	1.720655e-05	
102	5.100000e+00	1.687510e-05	
103	5.150000e+00	1.655692e-05	
104	5.200000e+00	1.625122e-05	
105	5.250000e+00	1.595728e-05	
106	5.300000e+00	1.567445e-05	
107	5.350000e+00	1.540210e-05	
108	5.400000e+00	1.513967e-05	
109	5.450000e+00	1.488663e-05	
110	5.500000e+00	1.464248e-05	
111	5.550000e+00	1.440677e-05	
112	5.600000e+00	1.417906e-05	

Index   v-sweep         rds             
--------------------------------------------------------------------------------
113	5.650000e+00	1.395897e-05	
114	5.700000e+00	1.374611e-05	
115	5.750000e+00	1.354014e-05	
116	5.800000e+00	1.334072e-05	
117	5.850000e+00	1.314756e-05	
118	5.900000e+00	1.296036e-05	
119	5.950000e+00	1.277886e-05	
120	6.000000e+00	1.260279e-05	
121	6.050000e+00	1.243192e-05	
122	6.100000e+00	1.226603e-05	
123	6.150000e+00	1.210491e-05	
124	6.200000e+00	1.194834e-05	
125	6.250000e+00	1.179614e-05	
126	6.300000e+00	1.164814e-05	
127	6.350000e+00	1.150416e-05	
128	6.400000e+00	1.136405e-05	
129	6.450000e+00	1.122765e-05	
130	6.500000e+00	1.109481e-05	
131	6.550000e+00	1.096541e-05	
132	6.600000e+00	1.083931e-05	
Reset re-loads circuit ***************************

Circuit: ***************************

Note: No ".plot", ".print", or ".fourier" lines; no simulations run
