
Note: Compatibility modes selected: hs

Warning: m=xx on .subckt line will override multiplier m hierarchy!


Circuit: ***************************

Doing analysis at TEMP = 125.000000 and TNOM = 125.000000


No. of Data Rows : 133
                          ***************************
                          DC transfer characteristic  Mon Jan  9 13:58:39  2023
--------------------------------------------------------------------------------
Index   v-sweep         rds             
--------------------------------------------------------------------------------
0	0.000000e+00	1.538548e-05	
1	5.000000e-02	1.333559e-05	
2	1.000000e-01	1.129450e-05	
3	1.500000e-01	9.266021e-06	
4	2.000000e-01	7.259497e-06	
5	2.500000e-01	5.300142e-06	
6	3.000000e-01	3.458899e-06	
7	3.500000e-01	1.909778e-06	
8	4.000000e-01	8.885583e-07	
9	4.500000e-01	3.960984e-07	
10	5.000000e-01	1.969058e-07	
11	5.500000e-01	1.152247e-07	
12	6.000000e-01	7.823919e-08	
13	6.500000e-01	5.955429e-08	
14	7.000000e-01	4.916430e-08	
15	7.500000e-01	4.291088e-08	
16	8.000000e-01	3.889622e-08	
17	8.500000e-01	3.617901e-08	
18	9.000000e-01	3.425796e-08	
19	9.500000e-01	3.284948e-08	
20	1.000000e+00	3.178467e-08	
21	1.050000e+00	3.095844e-08	
22	1.100000e+00	3.030287e-08	
23	1.150000e+00	2.977260e-08	
24	1.200000e+00	2.933644e-08	
25	1.250000e+00	2.897239e-08	
26	1.300000e+00	2.866460e-08	
27	1.350000e+00	2.840138e-08	
28	1.400000e+00	2.817400e-08	
29	1.450000e+00	2.797579e-08	
30	1.500000e+00	2.780160e-08	
31	1.550000e+00	2.764741e-08	
32	1.600000e+00	2.751002e-08	
33	1.650000e+00	2.738686e-08	
34	1.700000e+00	2.727585e-08	
35	1.750000e+00	2.717531e-08	
36	1.800000e+00	2.708383e-08	
37	1.850000e+00	2.700024e-08	
38	1.900000e+00	2.692357e-08	
39	1.950000e+00	2.685300e-08	
40	2.000000e+00	2.678784e-08	
41	2.050000e+00	2.672747e-08	
42	2.100000e+00	2.667140e-08	
43	2.150000e+00	2.661918e-08	
44	2.200000e+00	2.657042e-08	
45	2.250000e+00	2.652480e-08	
46	2.300000e+00	2.648201e-08	
47	2.350000e+00	2.644181e-08	
48	2.400000e+00	2.640395e-08	
49	2.450000e+00	2.636825e-08	
50	2.500000e+00	2.633452e-08	
51	2.550000e+00	2.630260e-08	
52	2.600000e+00	2.627236e-08	
53	2.650000e+00	2.624365e-08	
54	2.700000e+00	2.621637e-08	

Index   v-sweep         rds             
--------------------------------------------------------------------------------
55	2.750000e+00	2.619041e-08	
56	2.800000e+00	2.616568e-08	
57	2.850000e+00	2.614209e-08	
58	2.900000e+00	2.611957e-08	
59	2.950000e+00	2.609804e-08	
60	3.000000e+00	2.607744e-08	
61	3.050000e+00	2.605771e-08	
62	3.100000e+00	2.603879e-08	
63	3.150000e+00	2.602064e-08	
64	3.200000e+00	2.600322e-08	
65	3.250000e+00	2.598646e-08	
66	3.300000e+00	2.597035e-08	
67	3.350000e+00	2.595484e-08	
68	3.400000e+00	2.593990e-08	
69	3.450000e+00	2.592550e-08	
70	3.500000e+00	2.591162e-08	
71	3.550000e+00	2.589821e-08	
72	3.600000e+00	2.588526e-08	
73	3.650000e+00	2.587275e-08	
74	3.700000e+00	2.586065e-08	
75	3.750000e+00	2.584894e-08	
76	3.800000e+00	2.583761e-08	
77	3.850000e+00	2.582664e-08	
78	3.900000e+00	2.581601e-08	
79	3.950000e+00	2.580570e-08	
80	4.000000e+00	2.579570e-08	
81	4.050000e+00	2.578600e-08	
82	4.100000e+00	2.577658e-08	
83	4.150000e+00	2.576743e-08	
84	4.200000e+00	2.575854e-08	
85	4.250000e+00	2.574991e-08	
86	4.300000e+00	2.574150e-08	
87	4.350000e+00	2.573333e-08	
88	4.400000e+00	2.572538e-08	
89	4.450000e+00	2.571764e-08	
90	4.500000e+00	2.571010e-08	
91	4.550000e+00	2.570275e-08	
92	4.600000e+00	2.569560e-08	
93	4.650000e+00	2.568862e-08	
94	4.700000e+00	2.568182e-08	
95	4.750000e+00	2.567518e-08	
96	4.800000e+00	2.566870e-08	
97	4.850000e+00	2.566239e-08	
98	4.900000e+00	2.565622e-08	
99	4.950000e+00	2.565019e-08	
100	5.000000e+00	2.564430e-08	
101	5.050000e+00	2.563855e-08	
102	5.100000e+00	2.563293e-08	
103	5.150000e+00	2.562744e-08	
104	5.200000e+00	2.562207e-08	
105	5.250000e+00	2.561681e-08	
106	5.300000e+00	2.561167e-08	
107	5.350000e+00	2.560664e-08	
108	5.400000e+00	2.560171e-08	
109	5.450000e+00	2.559689e-08	
110	5.500000e+00	2.559217e-08	
111	5.550000e+00	2.558755e-08	
112	5.600000e+00	2.558302e-08	

Index   v-sweep         rds             
--------------------------------------------------------------------------------
113	5.650000e+00	2.557859e-08	
114	5.700000e+00	2.557424e-08	
115	5.750000e+00	2.556997e-08	
116	5.800000e+00	2.556580e-08	
117	5.850000e+00	2.556170e-08	
118	5.900000e+00	2.555768e-08	
119	5.950000e+00	2.555374e-08	
120	6.000000e+00	2.554987e-08	
121	6.050000e+00	2.554608e-08	
122	6.100000e+00	2.554235e-08	
123	6.150000e+00	2.553869e-08	
124	6.200000e+00	2.553511e-08	
125	6.250000e+00	2.553158e-08	
126	6.300000e+00	2.552812e-08	
127	6.350000e+00	2.552472e-08	
128	6.400000e+00	2.552138e-08	
129	6.450000e+00	2.551810e-08	
130	6.500000e+00	2.551487e-08	
131	6.550000e+00	2.551170e-08	
132	6.600000e+00	2.550859e-08	
Reset re-loads circuit ***************************

Circuit: ***************************

Doing analysis at TEMP = 125.000000 and TNOM = 125.000000


No. of Data Rows : 133
                          ***************************
                          DC transfer characteristic  Mon Jan  9 13:58:39  2023
--------------------------------------------------------------------------------
Index   v-sweep         rds             
--------------------------------------------------------------------------------
0	0.000000e+00	4.690007e-05	
1	5.000000e-02	4.479857e-05	
2	1.000000e-01	4.270275e-05	
3	1.500000e-01	4.061262e-05	
4	2.000000e-01	3.852817e-05	
5	2.500000e-01	3.644942e-05	
6	3.000000e-01	3.437639e-05	
7	3.500000e-01	3.230912e-05	
8	4.000000e-01	3.024769e-05	
9	4.500000e-01	2.819219e-05	
10	5.000000e-01	2.614277e-05	
11	5.500000e-01	2.409970e-05	
12	6.000000e-01	2.206337e-05	
13	6.500000e-01	2.003442e-05	
14	7.000000e-01	1.801391e-05	
15	7.500000e-01	1.600365e-05	
16	8.000000e-01	1.400683e-05	
17	8.500000e-01	1.202921e-05	
18	9.000000e-01	1.008156e-05	
19	9.500000e-01	8.184181e-06	
20	1.000000e+00	6.374544e-06	
21	1.050000e+00	4.716186e-06	
22	1.100000e+00	3.297004e-06	
23	1.150000e+00	2.196433e-06	
24	1.200000e+00	1.431681e-06	
25	1.250000e+00	9.450213e-07	
26	1.300000e+00	6.488013e-07	
27	1.350000e+00	4.691051e-07	
28	1.400000e+00	3.575911e-07	
29	1.450000e+00	2.859456e-07	
30	1.500000e+00	2.381380e-07	
31	1.550000e+00	2.050464e-07	
32	1.600000e+00	1.813588e-07	
33	1.650000e+00	1.638863e-07	
34	1.700000e+00	1.506523e-07	
35	1.750000e+00	1.403926e-07	
36	1.800000e+00	1.322742e-07	
37	1.850000e+00	1.257336e-07	
38	1.900000e+00	1.203798e-07	
39	1.950000e+00	1.159354e-07	
40	2.000000e+00	1.121995e-07	
41	2.050000e+00	1.090239e-07	
42	2.100000e+00	1.062975e-07	
43	2.150000e+00	1.039357e-07	
44	2.200000e+00	1.018730e-07	
45	2.250000e+00	1.000583e-07	
46	2.300000e+00	9.845116e-08	
47	2.350000e+00	9.701909e-08	
48	2.400000e+00	9.573596e-08	
49	2.450000e+00	9.458040e-08	
50	2.500000e+00	9.353486e-08	
51	2.550000e+00	9.258477e-08	
52	2.600000e+00	9.171797e-08	
53	2.650000e+00	9.092423e-08	
54	2.700000e+00	9.019491e-08	

Index   v-sweep         rds             
--------------------------------------------------------------------------------
55	2.750000e+00	8.952263e-08	
56	2.800000e+00	8.890110e-08	
57	2.850000e+00	8.832488e-08	
58	2.900000e+00	8.778929e-08	
59	2.950000e+00	8.729024e-08	
60	3.000000e+00	8.682418e-08	
61	3.050000e+00	8.638799e-08	
62	3.100000e+00	8.597893e-08	
63	3.150000e+00	8.559458e-08	
64	3.200000e+00	8.523280e-08	
65	3.250000e+00	8.489167e-08	
66	3.300000e+00	8.456950e-08	
67	3.350000e+00	8.426477e-08	
68	3.400000e+00	8.397611e-08	
69	3.450000e+00	8.370229e-08	
70	3.500000e+00	8.344222e-08	
71	3.550000e+00	8.319489e-08	
72	3.600000e+00	8.295939e-08	
73	3.650000e+00	8.273490e-08	
74	3.700000e+00	8.252068e-08	
75	3.750000e+00	8.231604e-08	
76	3.800000e+00	8.212035e-08	
77	3.850000e+00	8.193305e-08	
78	3.900000e+00	8.175360e-08	
79	3.950000e+00	8.158154e-08	
80	4.000000e+00	8.141641e-08	
81	4.050000e+00	8.125781e-08	
82	4.100000e+00	8.110536e-08	
83	4.150000e+00	8.095871e-08	
84	4.200000e+00	8.081753e-08	
85	4.250000e+00	8.068154e-08	
86	4.300000e+00	8.055044e-08	
87	4.350000e+00	8.042398e-08	
88	4.400000e+00	8.030193e-08	
89	4.450000e+00	8.018404e-08	
90	4.500000e+00	8.007013e-08	
91	4.550000e+00	7.995998e-08	
92	4.600000e+00	7.985342e-08	
93	4.650000e+00	7.975027e-08	
94	4.700000e+00	7.965038e-08	
95	4.750000e+00	7.955359e-08	
96	4.800000e+00	7.945976e-08	
97	4.850000e+00	7.936876e-08	
98	4.900000e+00	7.928046e-08	
99	4.950000e+00	7.919475e-08	
100	5.000000e+00	7.911150e-08	
101	5.050000e+00	7.903063e-08	
102	5.100000e+00	7.895202e-08	
103	5.150000e+00	7.887559e-08	
104	5.200000e+00	7.880125e-08	
105	5.250000e+00	7.872890e-08	
106	5.300000e+00	7.865848e-08	
107	5.350000e+00	7.858991e-08	
108	5.400000e+00	7.852311e-08	
109	5.450000e+00	7.845802e-08	
110	5.500000e+00	7.839458e-08	
111	5.550000e+00	7.833271e-08	
112	5.600000e+00	7.827237e-08	

Index   v-sweep         rds             
--------------------------------------------------------------------------------
113	5.650000e+00	7.821350e-08	
114	5.700000e+00	7.815604e-08	
115	5.750000e+00	7.809995e-08	
116	5.800000e+00	7.804518e-08	
117	5.850000e+00	7.799168e-08	
118	5.900000e+00	7.793941e-08	
119	5.950000e+00	7.788833e-08	
120	6.000000e+00	7.783839e-08	
121	6.050000e+00	7.778956e-08	
122	6.100000e+00	7.774180e-08	
123	6.150000e+00	7.769508e-08	
124	6.200000e+00	7.764937e-08	
125	6.250000e+00	7.760462e-08	
126	6.300000e+00	7.756082e-08	
127	6.350000e+00	7.751794e-08	
128	6.400000e+00	7.747593e-08	
129	6.450000e+00	7.743479e-08	
130	6.500000e+00	7.739447e-08	
131	6.550000e+00	7.735497e-08	
132	6.600000e+00	7.731624e-08	
Reset re-loads circuit ***************************

Circuit: ***************************

Doing analysis at TEMP = 125.000000 and TNOM = 125.000000


No. of Data Rows : 133
                          ***************************
                          DC transfer characteristic  Mon Jan  9 13:58:40  2023
--------------------------------------------------------------------------------
Index   v-sweep         rds             
--------------------------------------------------------------------------------
0	0.000000e+00	7.320304e-05	
1	5.000000e-02	7.124166e-05	
2	1.000000e-01	6.928540e-05	
3	1.500000e-01	6.733424e-05	
4	2.000000e-01	6.538816e-05	
5	2.500000e-01	6.344715e-05	
6	3.000000e-01	6.151118e-05	
7	3.500000e-01	5.958026e-05	
8	4.000000e-01	5.765435e-05	
9	4.500000e-01	5.573346e-05	
10	5.000000e-01	5.381755e-05	
11	5.500000e-01	5.190662e-05	
12	6.000000e-01	5.000066e-05	
13	6.500000e-01	4.809966e-05	
14	7.000000e-01	4.620360e-05	
15	7.500000e-01	4.431248e-05	
16	8.000000e-01	4.242630e-05	
17	8.500000e-01	4.054504e-05	
18	9.000000e-01	3.866872e-05	
19	9.500000e-01	3.679735e-05	
20	1.000000e+00	3.493094e-05	
21	1.050000e+00	3.306952e-05	
22	1.100000e+00	3.121315e-05	
23	1.150000e+00	2.936192e-05	
24	1.200000e+00	2.751593e-05	
25	1.250000e+00	2.567538e-05	
26	1.300000e+00	2.384056e-05	
27	1.350000e+00	2.201191e-05	
28	1.400000e+00	2.019014e-05	
29	1.450000e+00	1.837637e-05	
30	1.500000e+00	1.657243e-05	
31	1.550000e+00	1.478134e-05	
32	1.600000e+00	1.300815e-05	
33	1.650000e+00	1.126143e-05	
34	1.700000e+00	9.555491e-06	
35	1.750000e+00	7.913633e-06	
36	1.800000e+00	6.371222e-06	
37	1.850000e+00	4.975373e-06	
38	1.900000e+00	3.776029e-06	
39	1.950000e+00	2.807604e-06	
40	2.000000e+00	2.072469e-06	
41	2.050000e+00	1.541187e-06	
42	2.100000e+00	1.168324e-06	
43	2.150000e+00	9.091420e-07	
44	2.200000e+00	7.280064e-07	
45	2.250000e+00	5.995375e-07	
46	2.300000e+00	5.066303e-07	
47	2.350000e+00	4.380030e-07	
48	2.400000e+00	3.862298e-07	
49	2.450000e+00	3.463798e-07	
50	2.500000e+00	3.151309e-07	
51	2.550000e+00	2.902059e-07	
52	2.600000e+00	2.700155e-07	
53	2.650000e+00	2.534303e-07	
54	2.700000e+00	2.396336e-07	

Index   v-sweep         rds             
--------------------------------------------------------------------------------
55	2.750000e+00	2.280251e-07	
56	2.800000e+00	2.181565e-07	
57	2.850000e+00	2.096885e-07	
58	2.900000e+00	2.023605e-07	
59	2.950000e+00	1.959698e-07	
60	3.000000e+00	1.903573e-07	
61	3.050000e+00	1.853964e-07	
62	3.100000e+00	1.809855e-07	
63	3.150000e+00	1.770423e-07	
64	3.200000e+00	1.734996e-07	
65	3.250000e+00	1.703019e-07	
66	3.300000e+00	1.674035e-07	
67	3.350000e+00	1.647657e-07	
68	3.400000e+00	1.623563e-07	
69	3.450000e+00	1.601481e-07	
70	3.500000e+00	1.581176e-07	
71	3.550000e+00	1.562451e-07	
72	3.600000e+00	1.545134e-07	
73	3.650000e+00	1.529076e-07	
74	3.700000e+00	1.514150e-07	
75	3.750000e+00	1.500244e-07	
76	3.800000e+00	1.487258e-07	
77	3.850000e+00	1.475109e-07	
78	3.900000e+00	1.463718e-07	
79	3.950000e+00	1.453020e-07	
80	4.000000e+00	1.442954e-07	
81	4.050000e+00	1.433468e-07	
82	4.100000e+00	1.424513e-07	
83	4.150000e+00	1.416048e-07	
84	4.200000e+00	1.408034e-07	
85	4.250000e+00	1.400437e-07	
86	4.300000e+00	1.393226e-07	
87	4.350000e+00	1.386372e-07	
88	4.400000e+00	1.379851e-07	
89	4.450000e+00	1.373638e-07	
90	4.500000e+00	1.367714e-07	
91	4.550000e+00	1.362059e-07	
92	4.600000e+00	1.356655e-07	
93	4.650000e+00	1.351486e-07	
94	4.700000e+00	1.346537e-07	
95	4.750000e+00	1.341795e-07	
96	4.800000e+00	1.337247e-07	
97	4.850000e+00	1.332882e-07	
98	4.900000e+00	1.328690e-07	
99	4.950000e+00	1.324659e-07	
100	5.000000e+00	1.320782e-07	
101	5.050000e+00	1.317050e-07	
102	5.100000e+00	1.313454e-07	
103	5.150000e+00	1.309988e-07	
104	5.200000e+00	1.306645e-07	
105	5.250000e+00	1.303418e-07	
106	5.300000e+00	1.300302e-07	
107	5.350000e+00	1.297290e-07	
108	5.400000e+00	1.294379e-07	
109	5.450000e+00	1.291563e-07	
110	5.500000e+00	1.288837e-07	
111	5.550000e+00	1.286197e-07	
112	5.600000e+00	1.283640e-07	

Index   v-sweep         rds             
--------------------------------------------------------------------------------
113	5.650000e+00	1.281162e-07	
114	5.700000e+00	1.278758e-07	
115	5.750000e+00	1.276426e-07	
116	5.800000e+00	1.274163e-07	
117	5.850000e+00	1.271965e-07	
118	5.900000e+00	1.269830e-07	
119	5.950000e+00	1.267755e-07	
120	6.000000e+00	1.265738e-07	
121	6.050000e+00	1.263776e-07	
122	6.100000e+00	1.261868e-07	
123	6.150000e+00	1.260010e-07	
124	6.200000e+00	1.258202e-07	
125	6.250000e+00	1.256441e-07	
126	6.300000e+00	1.254725e-07	
127	6.350000e+00	1.253052e-07	
128	6.400000e+00	1.251422e-07	
129	6.450000e+00	1.249832e-07	
130	6.500000e+00	1.248281e-07	
131	6.550000e+00	1.246768e-07	
132	6.600000e+00	1.245290e-07	
Reset re-loads circuit ***************************

Circuit: ***************************

Doing analysis at TEMP = 125.000000 and TNOM = 125.000000


No. of Data Rows : 133
                          ***************************
                          DC transfer characteristic  Mon Jan  9 13:58:40  2023
--------------------------------------------------------------------------------
Index   v-sweep         rds             
--------------------------------------------------------------------------------
0	0.000000e+00	9.431189e-05	
1	5.000000e-02	9.252743e-05	
2	1.000000e-01	9.074734e-05	
3	1.500000e-01	8.897161e-05	
4	2.000000e-01	8.720024e-05	
5	2.500000e-01	8.543319e-05	
6	3.000000e-01	8.367047e-05	
7	3.500000e-01	8.191206e-05	
8	4.000000e-01	8.015794e-05	
9	4.500000e-01	7.840810e-05	
10	5.000000e-01	7.666253e-05	
11	5.500000e-01	7.492122e-05	
12	6.000000e-01	7.318414e-05	
13	6.500000e-01	7.145129e-05	
14	7.000000e-01	6.972265e-05	
15	7.500000e-01	6.799821e-05	
16	8.000000e-01	6.627795e-05	
17	8.500000e-01	6.456187e-05	
18	9.000000e-01	6.284994e-05	
19	9.500000e-01	6.114216e-05	
20	1.000000e+00	5.943852e-05	
21	1.050000e+00	5.773899e-05	
22	1.100000e+00	5.604356e-05	
23	1.150000e+00	5.435223e-05	
24	1.200000e+00	5.266497e-05	
25	1.250000e+00	5.098178e-05	
26	1.300000e+00	4.930263e-05	
27	1.350000e+00	4.762753e-05	
28	1.400000e+00	4.595645e-05	
29	1.450000e+00	4.428938e-05	
30	1.500000e+00	4.262630e-05	
31	1.550000e+00	4.096722e-05	
32	1.600000e+00	3.931211e-05	
33	1.650000e+00	3.766097e-05	
34	1.700000e+00	3.601380e-05	
35	1.750000e+00	3.437058e-05	
36	1.800000e+00	3.273133e-05	
37	1.850000e+00	3.109605e-05	
38	1.900000e+00	2.946478e-05	
39	1.950000e+00	2.783757e-05	
40	2.000000e+00	2.621450e-05	
41	2.050000e+00	2.459571e-05	
42	2.100000e+00	2.298142e-05	
43	2.150000e+00	2.137198e-05	
44	2.200000e+00	1.976795e-05	
45	2.250000e+00	1.817026e-05	
46	2.300000e+00	1.658037e-05	
47	2.350000e+00	1.500067e-05	
48	2.400000e+00	1.343504e-05	
49	2.450000e+00	1.188977e-05	
50	2.500000e+00	1.037483e-05	
51	2.550000e+00	8.905581e-06	
52	2.600000e+00	7.504240e-06	
53	2.650000e+00	6.199976e-06	
54	2.700000e+00	5.025608e-06	

Index   v-sweep         rds             
--------------------------------------------------------------------------------
55	2.750000e+00	4.010036e-06	
56	2.800000e+00	3.168996e-06	
57	2.850000e+00	2.499826e-06	
58	2.900000e+00	1.983776e-06	
59	2.950000e+00	1.593551e-06	
60	3.000000e+00	1.300919e-06	
61	3.050000e+00	1.081292e-06	
62	3.100000e+00	9.152687e-07	
63	3.150000e+00	7.883657e-07	
64	3.200000e+00	6.900836e-07	
65	3.250000e+00	6.129024e-07	
66	3.300000e+00	5.514454e-07	
67	3.350000e+00	5.018501e-07	
68	3.400000e+00	4.613180e-07	
69	3.450000e+00	4.278000e-07	
70	3.500000e+00	3.997779e-07	
71	3.550000e+00	3.761137e-07	
72	3.600000e+00	3.559438e-07	
73	3.650000e+00	3.386054e-07	
74	3.700000e+00	3.235841e-07	
75	3.750000e+00	3.104765e-07	
76	3.800000e+00	2.989630e-07	
77	3.850000e+00	2.887878e-07	
78	3.900000e+00	2.797447e-07	
79	3.950000e+00	2.716659e-07	
80	4.000000e+00	2.644136e-07	
81	4.050000e+00	2.578741e-07	
82	4.100000e+00	2.519528e-07	
83	4.150000e+00	2.465706e-07	
84	4.200000e+00	2.416605e-07	
85	4.250000e+00	2.371662e-07	
86	4.300000e+00	2.330393e-07	
87	4.350000e+00	2.292385e-07	
88	4.400000e+00	2.257285e-07	
89	4.450000e+00	2.224784e-07	
90	4.500000e+00	2.194615e-07	
91	4.550000e+00	2.166547e-07	
92	4.600000e+00	2.140376e-07	
93	4.650000e+00	2.115923e-07	
94	4.700000e+00	2.093030e-07	
95	4.750000e+00	2.071558e-07	
96	4.800000e+00	2.051384e-07	
97	4.850000e+00	2.032396e-07	
98	4.900000e+00	2.014496e-07	
99	4.950000e+00	1.997598e-07	
100	5.000000e+00	1.981621e-07	
101	5.050000e+00	1.966494e-07	
102	5.100000e+00	1.952153e-07	
103	5.150000e+00	1.938541e-07	
104	5.200000e+00	1.925605e-07	
105	5.250000e+00	1.913296e-07	
106	5.300000e+00	1.901572e-07	
107	5.350000e+00	1.890393e-07	
108	5.400000e+00	1.879723e-07	
109	5.450000e+00	1.869528e-07	
110	5.500000e+00	1.859779e-07	
111	5.550000e+00	1.850447e-07	
112	5.600000e+00	1.841508e-07	

Index   v-sweep         rds             
--------------------------------------------------------------------------------
113	5.650000e+00	1.832936e-07	
114	5.700000e+00	1.824711e-07	
115	5.750000e+00	1.816812e-07	
116	5.800000e+00	1.809221e-07	
117	5.850000e+00	1.801920e-07	
118	5.900000e+00	1.794894e-07	
119	5.950000e+00	1.788127e-07	
120	6.000000e+00	1.781606e-07	
121	6.050000e+00	1.775318e-07	
122	6.100000e+00	1.769250e-07	
123	6.150000e+00	1.763392e-07	
124	6.200000e+00	1.757733e-07	
125	6.250000e+00	1.752264e-07	
126	6.300000e+00	1.746975e-07	
127	6.350000e+00	1.741857e-07	
128	6.400000e+00	1.736903e-07	
129	6.450000e+00	1.732104e-07	
130	6.500000e+00	1.727455e-07	
131	6.550000e+00	1.722947e-07	
132	6.600000e+00	1.718576e-07	
Reset re-loads circuit ***************************

Circuit: ***************************

Doing analysis at TEMP = 125.000000 and TNOM = 125.000000


No. of Data Rows : 133
                          ***************************
                          DC transfer characteristic  Mon Jan  9 13:58:40  2023
--------------------------------------------------------------------------------
Index   v-sweep         rds             
--------------------------------------------------------------------------------
0	0.000000e+00	1.102282e-04	
1	5.000000e-02	1.086311e-04	
2	1.000000e-01	1.070377e-04	
3	1.500000e-01	1.054479e-04	
4	2.000000e-01	1.038616e-04	
5	2.500000e-01	1.022790e-04	
6	3.000000e-01	1.006999e-04	
7	3.500000e-01	9.912440e-05	
8	4.000000e-01	9.755244e-05	
9	4.500000e-01	9.598403e-05	
10	5.000000e-01	9.441915e-05	
11	5.500000e-01	9.285780e-05	
12	6.000000e-01	9.129995e-05	
13	6.500000e-01	8.974561e-05	
14	7.000000e-01	8.819476e-05	
15	7.500000e-01	8.664739e-05	
16	8.000000e-01	8.510350e-05	
17	8.500000e-01	8.356306e-05	
18	9.000000e-01	8.202607e-05	
19	9.500000e-01	8.049252e-05	
20	1.000000e+00	7.896240e-05	
21	1.050000e+00	7.743571e-05	
22	1.100000e+00	7.591241e-05	
23	1.150000e+00	7.439252e-05	
24	1.200000e+00	7.287602e-05	
25	1.250000e+00	7.136289e-05	
26	1.300000e+00	6.985313e-05	
27	1.350000e+00	6.834672e-05	
28	1.400000e+00	6.684366e-05	
29	1.450000e+00	6.534394e-05	
30	1.500000e+00	6.384754e-05	
31	1.550000e+00	6.235445e-05	
32	1.600000e+00	6.086466e-05	
33	1.650000e+00	5.937816e-05	
34	1.700000e+00	5.789494e-05	
35	1.750000e+00	5.641498e-05	
36	1.800000e+00	5.493828e-05	
37	1.850000e+00	5.346481e-05	
38	1.900000e+00	5.199458e-05	
39	1.950000e+00	5.052756e-05	
40	2.000000e+00	4.906374e-05	
41	2.050000e+00	4.760311e-05	
42	2.100000e+00	4.614564e-05	
43	2.150000e+00	4.469133e-05	
44	2.200000e+00	4.324016e-05	
45	2.250000e+00	4.179211e-05	
46	2.300000e+00	4.034716e-05	
47	2.350000e+00	3.890528e-05	
48	2.400000e+00	3.746647e-05	
49	2.450000e+00	3.603069e-05	
50	2.500000e+00	3.459793e-05	
51	2.550000e+00	3.316815e-05	
52	2.600000e+00	3.174133e-05	
53	2.650000e+00	3.031746e-05	
54	2.700000e+00	2.889650e-05	

Index   v-sweep         rds             
--------------------------------------------------------------------------------
55	2.750000e+00	2.747844e-05	
56	2.800000e+00	2.606329e-05	
57	2.850000e+00	2.465105e-05	
58	2.900000e+00	2.324178e-05	
59	2.950000e+00	2.183559e-05	
60	3.000000e+00	2.043270e-05	
61	3.050000e+00	1.903346e-05	
62	3.100000e+00	1.763852e-05	
63	3.150000e+00	1.624893e-05	
64	3.200000e+00	1.486645e-05	
65	3.250000e+00	1.349391e-05	
66	3.300000e+00	1.213583e-05	
67	3.350000e+00	1.079928e-05	
68	3.400000e+00	9.494793e-06	
69	3.450000e+00	8.237318e-06	
70	3.500000e+00	7.046358e-06	
71	3.550000e+00	5.944556e-06	
72	3.600000e+00	4.954115e-06	
73	3.650000e+00	4.091744e-06	
74	3.700000e+00	3.364325e-06	
75	3.750000e+00	2.767617e-06	
76	3.800000e+00	2.288484e-06	
77	3.850000e+00	1.909012e-06	
78	3.900000e+00	1.610418e-06	
79	3.950000e+00	1.375581e-06	
80	4.000000e+00	1.190163e-06	
81	4.050000e+00	1.042750e-06	
82	4.100000e+00	9.245294e-07	
83	4.150000e+00	8.288022e-07	
84	4.200000e+00	7.505125e-07	
85	4.250000e+00	6.858465e-07	
86	4.300000e+00	6.319175e-07	
87	4.350000e+00	5.865283e-07	
88	4.400000e+00	5.479941e-07	
89	4.450000e+00	5.150128e-07	
90	4.500000e+00	4.865689e-07	
91	4.550000e+00	4.618642e-07	
92	4.600000e+00	4.402654e-07	
93	4.650000e+00	4.212662e-07	
94	4.700000e+00	4.044584e-07	
95	4.750000e+00	3.895103e-07	
96	4.800000e+00	3.761506e-07	
97	4.850000e+00	3.641555e-07	
98	4.900000e+00	3.533395e-07	
99	4.950000e+00	3.435475e-07	
100	5.000000e+00	3.346494e-07	
101	5.050000e+00	3.265352e-07	
102	5.100000e+00	3.191116e-07	
103	5.150000e+00	3.122987e-07	
104	5.200000e+00	3.060282e-07	
105	5.250000e+00	3.002411e-07	
106	5.300000e+00	2.948864e-07	
107	5.350000e+00	2.899197e-07	
108	5.400000e+00	2.853023e-07	
109	5.450000e+00	2.810004e-07	
110	5.500000e+00	2.769841e-07	
111	5.550000e+00	2.732271e-07	
112	5.600000e+00	2.697062e-07	

Index   v-sweep         rds             
--------------------------------------------------------------------------------
113	5.650000e+00	2.664007e-07	
114	5.700000e+00	2.632923e-07	
115	5.750000e+00	2.603646e-07	
116	5.800000e+00	2.576027e-07	
117	5.850000e+00	2.549937e-07	
118	5.900000e+00	2.525255e-07	
119	5.950000e+00	2.501876e-07	
120	6.000000e+00	2.479701e-07	
121	6.050000e+00	2.458644e-07	
122	6.100000e+00	2.438626e-07	
123	6.150000e+00	2.419573e-07	
124	6.200000e+00	2.401419e-07	
125	6.250000e+00	2.384105e-07	
126	6.300000e+00	2.367576e-07	
127	6.350000e+00	2.351780e-07	
128	6.400000e+00	2.336672e-07	
129	6.450000e+00	2.322209e-07	
130	6.500000e+00	2.308351e-07	
131	6.550000e+00	2.295063e-07	
132	6.600000e+00	2.282311e-07	
Reset re-loads circuit ***************************

Circuit: ***************************

Doing analysis at TEMP = 125.000000 and TNOM = 125.000000


No. of Data Rows : 133
                          ***************************
                          DC transfer characteristic  Mon Jan  9 13:58:40  2023
--------------------------------------------------------------------------------
Index   v-sweep         rds             
--------------------------------------------------------------------------------
0	0.000000e+00	1.218832e-04	
1	5.000000e-02	1.204690e-04	
2	1.000000e-01	1.190577e-04	
3	1.500000e-01	1.176493e-04	
4	2.000000e-01	1.162439e-04	
5	2.500000e-01	1.148414e-04	
6	3.000000e-01	1.134417e-04	
7	3.500000e-01	1.120450e-04	
8	4.000000e-01	1.106511e-04	
9	4.500000e-01	1.092601e-04	
10	5.000000e-01	1.078720e-04	
11	5.500000e-01	1.064867e-04	
12	6.000000e-01	1.051043e-04	
13	6.500000e-01	1.037247e-04	
14	7.000000e-01	1.023480e-04	
15	7.500000e-01	1.009741e-04	
16	8.000000e-01	9.960297e-05	
17	8.500000e-01	9.823470e-05	
18	9.000000e-01	9.686922e-05	
19	9.500000e-01	9.550655e-05	
20	1.000000e+00	9.414666e-05	
21	1.050000e+00	9.278956e-05	
22	1.100000e+00	9.143524e-05	
23	1.150000e+00	9.008368e-05	
24	1.200000e+00	8.873488e-05	
25	1.250000e+00	8.738884e-05	
26	1.300000e+00	8.604554e-05	
27	1.350000e+00	8.470497e-05	
28	1.400000e+00	8.336714e-05	
29	1.450000e+00	8.203203e-05	
30	1.500000e+00	8.069964e-05	
31	1.550000e+00	7.936995e-05	
32	1.600000e+00	7.804296e-05	
33	1.650000e+00	7.671867e-05	
34	1.700000e+00	7.539706e-05	
35	1.750000e+00	7.407812e-05	
36	1.800000e+00	7.276186e-05	
37	1.850000e+00	7.144825e-05	
38	1.900000e+00	7.013730e-05	
39	1.950000e+00	6.882900e-05	
40	2.000000e+00	6.752333e-05	
41	2.050000e+00	6.622029e-05	
42	2.100000e+00	6.491987e-05	
43	2.150000e+00	6.362206e-05	
44	2.200000e+00	6.232685e-05	
45	2.250000e+00	6.103424e-05	
46	2.300000e+00	5.974422e-05	
47	2.350000e+00	5.845677e-05	
48	2.400000e+00	5.717188e-05	
49	2.450000e+00	5.588956e-05	
50	2.500000e+00	5.460978e-05	
51	2.550000e+00	5.333253e-05	
52	2.600000e+00	5.205781e-05	
53	2.650000e+00	5.078560e-05	
54	2.700000e+00	4.951589e-05	

Index   v-sweep         rds             
--------------------------------------------------------------------------------
55	2.750000e+00	4.824867e-05	
56	2.800000e+00	4.698392e-05	
57	2.850000e+00	4.572163e-05	
58	2.900000e+00	4.446179e-05	
59	2.950000e+00	4.320436e-05	
60	3.000000e+00	4.194934e-05	
61	3.050000e+00	4.069671e-05	
62	3.100000e+00	3.944644e-05	
63	3.150000e+00	3.819851e-05	
64	3.200000e+00	3.695289e-05	
65	3.250000e+00	3.570954e-05	
66	3.300000e+00	3.446845e-05	
67	3.350000e+00	3.322956e-05	
68	3.400000e+00	3.199283e-05	
69	3.450000e+00	3.075823e-05	
70	3.500000e+00	2.952569e-05	
71	3.550000e+00	2.829517e-05	
72	3.600000e+00	2.706660e-05	
73	3.650000e+00	2.583991e-05	
74	3.700000e+00	2.461505e-05	
75	3.750000e+00	2.339195e-05	
76	3.800000e+00	2.217058e-05	
77	3.850000e+00	2.095090e-05	
78	3.900000e+00	1.973298e-05	
79	3.950000e+00	1.851694e-05	
80	4.000000e+00	1.730309e-05	
81	4.050000e+00	1.609202e-05	
82	4.100000e+00	1.488477e-05	
83	4.150000e+00	1.368309e-05	
84	4.200000e+00	1.248981e-05	
85	4.250000e+00	1.130938e-05	
86	4.300000e+00	1.014848e-05	
87	4.350000e+00	9.016637e-06	
88	4.400000e+00	7.926586e-06	
89	4.450000e+00	6.893879e-06	
90	4.500000e+00	5.935417e-06	
91	4.550000e+00	5.066831e-06	
92	4.600000e+00	4.299420e-06	
93	4.650000e+00	3.637871e-06	
94	4.700000e+00	3.079740e-06	
95	4.750000e+00	2.616756e-06	
96	4.800000e+00	2.237126e-06	
97	4.850000e+00	1.927845e-06	
98	4.900000e+00	1.676386e-06	
99	4.950000e+00	1.471643e-06	
100	5.000000e+00	1.304275e-06	
101	5.050000e+00	1.166678e-06	
102	5.100000e+00	1.052795e-06	
103	5.150000e+00	9.578475e-07	
104	5.200000e+00	8.780901e-07	
105	5.250000e+00	8.105882e-07	
106	5.300000e+00	7.530380e-07	
107	5.350000e+00	7.036244e-07	
108	5.400000e+00	6.609099e-07	
109	5.450000e+00	6.237493e-07	
110	5.500000e+00	5.912248e-07	
111	5.550000e+00	5.625957e-07	
112	5.600000e+00	5.372605e-07	

Index   v-sweep         rds             
--------------------------------------------------------------------------------
113	5.650000e+00	5.147277e-07	
114	5.700000e+00	4.945929e-07	
115	5.750000e+00	4.765214e-07	
116	5.800000e+00	4.602345e-07	
117	5.850000e+00	4.454989e-07	
118	5.900000e+00	4.321180e-07	
119	5.950000e+00	4.199257e-07	
120	6.000000e+00	4.087804e-07	
121	6.050000e+00	3.985611e-07	
122	6.100000e+00	3.891641e-07	
123	6.150000e+00	3.804998e-07	
124	6.200000e+00	3.724906e-07	
125	6.250000e+00	3.650691e-07	
126	6.300000e+00	3.581763e-07	
127	6.350000e+00	3.517607e-07	
128	6.400000e+00	3.457770e-07	
129	6.450000e+00	3.401851e-07	
130	6.500000e+00	3.349498e-07	
131	6.550000e+00	3.300395e-07	
132	6.600000e+00	3.254263e-07	
Reset re-loads circuit ***************************

Circuit: ***************************

Note: No ".plot", ".print", or ".fourier" lines; no simulations run
