
Note: Compatibility modes selected: hs

Warning: m=xx on .subckt line will override multiplier m hierarchy!


Circuit: ***************************

Doing analysis at TEMP = 25.000000 and TNOM = 25.000000


No. of Data Rows : 133
                          ***************************
                          DC transfer characteristic  Mon Jan  9 13:58:37  2023
--------------------------------------------------------------------------------
Index   v-sweep         rds             
--------------------------------------------------------------------------------
0	0.000000e+00	3.307321e-04	
1	5.000000e-02	2.482467e-04	
2	1.000000e-01	1.691791e-04	
3	1.500000e-01	9.763047e-05	
4	2.000000e-01	4.584640e-05	
5	2.500000e-01	2.211648e-05	
6	3.000000e-01	1.370036e-05	
7	3.500000e-01	1.015833e-05	
8	4.000000e-01	8.253443e-06	
9	4.500000e-01	7.045892e-06	
10	5.000000e-01	6.200259e-06	
11	5.500000e-01	5.569541e-06	
12	6.000000e-01	5.078535e-06	
13	6.500000e-01	4.684265e-06	
14	7.000000e-01	4.360123e-06	
15	7.500000e-01	4.088628e-06	
16	8.000000e-01	3.857759e-06	
17	8.500000e-01	3.658948e-06	
18	9.000000e-01	3.485905e-06	
19	9.500000e-01	3.333902e-06	
20	1.000000e+00	3.199308e-06	
21	1.050000e+00	3.079291e-06	
22	1.100000e+00	2.971603e-06	
23	1.150000e+00	2.874439e-06	
24	1.200000e+00	2.786330e-06	
25	1.250000e+00	2.706069e-06	
26	1.300000e+00	2.632658e-06	
27	1.350000e+00	2.565257e-06	
28	1.400000e+00	2.503162e-06	
29	1.450000e+00	2.445773e-06	
30	1.500000e+00	2.392579e-06	
31	1.550000e+00	2.343137e-06	
32	1.600000e+00	2.297068e-06	
33	1.650000e+00	2.254041e-06	
34	1.700000e+00	2.213765e-06	
35	1.750000e+00	2.175989e-06	
36	1.800000e+00	2.140488e-06	
37	1.850000e+00	2.107064e-06	
38	1.900000e+00	2.075543e-06	
39	1.950000e+00	2.045768e-06	
40	2.000000e+00	2.017600e-06	
41	2.050000e+00	1.990913e-06	
42	2.100000e+00	1.965595e-06	
43	2.150000e+00	1.941544e-06	
44	2.200000e+00	1.918669e-06	
45	2.250000e+00	1.896887e-06	
46	2.300000e+00	1.876123e-06	
47	2.350000e+00	1.856307e-06	
48	2.400000e+00	1.837377e-06	
49	2.450000e+00	1.819276e-06	
50	2.500000e+00	1.801951e-06	
51	2.550000e+00	1.785355e-06	
52	2.600000e+00	1.769443e-06	
53	2.650000e+00	1.754174e-06	
54	2.700000e+00	1.739511e-06	

Index   v-sweep         rds             
--------------------------------------------------------------------------------
55	2.750000e+00	1.725418e-06	
56	2.800000e+00	1.711865e-06	
57	2.850000e+00	1.698820e-06	
58	2.900000e+00	1.686257e-06	
59	2.950000e+00	1.674150e-06	
60	3.000000e+00	1.662475e-06	
61	3.050000e+00	1.651209e-06	
62	3.100000e+00	1.640333e-06	
63	3.150000e+00	1.629826e-06	
64	3.200000e+00	1.619670e-06	
65	3.250000e+00	1.609848e-06	
66	3.300000e+00	1.600345e-06	
67	3.350000e+00	1.591146e-06	
68	3.400000e+00	1.582237e-06	
69	3.450000e+00	1.573603e-06	
70	3.500000e+00	1.565234e-06	
71	3.550000e+00	1.557118e-06	
72	3.600000e+00	1.549243e-06	
73	3.650000e+00	1.541598e-06	
74	3.700000e+00	1.534176e-06	
75	3.750000e+00	1.526965e-06	
76	3.800000e+00	1.519958e-06	
77	3.850000e+00	1.513146e-06	
78	3.900000e+00	1.506521e-06	
79	3.950000e+00	1.500076e-06	
80	4.000000e+00	1.493804e-06	
81	4.050000e+00	1.487698e-06	
82	4.100000e+00	1.481752e-06	
83	4.150000e+00	1.475960e-06	
84	4.200000e+00	1.470316e-06	
85	4.250000e+00	1.464815e-06	
86	4.300000e+00	1.459451e-06	
87	4.350000e+00	1.454219e-06	
88	4.400000e+00	1.449116e-06	
89	4.450000e+00	1.444136e-06	
90	4.500000e+00	1.439275e-06	
91	4.550000e+00	1.434529e-06	
92	4.600000e+00	1.429894e-06	
93	4.650000e+00	1.425366e-06	
94	4.700000e+00	1.420942e-06	
95	4.750000e+00	1.416619e-06	
96	4.800000e+00	1.412393e-06	
97	4.850000e+00	1.408261e-06	
98	4.900000e+00	1.404219e-06	
99	4.950000e+00	1.400266e-06	
100	5.000000e+00	1.396399e-06	
101	5.050000e+00	1.392614e-06	
102	5.100000e+00	1.388909e-06	
103	5.150000e+00	1.385282e-06	
104	5.200000e+00	1.381731e-06	
105	5.250000e+00	1.378253e-06	
106	5.300000e+00	1.374846e-06	
107	5.350000e+00	1.371508e-06	
108	5.400000e+00	1.368237e-06	
109	5.450000e+00	1.365031e-06	
110	5.500000e+00	1.361888e-06	
111	5.550000e+00	1.358807e-06	
112	5.600000e+00	1.355785e-06	

Index   v-sweep         rds             
--------------------------------------------------------------------------------
113	5.650000e+00	1.352822e-06	
114	5.700000e+00	1.349915e-06	
115	5.750000e+00	1.347063e-06	
116	5.800000e+00	1.344265e-06	
117	5.850000e+00	1.341518e-06	
118	5.900000e+00	1.338823e-06	
119	5.950000e+00	1.336177e-06	
120	6.000000e+00	1.333578e-06	
121	6.050000e+00	1.331027e-06	
122	6.100000e+00	1.328522e-06	
123	6.150000e+00	1.326060e-06	
124	6.200000e+00	1.323643e-06	
125	6.250000e+00	1.321267e-06	
126	6.300000e+00	1.318933e-06	
127	6.350000e+00	1.316639e-06	
128	6.400000e+00	1.314384e-06	
129	6.450000e+00	1.312167e-06	
130	6.500000e+00	1.309988e-06	
131	6.550000e+00	1.307846e-06	
132	6.600000e+00	1.305739e-06	
Reset re-loads circuit ***************************

Circuit: ***************************

Doing analysis at TEMP = 25.000000 and TNOM = 25.000000


No. of Data Rows : 133
                          ***************************
                          DC transfer characteristic  Mon Jan  9 13:58:37  2023
--------------------------------------------------------------------------------
Index   v-sweep         rds             
--------------------------------------------------------------------------------
0	0.000000e+00	1.406666e-03	
1	5.000000e-02	1.308619e-03	
2	1.000000e-01	1.212954e-03	
3	1.500000e-01	1.119604e-03	
4	2.000000e-01	1.028506e-03	
5	2.500000e-01	9.395984e-04	
6	3.000000e-01	8.528270e-04	
7	3.500000e-01	7.681437e-04	
8	4.000000e-01	6.855119e-04	
9	4.500000e-01	6.049156e-04	
10	5.000000e-01	5.263807e-04	
11	5.500000e-01	4.500284e-04	
12	6.000000e-01	3.762151e-04	
13	6.500000e-01	3.058749e-04	
14	7.000000e-01	2.411399e-04	
15	7.500000e-01	1.855480e-04	
16	8.000000e-01	1.421563e-04	
17	8.500000e-01	1.108844e-04	
18	9.000000e-01	8.905949e-05	
19	9.500000e-01	7.370057e-05	
20	1.000000e+00	6.259385e-05	
21	1.050000e+00	5.430432e-05	
22	1.100000e+00	4.793037e-05	
23	1.150000e+00	4.289951e-05	
24	1.200000e+00	3.883886e-05	
25	1.250000e+00	3.549828e-05	
26	1.300000e+00	3.270508e-05	
27	1.350000e+00	3.033678e-05	
28	1.400000e+00	2.830444e-05	
29	1.450000e+00	2.654202e-05	
30	1.500000e+00	2.499957e-05	
31	1.550000e+00	2.363865e-05	
32	1.600000e+00	2.242922e-05	
33	1.650000e+00	2.134747e-05	
34	1.700000e+00	2.037432e-05	
35	1.750000e+00	1.949428e-05	
36	1.800000e+00	1.869466e-05	
37	1.850000e+00	1.796497e-05	
38	1.900000e+00	1.729647e-05	
39	1.950000e+00	1.668179e-05	
40	2.000000e+00	1.611471e-05	
41	2.050000e+00	1.558993e-05	
42	2.100000e+00	1.510291e-05	
43	2.150000e+00	1.464972e-05	
44	2.200000e+00	1.422698e-05	
45	2.250000e+00	1.383172e-05	
46	2.300000e+00	1.346135e-05	
47	2.350000e+00	1.311361e-05	
48	2.400000e+00	1.278648e-05	
49	2.450000e+00	1.247820e-05	
50	2.500000e+00	1.218718e-05	
51	2.550000e+00	1.191203e-05	
52	2.600000e+00	1.165147e-05	
53	2.650000e+00	1.140439e-05	
54	2.700000e+00	1.116976e-05	

Index   v-sweep         rds             
--------------------------------------------------------------------------------
55	2.750000e+00	1.094668e-05	
56	2.800000e+00	1.073431e-05	
57	2.850000e+00	1.053190e-05	
58	2.900000e+00	1.033877e-05	
59	2.950000e+00	1.015429e-05	
60	3.000000e+00	9.977911e-06	
61	3.050000e+00	9.809097e-06	
62	3.100000e+00	9.647379e-06	
63	3.150000e+00	9.492318e-06	
64	3.200000e+00	9.343515e-06	
65	3.250000e+00	9.200598e-06	
66	3.300000e+00	9.063227e-06	
67	3.350000e+00	8.931085e-06	
68	3.400000e+00	8.803881e-06	
69	3.450000e+00	8.681345e-06	
70	3.500000e+00	8.563224e-06	
71	3.550000e+00	8.449285e-06	
72	3.600000e+00	8.339311e-06	
73	3.650000e+00	8.233099e-06	
74	3.700000e+00	8.130460e-06	
75	3.750000e+00	8.031217e-06	
76	3.800000e+00	7.935205e-06	
77	3.850000e+00	7.842270e-06	
78	3.900000e+00	7.752267e-06	
79	3.950000e+00	7.665059e-06	
80	4.000000e+00	7.580519e-06	
81	4.050000e+00	7.498527e-06	
82	4.100000e+00	7.418970e-06	
83	4.150000e+00	7.341741e-06	
84	4.200000e+00	7.266741e-06	
85	4.250000e+00	7.193874e-06	
86	4.300000e+00	7.123051e-06	
87	4.350000e+00	7.054189e-06	
88	4.400000e+00	6.987207e-06	
89	4.450000e+00	6.922029e-06	
90	4.500000e+00	6.858584e-06	
91	4.550000e+00	6.796804e-06	
92	4.600000e+00	6.736626e-06	
93	4.650000e+00	6.677987e-06	
94	4.700000e+00	6.620830e-06	
95	4.750000e+00	6.565100e-06	
96	4.800000e+00	6.510744e-06	
97	4.850000e+00	6.457713e-06	
98	4.900000e+00	6.405959e-06	
99	4.950000e+00	6.355436e-06	
100	5.000000e+00	6.306102e-06	
101	5.050000e+00	6.257916e-06	
102	5.100000e+00	6.210838e-06	
103	5.150000e+00	6.164831e-06	
104	5.200000e+00	6.119859e-06	
105	5.250000e+00	6.075888e-06	
106	5.300000e+00	6.032884e-06	
107	5.350000e+00	5.990818e-06	
108	5.400000e+00	5.949658e-06	
109	5.450000e+00	5.909376e-06	
110	5.500000e+00	5.869945e-06	
111	5.550000e+00	5.831338e-06	
112	5.600000e+00	5.793529e-06	

Index   v-sweep         rds             
--------------------------------------------------------------------------------
113	5.650000e+00	5.756496e-06	
114	5.700000e+00	5.720213e-06	
115	5.750000e+00	5.684660e-06	
116	5.800000e+00	5.649814e-06	
117	5.850000e+00	5.615655e-06	
118	5.900000e+00	5.582162e-06	
119	5.950000e+00	5.549318e-06	
120	6.000000e+00	5.517103e-06	
121	6.050000e+00	5.485500e-06	
122	6.100000e+00	5.454492e-06	
123	6.150000e+00	5.424062e-06	
124	6.200000e+00	5.394195e-06	
125	6.250000e+00	5.364875e-06	
126	6.300000e+00	5.336088e-06	
127	6.350000e+00	5.307819e-06	
128	6.400000e+00	5.280055e-06	
129	6.450000e+00	5.252783e-06	
130	6.500000e+00	5.225989e-06	
131	6.550000e+00	5.199663e-06	
132	6.600000e+00	5.173790e-06	
Reset re-loads circuit ***************************

Circuit: ***************************

Doing analysis at TEMP = 25.000000 and TNOM = 25.000000


No. of Data Rows : 133
                          ***************************
                          DC transfer characteristic  Mon Jan  9 13:58:37  2023
--------------------------------------------------------------------------------
Index   v-sweep         rds             
--------------------------------------------------------------------------------
0	0.000000e+00	2.223952e-03	
1	5.000000e-02	2.121908e-03	
2	1.000000e-01	2.022248e-03	
3	1.500000e-01	1.924905e-03	
4	2.000000e-01	1.829814e-03	
5	2.500000e-01	1.736911e-03	
6	3.000000e-01	1.646135e-03	
7	3.500000e-01	1.557423e-03	
8	4.000000e-01	1.470718e-03	
9	4.500000e-01	1.385961e-03	
10	5.000000e-01	1.303095e-03	
11	5.500000e-01	1.222064e-03	
12	6.000000e-01	1.142812e-03	
13	6.500000e-01	1.065278e-03	
14	7.000000e-01	9.894018e-04	
15	7.500000e-01	9.151119e-04	
16	8.000000e-01	8.423240e-04	
17	8.500000e-01	7.709298e-04	
18	9.000000e-01	7.007824e-04	
19	9.500000e-01	6.316785e-04	
20	1.000000e+00	5.633539e-04	
21	1.050000e+00	4.955517e-04	
22	1.100000e+00	4.283114e-04	
23	1.150000e+00	3.626191e-04	
24	1.200000e+00	3.010126e-04	
25	1.250000e+00	2.468889e-04	
26	1.300000e+00	2.024712e-04	
27	1.350000e+00	1.677243e-04	
28	1.400000e+00	1.411060e-04	
29	1.450000e+00	1.207234e-04	
30	1.500000e+00	1.049423e-04	
31	1.550000e+00	9.252709e-05	
32	1.600000e+00	8.259049e-05	
33	1.650000e+00	7.450403e-05	
34	1.700000e+00	6.782120e-05	
35	1.750000e+00	6.222108e-05	
36	1.800000e+00	5.746961e-05	
37	1.850000e+00	5.339334e-05	
38	1.900000e+00	4.986169e-05	
39	1.950000e+00	4.677487e-05	
40	2.000000e+00	4.405554e-05	
41	2.050000e+00	4.164295e-05	
42	2.100000e+00	3.948883e-05	
43	2.150000e+00	3.755436e-05	
44	2.200000e+00	3.580804e-05	
45	2.250000e+00	3.422402e-05	
46	2.300000e+00	3.278094e-05	
47	2.350000e+00	3.146099e-05	
48	2.400000e+00	3.024920e-05	
49	2.450000e+00	2.913293e-05	
50	2.500000e+00	2.810140e-05	
51	2.550000e+00	2.714539e-05	
52	2.600000e+00	2.625696e-05	
53	2.650000e+00	2.542924e-05	
54	2.700000e+00	2.465626e-05	

Index   v-sweep         rds             
--------------------------------------------------------------------------------
55	2.750000e+00	2.393280e-05	
56	2.800000e+00	2.325426e-05	
57	2.850000e+00	2.261662e-05	
58	2.900000e+00	2.201631e-05	
59	2.950000e+00	2.145016e-05	
60	3.000000e+00	2.091534e-05	
61	3.050000e+00	2.040935e-05	
62	3.100000e+00	1.992992e-05	
63	3.150000e+00	1.947502e-05	
64	3.200000e+00	1.904283e-05	
65	3.250000e+00	1.863169e-05	
66	3.300000e+00	1.824011e-05	
67	3.350000e+00	1.786673e-05	
68	3.400000e+00	1.751031e-05	
69	3.450000e+00	1.716974e-05	
70	3.500000e+00	1.684398e-05	
71	3.550000e+00	1.653208e-05	
72	3.600000e+00	1.623319e-05	
73	3.650000e+00	1.594651e-05	
74	3.700000e+00	1.567130e-05	
75	3.750000e+00	1.540691e-05	
76	3.800000e+00	1.515270e-05	
77	3.850000e+00	1.490810e-05	
78	3.900000e+00	1.467257e-05	
79	3.950000e+00	1.444562e-05	
80	4.000000e+00	1.422680e-05	
81	4.050000e+00	1.401568e-05	
82	4.100000e+00	1.381185e-05	
83	4.150000e+00	1.361495e-05	
84	4.200000e+00	1.342463e-05	
85	4.250000e+00	1.324057e-05	
86	4.300000e+00	1.306246e-05	
87	4.350000e+00	1.289003e-05	
88	4.400000e+00	1.272300e-05	
89	4.450000e+00	1.256113e-05	
90	4.500000e+00	1.240419e-05	
91	4.550000e+00	1.225194e-05	
92	4.600000e+00	1.210419e-05	
93	4.650000e+00	1.196075e-05	
94	4.700000e+00	1.182141e-05	
95	4.750000e+00	1.168602e-05	
96	4.800000e+00	1.155441e-05	
97	4.850000e+00	1.142642e-05	
98	4.900000e+00	1.130191e-05	
99	4.950000e+00	1.118073e-05	
100	5.000000e+00	1.106276e-05	
101	5.050000e+00	1.094788e-05	
102	5.100000e+00	1.083595e-05	
103	5.150000e+00	1.072688e-05	
104	5.200000e+00	1.062055e-05	
105	5.250000e+00	1.051686e-05	
106	5.300000e+00	1.041572e-05	
107	5.350000e+00	1.031703e-05	
108	5.400000e+00	1.022071e-05	
109	5.450000e+00	1.012667e-05	
110	5.500000e+00	1.003484e-05	
111	5.550000e+00	9.945132e-06	
112	5.600000e+00	9.857483e-06	

Index   v-sweep         rds             
--------------------------------------------------------------------------------
113	5.650000e+00	9.771820e-06	
114	5.700000e+00	9.688079e-06	
115	5.750000e+00	9.606196e-06	
116	5.800000e+00	9.526110e-06	
117	5.850000e+00	9.447765e-06	
118	5.900000e+00	9.371103e-06	
119	5.950000e+00	9.296074e-06	
120	6.000000e+00	9.222625e-06	
121	6.050000e+00	9.150708e-06	
122	6.100000e+00	9.080277e-06	
123	6.150000e+00	9.011286e-06	
124	6.200000e+00	8.943694e-06	
125	6.250000e+00	8.877458e-06	
126	6.300000e+00	8.812538e-06	
127	6.350000e+00	8.748898e-06	
128	6.400000e+00	8.686499e-06	
129	6.450000e+00	8.625307e-06	
130	6.500000e+00	8.565288e-06	
131	6.550000e+00	8.506409e-06	
132	6.600000e+00	8.448639e-06	
Reset re-loads circuit ***************************

Circuit: ***************************

Doing analysis at TEMP = 25.000000 and TNOM = 25.000000


No. of Data Rows : 133
                          ***************************
                          DC transfer characteristic  Mon Jan  9 13:58:37  2023
--------------------------------------------------------------------------------
Index   v-sweep         rds             
--------------------------------------------------------------------------------
0	0.000000e+00	2.837732e-03	
1	5.000000e-02	2.737201e-03	
2	1.000000e-01	2.638830e-03	
3	1.500000e-01	2.542563e-03	
4	2.000000e-01	2.448346e-03	
5	2.500000e-01	2.356126e-03	
6	3.000000e-01	2.265851e-03	
7	3.500000e-01	2.177471e-03	
8	4.000000e-01	2.090937e-03	
9	4.500000e-01	2.006199e-03	
10	5.000000e-01	1.923211e-03	
11	5.500000e-01	1.841927e-03	
12	6.000000e-01	1.762301e-03	
13	6.500000e-01	1.684290e-03	
14	7.000000e-01	1.607849e-03	
15	7.500000e-01	1.532935e-03	
16	8.000000e-01	1.459507e-03	
17	8.500000e-01	1.387520e-03	
18	9.000000e-01	1.316929e-03	
19	9.500000e-01	1.247686e-03	
20	1.000000e+00	1.179737e-03	
21	1.050000e+00	1.113021e-03	
22	1.100000e+00	1.047462e-03	
23	1.150000e+00	9.829626e-04	
24	1.200000e+00	9.193907e-04	
25	1.250000e+00	8.565619e-04	
26	1.300000e+00	7.942115e-04	
27	1.350000e+00	7.319637e-04	
28	1.400000e+00	6.693134e-04	
29	1.450000e+00	6.056825e-04	
30	1.500000e+00	5.406750e-04	
31	1.550000e+00	4.746507e-04	
32	1.600000e+00	4.093934e-04	
33	1.650000e+00	3.480334e-04	
34	1.700000e+00	2.937179e-04	
35	1.750000e+00	2.481221e-04	
36	1.800000e+00	2.111582e-04	
37	1.850000e+00	1.816710e-04	
38	1.900000e+00	1.582009e-04	
39	1.950000e+00	1.394053e-04	
40	2.000000e+00	1.241962e-04	
41	2.050000e+00	1.117396e-04	
42	2.100000e+00	1.014105e-04	
43	2.150000e+00	9.274301e-05	
44	2.200000e+00	8.538845e-05	
45	2.250000e+00	7.908381e-05	
46	2.300000e+00	7.362859e-05	
47	2.350000e+00	6.886821e-05	
48	2.400000e+00	6.468217e-05	
49	2.450000e+00	6.097543e-05	
50	2.500000e+00	5.767226e-05	
51	2.550000e+00	5.471171e-05	
52	2.600000e+00	5.204423e-05	
53	2.650000e+00	4.962921e-05	
54	2.700000e+00	4.743306e-05	

Index   v-sweep         rds             
--------------------------------------------------------------------------------
55	2.750000e+00	4.542781e-05	
56	2.800000e+00	4.358999e-05	
57	2.850000e+00	4.189976e-05	
58	2.900000e+00	4.034027e-05	
59	2.950000e+00	3.889710e-05	
60	3.000000e+00	3.755785e-05	
61	3.050000e+00	3.631182e-05	
62	3.100000e+00	3.514969e-05	
63	3.150000e+00	3.406335e-05	
64	3.200000e+00	3.304568e-05	
65	3.250000e+00	3.209044e-05	
66	3.300000e+00	3.119209e-05	
67	3.350000e+00	3.034574e-05	
68	3.400000e+00	2.954704e-05	
69	3.450000e+00	2.879209e-05	
70	3.500000e+00	2.807743e-05	
71	3.550000e+00	2.739994e-05	
72	3.600000e+00	2.675680e-05	
73	3.650000e+00	2.614549e-05	
74	3.700000e+00	2.556371e-05	
75	3.750000e+00	2.500939e-05	
76	3.800000e+00	2.448063e-05	
77	3.850000e+00	2.397572e-05	
78	3.900000e+00	2.349309e-05	
79	3.950000e+00	2.303130e-05	
80	4.000000e+00	2.258904e-05	
81	4.050000e+00	2.216510e-05	
82	4.100000e+00	2.175837e-05	
83	4.150000e+00	2.136783e-05	
84	4.200000e+00	2.099253e-05	
85	4.250000e+00	2.063161e-05	
86	4.300000e+00	2.028425e-05	
87	4.350000e+00	1.994971e-05	
88	4.400000e+00	1.962730e-05	
89	4.450000e+00	1.931637e-05	
90	4.500000e+00	1.901631e-05	
91	4.550000e+00	1.872658e-05	
92	4.600000e+00	1.844665e-05	
93	4.650000e+00	1.817603e-05	
94	4.700000e+00	1.791428e-05	
95	4.750000e+00	1.766095e-05	
96	4.800000e+00	1.741566e-05	
97	4.850000e+00	1.717803e-05	
98	4.900000e+00	1.694771e-05	
99	4.950000e+00	1.672436e-05	
100	5.000000e+00	1.650768e-05	
101	5.050000e+00	1.629738e-05	
102	5.100000e+00	1.609317e-05	
103	5.150000e+00	1.589481e-05	
104	5.200000e+00	1.570204e-05	
105	5.250000e+00	1.551463e-05	
106	5.300000e+00	1.533237e-05	
107	5.350000e+00	1.515504e-05	
108	5.400000e+00	1.498245e-05	
109	5.450000e+00	1.481442e-05	
110	5.500000e+00	1.465076e-05	
111	5.550000e+00	1.449132e-05	
112	5.600000e+00	1.433593e-05	

Index   v-sweep         rds             
--------------------------------------------------------------------------------
113	5.650000e+00	1.418444e-05	
114	5.700000e+00	1.403671e-05	
115	5.750000e+00	1.389260e-05	
116	5.800000e+00	1.375199e-05	
117	5.850000e+00	1.361474e-05	
118	5.900000e+00	1.348074e-05	
119	5.950000e+00	1.334988e-05	
120	6.000000e+00	1.322205e-05	
121	6.050000e+00	1.309715e-05	
122	6.100000e+00	1.297508e-05	
123	6.150000e+00	1.285575e-05	
124	6.200000e+00	1.273906e-05	
125	6.250000e+00	1.262494e-05	
126	6.300000e+00	1.251330e-05	
127	6.350000e+00	1.240406e-05	
128	6.400000e+00	1.229715e-05	
129	6.450000e+00	1.219250e-05	
130	6.500000e+00	1.209003e-05	
131	6.550000e+00	1.198969e-05	
132	6.600000e+00	1.189140e-05	
Reset re-loads circuit ***************************

Circuit: ***************************

Doing analysis at TEMP = 25.000000 and TNOM = 25.000000


No. of Data Rows : 133
                          ***************************
                          DC transfer characteristic  Mon Jan  9 13:58:37  2023
--------------------------------------------------------------------------------
Index   v-sweep         rds             
--------------------------------------------------------------------------------
0	0.000000e+00	3.282369e-03	
1	5.000000e-02	3.187053e-03	
2	1.000000e-01	3.093584e-03	
3	1.500000e-01	3.001920e-03	
4	2.000000e-01	2.912020e-03	
5	2.500000e-01	2.823842e-03	
6	3.000000e-01	2.737347e-03	
7	3.500000e-01	2.652495e-03	
8	4.000000e-01	2.569249e-03	
9	4.500000e-01	2.487571e-03	
10	5.000000e-01	2.407423e-03	
11	5.500000e-01	2.328770e-03	
12	6.000000e-01	2.251576e-03	
13	6.500000e-01	2.175807e-03	
14	7.000000e-01	2.101430e-03	
15	7.500000e-01	2.028410e-03	
16	8.000000e-01	1.956717e-03	
17	8.500000e-01	1.886317e-03	
18	9.000000e-01	1.817182e-03	
19	9.500000e-01	1.749279e-03	
20	1.000000e+00	1.682580e-03	
21	1.050000e+00	1.617053e-03	
22	1.100000e+00	1.552669e-03	
23	1.150000e+00	1.489397e-03	
24	1.200000e+00	1.427202e-03	
25	1.250000e+00	1.366050e-03	
26	1.300000e+00	1.305901e-03	
27	1.350000e+00	1.246710e-03	
28	1.400000e+00	1.188422e-03	
29	1.450000e+00	1.130967e-03	
30	1.500000e+00	1.074257e-03	
31	1.550000e+00	1.018171e-03	
32	1.600000e+00	9.625432e-04	
33	1.650000e+00	9.071398e-04	
34	1.700000e+00	8.516320e-04	
35	1.750000e+00	7.955667e-04	
36	1.800000e+00	7.383561e-04	
37	1.850000e+00	6.793382e-04	
38	1.900000e+00	6.180019e-04	
39	1.950000e+00	5.544480e-04	
40	2.000000e+00	4.899422e-04	
41	2.050000e+00	4.270270e-04	
42	2.100000e+00	3.687395e-04	
43	2.150000e+00	3.173841e-04	
44	2.200000e+00	2.738585e-04	
45	2.250000e+00	2.378400e-04	
46	2.300000e+00	2.083519e-04	
47	2.350000e+00	1.842418e-04	
48	2.400000e+00	1.644396e-04	
49	2.450000e+00	1.480496e-04	
50	2.500000e+00	1.343588e-04	
51	2.550000e+00	1.228120e-04	
52	2.600000e+00	1.129804e-04	
53	2.650000e+00	1.045332e-04	
54	2.700000e+00	9.721344e-05	

Index   v-sweep         rds             
--------------------------------------------------------------------------------
55	2.750000e+00	9.082067e-05	
56	2.800000e+00	8.519688e-05	
57	2.850000e+00	8.021655e-05	
58	2.900000e+00	7.577903e-05	
59	2.950000e+00	7.180295e-05	
60	3.000000e+00	6.822192e-05	
61	3.050000e+00	6.498139e-05	
62	3.100000e+00	6.203614e-05	
63	3.150000e+00	5.934847e-05	
64	3.200000e+00	5.688668e-05	
65	3.250000e+00	5.462398e-05	
66	3.300000e+00	5.253757e-05	
67	3.350000e+00	5.060797e-05	
68	3.400000e+00	4.881840e-05	
69	3.450000e+00	4.715438e-05	
70	3.500000e+00	4.560332e-05	
71	3.550000e+00	4.415423e-05	
72	3.600000e+00	4.279751e-05	
73	3.650000e+00	4.152469e-05	
74	3.700000e+00	4.032832e-05	
75	3.750000e+00	3.920176e-05	
76	3.800000e+00	3.813915e-05	
77	3.850000e+00	3.713525e-05	
78	3.900000e+00	3.618535e-05	
79	3.950000e+00	3.528525e-05	
80	4.000000e+00	3.443117e-05	
81	4.050000e+00	3.361970e-05	
82	4.100000e+00	3.284774e-05	
83	4.150000e+00	3.211251e-05	
84	4.200000e+00	3.141145e-05	
85	4.250000e+00	3.074226e-05	
86	4.300000e+00	3.010282e-05	
87	4.350000e+00	2.949122e-05	
88	4.400000e+00	2.890567e-05	
89	4.450000e+00	2.834455e-05	
90	4.500000e+00	2.780639e-05	
91	4.550000e+00	2.728981e-05	
92	4.600000e+00	2.679353e-05	
93	4.650000e+00	2.631640e-05	
94	4.700000e+00	2.585734e-05	
95	4.750000e+00	2.541533e-05	
96	4.800000e+00	2.498946e-05	
97	4.850000e+00	2.457886e-05	
98	4.900000e+00	2.418272e-05	
99	4.950000e+00	2.380031e-05	
100	5.000000e+00	2.343091e-05	
101	5.050000e+00	2.307390e-05	
102	5.100000e+00	2.272864e-05	
103	5.150000e+00	2.239458e-05	
104	5.200000e+00	2.207119e-05	
105	5.250000e+00	2.175796e-05	
106	5.300000e+00	2.145443e-05	
107	5.350000e+00	2.116015e-05	
108	5.400000e+00	2.087471e-05	
109	5.450000e+00	2.059772e-05	
110	5.500000e+00	2.032882e-05	
111	5.550000e+00	2.006766e-05	
112	5.600000e+00	1.981391e-05	

Index   v-sweep         rds             
--------------------------------------------------------------------------------
113	5.650000e+00	1.956726e-05	
114	5.700000e+00	1.932743e-05	
115	5.750000e+00	1.909413e-05	
116	5.800000e+00	1.886712e-05	
117	5.850000e+00	1.864613e-05	
118	5.900000e+00	1.843093e-05	
119	5.950000e+00	1.822131e-05	
120	6.000000e+00	1.801706e-05	
121	6.050000e+00	1.781796e-05	
122	6.100000e+00	1.762384e-05	
123	6.150000e+00	1.743451e-05	
124	6.200000e+00	1.724980e-05	
125	6.250000e+00	1.706954e-05	
126	6.300000e+00	1.689359e-05	
127	6.350000e+00	1.672178e-05	
128	6.400000e+00	1.655399e-05	
129	6.450000e+00	1.639006e-05	
130	6.500000e+00	1.622988e-05	
131	6.550000e+00	1.607332e-05	
132	6.600000e+00	1.592026e-05	
Reset re-loads circuit ***************************

Circuit: ***************************

Doing analysis at TEMP = 25.000000 and TNOM = 25.000000


No. of Data Rows : 133
                          ***************************
                          DC transfer characteristic  Mon Jan  9 13:58:37  2023
--------------------------------------------------------------------------------
Index   v-sweep         rds             
--------------------------------------------------------------------------------
0	0.000000e+00	3.568690e-03	
1	5.000000e-02	3.481040e-03	
2	1.000000e-01	3.394908e-03	
3	1.500000e-01	3.310264e-03	
4	2.000000e-01	3.227077e-03	
5	2.500000e-01	3.145316e-03	
6	3.000000e-01	3.064954e-03	
7	3.500000e-01	2.985960e-03	
8	4.000000e-01	2.908307e-03	
9	4.500000e-01	2.831966e-03	
10	5.000000e-01	2.756911e-03	
11	5.500000e-01	2.683114e-03	
12	6.000000e-01	2.610549e-03	
13	6.500000e-01	2.539191e-03	
14	7.000000e-01	2.469012e-03	
15	7.500000e-01	2.399990e-03	
16	8.000000e-01	2.332098e-03	
17	8.500000e-01	2.265315e-03	
18	9.000000e-01	2.199615e-03	
19	9.500000e-01	2.134978e-03	
20	1.000000e+00	2.071379e-03	
21	1.050000e+00	2.008799e-03	
22	1.100000e+00	1.947214e-03	
23	1.150000e+00	1.886606e-03	
24	1.200000e+00	1.826952e-03	
25	1.250000e+00	1.768233e-03	
26	1.300000e+00	1.710428e-03	
27	1.350000e+00	1.653516e-03	
28	1.400000e+00	1.597478e-03	
29	1.450000e+00	1.542292e-03	
30	1.500000e+00	1.487934e-03	
31	1.550000e+00	1.434380e-03	
32	1.600000e+00	1.381604e-03	
33	1.650000e+00	1.329575e-03	
34	1.700000e+00	1.278256e-03	
35	1.750000e+00	1.227604e-03	
36	1.800000e+00	1.177566e-03	
37	1.850000e+00	1.128069e-03	
38	1.900000e+00	1.079023e-03	
39	1.950000e+00	1.030300e-03	
40	2.000000e+00	9.817295e-04	
41	2.050000e+00	9.330730e-04	
42	2.100000e+00	8.840036e-04	
43	2.150000e+00	8.340821e-04	
44	2.200000e+00	7.827509e-04	
45	2.250000e+00	7.293801e-04	
46	2.300000e+00	6.734276e-04	
47	2.350000e+00	6.147641e-04	
48	2.400000e+00	5.540980e-04	
49	2.450000e+00	4.932065e-04	
50	2.500000e+00	4.346090e-04	
51	2.550000e+00	3.807314e-04	
52	2.600000e+00	3.331380e-04	
53	2.650000e+00	2.923097e-04	
54	2.700000e+00	2.579005e-04	

Index   v-sweep         rds             
--------------------------------------------------------------------------------
55	2.750000e+00	2.291345e-04	
56	2.800000e+00	2.051144e-04	
57	2.850000e+00	1.849914e-04	
58	2.900000e+00	1.680345e-04	
59	2.950000e+00	1.536429e-04	
60	3.000000e+00	1.413339e-04	
61	3.050000e+00	1.307243e-04	
62	3.100000e+00	1.215104e-04	
63	3.150000e+00	1.134510e-04	
64	3.200000e+00	1.063539e-04	
65	3.250000e+00	1.000649e-04	
66	3.300000e+00	9.445937e-05	
67	3.350000e+00	8.943600e-05	
68	3.400000e+00	8.491179e-05	
69	3.450000e+00	8.081826e-05	
70	3.500000e+00	7.709853e-05	
71	3.550000e+00	7.370500e-05	
72	3.600000e+00	7.059765e-05	
73	3.650000e+00	6.774257e-05	
74	3.700000e+00	6.511089e-05	
75	3.750000e+00	6.267791e-05	
76	3.800000e+00	6.042237e-05	
77	3.850000e+00	5.832586e-05	
78	3.900000e+00	5.637242e-05	
79	3.950000e+00	5.454812e-05	
80	4.000000e+00	5.284073e-05	
81	4.050000e+00	5.123953e-05	
82	4.100000e+00	4.973504e-05	
83	4.150000e+00	4.831886e-05	
84	4.200000e+00	4.698353e-05	
85	4.250000e+00	4.572238e-05	
86	4.300000e+00	4.452948e-05	
87	4.350000e+00	4.339949e-05	
88	4.400000e+00	4.232760e-05	
89	4.450000e+00	4.130949e-05	
90	4.500000e+00	4.034124e-05	
91	4.550000e+00	3.941931e-05	
92	4.600000e+00	3.854048e-05	
93	4.650000e+00	3.770183e-05	
94	4.700000e+00	3.690067e-05	
95	4.750000e+00	3.613457e-05	
96	4.800000e+00	3.540129e-05	
97	4.850000e+00	3.469879e-05	
98	4.900000e+00	3.402517e-05	
99	4.950000e+00	3.337870e-05	
100	5.000000e+00	3.275779e-05	
101	5.050000e+00	3.216096e-05	
102	5.100000e+00	3.158684e-05	
103	5.150000e+00	3.103417e-05	
104	5.200000e+00	3.050177e-05	
105	5.250000e+00	2.998856e-05	
106	5.300000e+00	2.949352e-05	
107	5.350000e+00	2.901572e-05	
108	5.400000e+00	2.855427e-05	
109	5.450000e+00	2.810835e-05	
110	5.500000e+00	2.767720e-05	
111	5.550000e+00	2.726010e-05	
112	5.600000e+00	2.685638e-05	

Index   v-sweep         rds             
--------------------------------------------------------------------------------
113	5.650000e+00	2.646541e-05	
114	5.700000e+00	2.608660e-05	
115	5.750000e+00	2.571940e-05	
116	5.800000e+00	2.536328e-05	
117	5.850000e+00	2.501776e-05	
118	5.900000e+00	2.468237e-05	
119	5.950000e+00	2.435667e-05	
120	6.000000e+00	2.404027e-05	
121	6.050000e+00	2.373277e-05	
122	6.100000e+00	2.343380e-05	
123	6.150000e+00	2.314303e-05	
124	6.200000e+00	2.286011e-05	
125	6.250000e+00	2.258475e-05	
126	6.300000e+00	2.231664e-05	
127	6.350000e+00	2.205552e-05	
128	6.400000e+00	2.180110e-05	
129	6.450000e+00	2.155316e-05	
130	6.500000e+00	2.131143e-05	
131	6.550000e+00	2.107571e-05	
132	6.600000e+00	2.084577e-05	
Reset re-loads circuit ***************************

Circuit: ***************************

Note: No ".plot", ".print", or ".fourier" lines; no simulations run
