
Note: Compatibility modes selected: hs

Warning: m=xx on .subckt line will override multiplier m hierarchy!


Circuit: ***************************

Doing analysis at TEMP = 125.000000 and TNOM = 125.000000


No. of Data Rows : 133
                          ***************************
                          DC transfer characteristic  Mon Jan  9 13:58:40  2023
--------------------------------------------------------------------------------
Index   v-sweep         rds             
--------------------------------------------------------------------------------
0	0.000000e+00	5.367765e-05	
1	5.000000e-02	4.467998e-05	
2	1.000000e-01	3.591922e-05	
3	1.500000e-01	2.744902e-05	
4	2.000000e-01	1.944108e-05	
5	2.500000e-01	1.241722e-05	
6	3.000000e-01	7.419412e-06	
7	3.500000e-01	4.851246e-06	
8	4.000000e-01	3.711047e-06	
9	4.500000e-01	3.128283e-06	
10	5.000000e-01	2.766274e-06	
11	5.500000e-01	2.510162e-06	
12	6.000000e-01	2.314843e-06	
13	6.500000e-01	2.159023e-06	
14	7.000000e-01	2.030991e-06	
15	7.500000e-01	1.923560e-06	
16	8.000000e-01	1.831964e-06	
17	8.500000e-01	1.752870e-06	
18	9.000000e-01	1.683850e-06	
19	9.500000e-01	1.623083e-06	
20	1.000000e+00	1.569172e-06	
21	1.050000e+00	1.521023e-06	
22	1.100000e+00	1.477763e-06	
23	1.150000e+00	1.438691e-06	
24	1.200000e+00	1.403233e-06	
25	1.250000e+00	1.370917e-06	
26	1.300000e+00	1.341349e-06	
27	1.350000e+00	1.314198e-06	
28	1.400000e+00	1.289185e-06	
29	1.450000e+00	1.266072e-06	
30	1.500000e+00	1.244654e-06	
31	1.550000e+00	1.224757e-06	
32	1.600000e+00	1.206226e-06	
33	1.650000e+00	1.188930e-06	
34	1.700000e+00	1.172752e-06	
35	1.750000e+00	1.157591e-06	
36	1.800000e+00	1.143355e-06	
37	1.850000e+00	1.129965e-06	
38	1.900000e+00	1.117350e-06	
39	1.950000e+00	1.105447e-06	
40	2.000000e+00	1.094199e-06	
41	2.050000e+00	1.083556e-06	
42	2.100000e+00	1.073471e-06	
43	2.150000e+00	1.063903e-06	
44	2.200000e+00	1.054815e-06	
45	2.250000e+00	1.046173e-06	
46	2.300000e+00	1.037946e-06	
47	2.350000e+00	1.030107e-06	
48	2.400000e+00	1.022630e-06	
49	2.450000e+00	1.015490e-06	
50	2.500000e+00	1.008668e-06	
51	2.550000e+00	1.002142e-06	
52	2.600000e+00	9.958957e-07	
53	2.650000e+00	9.899116e-07	
54	2.700000e+00	9.841745e-07	

Index   v-sweep         rds             
--------------------------------------------------------------------------------
55	2.750000e+00	9.786700e-07	
56	2.800000e+00	9.733851e-07	
57	2.850000e+00	9.683075e-07	
58	2.900000e+00	9.634259e-07	
59	2.950000e+00	9.587298e-07	
60	3.000000e+00	9.542094e-07	
61	3.050000e+00	9.498556e-07	
62	3.100000e+00	9.456598e-07	
63	3.150000e+00	9.416141e-07	
64	3.200000e+00	9.377111e-07	
65	3.250000e+00	9.339438e-07	
66	3.300000e+00	9.303057e-07	
67	3.350000e+00	9.267906e-07	
68	3.400000e+00	9.233929e-07	
69	3.450000e+00	9.201072e-07	
70	3.500000e+00	9.169283e-07	
71	3.550000e+00	9.138515e-07	
72	3.600000e+00	9.108723e-07	
73	3.650000e+00	9.079864e-07	
74	3.700000e+00	9.051899e-07	
75	3.750000e+00	9.024790e-07	
76	3.800000e+00	8.998500e-07	
77	3.850000e+00	8.972996e-07	
78	3.900000e+00	8.948247e-07	
79	3.950000e+00	8.924221e-07	
80	4.000000e+00	8.900889e-07	
81	4.050000e+00	8.878226e-07	
82	4.100000e+00	8.856204e-07	
83	4.150000e+00	8.834799e-07	
84	4.200000e+00	8.813987e-07	
85	4.250000e+00	8.793748e-07	
86	4.300000e+00	8.774058e-07	
87	4.350000e+00	8.754898e-07	
88	4.400000e+00	8.736250e-07	
89	4.450000e+00	8.718094e-07	
90	4.500000e+00	8.700413e-07	
91	4.550000e+00	8.683190e-07	
92	4.600000e+00	8.666411e-07	
93	4.650000e+00	8.650058e-07	
94	4.700000e+00	8.634118e-07	
95	4.750000e+00	8.618577e-07	
96	4.800000e+00	8.603422e-07	
97	4.850000e+00	8.588640e-07	
98	4.900000e+00	8.574219e-07	
99	4.950000e+00	8.560146e-07	
100	5.000000e+00	8.546412e-07	
101	5.050000e+00	8.533005e-07	
102	5.100000e+00	8.519914e-07	
103	5.150000e+00	8.507131e-07	
104	5.200000e+00	8.494645e-07	
105	5.250000e+00	8.482448e-07	
106	5.300000e+00	8.470531e-07	
107	5.350000e+00	8.458885e-07	
108	5.400000e+00	8.447502e-07	
109	5.450000e+00	8.436375e-07	
110	5.500000e+00	8.425495e-07	
111	5.550000e+00	8.414857e-07	
112	5.600000e+00	8.404452e-07	

Index   v-sweep         rds             
--------------------------------------------------------------------------------
113	5.650000e+00	8.394275e-07	
114	5.700000e+00	8.384319e-07	
115	5.750000e+00	8.374577e-07	
116	5.800000e+00	8.365044e-07	
117	5.850000e+00	8.355714e-07	
118	5.900000e+00	8.346581e-07	
119	5.950000e+00	8.337640e-07	
120	6.000000e+00	8.328886e-07	
121	6.050000e+00	8.320314e-07	
122	6.100000e+00	8.311919e-07	
123	6.150000e+00	8.303696e-07	
124	6.200000e+00	8.295641e-07	
125	6.250000e+00	8.287750e-07	
126	6.300000e+00	8.280017e-07	
127	6.350000e+00	8.272441e-07	
128	6.400000e+00	8.265015e-07	
129	6.450000e+00	8.257737e-07	
130	6.500000e+00	8.250602e-07	
131	6.550000e+00	8.243608e-07	
132	6.600000e+00	8.236751e-07	
Reset re-loads circuit ***************************

Circuit: ***************************

Doing analysis at TEMP = 125.000000 and TNOM = 125.000000


No. of Data Rows : 133
                          ***************************
                          DC transfer characteristic  Mon Jan  9 13:58:40  2023
--------------------------------------------------------------------------------
Index   v-sweep         rds             
--------------------------------------------------------------------------------
0	0.000000e+00	1.585135e-04	
1	5.000000e-02	1.484078e-04	
2	1.000000e-01	1.385329e-04	
3	1.500000e-01	1.288830e-04	
4	2.000000e-01	1.194524e-04	
5	2.500000e-01	1.102361e-04	
6	3.000000e-01	1.012295e-04	
7	3.500000e-01	9.242867e-05	
8	4.000000e-01	8.383127e-05	
9	4.500000e-01	7.543687e-05	
10	5.000000e-01	6.724883e-05	
11	5.500000e-01	5.927759e-05	
12	6.000000e-01	5.154774e-05	
13	6.500000e-01	4.411262e-05	
14	7.000000e-01	3.708207e-05	
15	7.500000e-01	3.065810e-05	
16	8.000000e-01	2.512450e-05	
17	8.500000e-01	2.070074e-05	
18	9.000000e-01	1.736366e-05	
19	9.500000e-01	1.489106e-05	
20	1.000000e+00	1.303413e-05	
21	1.050000e+00	1.160367e-05	
22	1.100000e+00	1.047265e-05	
23	1.150000e+00	9.557565e-06	
24	1.200000e+00	8.802605e-06	
25	1.250000e+00	8.169422e-06	
26	1.300000e+00	7.630918e-06	
27	1.350000e+00	7.167438e-06	
28	1.400000e+00	6.764397e-06	
29	1.450000e+00	6.410750e-06	
30	1.500000e+00	6.097980e-06	
31	1.550000e+00	5.819418e-06	
32	1.600000e+00	5.569769e-06	
33	1.650000e+00	5.344773e-06	
34	1.700000e+00	5.140968e-06	
35	1.750000e+00	4.955508e-06	
36	1.800000e+00	4.786036e-06	
37	1.850000e+00	4.630580e-06	
38	1.900000e+00	4.487479e-06	
39	1.950000e+00	4.355324e-06	
40	2.000000e+00	4.232912e-06	
41	2.050000e+00	4.119211e-06	
42	2.100000e+00	4.013327e-06	
43	2.150000e+00	3.914486e-06	
44	2.200000e+00	3.822013e-06	
45	2.250000e+00	3.735315e-06	
46	2.300000e+00	3.653870e-06	
47	2.350000e+00	3.577219e-06	
48	2.400000e+00	3.504953e-06	
49	2.450000e+00	3.436709e-06	
50	2.500000e+00	3.372163e-06	
51	2.550000e+00	3.311024e-06	
52	2.600000e+00	3.253031e-06	
53	2.650000e+00	3.197950e-06	
54	2.700000e+00	3.145568e-06	

Index   v-sweep         rds             
--------------------------------------------------------------------------------
55	2.750000e+00	3.095694e-06	
56	2.800000e+00	3.048152e-06	
57	2.850000e+00	3.002784e-06	
58	2.900000e+00	2.959447e-06	
59	2.950000e+00	2.918007e-06	
60	3.000000e+00	2.878343e-06	
61	3.050000e+00	2.840346e-06	
62	3.100000e+00	2.803913e-06	
63	3.150000e+00	2.768951e-06	
64	3.200000e+00	2.735372e-06	
65	3.250000e+00	2.703098e-06	
66	3.300000e+00	2.672054e-06	
67	3.350000e+00	2.642173e-06	
68	3.400000e+00	2.613390e-06	
69	3.450000e+00	2.585647e-06	
70	3.500000e+00	2.558890e-06	
71	3.550000e+00	2.533066e-06	
72	3.600000e+00	2.508129e-06	
73	3.650000e+00	2.484035e-06	
74	3.700000e+00	2.460741e-06	
75	3.750000e+00	2.438210e-06	
76	3.800000e+00	2.416404e-06	
77	3.850000e+00	2.395290e-06	
78	3.900000e+00	2.374835e-06	
79	3.950000e+00	2.355010e-06	
80	4.000000e+00	2.335787e-06	
81	4.050000e+00	2.317138e-06	
82	4.100000e+00	2.299039e-06	
83	4.150000e+00	2.281467e-06	
84	4.200000e+00	2.264398e-06	
85	4.250000e+00	2.247812e-06	
86	4.300000e+00	2.231689e-06	
87	4.350000e+00	2.216010e-06	
88	4.400000e+00	2.200757e-06	
89	4.450000e+00	2.185914e-06	
90	4.500000e+00	2.171464e-06	
91	4.550000e+00	2.157393e-06	
92	4.600000e+00	2.143685e-06	
93	4.650000e+00	2.130328e-06	
94	4.700000e+00	2.117308e-06	
95	4.750000e+00	2.104612e-06	
96	4.800000e+00	2.092230e-06	
97	4.850000e+00	2.080149e-06	
98	4.900000e+00	2.068360e-06	
99	4.950000e+00	2.056851e-06	
100	5.000000e+00	2.045614e-06	
101	5.050000e+00	2.034638e-06	
102	5.100000e+00	2.023916e-06	
103	5.150000e+00	2.013439e-06	
104	5.200000e+00	2.003198e-06	
105	5.250000e+00	1.993185e-06	
106	5.300000e+00	1.983394e-06	
107	5.350000e+00	1.973818e-06	
108	5.400000e+00	1.964449e-06	
109	5.450000e+00	1.955281e-06	
110	5.500000e+00	1.946308e-06	
111	5.550000e+00	1.937523e-06	
112	5.600000e+00	1.928922e-06	

Index   v-sweep         rds             
--------------------------------------------------------------------------------
113	5.650000e+00	1.920498e-06	
114	5.700000e+00	1.912247e-06	
115	5.750000e+00	1.904163e-06	
116	5.800000e+00	1.896241e-06	
117	5.850000e+00	1.888477e-06	
118	5.900000e+00	1.880865e-06	
119	5.950000e+00	1.873403e-06	
120	6.000000e+00	1.866085e-06	
121	6.050000e+00	1.858908e-06	
122	6.100000e+00	1.851867e-06	
123	6.150000e+00	1.844959e-06	
124	6.200000e+00	1.838181e-06	
125	6.250000e+00	1.831528e-06	
126	6.300000e+00	1.824998e-06	
127	6.350000e+00	1.818587e-06	
128	6.400000e+00	1.812292e-06	
129	6.450000e+00	1.806110e-06	
130	6.500000e+00	1.800039e-06	
131	6.550000e+00	1.794075e-06	
132	6.600000e+00	1.788216e-06	
Reset re-loads circuit ***************************

Circuit: ***************************

Doing analysis at TEMP = 125.000000 and TNOM = 125.000000


No. of Data Rows : 133
                          ***************************
                          DC transfer characteristic  Mon Jan  9 13:58:40  2023
--------------------------------------------------------------------------------
Index   v-sweep         rds             
--------------------------------------------------------------------------------
0	0.000000e+00	2.341155e-04	
1	5.000000e-02	2.239037e-04	
2	1.000000e-01	2.139116e-04	
3	1.500000e-01	2.041336e-04	
4	2.000000e-01	1.945644e-04	
5	2.500000e-01	1.851985e-04	
6	3.000000e-01	1.760310e-04	
7	3.500000e-01	1.670567e-04	
8	4.000000e-01	1.582708e-04	
9	4.500000e-01	1.496688e-04	
10	5.000000e-01	1.412460e-04	
11	5.500000e-01	1.329983e-04	
12	6.000000e-01	1.249216e-04	
13	6.500000e-01	1.170123e-04	
14	7.000000e-01	1.092668e-04	
15	7.500000e-01	1.016822e-04	
16	8.000000e-01	9.425598e-05	
17	8.500000e-01	8.698622e-05	
18	9.000000e-01	7.987217e-05	
19	9.500000e-01	7.291483e-05	
20	1.000000e+00	6.611845e-05	
21	1.050000e+00	5.949374e-05	
22	1.100000e+00	5.306475e-05	
23	1.150000e+00	4.688230e-05	
24	1.200000e+00	4.104301e-05	
25	1.250000e+00	3.569465e-05	
26	1.300000e+00	3.099253e-05	
27	1.350000e+00	2.702010e-05	
28	1.400000e+00	2.375345e-05	
29	1.450000e+00	2.109628e-05	
30	1.500000e+00	1.893218e-05	
31	1.550000e+00	1.715542e-05	
32	1.600000e+00	1.568060e-05	
33	1.650000e+00	1.444203e-05	
34	1.700000e+00	1.339000e-05	
35	1.750000e+00	1.248693e-05	
36	1.800000e+00	1.170422e-05	
37	1.850000e+00	1.101990e-05	
38	1.900000e+00	1.041688e-05	
39	1.950000e+00	9.881734e-06	
40	2.000000e+00	9.403776e-06	
41	2.050000e+00	8.974418e-06	
42	2.100000e+00	8.586690e-06	
43	2.150000e+00	8.234877e-06	
44	2.200000e+00	7.914254e-06	
45	2.250000e+00	7.620885e-06	
46	2.300000e+00	7.351463e-06	
47	2.350000e+00	7.103191e-06	
48	2.400000e+00	6.873690e-06	
49	2.450000e+00	6.660923e-06	
50	2.500000e+00	6.463135e-06	
51	2.550000e+00	6.278808e-06	
52	2.600000e+00	6.106620e-06	
53	2.650000e+00	5.945417e-06	
54	2.700000e+00	5.794187e-06	

Index   v-sweep         rds             
--------------------------------------------------------------------------------
55	2.750000e+00	5.652036e-06	
56	2.800000e+00	5.518175e-06	
57	2.850000e+00	5.391903e-06	
58	2.900000e+00	5.272596e-06	
59	2.950000e+00	5.159697e-06	
60	3.000000e+00	5.052704e-06	
61	3.050000e+00	4.951170e-06	
62	3.100000e+00	4.854688e-06	
63	3.150000e+00	4.762892e-06	
64	3.200000e+00	4.675452e-06	
65	3.250000e+00	4.592065e-06	
66	3.300000e+00	4.512459e-06	
67	3.350000e+00	4.436382e-06	
68	3.400000e+00	4.363606e-06	
69	3.450000e+00	4.293923e-06	
70	3.500000e+00	4.227140e-06	
71	3.550000e+00	4.163080e-06	
72	3.600000e+00	4.101583e-06	
73	3.650000e+00	4.042497e-06	
74	3.700000e+00	3.985684e-06	
75	3.750000e+00	3.931016e-06	
76	3.800000e+00	3.878376e-06	
77	3.850000e+00	3.827652e-06	
78	3.900000e+00	3.778743e-06	
79	3.950000e+00	3.731553e-06	
80	4.000000e+00	3.685995e-06	
81	4.050000e+00	3.641984e-06	
82	4.100000e+00	3.599446e-06	
83	4.150000e+00	3.558306e-06	
84	4.200000e+00	3.518498e-06	
85	4.250000e+00	3.479958e-06	
86	4.300000e+00	3.442628e-06	
87	4.350000e+00	3.406452e-06	
88	4.400000e+00	3.371377e-06	
89	4.450000e+00	3.337354e-06	
90	4.500000e+00	3.304337e-06	
91	4.550000e+00	3.272283e-06	
92	4.600000e+00	3.241150e-06	
93	4.650000e+00	3.210899e-06	
94	4.700000e+00	3.181495e-06	
95	4.750000e+00	3.152901e-06	
96	4.800000e+00	3.125086e-06	
97	4.850000e+00	3.098018e-06	
98	4.900000e+00	3.071669e-06	
99	4.950000e+00	3.046009e-06	
100	5.000000e+00	3.021013e-06	
101	5.050000e+00	2.996656e-06	
102	5.100000e+00	2.972913e-06	
103	5.150000e+00	2.949763e-06	
104	5.200000e+00	2.927183e-06	
105	5.250000e+00	2.905153e-06	
106	5.300000e+00	2.883653e-06	
107	5.350000e+00	2.862665e-06	
108	5.400000e+00	2.842171e-06	
109	5.450000e+00	2.822154e-06	
110	5.500000e+00	2.802598e-06	
111	5.550000e+00	2.783488e-06	
112	5.600000e+00	2.764808e-06	

Index   v-sweep         rds             
--------------------------------------------------------------------------------
113	5.650000e+00	2.746544e-06	
114	5.700000e+00	2.728684e-06	
115	5.750000e+00	2.711214e-06	
116	5.800000e+00	2.694121e-06	
117	5.850000e+00	2.677395e-06	
118	5.900000e+00	2.661023e-06	
119	5.950000e+00	2.644994e-06	
120	6.000000e+00	2.629299e-06	
121	6.050000e+00	2.613927e-06	
122	6.100000e+00	2.598869e-06	
123	6.150000e+00	2.584115e-06	
124	6.200000e+00	2.569656e-06	
125	6.250000e+00	2.555485e-06	
126	6.300000e+00	2.541592e-06	
127	6.350000e+00	2.527970e-06	
128	6.400000e+00	2.514611e-06	
129	6.450000e+00	2.501508e-06	
130	6.500000e+00	2.488654e-06	
131	6.550000e+00	2.476042e-06	
132	6.600000e+00	2.463665e-06	
Reset re-loads circuit ***************************

Circuit: ***************************

Doing analysis at TEMP = 125.000000 and TNOM = 125.000000


No. of Data Rows : 133
                          ***************************
                          DC transfer characteristic  Mon Jan  9 13:58:40  2023
--------------------------------------------------------------------------------
Index   v-sweep         rds             
--------------------------------------------------------------------------------
0	0.000000e+00	2.903470e-04	
1	5.000000e-02	2.804891e-04	
2	1.000000e-01	2.708241e-04	
3	1.500000e-01	2.613475e-04	
4	2.000000e-01	2.520550e-04	
5	2.500000e-01	2.429424e-04	
6	3.000000e-01	2.340054e-04	
7	3.500000e-01	2.252401e-04	
8	4.000000e-01	2.166423e-04	
9	4.500000e-01	2.082082e-04	
10	5.000000e-01	1.999340e-04	
11	5.500000e-01	1.918159e-04	
12	6.000000e-01	1.838503e-04	
13	6.500000e-01	1.760337e-04	
14	7.000000e-01	1.683628e-04	
15	7.500000e-01	1.608342e-04	
16	8.000000e-01	1.534449e-04	
17	8.500000e-01	1.461917e-04	
18	9.000000e-01	1.390718e-04	
19	9.500000e-01	1.320823e-04	
20	1.000000e+00	1.252205e-04	
21	1.050000e+00	1.184834e-04	
22	1.100000e+00	1.118685e-04	
23	1.150000e+00	1.053726e-04	
24	1.200000e+00	9.899251e-05	
25	1.250000e+00	9.272457e-05	
26	1.300000e+00	8.656411e-05	
27	1.350000e+00	8.050516e-05	
28	1.400000e+00	7.453992e-05	
29	1.450000e+00	6.865896e-05	
30	1.500000e+00	6.285407e-05	
31	1.550000e+00	5.712802e-05	
32	1.600000e+00	5.151526e-05	
33	1.650000e+00	4.610643e-05	
34	1.700000e+00	4.104621e-05	
35	1.750000e+00	3.648235e-05	
36	1.800000e+00	3.250126e-05	
37	1.850000e+00	2.910703e-05	
38	1.900000e+00	2.624543e-05	
39	1.950000e+00	2.383823e-05	
40	2.000000e+00	2.180631e-05	
41	2.050000e+00	2.008011e-05	
42	2.100000e+00	1.860219e-05	
43	2.150000e+00	1.732651e-05	
44	2.200000e+00	1.621659e-05	
45	2.250000e+00	1.524356e-05	
46	2.300000e+00	1.438449e-05	
47	2.350000e+00	1.362109e-05	
48	2.400000e+00	1.293864e-05	
49	2.450000e+00	1.232518e-05	
50	2.500000e+00	1.177095e-05	
51	2.550000e+00	1.126792e-05	
52	2.600000e+00	1.080941e-05	
53	2.650000e+00	1.038984e-05	
54	2.700000e+00	1.000451e-05	

Index   v-sweep         rds             
--------------------------------------------------------------------------------
55	2.750000e+00	9.649430e-06	
56	2.800000e+00	9.321215e-06	
57	2.850000e+00	9.016953e-06	
58	2.900000e+00	8.734137e-06	
59	2.950000e+00	8.470594e-06	
60	3.000000e+00	8.224434e-06	
61	3.050000e+00	7.994003e-06	
62	3.100000e+00	7.777852e-06	
63	3.150000e+00	7.574700e-06	
64	3.200000e+00	7.383418e-06	
65	3.250000e+00	7.202999e-06	
66	3.300000e+00	7.032549e-06	
67	3.350000e+00	6.871270e-06	
68	3.400000e+00	6.718443e-06	
69	3.450000e+00	6.573425e-06	
70	3.500000e+00	6.435636e-06	
71	3.550000e+00	6.304550e-06	
72	3.600000e+00	6.179693e-06	
73	3.650000e+00	6.060633e-06	
74	3.700000e+00	5.946978e-06	
75	3.750000e+00	5.838369e-06	
76	3.800000e+00	5.734478e-06	
77	3.850000e+00	5.635008e-06	
78	3.900000e+00	5.539682e-06	
79	3.950000e+00	5.448248e-06	
80	4.000000e+00	5.360473e-06	
81	4.050000e+00	5.276144e-06	
82	4.100000e+00	5.195062e-06	
83	4.150000e+00	5.117044e-06	
84	4.200000e+00	5.041920e-06	
85	4.250000e+00	4.969534e-06	
86	4.300000e+00	4.899738e-06	
87	4.350000e+00	4.832397e-06	
88	4.400000e+00	4.767384e-06	
89	4.450000e+00	4.704581e-06	
90	4.500000e+00	4.643878e-06	
91	4.550000e+00	4.585172e-06	
92	4.600000e+00	4.528367e-06	
93	4.650000e+00	4.473372e-06	
94	4.700000e+00	4.420102e-06	
95	4.750000e+00	4.368478e-06	
96	4.800000e+00	4.318426e-06	
97	4.850000e+00	4.269875e-06	
98	4.900000e+00	4.222759e-06	
99	4.950000e+00	4.177016e-06	
100	5.000000e+00	4.132587e-06	
101	5.050000e+00	4.089417e-06	
102	5.100000e+00	4.047454e-06	
103	5.150000e+00	4.006648e-06	
104	5.200000e+00	3.966952e-06	
105	5.250000e+00	3.928322e-06	
106	5.300000e+00	3.890716e-06	
107	5.350000e+00	3.854095e-06	
108	5.400000e+00	3.818421e-06	
109	5.450000e+00	3.783657e-06	
110	5.500000e+00	3.749770e-06	
111	5.550000e+00	3.716728e-06	
112	5.600000e+00	3.684500e-06	

Index   v-sweep         rds             
--------------------------------------------------------------------------------
113	5.650000e+00	3.653057e-06	
114	5.700000e+00	3.622370e-06	
115	5.750000e+00	3.592414e-06	
116	5.800000e+00	3.563162e-06	
117	5.850000e+00	3.534592e-06	
118	5.900000e+00	3.506679e-06	
119	5.950000e+00	3.479402e-06	
120	6.000000e+00	3.452740e-06	
121	6.050000e+00	3.426673e-06	
122	6.100000e+00	3.401181e-06	
123	6.150000e+00	3.376246e-06	
124	6.200000e+00	3.351851e-06	
125	6.250000e+00	3.327979e-06	
126	6.300000e+00	3.304613e-06	
127	6.350000e+00	3.281738e-06	
128	6.400000e+00	3.259339e-06	
129	6.450000e+00	3.237402e-06	
130	6.500000e+00	3.215913e-06	
131	6.550000e+00	3.194860e-06	
132	6.600000e+00	3.174228e-06	
Reset re-loads circuit ***************************

Circuit: ***************************

Doing analysis at TEMP = 125.000000 and TNOM = 125.000000


No. of Data Rows : 133
                          ***************************
                          DC transfer characteristic  Mon Jan  9 13:58:40  2023
--------------------------------------------------------------------------------
Index   v-sweep         rds             
--------------------------------------------------------------------------------
0	0.000000e+00	3.355560e-04	
1	5.000000e-02	3.262263e-04	
2	1.000000e-01	3.170608e-04	
3	1.500000e-01	3.080564e-04	
4	2.000000e-01	2.992095e-04	
5	2.500000e-01	2.905171e-04	
6	3.000000e-01	2.819759e-04	
7	3.500000e-01	2.735827e-04	
8	4.000000e-01	2.653344e-04	
9	4.500000e-01	2.572281e-04	
10	5.000000e-01	2.492605e-04	
11	5.500000e-01	2.414290e-04	
12	6.000000e-01	2.337304e-04	
13	6.500000e-01	2.261621e-04	
14	7.000000e-01	2.187213e-04	
15	7.500000e-01	2.114052e-04	
16	8.000000e-01	2.042113e-04	
17	8.500000e-01	1.971371e-04	
18	9.000000e-01	1.901800e-04	
19	9.500000e-01	1.833378e-04	
20	1.000000e+00	1.766082e-04	
21	1.050000e+00	1.699888e-04	
22	1.100000e+00	1.634777e-04	
23	1.150000e+00	1.570725e-04	
24	1.200000e+00	1.507713e-04	
25	1.250000e+00	1.445721e-04	
26	1.300000e+00	1.384727e-04	
27	1.350000e+00	1.324710e-04	
28	1.400000e+00	1.265647e-04	
29	1.450000e+00	1.207516e-04	
30	1.500000e+00	1.150287e-04	
31	1.550000e+00	1.093927e-04	
32	1.600000e+00	1.038396e-04	
33	1.650000e+00	9.836393e-05	
34	1.700000e+00	9.295813e-05	
35	1.750000e+00	8.761180e-05	
36	1.800000e+00	8.231029e-05	
37	1.850000e+00	7.703395e-05	
38	1.900000e+00	7.175924e-05	
39	1.950000e+00	6.646531e-05	
40	2.000000e+00	6.115055e-05	
41	2.050000e+00	5.585784e-05	
42	2.100000e+00	5.069129e-05	
43	2.150000e+00	4.579805e-05	
44	2.200000e+00	4.131627e-05	
45	2.250000e+00	3.732819e-05	
46	2.300000e+00	3.384961e-05	
47	2.350000e+00	3.084819e-05	
48	2.400000e+00	2.826807e-05	
49	2.450000e+00	2.604777e-05	
50	2.500000e+00	2.412963e-05	
51	2.550000e+00	2.246356e-05	
52	2.600000e+00	2.100762e-05	
53	2.650000e+00	1.972738e-05	
54	2.700000e+00	1.859472e-05	

Index   v-sweep         rds             
--------------------------------------------------------------------------------
55	2.750000e+00	1.758675e-05	
56	2.800000e+00	1.668479e-05	
57	2.850000e+00	1.587353e-05	
58	2.900000e+00	1.514033e-05	
59	2.950000e+00	1.447474e-05	
60	3.000000e+00	1.386802e-05	
61	3.050000e+00	1.331284e-05	
62	3.100000e+00	1.280301e-05	
63	3.150000e+00	1.233329e-05	
64	3.200000e+00	1.189918e-05	
65	3.250000e+00	1.149683e-05	
66	3.300000e+00	1.112293e-05	
67	3.350000e+00	1.077459e-05	
68	3.400000e+00	1.044931e-05	
69	3.450000e+00	1.014488e-05	
70	3.500000e+00	9.859386e-06	
71	3.550000e+00	9.591124e-06	
72	3.600000e+00	9.338594e-06	
73	3.650000e+00	9.100460e-06	
74	3.700000e+00	8.875535e-06	
75	3.750000e+00	8.662755e-06	
76	3.800000e+00	8.461170e-06	
77	3.850000e+00	8.269924e-06	
78	3.900000e+00	8.088246e-06	
79	3.950000e+00	7.915439e-06	
80	4.000000e+00	7.750873e-06	
81	4.050000e+00	7.593975e-06	
82	4.100000e+00	7.444225e-06	
83	4.150000e+00	7.301146e-06	
84	4.200000e+00	7.164305e-06	
85	4.250000e+00	7.033305e-06	
86	4.300000e+00	6.907781e-06	
87	4.350000e+00	6.787399e-06	
88	4.400000e+00	6.671850e-06	
89	4.450000e+00	6.560850e-06	
90	4.500000e+00	6.454138e-06	
91	4.550000e+00	6.351470e-06	
92	4.600000e+00	6.252623e-06	
93	4.650000e+00	6.157386e-06	
94	4.700000e+00	6.065568e-06	
95	4.750000e+00	5.976988e-06	
96	4.800000e+00	5.891479e-06	
97	4.850000e+00	5.808885e-06	
98	4.900000e+00	5.729059e-06	
99	4.950000e+00	5.651865e-06	
100	5.000000e+00	5.577177e-06	
101	5.050000e+00	5.504874e-06	
102	5.100000e+00	5.434845e-06	
103	5.150000e+00	5.366985e-06	
104	5.200000e+00	5.301196e-06	
105	5.250000e+00	5.237384e-06	
106	5.300000e+00	5.175462e-06	
107	5.350000e+00	5.115349e-06	
108	5.400000e+00	5.056967e-06	
109	5.450000e+00	5.000242e-06	
110	5.500000e+00	4.945106e-06	
111	5.550000e+00	4.891494e-06	
112	5.600000e+00	4.839344e-06	

Index   v-sweep         rds             
--------------------------------------------------------------------------------
113	5.650000e+00	4.788597e-06	
114	5.700000e+00	4.739199e-06	
115	5.750000e+00	4.691097e-06	
116	5.800000e+00	4.644241e-06	
117	5.850000e+00	4.598584e-06	
118	5.900000e+00	4.554081e-06	
119	5.950000e+00	4.510691e-06	
120	6.000000e+00	4.468372e-06	
121	6.050000e+00	4.427086e-06	
122	6.100000e+00	4.386796e-06	
123	6.150000e+00	4.347467e-06	
124	6.200000e+00	4.309067e-06	
125	6.250000e+00	4.271563e-06	
126	6.300000e+00	4.234925e-06	
127	6.350000e+00	4.199124e-06	
128	6.400000e+00	4.164133e-06	
129	6.450000e+00	4.129925e-06	
130	6.500000e+00	4.096475e-06	
131	6.550000e+00	4.063759e-06	
132	6.600000e+00	4.031754e-06	
Reset re-loads circuit ***************************

Circuit: ***************************

Doing analysis at TEMP = 125.000000 and TNOM = 125.000000


No. of Data Rows : 133
                          ***************************
                          DC transfer characteristic  Mon Jan  9 13:58:40  2023
--------------------------------------------------------------------------------
Index   v-sweep         rds             
--------------------------------------------------------------------------------
0	0.000000e+00	3.592964e-04	
1	5.000000e-02	3.508142e-04	
2	1.000000e-01	3.424648e-04	
3	1.500000e-01	3.342458e-04	
4	2.000000e-01	3.261549e-04	
5	2.500000e-01	3.181897e-04	
6	3.000000e-01	3.103480e-04	
7	3.500000e-01	3.026274e-04	
8	4.000000e-01	2.950257e-04	
9	4.500000e-01	2.875406e-04	
10	5.000000e-01	2.801701e-04	
11	5.500000e-01	2.729119e-04	
12	6.000000e-01	2.657640e-04	
13	6.500000e-01	2.587242e-04	
14	7.000000e-01	2.517904e-04	
15	7.500000e-01	2.449608e-04	
16	8.000000e-01	2.382332e-04	
17	8.500000e-01	2.316059e-04	
18	9.000000e-01	2.250768e-04	
19	9.500000e-01	2.186443e-04	
20	1.000000e+00	2.123064e-04	
21	1.050000e+00	2.060616e-04	
22	1.100000e+00	1.999080e-04	
23	1.150000e+00	1.938442e-04	
24	1.200000e+00	1.878684e-04	
25	1.250000e+00	1.819793e-04	
26	1.300000e+00	1.761752e-04	
27	1.350000e+00	1.704547e-04	
28	1.400000e+00	1.648165e-04	
29	1.450000e+00	1.592590e-04	
30	1.500000e+00	1.537810e-04	
31	1.550000e+00	1.483809e-04	
32	1.600000e+00	1.430575e-04	
33	1.650000e+00	1.378093e-04	
34	1.700000e+00	1.326346e-04	
35	1.750000e+00	1.275319e-04	
36	1.800000e+00	1.224993e-04	
37	1.850000e+00	1.175346e-04	
38	1.900000e+00	1.126351e-04	
39	1.950000e+00	1.077976e-04	
40	2.000000e+00	1.030176e-04	
41	2.050000e+00	9.828933e-05	
42	2.100000e+00	9.360450e-05	
43	2.150000e+00	8.895173e-05	
44	2.200000e+00	8.431529e-05	
45	2.250000e+00	7.967435e-05	
46	2.300000e+00	7.500386e-05	
47	2.350000e+00	7.027953e-05	
48	2.400000e+00	6.549001e-05	
49	2.450000e+00	6.065595e-05	
50	2.500000e+00	5.584631e-05	
51	2.550000e+00	5.117417e-05	
52	2.600000e+00	4.676573e-05	
53	2.650000e+00	4.272079e-05	
54	2.700000e+00	3.909078e-05	

Index   v-sweep         rds             
--------------------------------------------------------------------------------
55	2.750000e+00	3.588085e-05	
56	2.800000e+00	3.306497e-05	
57	2.850000e+00	3.060173e-05	
58	2.900000e+00	2.844556e-05	
59	2.950000e+00	2.655284e-05	
60	3.000000e+00	2.488463e-05	
61	3.050000e+00	2.340741e-05	
62	3.100000e+00	2.209289e-05	
63	3.150000e+00	2.091739e-05	
64	3.200000e+00	1.986120e-05	
65	3.250000e+00	1.890786e-05	
66	3.300000e+00	1.804365e-05	
67	3.350000e+00	1.725703e-05	
68	3.400000e+00	1.653833e-05	
69	3.450000e+00	1.587932e-05	
70	3.500000e+00	1.527304e-05	
71	3.550000e+00	1.471352e-05	
72	3.600000e+00	1.419566e-05	
73	3.650000e+00	1.371505e-05	
74	3.700000e+00	1.326786e-05	
75	3.750000e+00	1.285078e-05	
76	3.800000e+00	1.246089e-05	
77	3.850000e+00	1.209566e-05	
78	3.900000e+00	1.175284e-05	
79	3.950000e+00	1.143045e-05	
80	4.000000e+00	1.112673e-05	
81	4.050000e+00	1.084012e-05	
82	4.100000e+00	1.056923e-05	
83	4.150000e+00	1.031281e-05	
84	4.200000e+00	1.006973e-05	
85	4.250000e+00	9.838996e-06	
86	4.300000e+00	9.619688e-06	
87	4.350000e+00	9.410984e-06	
88	4.400000e+00	9.212140e-06	
89	4.450000e+00	9.022476e-06	
90	4.500000e+00	8.841375e-06	
91	4.550000e+00	8.668273e-06	
92	4.600000e+00	8.502655e-06	
93	4.650000e+00	8.344046e-06	
94	4.700000e+00	8.192015e-06	
95	4.750000e+00	8.046162e-06	
96	4.800000e+00	7.906120e-06	
97	4.850000e+00	7.771550e-06	
98	4.900000e+00	7.642139e-06	
99	4.950000e+00	7.517598e-06	
100	5.000000e+00	7.397657e-06	
101	5.050000e+00	7.282068e-06	
102	5.100000e+00	7.170599e-06	
103	5.150000e+00	7.063036e-06	
104	5.200000e+00	6.959176e-06	
105	5.250000e+00	6.858833e-06	
106	5.300000e+00	6.761833e-06	
107	5.350000e+00	6.668011e-06	
108	5.400000e+00	6.577216e-06	
109	5.450000e+00	6.489303e-06	
110	5.500000e+00	6.404138e-06	
111	5.550000e+00	6.321596e-06	
112	5.600000e+00	6.241558e-06	

Index   v-sweep         rds             
--------------------------------------------------------------------------------
113	5.650000e+00	6.163913e-06	
114	5.700000e+00	6.088554e-06	
115	5.750000e+00	6.015385e-06	
116	5.800000e+00	5.944311e-06	
117	5.850000e+00	5.875245e-06	
118	5.900000e+00	5.808104e-06	
119	5.950000e+00	5.742809e-06	
120	6.000000e+00	5.679286e-06	
121	6.050000e+00	5.617464e-06	
122	6.100000e+00	5.557277e-06	
123	6.150000e+00	5.498663e-06	
124	6.200000e+00	5.441560e-06	
125	6.250000e+00	5.385913e-06	
126	6.300000e+00	5.331668e-06	
127	6.350000e+00	5.278772e-06	
128	6.400000e+00	5.227177e-06	
129	6.450000e+00	5.176838e-06	
130	6.500000e+00	5.127708e-06	
131	6.550000e+00	5.079748e-06	
132	6.600000e+00	5.032916e-06	
Reset re-loads circuit ***************************

Circuit: ***************************

Note: No ".plot", ".print", or ".fourier" lines; no simulations run
