
Note: Compatibility modes selected: hs

Warning: m=xx on .subckt line will override multiplier m hierarchy!


Circuit: ***************************

Doing analysis at TEMP = -40.000000 and TNOM = -40.000000


No. of Data Rows : 133
                          ***************************
                          DC transfer characteristic  Mon Jan  9 13:58:38  2023
--------------------------------------------------------------------------------
Index   v-sweep         rds             
--------------------------------------------------------------------------------
0	0.000000e+00	3.571945e-06	
1	5.000000e-02	2.680820e-06	
2	1.000000e-01	1.808099e-06	
3	1.500000e-01	9.998747e-07	
4	2.000000e-01	3.998281e-07	
5	2.500000e-01	1.294298e-07	
6	3.000000e-01	4.876114e-08	
7	3.500000e-01	2.445552e-08	
8	4.000000e-01	1.559940e-08	
9	4.500000e-01	1.172897e-08	
10	5.000000e-01	9.780165e-09	
11	5.500000e-01	8.687451e-09	
12	6.000000e-01	8.021808e-09	
13	6.500000e-01	7.589019e-09	
14	7.000000e-01	7.292535e-09	
15	7.500000e-01	7.080583e-09	
16	8.000000e-01	6.923618e-09	
17	8.500000e-01	6.803885e-09	
18	9.000000e-01	6.710231e-09	
19	9.500000e-01	6.635389e-09	
20	1.000000e+00	6.574463e-09	
21	1.050000e+00	6.524062e-09	
22	1.100000e+00	6.481776e-09	
23	1.150000e+00	6.445858e-09	
24	1.200000e+00	6.415014e-09	
25	1.250000e+00	6.388267e-09	
26	1.300000e+00	6.364871e-09	
27	1.350000e+00	6.344247e-09	
28	1.400000e+00	6.325938e-09	
29	1.450000e+00	6.309581e-09	
30	1.500000e+00	6.294883e-09	
31	1.550000e+00	6.281607e-09	
32	1.600000e+00	6.269558e-09	
33	1.650000e+00	6.258574e-09	
34	1.700000e+00	6.248521e-09	
35	1.750000e+00	6.239286e-09	
36	1.800000e+00	6.230774e-09	
37	1.850000e+00	6.222902e-09	
38	1.900000e+00	6.215601e-09	
39	1.950000e+00	6.208812e-09	
40	2.000000e+00	6.202482e-09	
41	2.050000e+00	6.196566e-09	
42	2.100000e+00	6.191025e-09	
43	2.150000e+00	6.185825e-09	
44	2.200000e+00	6.180934e-09	
45	2.250000e+00	6.176326e-09	
46	2.300000e+00	6.171977e-09	
47	2.350000e+00	6.167865e-09	
48	2.400000e+00	6.163973e-09	
49	2.450000e+00	6.160282e-09	
50	2.500000e+00	6.156777e-09	
51	2.550000e+00	6.153445e-09	
52	2.600000e+00	6.150273e-09	
53	2.650000e+00	6.147250e-09	
54	2.700000e+00	6.144365e-09	

Index   v-sweep         rds             
--------------------------------------------------------------------------------
55	2.750000e+00	6.141610e-09	
56	2.800000e+00	6.138975e-09	
57	2.850000e+00	6.136453e-09	
58	2.900000e+00	6.134038e-09	
59	2.950000e+00	6.131721e-09	
60	3.000000e+00	6.129498e-09	
61	3.050000e+00	6.127363e-09	
62	3.100000e+00	6.125310e-09	
63	3.150000e+00	6.123336e-09	
64	3.200000e+00	6.121435e-09	
65	3.250000e+00	6.119604e-09	
66	3.300000e+00	6.117839e-09	
67	3.350000e+00	6.116136e-09	
68	3.400000e+00	6.114492e-09	
69	3.450000e+00	6.112904e-09	
70	3.500000e+00	6.111370e-09	
71	3.550000e+00	6.109886e-09	
72	3.600000e+00	6.108451e-09	
73	3.650000e+00	6.107062e-09	
74	3.700000e+00	6.105716e-09	
75	3.750000e+00	6.104412e-09	
76	3.800000e+00	6.103148e-09	
77	3.850000e+00	6.101922e-09	
78	3.900000e+00	6.100733e-09	
79	3.950000e+00	6.099578e-09	
80	4.000000e+00	6.098457e-09	
81	4.050000e+00	6.097367e-09	
82	4.100000e+00	6.096308e-09	
83	4.150000e+00	6.095279e-09	
84	4.200000e+00	6.094277e-09	
85	4.250000e+00	6.093303e-09	
86	4.300000e+00	6.092354e-09	
87	4.350000e+00	6.091431e-09	
88	4.400000e+00	6.090531e-09	
89	4.450000e+00	6.089655e-09	
90	4.500000e+00	6.088800e-09	
91	4.550000e+00	6.087967e-09	
92	4.600000e+00	6.087155e-09	
93	4.650000e+00	6.086362e-09	
94	4.700000e+00	6.085589e-09	
95	4.750000e+00	6.084834e-09	
96	4.800000e+00	6.084097e-09	
97	4.850000e+00	6.083377e-09	
98	4.900000e+00	6.082674e-09	
99	4.950000e+00	6.081987e-09	
100	5.000000e+00	6.081315e-09	
101	5.050000e+00	6.080659e-09	
102	5.100000e+00	6.080016e-09	
103	5.150000e+00	6.079388e-09	
104	5.200000e+00	6.078774e-09	
105	5.250000e+00	6.078173e-09	
106	5.300000e+00	6.077584e-09	
107	5.350000e+00	6.077008e-09	
108	5.400000e+00	6.076444e-09	
109	5.450000e+00	6.075892e-09	
110	5.500000e+00	6.075350e-09	
111	5.550000e+00	6.074820e-09	
112	5.600000e+00	6.074301e-09	

Index   v-sweep         rds             
--------------------------------------------------------------------------------
113	5.650000e+00	6.073791e-09	
114	5.700000e+00	6.073292e-09	
115	5.750000e+00	6.072803e-09	
116	5.800000e+00	6.072323e-09	
117	5.850000e+00	6.071852e-09	
118	5.900000e+00	6.071390e-09	
119	5.950000e+00	6.070936e-09	
120	6.000000e+00	6.070492e-09	
121	6.050000e+00	6.070055e-09	
122	6.100000e+00	6.069627e-09	
123	6.150000e+00	6.069206e-09	
124	6.200000e+00	6.068793e-09	
125	6.250000e+00	6.068387e-09	
126	6.300000e+00	6.067988e-09	
127	6.350000e+00	6.067597e-09	
128	6.400000e+00	6.067212e-09	
129	6.450000e+00	6.066834e-09	
130	6.500000e+00	6.066462e-09	
131	6.550000e+00	6.066097e-09	
132	6.600000e+00	6.065738e-09	
Reset re-loads circuit ***************************

Circuit: ***************************

Doing analysis at TEMP = -40.000000 and TNOM = -40.000000


No. of Data Rows : 133
                          ***************************
                          DC transfer characteristic  Mon Jan  9 13:58:39  2023
--------------------------------------------------------------------------------
Index   v-sweep         rds             
--------------------------------------------------------------------------------
0	0.000000e+00	1.796604e-05	
1	5.000000e-02	1.700958e-05	
2	1.000000e-01	1.605566e-05	
3	1.500000e-01	1.510427e-05	
4	2.000000e-01	1.415544e-05	
5	2.500000e-01	1.320919e-05	
6	3.000000e-01	1.226555e-05	
7	3.500000e-01	1.132459e-05	
8	4.000000e-01	1.038642e-05	
9	4.500000e-01	9.451216e-06	
10	5.000000e-01	8.519270e-06	
11	5.500000e-01	7.591102e-06	
12	6.000000e-01	6.667647e-06	
13	6.500000e-01	5.750660e-06	
14	7.000000e-01	4.843548e-06	
15	7.500000e-01	3.953130e-06	
16	8.000000e-01	3.093119e-06	
17	8.500000e-01	2.289751e-06	
18	9.000000e-01	1.585879e-06	
19	9.500000e-01	1.030274e-06	
20	1.000000e+00	6.451647e-07	
21	1.050000e+00	4.067312e-07	
22	1.100000e+00	2.676991e-07	
23	1.150000e+00	1.871158e-07	
24	1.200000e+00	1.391041e-07	
25	1.250000e+00	1.092791e-07	
26	1.300000e+00	8.990828e-08	
27	1.350000e+00	7.678656e-08	
28	1.400000e+00	6.755540e-08	
29	1.450000e+00	6.084188e-08	
30	1.500000e+00	5.581601e-08	
31	1.550000e+00	5.195770e-08	
32	1.600000e+00	4.893013e-08	
33	1.650000e+00	4.650855e-08	
34	1.700000e+00	4.453890e-08	
35	1.750000e+00	4.291299e-08	
36	1.800000e+00	4.155314e-08	
37	1.850000e+00	4.040253e-08	
38	1.900000e+00	3.941878e-08	
39	1.950000e+00	3.856983e-08	
40	2.000000e+00	3.783104e-08	
41	2.050000e+00	3.718321e-08	
42	2.100000e+00	3.661123e-08	
43	2.150000e+00	3.610304e-08	
44	2.200000e+00	3.564894e-08	
45	2.250000e+00	3.524104e-08	
46	2.300000e+00	3.487287e-08	
47	2.350000e+00	3.453909e-08	
48	2.400000e+00	3.423524e-08	
49	2.450000e+00	3.395758e-08	
50	2.500000e+00	3.370297e-08	
51	2.550000e+00	3.346873e-08	
52	2.600000e+00	3.325256e-08	
53	2.650000e+00	3.305251e-08	
54	2.700000e+00	3.286688e-08	

Index   v-sweep         rds             
--------------------------------------------------------------------------------
55	2.750000e+00	3.269419e-08	
56	2.800000e+00	3.253318e-08	
57	2.850000e+00	3.238271e-08	
58	2.900000e+00	3.224180e-08	
59	2.950000e+00	3.210959e-08	
60	3.000000e+00	3.198532e-08	
61	3.050000e+00	3.186829e-08	
62	3.100000e+00	3.175791e-08	
63	3.150000e+00	3.165363e-08	
64	3.200000e+00	3.155496e-08	
65	3.250000e+00	3.146148e-08	
66	3.300000e+00	3.137279e-08	
67	3.350000e+00	3.128854e-08	
68	3.400000e+00	3.120840e-08	
69	3.450000e+00	3.113208e-08	
70	3.500000e+00	3.105933e-08	
71	3.550000e+00	3.098990e-08	
72	3.600000e+00	3.092357e-08	
73	3.650000e+00	3.086014e-08	
74	3.700000e+00	3.079942e-08	
75	3.750000e+00	3.074125e-08	
76	3.800000e+00	3.068547e-08	
77	3.850000e+00	3.063194e-08	
78	3.900000e+00	3.058053e-08	
79	3.950000e+00	3.053111e-08	
80	4.000000e+00	3.048358e-08	
81	4.050000e+00	3.043782e-08	
82	4.100000e+00	3.039374e-08	
83	4.150000e+00	3.035125e-08	
84	4.200000e+00	3.031027e-08	
85	4.250000e+00	3.027071e-08	
86	4.300000e+00	3.023252e-08	
87	4.350000e+00	3.019560e-08	
88	4.400000e+00	3.015992e-08	
89	4.450000e+00	3.012540e-08	
90	4.500000e+00	3.009198e-08	
91	4.550000e+00	3.005963e-08	
92	4.600000e+00	3.002828e-08	
93	4.650000e+00	2.999789e-08	
94	4.700000e+00	2.996843e-08	
95	4.750000e+00	2.993984e-08	
96	4.800000e+00	2.991208e-08	
97	4.850000e+00	2.988514e-08	
98	4.900000e+00	2.985896e-08	
99	4.950000e+00	2.983352e-08	
100	5.000000e+00	2.980878e-08	
101	5.050000e+00	2.978473e-08	
102	5.100000e+00	2.976132e-08	
103	5.150000e+00	2.973854e-08	
104	5.200000e+00	2.971635e-08	
105	5.250000e+00	2.969475e-08	
106	5.300000e+00	2.967370e-08	
107	5.350000e+00	2.965318e-08	
108	5.400000e+00	2.963318e-08	
109	5.450000e+00	2.961367e-08	
110	5.500000e+00	2.959463e-08	
111	5.550000e+00	2.957606e-08	
112	5.600000e+00	2.955793e-08	

Index   v-sweep         rds             
--------------------------------------------------------------------------------
113	5.650000e+00	2.954023e-08	
114	5.700000e+00	2.952295e-08	
115	5.750000e+00	2.950606e-08	
116	5.800000e+00	2.948955e-08	
117	5.850000e+00	2.947342e-08	
118	5.900000e+00	2.945765e-08	
119	5.950000e+00	2.944223e-08	
120	6.000000e+00	2.942714e-08	
121	6.050000e+00	2.941238e-08	
122	6.100000e+00	2.939793e-08	
123	6.150000e+00	2.938379e-08	
124	6.200000e+00	2.936995e-08	
125	6.250000e+00	2.935639e-08	
126	6.300000e+00	2.934311e-08	
127	6.350000e+00	2.933010e-08	
128	6.400000e+00	2.931736e-08	
129	6.450000e+00	2.930486e-08	
130	6.500000e+00	2.929262e-08	
131	6.550000e+00	2.928061e-08	
132	6.600000e+00	2.926883e-08	
Reset re-loads circuit ***************************

Circuit: ***************************

Doing analysis at TEMP = -40.000000 and TNOM = -40.000000


No. of Data Rows : 133
                          ***************************
                          DC transfer characteristic  Mon Jan  9 13:58:39  2023
--------------------------------------------------------------------------------
Index   v-sweep         rds             
--------------------------------------------------------------------------------
0	0.000000e+00	3.032576e-05	
1	5.000000e-02	2.942461e-05	
2	1.000000e-01	2.852597e-05	
3	1.500000e-01	2.762985e-05	
4	2.000000e-01	2.673624e-05	
5	2.500000e-01	2.584512e-05	
6	3.000000e-01	2.495648e-05	
7	3.500000e-01	2.407033e-05	
8	4.000000e-01	2.318664e-05	
9	4.500000e-01	2.230541e-05	
10	5.000000e-01	2.142664e-05	
11	5.500000e-01	2.055031e-05	
12	6.000000e-01	1.967642e-05	
13	6.500000e-01	1.880496e-05	
14	7.000000e-01	1.793592e-05	
15	7.500000e-01	1.706931e-05	
16	8.000000e-01	1.620511e-05	
17	8.500000e-01	1.534333e-05	
18	9.000000e-01	1.448397e-05	
19	9.500000e-01	1.362705e-05	
20	1.000000e+00	1.277260e-05	
21	1.050000e+00	1.192065e-05	
22	1.100000e+00	1.107128e-05	
23	1.150000e+00	1.022462e-05	
24	1.200000e+00	9.380873e-06	
25	1.250000e+00	8.540408e-06	
26	1.300000e+00	7.703836e-06	
27	1.350000e+00	6.872230e-06	
28	1.400000e+00	6.047485e-06	
29	1.450000e+00	5.232974e-06	
30	1.500000e+00	4.434679e-06	
31	1.550000e+00	3.662926e-06	
32	1.600000e+00	2.934396e-06	
33	1.650000e+00	2.272719e-06	
34	1.700000e+00	1.704376e-06	
35	1.750000e+00	1.248518e-06	
36	1.800000e+00	9.070538e-07	
37	1.850000e+00	6.645672e-07	
38	1.900000e+00	4.974683e-07	
39	1.950000e+00	3.832101e-07	
40	2.000000e+00	3.044304e-07	
41	2.050000e+00	2.491447e-07	
42	2.100000e+00	2.094855e-07	
43	2.150000e+00	1.803718e-07	
44	2.200000e+00	1.585133e-07	
45	2.250000e+00	1.417527e-07	
46	2.300000e+00	1.286504e-07	
47	2.350000e+00	1.182269e-07	
48	2.400000e+00	1.098027e-07	
49	2.450000e+00	1.028969e-07	
50	2.500000e+00	9.716308e-08	
51	2.550000e+00	9.234722e-08	
52	2.600000e+00	8.826019e-08	
53	2.650000e+00	8.475896e-08	
54	2.700000e+00	8.173394e-08	

Index   v-sweep         rds             
--------------------------------------------------------------------------------
55	2.750000e+00	7.910006e-08	
56	2.800000e+00	7.679049e-08	
57	2.850000e+00	7.475219e-08	
58	2.900000e+00	7.294264e-08	
59	2.950000e+00	7.132739e-08	
60	3.000000e+00	6.987835e-08	
61	3.050000e+00	6.857238e-08	
62	3.100000e+00	6.739030e-08	
63	3.150000e+00	6.631609e-08	
64	3.200000e+00	6.533630e-08	
65	3.250000e+00	6.443953e-08	
66	3.300000e+00	6.361611e-08	
67	3.350000e+00	6.285776e-08	
68	3.400000e+00	6.215736e-08	
69	3.450000e+00	6.150878e-08	
70	3.500000e+00	6.090667e-08	
71	3.550000e+00	6.034640e-08	
72	3.600000e+00	5.982391e-08	
73	3.650000e+00	5.933563e-08	
74	3.700000e+00	5.887842e-08	
75	3.750000e+00	5.844950e-08	
76	3.800000e+00	5.804641e-08	
77	3.850000e+00	5.766695e-08	
78	3.900000e+00	5.730917e-08	
79	3.950000e+00	5.697131e-08	
80	4.000000e+00	5.665181e-08	
81	4.050000e+00	5.634924e-08	
82	4.100000e+00	5.606234e-08	
83	4.150000e+00	5.578995e-08	
84	4.200000e+00	5.553102e-08	
85	4.250000e+00	5.528461e-08	
86	4.300000e+00	5.504984e-08	
87	4.350000e+00	5.482595e-08	
88	4.400000e+00	5.461219e-08	
89	4.450000e+00	5.440792e-08	
90	4.500000e+00	5.421254e-08	
91	4.550000e+00	5.402548e-08	
92	4.600000e+00	5.384624e-08	
93	4.650000e+00	5.367435e-08	
94	4.700000e+00	5.350938e-08	
95	4.750000e+00	5.335092e-08	
96	4.800000e+00	5.319860e-08	
97	4.850000e+00	5.305209e-08	
98	4.900000e+00	5.291105e-08	
99	4.950000e+00	5.277520e-08	
100	5.000000e+00	5.264426e-08	
101	5.050000e+00	5.251798e-08	
102	5.100000e+00	5.239610e-08	
103	5.150000e+00	5.227842e-08	
104	5.200000e+00	5.216472e-08	
105	5.250000e+00	5.205481e-08	
106	5.300000e+00	5.194850e-08	
107	5.350000e+00	5.184562e-08	
108	5.400000e+00	5.174601e-08	
109	5.450000e+00	5.164952e-08	
110	5.500000e+00	5.155602e-08	
111	5.550000e+00	5.146535e-08	
112	5.600000e+00	5.137741e-08	

Index   v-sweep         rds             
--------------------------------------------------------------------------------
113	5.650000e+00	5.129206e-08	
114	5.700000e+00	5.120920e-08	
115	5.750000e+00	5.112873e-08	
116	5.800000e+00	5.105054e-08	
117	5.850000e+00	5.097453e-08	
118	5.900000e+00	5.090063e-08	
119	5.950000e+00	5.082874e-08	
120	6.000000e+00	5.075879e-08	
121	6.050000e+00	5.069069e-08	
122	6.100000e+00	5.062438e-08	
123	6.150000e+00	5.055979e-08	
124	6.200000e+00	5.049685e-08	
125	6.250000e+00	5.043550e-08	
126	6.300000e+00	5.037569e-08	
127	6.350000e+00	5.031735e-08	
128	6.400000e+00	5.026043e-08	
129	6.450000e+00	5.020489e-08	
130	6.500000e+00	5.015067e-08	
131	6.550000e+00	5.009773e-08	
132	6.600000e+00	5.004602e-08	
Reset re-loads circuit ***************************

Circuit: ***************************

Doing analysis at TEMP = -40.000000 and TNOM = -40.000000


No. of Data Rows : 133
                          ***************************
                          DC transfer characteristic  Mon Jan  9 13:58:39  2023
--------------------------------------------------------------------------------
Index   v-sweep         rds             
--------------------------------------------------------------------------------
0	0.000000e+00	4.028644e-05	
1	5.000000e-02	3.946087e-05	
2	1.000000e-01	3.863757e-05	
3	1.500000e-01	3.781653e-05	
4	2.000000e-01	3.699774e-05	
5	2.500000e-01	3.618120e-05	
6	3.000000e-01	3.536690e-05	
7	3.500000e-01	3.455482e-05	
8	4.000000e-01	3.374496e-05	
9	4.500000e-01	3.293732e-05	
10	5.000000e-01	3.213188e-05	
11	5.500000e-01	3.132863e-05	
12	6.000000e-01	3.052758e-05	
13	6.500000e-01	2.972870e-05	
14	7.000000e-01	2.893199e-05	
15	7.500000e-01	2.813744e-05	
16	8.000000e-01	2.734505e-05	
17	8.500000e-01	2.655480e-05	
18	9.000000e-01	2.576668e-05	
19	9.500000e-01	2.498070e-05	
20	1.000000e+00	2.419682e-05	
21	1.050000e+00	2.341506e-05	
22	1.100000e+00	2.263539e-05	
23	1.150000e+00	2.185780e-05	
24	1.200000e+00	2.108230e-05	
25	1.250000e+00	2.030885e-05	
26	1.300000e+00	1.953746e-05	
27	1.350000e+00	1.876810e-05	
28	1.400000e+00	1.800077e-05	
29	1.450000e+00	1.723545e-05	
30	1.500000e+00	1.647213e-05	
31	1.550000e+00	1.571079e-05	
32	1.600000e+00	1.495141e-05	
33	1.650000e+00	1.419398e-05	
34	1.700000e+00	1.343849e-05	
35	1.750000e+00	1.268493e-05	
36	1.800000e+00	1.193328e-05	
37	1.850000e+00	1.118358e-05	
38	1.900000e+00	1.043584e-05	
39	1.950000e+00	9.690167e-06	
40	2.000000e+00	8.946712e-06	
41	2.050000e+00	8.205789e-06	
42	2.100000e+00	7.467960e-06	
43	2.150000e+00	6.734230e-06	
44	2.200000e+00	6.006364e-06	
45	2.250000e+00	5.287413e-06	
46	2.300000e+00	4.582499e-06	
47	2.350000e+00	3.899825e-06	
48	2.400000e+00	3.251523e-06	
49	2.450000e+00	2.653447e-06	
50	2.500000e+00	2.122675e-06	
51	2.550000e+00	1.672657e-06	
52	2.600000e+00	1.308364e-06	
53	2.650000e+00	1.024913e-06	
54	2.700000e+00	8.104011e-07	

Index   v-sweep         rds             
--------------------------------------------------------------------------------
55	2.750000e+00	6.504126e-07	
56	2.800000e+00	5.314701e-07	
57	2.850000e+00	4.425907e-07	
58	2.900000e+00	3.754848e-07	
59	2.950000e+00	3.241446e-07	
60	3.000000e+00	2.842956e-07	
61	3.050000e+00	2.529111e-07	
62	3.100000e+00	2.278405e-07	
63	3.150000e+00	2.075431e-07	
64	3.200000e+00	1.909030e-07	
65	3.250000e+00	1.771024e-07	
66	3.300000e+00	1.655339e-07	
67	3.350000e+00	1.557413e-07	
68	3.400000e+00	1.473771e-07	
69	3.450000e+00	1.401739e-07	
70	3.500000e+00	1.339234e-07	
71	3.550000e+00	1.284620e-07	
72	3.600000e+00	1.236592e-07	
73	3.650000e+00	1.194108e-07	
74	3.700000e+00	1.156322e-07	
75	3.750000e+00	1.122545e-07	
76	3.800000e+00	1.092209e-07	
77	3.850000e+00	1.064847e-07	
78	3.900000e+00	1.040066e-07	
79	3.950000e+00	1.017538e-07	
80	4.000000e+00	9.969860e-08	
81	4.050000e+00	9.781752e-08	
82	4.100000e+00	9.609047e-08	
83	4.150000e+00	9.450023e-08	
84	4.200000e+00	9.303198e-08	
85	4.250000e+00	9.167288e-08	
86	4.300000e+00	9.041176e-08	
87	4.350000e+00	8.923889e-08	
88	4.400000e+00	8.814574e-08	
89	4.450000e+00	8.712481e-08	
90	4.500000e+00	8.616947e-08	
91	4.550000e+00	8.527387e-08	
92	4.600000e+00	8.443280e-08	
93	4.650000e+00	8.364164e-08	
94	4.700000e+00	8.289625e-08	
95	4.750000e+00	8.219291e-08	
96	4.800000e+00	8.152831e-08	
97	4.850000e+00	8.089944e-08	
98	4.900000e+00	8.030361e-08	
99	4.950000e+00	7.973837e-08	
100	5.000000e+00	7.920151e-08	
101	5.050000e+00	7.869101e-08	
102	5.100000e+00	7.820504e-08	
103	5.150000e+00	7.774195e-08	
104	5.200000e+00	7.730019e-08	
105	5.250000e+00	7.687838e-08	
106	5.300000e+00	7.647524e-08	
107	5.350000e+00	7.608959e-08	
108	5.400000e+00	7.572036e-08	
109	5.450000e+00	7.536654e-08	
110	5.500000e+00	7.502723e-08	
111	5.550000e+00	7.470156e-08	
112	5.600000e+00	7.438876e-08	

Index   v-sweep         rds             
--------------------------------------------------------------------------------
113	5.650000e+00	7.408811e-08	
114	5.700000e+00	7.379892e-08	
115	5.750000e+00	7.352057e-08	
116	5.800000e+00	7.325248e-08	
117	5.850000e+00	7.299410e-08	
118	5.900000e+00	7.274494e-08	
119	5.950000e+00	7.250452e-08	
120	6.000000e+00	7.227239e-08	
121	6.050000e+00	7.204816e-08	
122	6.100000e+00	7.183142e-08	
123	6.150000e+00	7.162183e-08	
124	6.200000e+00	7.141903e-08	
125	6.250000e+00	7.122272e-08	
126	6.300000e+00	7.103260e-08	
127	6.350000e+00	7.084838e-08	
128	6.400000e+00	7.066980e-08	
129	6.450000e+00	7.049661e-08	
130	6.500000e+00	7.032857e-08	
131	6.550000e+00	7.016547e-08	
132	6.600000e+00	7.000709e-08	
Reset re-loads circuit ***************************

Circuit: ***************************

Doing analysis at TEMP = -40.000000 and TNOM = -40.000000


No. of Data Rows : 133
                          ***************************
                          DC transfer characteristic  Mon Jan  9 13:58:39  2023
--------------------------------------------------------------------------------
Index   v-sweep         rds             
--------------------------------------------------------------------------------
0	0.000000e+00	4.779413e-05	
1	5.000000e-02	4.705278e-05	
2	1.000000e-01	4.631336e-05	
3	1.500000e-01	4.557585e-05	
4	2.000000e-01	4.484025e-05	
5	2.500000e-01	4.410655e-05	
6	3.000000e-01	4.337475e-05	
7	3.500000e-01	4.264484e-05	
8	4.000000e-01	4.191682e-05	
9	4.500000e-01	4.119067e-05	
10	5.000000e-01	4.046639e-05	
11	5.500000e-01	3.974397e-05	
12	6.000000e-01	3.902342e-05	
13	6.500000e-01	3.830471e-05	
14	7.000000e-01	3.758785e-05	
15	7.500000e-01	3.687283e-05	
16	8.000000e-01	3.615965e-05	
17	8.500000e-01	3.544828e-05	
18	9.000000e-01	3.473874e-05	
19	9.500000e-01	3.403101e-05	
20	1.000000e+00	3.332509e-05	
21	1.050000e+00	3.262097e-05	
22	1.100000e+00	3.191864e-05	
23	1.150000e+00	3.121810e-05	
24	1.200000e+00	3.051934e-05	
25	1.250000e+00	2.982235e-05	
26	1.300000e+00	2.912712e-05	
27	1.350000e+00	2.843366e-05	
28	1.400000e+00	2.774194e-05	
29	1.450000e+00	2.705196e-05	
30	1.500000e+00	2.636373e-05	
31	1.550000e+00	2.567721e-05	
32	1.600000e+00	2.499242e-05	
33	1.650000e+00	2.430933e-05	
34	1.700000e+00	2.362795e-05	
35	1.750000e+00	2.294825e-05	
36	1.800000e+00	2.227024e-05	
37	1.850000e+00	2.159389e-05	
38	1.900000e+00	2.091919e-05	
39	1.950000e+00	2.024614e-05	
40	2.000000e+00	1.957472e-05	
41	2.050000e+00	1.890491e-05	
42	2.100000e+00	1.823669e-05	
43	2.150000e+00	1.757005e-05	
44	2.200000e+00	1.690496e-05	
45	2.250000e+00	1.624140e-05	
46	2.300000e+00	1.557935e-05	
47	2.350000e+00	1.491876e-05	
48	2.400000e+00	1.425961e-05	
49	2.450000e+00	1.360186e-05	
50	2.500000e+00	1.294547e-05	
51	2.550000e+00	1.229038e-05	
52	2.600000e+00	1.163655e-05	
53	2.650000e+00	1.098394e-05	
54	2.700000e+00	1.033248e-05	

Index   v-sweep         rds             
--------------------------------------------------------------------------------
55	2.750000e+00	9.682168e-06	
56	2.800000e+00	9.033004e-06	
57	2.850000e+00	8.385076e-06	
58	2.900000e+00	7.738602e-06	
59	2.950000e+00	7.094045e-06	
60	3.000000e+00	6.452290e-06	
61	3.050000e+00	5.814925e-06	
62	3.100000e+00	5.184668e-06	
63	3.150000e+00	4.565932e-06	
64	3.200000e+00	3.965431e-06	
65	3.250000e+00	3.392519e-06	
66	3.300000e+00	2.858738e-06	
67	3.350000e+00	2.376110e-06	
68	3.400000e+00	1.954353e-06	
69	3.450000e+00	1.598241e-06	
70	3.500000e+00	1.306561e-06	
71	3.550000e+00	1.073153e-06	
72	3.600000e+00	8.891369e-07	
73	3.650000e+00	7.450656e-07	
74	3.700000e+00	6.323240e-07	
75	3.750000e+00	5.437281e-07	
76	3.800000e+00	4.735977e-07	
77	3.850000e+00	4.175770e-07	
78	3.900000e+00	3.723776e-07	
79	3.950000e+00	3.355321e-07	
80	4.000000e+00	3.051895e-07	
81	4.050000e+00	2.799552e-07	
82	4.100000e+00	2.587722e-07	
83	4.150000e+00	2.408326e-07	
84	4.200000e+00	2.255141e-07	
85	4.250000e+00	2.123329e-07	
86	4.300000e+00	2.009092e-07	
87	4.350000e+00	1.909428e-07	
88	4.400000e+00	1.821939e-07	
89	4.450000e+00	1.744696e-07	
90	4.500000e+00	1.676133e-07	
91	4.550000e+00	1.614973e-07	
92	4.600000e+00	1.560164e-07	
93	4.650000e+00	1.510832e-07	
94	4.700000e+00	1.466252e-07	
95	4.750000e+00	1.425814e-07	
96	4.800000e+00	1.389002e-07	
97	4.850000e+00	1.355381e-07	
98	4.900000e+00	1.324578e-07	
99	4.950000e+00	1.296274e-07	
100	5.000000e+00	1.270195e-07	
101	5.050000e+00	1.246102e-07	
102	5.100000e+00	1.223791e-07	
103	5.150000e+00	1.203081e-07	
104	5.200000e+00	1.183815e-07	
105	5.250000e+00	1.165855e-07	
106	5.300000e+00	1.149080e-07	
107	5.350000e+00	1.133381e-07	
108	5.400000e+00	1.118663e-07	
109	5.450000e+00	1.104843e-07	
110	5.500000e+00	1.091843e-07	
111	5.550000e+00	1.079597e-07	
112	5.600000e+00	1.068043e-07	

Index   v-sweep         rds             
--------------------------------------------------------------------------------
113	5.650000e+00	1.057127e-07	
114	5.700000e+00	1.046801e-07	
115	5.750000e+00	1.037019e-07	
116	5.800000e+00	1.027741e-07	
117	5.850000e+00	1.018932e-07	
118	5.900000e+00	1.010557e-07	
119	5.950000e+00	1.002587e-07	
120	6.000000e+00	9.949948e-08	
121	6.050000e+00	9.877545e-08	
122	6.100000e+00	9.808434e-08	
123	6.150000e+00	9.742403e-08	
124	6.200000e+00	9.679259e-08	
125	6.250000e+00	9.618823e-08	
126	6.300000e+00	9.560931e-08	
127	6.350000e+00	9.505431e-08	
128	6.400000e+00	9.452184e-08	
129	6.450000e+00	9.401058e-08	
130	6.500000e+00	9.351935e-08	
131	6.550000e+00	9.304703e-08	
132	6.600000e+00	9.259258e-08	
Reset re-loads circuit ***************************

Circuit: ***************************

Doing analysis at TEMP = -40.000000 and TNOM = -40.000000


No. of Data Rows : 133
                          ***************************
                          DC transfer characteristic  Mon Jan  9 13:58:39  2023
--------------------------------------------------------------------------------
Index   v-sweep         rds             
--------------------------------------------------------------------------------
0	0.000000e+00	5.312601e-05	
1	5.000000e-02	5.246994e-05	
2	1.000000e-01	5.181543e-05	
3	1.500000e-01	5.116248e-05	
4	2.000000e-01	5.051110e-05	
5	2.500000e-01	4.986127e-05	
6	3.000000e-01	4.921300e-05	
7	3.500000e-01	4.856626e-05	
8	4.000000e-01	4.792107e-05	
9	4.500000e-01	4.727742e-05	
10	5.000000e-01	4.663530e-05	
11	5.500000e-01	4.599470e-05	
12	6.000000e-01	4.535563e-05	
13	6.500000e-01	4.471807e-05	
14	7.000000e-01	4.408203e-05	
15	7.500000e-01	4.344749e-05	
16	8.000000e-01	4.281446e-05	
17	8.500000e-01	4.218293e-05	
18	9.000000e-01	4.155289e-05	
19	9.500000e-01	4.092434e-05	
20	1.000000e+00	4.029728e-05	
21	1.050000e+00	3.967170e-05	
22	1.100000e+00	3.904759e-05	
23	1.150000e+00	3.842496e-05	
24	1.200000e+00	3.780379e-05	
25	1.250000e+00	3.718408e-05	
26	1.300000e+00	3.656582e-05	
27	1.350000e+00	3.594902e-05	
28	1.400000e+00	3.533367e-05	
29	1.450000e+00	3.471976e-05	
30	1.500000e+00	3.410729e-05	
31	1.550000e+00	3.349625e-05	
32	1.600000e+00	3.288663e-05	
33	1.650000e+00	3.227844e-05	
34	1.700000e+00	3.167167e-05	
35	1.750000e+00	3.106631e-05	
36	1.800000e+00	3.046235e-05	
37	1.850000e+00	2.985980e-05	
38	1.900000e+00	2.925865e-05	
39	1.950000e+00	2.865888e-05	
40	2.000000e+00	2.806050e-05	
41	2.050000e+00	2.746350e-05	
42	2.100000e+00	2.686787e-05	
43	2.150000e+00	2.627360e-05	
44	2.200000e+00	2.568070e-05	
45	2.250000e+00	2.508915e-05	
46	2.300000e+00	2.449894e-05	
47	2.350000e+00	2.391007e-05	
48	2.400000e+00	2.332253e-05	
49	2.450000e+00	2.273631e-05	
50	2.500000e+00	2.215141e-05	
51	2.550000e+00	2.156780e-05	
52	2.600000e+00	2.098549e-05	
53	2.650000e+00	2.040445e-05	
54	2.700000e+00	1.982468e-05	

Index   v-sweep         rds             
--------------------------------------------------------------------------------
55	2.750000e+00	1.924616e-05	
56	2.800000e+00	1.866887e-05	
57	2.850000e+00	1.809281e-05	
58	2.900000e+00	1.751794e-05	
59	2.950000e+00	1.694424e-05	
60	3.000000e+00	1.637170e-05	
61	3.050000e+00	1.580028e-05	
62	3.100000e+00	1.522995e-05	
63	3.150000e+00	1.466066e-05	
64	3.200000e+00	1.409239e-05	
65	3.250000e+00	1.352507e-05	
66	3.300000e+00	1.295865e-05	
67	3.350000e+00	1.239307e-05	
68	3.400000e+00	1.182824e-05	
69	3.450000e+00	1.126410e-05	
70	3.500000e+00	1.070053e-05	
71	3.550000e+00	1.013744e-05	
72	3.600000e+00	9.574723e-06	
73	3.650000e+00	9.012287e-06	
74	3.700000e+00	8.450058e-06	
75	3.750000e+00	7.888028e-06	
76	3.800000e+00	7.326307e-06	
77	3.850000e+00	6.765223e-06	
78	3.900000e+00	6.205476e-06	
79	3.950000e+00	5.648375e-06	
80	4.000000e+00	5.096163e-06	
81	4.050000e+00	4.552412e-06	
82	4.100000e+00	4.022398e-06	
83	4.150000e+00	3.513239e-06	
84	4.200000e+00	3.033521e-06	
85	4.250000e+00	2.592202e-06	
86	4.300000e+00	2.196938e-06	
87	4.350000e+00	1.852433e-06	
88	4.400000e+00	1.559570e-06	
89	4.450000e+00	1.315651e-06	
90	4.500000e+00	1.115481e-06	
91	4.550000e+00	9.526867e-07	
92	4.600000e+00	8.208010e-07	
93	4.650000e+00	7.139309e-07	
94	4.700000e+00	6.270487e-07	
95	4.750000e+00	5.560385e-07	
96	4.800000e+00	4.976149e-07	
97	4.850000e+00	4.491921e-07	
98	4.900000e+00	4.087490e-07	
99	4.950000e+00	3.747093e-07	
100	5.000000e+00	3.458416e-07	
101	5.050000e+00	3.211806e-07	
102	5.100000e+00	2.999657e-07	
103	5.150000e+00	2.815940e-07	
104	5.200000e+00	2.655847e-07	
105	5.250000e+00	2.515517e-07	
106	5.300000e+00	2.391829e-07	
107	5.350000e+00	2.282242e-07	
108	5.400000e+00	2.184675e-07	
109	5.450000e+00	2.097414e-07	
110	5.500000e+00	2.019035e-07	
111	5.550000e+00	1.948350e-07	
112	5.600000e+00	1.884364e-07	

Index   v-sweep         rds             
--------------------------------------------------------------------------------
113	5.650000e+00	1.826237e-07	
114	5.700000e+00	1.773255e-07	
115	5.750000e+00	1.724811e-07	
116	5.800000e+00	1.680386e-07	
117	5.850000e+00	1.639532e-07	
118	5.900000e+00	1.601862e-07	
119	5.950000e+00	1.567042e-07	
120	6.000000e+00	1.534780e-07	
121	6.050000e+00	1.504821e-07	
122	6.100000e+00	1.476942e-07	
123	6.150000e+00	1.450945e-07	
124	6.200000e+00	1.426657e-07	
125	6.250000e+00	1.403925e-07	
126	6.300000e+00	1.382611e-07	
127	6.350000e+00	1.362594e-07	
128	6.400000e+00	1.343766e-07	
129	6.450000e+00	1.326028e-07	
130	6.500000e+00	1.309294e-07	
131	6.550000e+00	1.293485e-07	
132	6.600000e+00	1.278530e-07	
Reset re-loads circuit ***************************

Circuit: ***************************

Note: No ".plot", ".print", or ".fourier" lines; no simulations run
