
Note: Compatibility modes selected: hs

Warning: m=xx on .subckt line will override multiplier m hierarchy!


Circuit: ***************************

Doing analysis at TEMP = 125.000000 and TNOM = 125.000000


No. of Data Rows : 133
                          ***************************
                          DC transfer characteristic  Mon Jan  9 13:58:06  2023
--------------------------------------------------------------------------------
Index   v-sweep         rds             
--------------------------------------------------------------------------------
0	0.000000e+00	5.820943e+03	
1	5.000000e-02	6.517920e+03	
2	1.000000e-01	7.394328e+03	
3	1.500000e-01	8.529330e+03	
4	2.000000e-01	1.005609e+04	
5	2.500000e-01	1.221578e+04	
6	3.000000e-01	1.548641e+04	
7	3.500000e-01	2.090677e+04	
8	4.000000e-01	3.068870e+04	
9	4.500000e-01	4.693355e+04	
10	5.000000e-01	6.510031e+04	
11	5.500000e-01	8.044409e+04	
12	6.000000e-01	9.380946e+04	
13	6.500000e-01	1.063034e+05	
14	7.000000e-01	1.183788e+05	
15	7.500000e-01	1.302089e+05	
16	8.000000e-01	1.418659e+05	
17	8.500000e-01	1.533833e+05	
18	9.000000e-01	1.647782e+05	
19	9.500000e-01	1.760603e+05	
20	1.000000e+00	1.872356e+05	
21	1.050000e+00	1.983077e+05	
22	1.100000e+00	2.092797e+05	
23	1.150000e+00	2.201534e+05	
24	1.200000e+00	2.309307e+05	
25	1.250000e+00	2.416130e+05	
26	1.300000e+00	2.522015e+05	
27	1.350000e+00	2.626975e+05	
28	1.400000e+00	2.731021e+05	
29	1.450000e+00	2.834162e+05	
30	1.500000e+00	2.936410e+05	
31	1.550000e+00	3.037773e+05	
32	1.600000e+00	3.138262e+05	
33	1.650000e+00	3.237886e+05	
34	1.700000e+00	3.336653e+05	
35	1.750000e+00	3.434574e+05	
36	1.800000e+00	3.531657e+05	
37	1.850000e+00	3.627910e+05	
38	1.900000e+00	3.723344e+05	
39	1.950000e+00	3.817966e+05	
40	2.000000e+00	3.911785e+05	
41	2.050000e+00	4.004809e+05	
42	2.100000e+00	4.097048e+05	
43	2.150000e+00	4.188508e+05	
44	2.200000e+00	4.279200e+05	
45	2.250000e+00	4.369130e+05	
46	2.300000e+00	4.458307e+05	
47	2.350000e+00	4.546739e+05	
48	2.400000e+00	4.634434e+05	
49	2.450000e+00	4.721400e+05	
50	2.500000e+00	4.807644e+05	
51	2.550000e+00	4.893174e+05	
52	2.600000e+00	4.977999e+05	
53	2.650000e+00	5.062124e+05	
54	2.700000e+00	5.145559e+05	

Index   v-sweep         rds             
--------------------------------------------------------------------------------
55	2.750000e+00	5.228309e+05	
56	2.800000e+00	5.310383e+05	
57	2.850000e+00	5.391788e+05	
58	2.900000e+00	5.472531e+05	
59	2.950000e+00	5.552618e+05	
60	3.000000e+00	5.632057e+05	
61	3.050000e+00	5.710855e+05	
62	3.100000e+00	5.789018e+05	
63	3.150000e+00	5.866554e+05	
64	3.200000e+00	5.943468e+05	
65	3.250000e+00	6.019768e+05	
66	3.300000e+00	6.095460e+05	
67	3.350000e+00	6.170550e+05	
68	3.400000e+00	6.245045e+05	
69	3.450000e+00	6.318951e+05	
70	3.500000e+00	6.392274e+05	
71	3.550000e+00	6.465020e+05	
72	3.600000e+00	6.537195e+05	
73	3.650000e+00	6.608806e+05	
74	3.700000e+00	6.679858e+05	
75	3.750000e+00	6.750357e+05	
76	3.800000e+00	6.820308e+05	
77	3.850000e+00	6.889718e+05	
78	3.900000e+00	6.958592e+05	
79	3.950000e+00	7.026936e+05	
80	4.000000e+00	7.094755e+05	
81	4.050000e+00	7.162054e+05	
82	4.100000e+00	7.228839e+05	
83	4.150000e+00	7.295116e+05	
84	4.200000e+00	7.360888e+05	
85	4.250000e+00	7.426163e+05	
86	4.300000e+00	7.490943e+05	
87	4.350000e+00	7.555236e+05	
88	4.400000e+00	7.619045e+05	
89	4.450000e+00	7.682376e+05	
90	4.500000e+00	7.745233e+05	
91	4.550000e+00	7.807621e+05	
92	4.600000e+00	7.869545e+05	
93	4.650000e+00	7.931010e+05	
94	4.700000e+00	7.992020e+05	
95	4.750000e+00	8.052579e+05	
96	4.800000e+00	8.112693e+05	
97	4.850000e+00	8.172366e+05	
98	4.900000e+00	8.231602e+05	
99	4.950000e+00	8.290405e+05	
100	5.000000e+00	8.348780e+05	
101	5.050000e+00	8.406732e+05	
102	5.100000e+00	8.464263e+05	
103	5.150000e+00	8.521379e+05	
104	5.200000e+00	8.578083e+05	
105	5.250000e+00	8.634380e+05	
106	5.300000e+00	8.690273e+05	
107	5.350000e+00	8.745767e+05	
108	5.400000e+00	8.800865e+05	
109	5.450000e+00	8.855571e+05	
110	5.500000e+00	8.909889e+05	
111	5.550000e+00	8.963823e+05	
112	5.600000e+00	9.017376e+05	

Index   v-sweep         rds             
--------------------------------------------------------------------------------
113	5.650000e+00	9.070553e+05	
114	5.700000e+00	9.123356e+05	
115	5.750000e+00	9.175789e+05	
116	5.800000e+00	9.227857e+05	
117	5.850000e+00	9.279562e+05	
118	5.900000e+00	9.330907e+05	
119	5.950000e+00	9.381897e+05	
120	6.000000e+00	9.432535e+05	
121	6.050000e+00	9.482823e+05	
122	6.100000e+00	9.532766e+05	
123	6.150000e+00	9.582366e+05	
124	6.200000e+00	9.631627e+05	
125	6.250000e+00	9.680552e+05	
126	6.300000e+00	9.729144e+05	
127	6.350000e+00	9.777407e+05	
128	6.400000e+00	9.825342e+05	
129	6.450000e+00	9.872954e+05	
130	6.500000e+00	9.920245e+05	
131	6.550000e+00	9.967218e+05	
132	6.600000e+00	1.001388e+06	
Reset re-loads circuit ***************************

Circuit: ***************************

Doing analysis at TEMP = 125.000000 and TNOM = 125.000000


No. of Data Rows : 133
                          ***************************
                          DC transfer characteristic  Mon Jan  9 13:58:06  2023
--------------------------------------------------------------------------------
Index   v-sweep         rds             
--------------------------------------------------------------------------------
0	0.000000e+00	2.020580e+03	
1	5.000000e-02	2.097545e+03	
2	1.000000e-01	2.179747e+03	
3	1.500000e-01	2.267738e+03	
4	2.000000e-01	2.362149e+03	
5	2.500000e-01	2.463707e+03	
6	3.000000e-01	2.573255e+03	
7	3.500000e-01	2.691771e+03	
8	4.000000e-01	2.820401e+03	
9	4.500000e-01	2.960494e+03	
10	5.000000e-01	3.113649e+03	
11	5.500000e-01	3.281781e+03	
12	6.000000e-01	3.467191e+03	
13	6.500000e-01	3.672683e+03	
14	7.000000e-01	3.901696e+03	
15	7.500000e-01	4.158503e+03	
16	8.000000e-01	4.448477e+03	
17	8.500000e-01	4.778464e+03	
18	9.000000e-01	5.157337e+03	
19	9.500000e-01	5.596795e+03	
20	1.000000e+00	6.112611e+03	
21	1.050000e+00	6.726587e+03	
22	1.100000e+00	7.469596e+03	
23	1.150000e+00	8.385019e+03	
24	1.200000e+00	9.524992e+03	
25	1.250000e+00	1.091978e+04	
26	1.300000e+00	1.253585e+04	
27	1.350000e+00	1.429570e+04	
28	1.400000e+00	1.613269e+04	
29	1.450000e+00	1.800775e+04	
30	1.500000e+00	1.990089e+04	
31	1.550000e+00	2.180196e+04	
32	1.600000e+00	2.370563e+04	
33	1.650000e+00	2.560893e+04	
34	1.700000e+00	2.751013e+04	
35	1.750000e+00	2.940816e+04	
36	1.800000e+00	3.130235e+04	
37	1.850000e+00	3.319224e+04	
38	1.900000e+00	3.507751e+04	
39	1.950000e+00	3.695797e+04	
40	2.000000e+00	3.883344e+04	
41	2.050000e+00	4.070382e+04	
42	2.100000e+00	4.256903e+04	
43	2.150000e+00	4.442901e+04	
44	2.200000e+00	4.628370e+04	
45	2.250000e+00	4.813308e+04	
46	2.300000e+00	4.997713e+04	
47	2.350000e+00	5.181583e+04	
48	2.400000e+00	5.364916e+04	
49	2.450000e+00	5.547712e+04	
50	2.500000e+00	5.729971e+04	
51	2.550000e+00	5.911693e+04	
52	2.600000e+00	6.092877e+04	
53	2.650000e+00	6.273525e+04	
54	2.700000e+00	6.453637e+04	

Index   v-sweep         rds             
--------------------------------------------------------------------------------
55	2.750000e+00	6.633213e+04	
56	2.800000e+00	6.812255e+04	
57	2.850000e+00	6.990764e+04	
58	2.900000e+00	7.168740e+04	
59	2.950000e+00	7.346184e+04	
60	3.000000e+00	7.523099e+04	
61	3.050000e+00	7.699485e+04	
62	3.100000e+00	7.875343e+04	
63	3.150000e+00	8.050675e+04	
64	3.200000e+00	8.225482e+04	
65	3.250000e+00	8.399766e+04	
66	3.300000e+00	8.573527e+04	
67	3.350000e+00	8.746769e+04	
68	3.400000e+00	8.919492e+04	
69	3.450000e+00	9.091697e+04	
70	3.500000e+00	9.263387e+04	
71	3.550000e+00	9.434562e+04	
72	3.600000e+00	9.605225e+04	
73	3.650000e+00	9.775377e+04	
74	3.700000e+00	9.945019e+04	
75	3.750000e+00	1.011415e+05	
76	3.800000e+00	1.028278e+05	
77	3.850000e+00	1.045091e+05	
78	3.900000e+00	1.061853e+05	
79	3.950000e+00	1.078565e+05	
80	4.000000e+00	1.095227e+05	
81	4.050000e+00	1.111840e+05	
82	4.100000e+00	1.128402e+05	
83	4.150000e+00	1.144916e+05	
84	4.200000e+00	1.161380e+05	
85	4.250000e+00	1.177795e+05	
86	4.300000e+00	1.194161e+05	
87	4.350000e+00	1.210478e+05	
88	4.400000e+00	1.226747e+05	
89	4.450000e+00	1.242967e+05	
90	4.500000e+00	1.259140e+05	
91	4.550000e+00	1.275264e+05	
92	4.600000e+00	1.291340e+05	
93	4.650000e+00	1.307368e+05	
94	4.700000e+00	1.323349e+05	
95	4.750000e+00	1.339283e+05	
96	4.800000e+00	1.355169e+05	
97	4.850000e+00	1.371009e+05	
98	4.900000e+00	1.386801e+05	
99	4.950000e+00	1.402547e+05	
100	5.000000e+00	1.418246e+05	
101	5.050000e+00	1.433899e+05	
102	5.100000e+00	1.449506e+05	
103	5.150000e+00	1.465067e+05	
104	5.200000e+00	1.480581e+05	
105	5.250000e+00	1.496051e+05	
106	5.300000e+00	1.511474e+05	
107	5.350000e+00	1.526853e+05	
108	5.400000e+00	1.542186e+05	
109	5.450000e+00	1.557474e+05	
110	5.500000e+00	1.572717e+05	
111	5.550000e+00	1.587916e+05	
112	5.600000e+00	1.603070e+05	

Index   v-sweep         rds             
--------------------------------------------------------------------------------
113	5.650000e+00	1.618180e+05	
114	5.700000e+00	1.633245e+05	
115	5.750000e+00	1.648267e+05	
116	5.800000e+00	1.663245e+05	
117	5.850000e+00	1.678179e+05	
118	5.900000e+00	1.693069e+05	
119	5.950000e+00	1.707916e+05	
120	6.000000e+00	1.722720e+05	
121	6.050000e+00	1.737481e+05	
122	6.100000e+00	1.752199e+05	
123	6.150000e+00	1.766875e+05	
124	6.200000e+00	1.781507e+05	
125	6.250000e+00	1.796098e+05	
126	6.300000e+00	1.810646e+05	
127	6.350000e+00	1.825152e+05	
128	6.400000e+00	1.839616e+05	
129	6.450000e+00	1.854039e+05	
130	6.500000e+00	1.868419e+05	
131	6.550000e+00	1.882759e+05	
132	6.600000e+00	1.897057e+05	
Reset re-loads circuit ***************************

Circuit: ***************************

Doing analysis at TEMP = 125.000000 and TNOM = 125.000000


No. of Data Rows : 133
                          ***************************
                          DC transfer characteristic  Mon Jan  9 13:58:06  2023
--------------------------------------------------------------------------------
Index   v-sweep         rds             
--------------------------------------------------------------------------------
0	0.000000e+00	1.388953e+03	
1	5.000000e-02	1.422004e+03	
2	1.000000e-01	1.456340e+03	
3	1.500000e-01	1.492036e+03	
4	2.000000e-01	1.529176e+03	
5	2.500000e-01	1.567846e+03	
6	3.000000e-01	1.608145e+03	
7	3.500000e-01	1.650175e+03	
8	4.000000e-01	1.694050e+03	
9	4.500000e-01	1.739895e+03	
10	5.000000e-01	1.787844e+03	
11	5.500000e-01	1.838044e+03	
12	6.000000e-01	1.890658e+03	
13	6.500000e-01	1.945863e+03	
14	7.000000e-01	2.003854e+03	
15	7.500000e-01	2.064847e+03	
16	8.000000e-01	2.129081e+03	
17	8.500000e-01	2.196820e+03	
18	9.000000e-01	2.268359e+03	
19	9.500000e-01	2.344026e+03	
20	1.000000e+00	2.424189e+03	
21	1.050000e+00	2.509261e+03	
22	1.100000e+00	2.599709e+03	
23	1.150000e+00	2.696059e+03	
24	1.200000e+00	2.798914e+03	
25	1.250000e+00	2.908962e+03	
26	1.300000e+00	3.026998e+03	
27	1.350000e+00	3.153949e+03	
28	1.400000e+00	3.290907e+03	
29	1.450000e+00	3.439186e+03	
30	1.500000e+00	3.600406e+03	
31	1.550000e+00	3.776647e+03	
32	1.600000e+00	3.970739e+03	
33	1.650000e+00	4.186847e+03	
34	1.700000e+00	4.431669e+03	
35	1.750000e+00	4.716711e+03	
36	1.800000e+00	5.061517e+03	
37	1.850000e+00	5.494220e+03	
38	1.900000e+00	6.040977e+03	
39	1.950000e+00	6.706302e+03	
40	2.000000e+00	7.468619e+03	
41	2.050000e+00	8.297076e+03	
42	2.100000e+00	9.166344e+03	
43	2.150000e+00	1.005988e+04	
44	2.200000e+00	1.096776e+04	
45	2.250000e+00	1.188417e+04	
46	2.300000e+00	1.280562e+04	
47	2.350000e+00	1.372998e+04	
48	2.400000e+00	1.465590e+04	
49	2.450000e+00	1.558249e+04	
50	2.500000e+00	1.650916e+04	
51	2.550000e+00	1.743550e+04	
52	2.600000e+00	1.836122e+04	
53	2.650000e+00	1.928610e+04	
54	2.700000e+00	2.020998e+04	

Index   v-sweep         rds             
--------------------------------------------------------------------------------
55	2.750000e+00	2.113276e+04	
56	2.800000e+00	2.205434e+04	
57	2.850000e+00	2.297465e+04	
58	2.900000e+00	2.389363e+04	
59	2.950000e+00	2.481124e+04	
60	3.000000e+00	2.572745e+04	
61	3.050000e+00	2.664223e+04	
62	3.100000e+00	2.755555e+04	
63	3.150000e+00	2.846741e+04	
64	3.200000e+00	2.937777e+04	
65	3.250000e+00	3.028663e+04	
66	3.300000e+00	3.119398e+04	
67	3.350000e+00	3.209981e+04	
68	3.400000e+00	3.300411e+04	
69	3.450000e+00	3.390688e+04	
70	3.500000e+00	3.480811e+04	
71	3.550000e+00	3.570780e+04	
72	3.600000e+00	3.660595e+04	
73	3.650000e+00	3.750255e+04	
74	3.700000e+00	3.839759e+04	
75	3.750000e+00	3.929109e+04	
76	3.800000e+00	4.018304e+04	
77	3.850000e+00	4.107343e+04	
78	3.900000e+00	4.196227e+04	
79	3.950000e+00	4.284956e+04	
80	4.000000e+00	4.373530e+04	
81	4.050000e+00	4.461948e+04	
82	4.100000e+00	4.550212e+04	
83	4.150000e+00	4.638320e+04	
84	4.200000e+00	4.726274e+04	
85	4.250000e+00	4.814073e+04	
86	4.300000e+00	4.901717e+04	
87	4.350000e+00	4.989207e+04	
88	4.400000e+00	5.076542e+04	
89	4.450000e+00	5.163724e+04	
90	4.500000e+00	5.250751e+04	
91	4.550000e+00	5.337625e+04	
92	4.600000e+00	5.424345e+04	
93	4.650000e+00	5.510912e+04	
94	4.700000e+00	5.597326e+04	
95	4.750000e+00	5.683587e+04	
96	4.800000e+00	5.769695e+04	
97	4.850000e+00	5.855650e+04	
98	4.900000e+00	5.941454e+04	
99	4.950000e+00	6.027105e+04	
100	5.000000e+00	6.112605e+04	
101	5.050000e+00	6.197953e+04	
102	5.100000e+00	6.283150e+04	
103	5.150000e+00	6.368196e+04	
104	5.200000e+00	6.453092e+04	
105	5.250000e+00	6.537836e+04	
106	5.300000e+00	6.622431e+04	
107	5.350000e+00	6.706876e+04	
108	5.400000e+00	6.791171e+04	
109	5.450000e+00	6.875316e+04	
110	5.500000e+00	6.959313e+04	
111	5.550000e+00	7.043160e+04	
112	5.600000e+00	7.126859e+04	

Index   v-sweep         rds             
--------------------------------------------------------------------------------
113	5.650000e+00	7.210410e+04	
114	5.700000e+00	7.293813e+04	
115	5.750000e+00	7.377068e+04	
116	5.800000e+00	7.460175e+04	
117	5.850000e+00	7.543136e+04	
118	5.900000e+00	7.625949e+04	
119	5.950000e+00	7.708616e+04	
120	6.000000e+00	7.791137e+04	
121	6.050000e+00	7.873511e+04	
122	6.100000e+00	7.955740e+04	
123	6.150000e+00	8.037823e+04	
124	6.200000e+00	8.119761e+04	
125	6.250000e+00	8.201554e+04	
126	6.300000e+00	8.283203e+04	
127	6.350000e+00	8.364707e+04	
128	6.400000e+00	8.446068e+04	
129	6.450000e+00	8.527284e+04	
130	6.500000e+00	8.608358e+04	
131	6.550000e+00	8.689288e+04	
132	6.600000e+00	8.770075e+04	
Reset re-loads circuit ***************************

Circuit: ***************************

Doing analysis at TEMP = 125.000000 and TNOM = 125.000000


No. of Data Rows : 133
                          ***************************
                          DC transfer characteristic  Mon Jan  9 13:58:06  2023
--------------------------------------------------------------------------------
Index   v-sweep         rds             
--------------------------------------------------------------------------------
0	0.000000e+00	1.135447e+03	
1	5.000000e-02	1.155325e+03	
2	1.000000e-01	1.175736e+03	
3	1.500000e-01	1.196704e+03	
4	2.000000e-01	1.218251e+03	
5	2.500000e-01	1.240400e+03	
6	3.000000e-01	1.263178e+03	
7	3.500000e-01	1.286611e+03	
8	4.000000e-01	1.310727e+03	
9	4.500000e-01	1.335557e+03	
10	5.000000e-01	1.361133e+03	
11	5.500000e-01	1.387487e+03	
12	6.000000e-01	1.414657e+03	
13	6.500000e-01	1.442680e+03	
14	7.000000e-01	1.471596e+03	
15	7.500000e-01	1.501450e+03	
16	8.000000e-01	1.532286e+03	
17	8.500000e-01	1.564154e+03	
18	9.000000e-01	1.597107e+03	
19	9.500000e-01	1.631199e+03	
20	1.000000e+00	1.666492e+03	
21	1.050000e+00	1.703049e+03	
22	1.100000e+00	1.740939e+03	
23	1.150000e+00	1.780236e+03	
24	1.200000e+00	1.821019e+03	
25	1.250000e+00	1.863376e+03	
26	1.300000e+00	1.907397e+03	
27	1.350000e+00	1.953184e+03	
28	1.400000e+00	2.000844e+03	
29	1.450000e+00	2.050496e+03	
30	1.500000e+00	2.102267e+03	
31	1.550000e+00	2.156298e+03	
32	1.600000e+00	2.212741e+03	
33	1.650000e+00	2.271764e+03	
34	1.700000e+00	2.333553e+03	
35	1.750000e+00	2.398313e+03	
36	1.800000e+00	2.466276e+03	
37	1.850000e+00	2.537702e+03	
38	1.900000e+00	2.612890e+03	
39	1.950000e+00	2.692191e+03	
40	2.000000e+00	2.776027e+03	
41	2.050000e+00	2.864927e+03	
42	2.100000e+00	2.959588e+03	
43	2.150000e+00	3.060994e+03	
44	2.200000e+00	3.170629e+03	
45	2.250000e+00	3.290892e+03	
46	2.300000e+00	3.425872e+03	
47	2.350000e+00	3.582612e+03	
48	2.400000e+00	3.772637e+03	
49	2.450000e+00	4.012078e+03	
50	2.500000e+00	4.317228e+03	
51	2.550000e+00	4.695653e+03	
52	2.600000e+00	5.141186e+03	
53	2.650000e+00	5.638674e+03	
54	2.700000e+00	6.172135e+03	

Index   v-sweep         rds             
--------------------------------------------------------------------------------
55	2.750000e+00	6.729116e+03	
56	2.800000e+00	7.301176e+03	
57	2.850000e+00	7.882907e+03	
58	2.900000e+00	8.470897e+03	
59	2.950000e+00	9.062968e+03	
60	3.000000e+00	9.657709e+03	
61	3.050000e+00	1.025418e+04	
62	3.100000e+00	1.085175e+04	
63	3.150000e+00	1.144996e+04	
64	3.200000e+00	1.204851e+04	
65	3.250000e+00	1.264715e+04	
66	3.300000e+00	1.324573e+04	
67	3.350000e+00	1.384412e+04	
68	3.400000e+00	1.444221e+04	
69	3.450000e+00	1.503993e+04	
70	3.500000e+00	1.563723e+04	
71	3.550000e+00	1.623405e+04	
72	3.600000e+00	1.683035e+04	
73	3.650000e+00	1.742611e+04	
74	3.700000e+00	1.802129e+04	
75	3.750000e+00	1.861589e+04	
76	3.800000e+00	1.920988e+04	
77	3.850000e+00	1.980324e+04	
78	3.900000e+00	2.039597e+04	
79	3.950000e+00	2.098805e+04	
80	4.000000e+00	2.157947e+04	
81	4.050000e+00	2.217024e+04	
82	4.100000e+00	2.276033e+04	
83	4.150000e+00	2.334976e+04	
84	4.200000e+00	2.393850e+04	
85	4.250000e+00	2.452656e+04	
86	4.300000e+00	2.511393e+04	
87	4.350000e+00	2.570061e+04	
88	4.400000e+00	2.628660e+04	
89	4.450000e+00	2.687189e+04	
90	4.500000e+00	2.745649e+04	
91	4.550000e+00	2.804039e+04	
92	4.600000e+00	2.862359e+04	
93	4.650000e+00	2.920608e+04	
94	4.700000e+00	2.978788e+04	
95	4.750000e+00	3.036897e+04	
96	4.800000e+00	3.094936e+04	
97	4.850000e+00	3.152904e+04	
98	4.900000e+00	3.210802e+04	
99	4.950000e+00	3.268629e+04	
100	5.000000e+00	3.326386e+04	
101	5.050000e+00	3.384072e+04	
102	5.100000e+00	3.441687e+04	
103	5.150000e+00	3.499232e+04	
104	5.200000e+00	3.556706e+04	
105	5.250000e+00	3.614110e+04	
106	5.300000e+00	3.671443e+04	
107	5.350000e+00	3.728705e+04	
108	5.400000e+00	3.785897e+04	
109	5.450000e+00	3.843019e+04	
110	5.500000e+00	3.900069e+04	
111	5.550000e+00	3.957050e+04	
112	5.600000e+00	4.013960e+04	

Index   v-sweep         rds             
--------------------------------------------------------------------------------
113	5.650000e+00	4.070799e+04	
114	5.700000e+00	4.127569e+04	
115	5.750000e+00	4.184268e+04	
116	5.800000e+00	4.240897e+04	
117	5.850000e+00	4.297455e+04	
118	5.900000e+00	4.353944e+04	
119	5.950000e+00	4.410363e+04	
120	6.000000e+00	4.466711e+04	
121	6.050000e+00	4.522990e+04	
122	6.100000e+00	4.579198e+04	
123	6.150000e+00	4.635337e+04	
124	6.200000e+00	4.691407e+04	
125	6.250000e+00	4.747406e+04	
126	6.300000e+00	4.803336e+04	
127	6.350000e+00	4.859197e+04	
128	6.400000e+00	4.914988e+04	
129	6.450000e+00	4.970709e+04	
130	6.500000e+00	5.026362e+04	
131	6.550000e+00	5.081945e+04	
132	6.600000e+00	5.137459e+04	
Reset re-loads circuit ***************************

Circuit: ***************************

Doing analysis at TEMP = 125.000000 and TNOM = 125.000000


No. of Data Rows : 133
                          ***************************
                          DC transfer characteristic  Mon Jan  9 13:58:06  2023
--------------------------------------------------------------------------------
Index   v-sweep         rds             
--------------------------------------------------------------------------------
0	0.000000e+00	1.003616e+03	
1	5.000000e-02	1.017501e+03	
2	1.000000e-01	1.031668e+03	
3	1.500000e-01	1.046125e+03	
4	2.000000e-01	1.060881e+03	
5	2.500000e-01	1.075945e+03	
6	3.000000e-01	1.091327e+03	
7	3.500000e-01	1.107037e+03	
8	4.000000e-01	1.123086e+03	
9	4.500000e-01	1.139483e+03	
10	5.000000e-01	1.156241e+03	
11	5.500000e-01	1.173372e+03	
12	6.000000e-01	1.190887e+03	
13	6.500000e-01	1.208800e+03	
14	7.000000e-01	1.227125e+03	
15	7.500000e-01	1.245875e+03	
16	8.000000e-01	1.265066e+03	
17	8.500000e-01	1.284712e+03	
18	9.000000e-01	1.304831e+03	
19	9.500000e-01	1.325439e+03	
20	1.000000e+00	1.346554e+03	
21	1.050000e+00	1.368195e+03	
22	1.100000e+00	1.390381e+03	
23	1.150000e+00	1.413134e+03	
24	1.200000e+00	1.436476e+03	
25	1.250000e+00	1.460428e+03	
26	1.300000e+00	1.485015e+03	
27	1.350000e+00	1.510264e+03	
28	1.400000e+00	1.536199e+03	
29	1.450000e+00	1.562851e+03	
30	1.500000e+00	1.590248e+03	
31	1.550000e+00	1.618423e+03	
32	1.600000e+00	1.647408e+03	
33	1.650000e+00	1.677240e+03	
34	1.700000e+00	1.707955e+03	
35	1.750000e+00	1.739595e+03	
36	1.800000e+00	1.772200e+03	
37	1.850000e+00	1.805816e+03	
38	1.900000e+00	1.840492e+03	
39	1.950000e+00	1.876278e+03	
40	2.000000e+00	1.913231e+03	
41	2.050000e+00	1.951408e+03	
42	2.100000e+00	1.990873e+03	
43	2.150000e+00	2.031695e+03	
44	2.200000e+00	2.073950e+03	
45	2.250000e+00	2.117718e+03	
46	2.300000e+00	2.163090e+03	
47	2.350000e+00	2.210167e+03	
48	2.400000e+00	2.259063e+03	
49	2.450000e+00	2.309910e+03	
50	2.500000e+00	2.362866e+03	
51	2.550000e+00	2.418124e+03	
52	2.600000e+00	2.475932e+03	
53	2.650000e+00	2.536625e+03	
54	2.700000e+00	2.600680e+03	

Index   v-sweep         rds             
--------------------------------------------------------------------------------
55	2.750000e+00	2.668813e+03	
56	2.800000e+00	2.742154e+03	
57	2.850000e+00	2.822558e+03	
58	2.900000e+00	2.913118e+03	
59	2.950000e+00	3.018915e+03	
60	3.000000e+00	3.147762e+03	
61	3.050000e+00	3.310038e+03	
62	3.100000e+00	3.516224e+03	
63	3.150000e+00	3.772268e+03	
64	3.200000e+00	4.076364e+03	
65	3.250000e+00	4.420406e+03	
66	3.300000e+00	4.794226e+03	
67	3.350000e+00	5.188839e+03	
68	3.400000e+00	5.597533e+03	
69	3.450000e+00	6.015688e+03	
70	3.500000e+00	6.440225e+03	
71	3.550000e+00	6.869108e+03	
72	3.600000e+00	7.300978e+03	
73	3.650000e+00	7.734915e+03	
74	3.700000e+00	8.170285e+03	
75	3.750000e+00	8.606643e+03	
76	3.800000e+00	9.043668e+03	
77	3.850000e+00	9.481129e+03	
78	3.900000e+00	9.918852e+03	
79	3.950000e+00	1.035671e+04	
80	4.000000e+00	1.079460e+04	
81	4.050000e+00	1.123244e+04	
82	4.100000e+00	1.167018e+04	
83	4.150000e+00	1.210776e+04	
84	4.200000e+00	1.254515e+04	
85	4.250000e+00	1.298232e+04	
86	4.300000e+00	1.341924e+04	
87	4.350000e+00	1.385588e+04	
88	4.400000e+00	1.429224e+04	
89	4.450000e+00	1.472830e+04	
90	4.500000e+00	1.516404e+04	
91	4.550000e+00	1.559945e+04	
92	4.600000e+00	1.603453e+04	
93	4.650000e+00	1.646926e+04	
94	4.700000e+00	1.690364e+04	
95	4.750000e+00	1.733767e+04	
96	4.800000e+00	1.777134e+04	
97	4.850000e+00	1.820465e+04	
98	4.900000e+00	1.863758e+04	
99	4.950000e+00	1.907014e+04	
100	5.000000e+00	1.950233e+04	
101	5.050000e+00	1.993414e+04	
102	5.100000e+00	2.036557e+04	
103	5.150000e+00	2.079662e+04	
104	5.200000e+00	2.122728e+04	
105	5.250000e+00	2.165756e+04	
106	5.300000e+00	2.208745e+04	
107	5.350000e+00	2.251695e+04	
108	5.400000e+00	2.294607e+04	
109	5.450000e+00	2.337479e+04	
110	5.500000e+00	2.380312e+04	
111	5.550000e+00	2.423107e+04	
112	5.600000e+00	2.465861e+04	

Index   v-sweep         rds             
--------------------------------------------------------------------------------
113	5.650000e+00	2.508577e+04	
114	5.700000e+00	2.551253e+04	
115	5.750000e+00	2.593890e+04	
116	5.800000e+00	2.636487e+04	
117	5.850000e+00	2.679044e+04	
118	5.900000e+00	2.721563e+04	
119	5.950000e+00	2.764041e+04	
120	6.000000e+00	2.806480e+04	
121	6.050000e+00	2.848880e+04	
122	6.100000e+00	2.891239e+04	
123	6.150000e+00	2.933560e+04	
124	6.200000e+00	2.975840e+04	
125	6.250000e+00	3.018081e+04	
126	6.300000e+00	3.060282e+04	
127	6.350000e+00	3.102444e+04	
128	6.400000e+00	3.144566e+04	
129	6.450000e+00	3.186648e+04	
130	6.500000e+00	3.228691e+04	
131	6.550000e+00	3.270694e+04	
132	6.600000e+00	3.312657e+04	
Reset re-loads circuit ***************************

Circuit: ***************************

Doing analysis at TEMP = 125.000000 and TNOM = 125.000000


No. of Data Rows : 133
                          ***************************
                          DC transfer characteristic  Mon Jan  9 13:58:06  2023
--------------------------------------------------------------------------------
Index   v-sweep         rds             
--------------------------------------------------------------------------------
0	0.000000e+00	9.262674e+02	
1	5.000000e-02	9.368055e+02	
2	1.000000e-01	9.475130e+02	
3	1.500000e-01	9.583938e+02	
4	2.000000e-01	9.694522e+02	
5	2.500000e-01	9.806924e+02	
6	3.000000e-01	9.921188e+02	
7	3.500000e-01	1.003736e+03	
8	4.000000e-01	1.015549e+03	
9	4.500000e-01	1.027562e+03	
10	5.000000e-01	1.039781e+03	
11	5.500000e-01	1.052211e+03	
12	6.000000e-01	1.064857e+03	
13	6.500000e-01	1.077725e+03	
14	7.000000e-01	1.090820e+03	
15	7.500000e-01	1.104149e+03	
16	8.000000e-01	1.117717e+03	
17	8.500000e-01	1.131532e+03	
18	9.000000e-01	1.145600e+03	
19	9.500000e-01	1.159927e+03	
20	1.000000e+00	1.174522e+03	
21	1.050000e+00	1.189391e+03	
22	1.100000e+00	1.204541e+03	
23	1.150000e+00	1.219982e+03	
24	1.200000e+00	1.235722e+03	
25	1.250000e+00	1.251768e+03	
26	1.300000e+00	1.268131e+03	
27	1.350000e+00	1.284818e+03	
28	1.400000e+00	1.301841e+03	
29	1.450000e+00	1.319209e+03	
30	1.500000e+00	1.336932e+03	
31	1.550000e+00	1.355022e+03	
32	1.600000e+00	1.373490e+03	
33	1.650000e+00	1.392348e+03	
34	1.700000e+00	1.411607e+03	
35	1.750000e+00	1.431282e+03	
36	1.800000e+00	1.451386e+03	
37	1.850000e+00	1.471932e+03	
38	1.900000e+00	1.492935e+03	
39	1.950000e+00	1.514411e+03	
40	2.000000e+00	1.536375e+03	
41	2.050000e+00	1.558845e+03	
42	2.100000e+00	1.581839e+03	
43	2.150000e+00	1.605374e+03	
44	2.200000e+00	1.629470e+03	
45	2.250000e+00	1.654148e+03	
46	2.300000e+00	1.679429e+03	
47	2.350000e+00	1.705335e+03	
48	2.400000e+00	1.731891e+03	
49	2.450000e+00	1.759121e+03	
50	2.500000e+00	1.787053e+03	
51	2.550000e+00	1.815714e+03	
52	2.600000e+00	1.845136e+03	
53	2.650000e+00	1.875349e+03	
54	2.700000e+00	1.906390e+03	

Index   v-sweep         rds             
--------------------------------------------------------------------------------
55	2.750000e+00	1.938296e+03	
56	2.800000e+00	1.971109e+03	
57	2.850000e+00	2.004873e+03	
58	2.900000e+00	2.039639e+03	
59	2.950000e+00	2.075467e+03	
60	3.000000e+00	2.112425e+03	
61	3.050000e+00	2.150593e+03	
62	3.100000e+00	2.190072e+03	
63	3.150000e+00	2.230994e+03	
64	3.200000e+00	2.273533e+03	
65	3.250000e+00	2.317932e+03	
66	3.300000e+00	2.364548e+03	
67	3.350000e+00	2.413921e+03	
68	3.400000e+00	2.466898e+03	
69	3.450000e+00	2.524831e+03	
70	3.500000e+00	2.589896e+03	
71	3.550000e+00	2.665531e+03	
72	3.600000e+00	2.756867e+03	
73	3.650000e+00	2.870736e+03	
74	3.700000e+00	3.014554e+03	
75	3.750000e+00	3.193855e+03	
76	3.800000e+00	3.409805e+03	
77	3.850000e+00	3.658823e+03	
78	3.900000e+00	3.934525e+03	
79	3.950000e+00	4.230145e+03	
80	4.000000e+00	4.539970e+03	
81	4.050000e+00	4.859719e+03	
82	4.100000e+00	5.186369e+03	
83	4.150000e+00	5.517837e+03	
84	4.200000e+00	5.852700e+03	
85	4.250000e+00	6.189976e+03	
86	4.300000e+00	6.528981e+03	
87	4.350000e+00	6.869234e+03	
88	4.400000e+00	7.210386e+03	
89	4.450000e+00	7.552183e+03	
90	4.500000e+00	7.894439e+03	
91	4.550000e+00	8.237012e+03	
92	4.600000e+00	8.579793e+03	
93	4.650000e+00	8.922700e+03	
94	4.700000e+00	9.265667e+03	
95	4.750000e+00	9.608642e+03	
96	4.800000e+00	9.951584e+03	
97	4.850000e+00	1.029446e+04	
98	4.900000e+00	1.063724e+04	
99	4.950000e+00	1.097991e+04	
100	5.000000e+00	1.132244e+04	
101	5.050000e+00	1.166482e+04	
102	5.100000e+00	1.200703e+04	
103	5.150000e+00	1.234908e+04	
104	5.200000e+00	1.269093e+04	
105	5.250000e+00	1.303260e+04	
106	5.300000e+00	1.337407e+04	
107	5.350000e+00	1.371533e+04	
108	5.400000e+00	1.405638e+04	
109	5.450000e+00	1.439722e+04	
110	5.500000e+00	1.473783e+04	
111	5.550000e+00	1.507823e+04	
112	5.600000e+00	1.541840e+04	

Index   v-sweep         rds             
--------------------------------------------------------------------------------
113	5.650000e+00	1.575834e+04	
114	5.700000e+00	1.609805e+04	
115	5.750000e+00	1.643753e+04	
116	5.800000e+00	1.677678e+04	
117	5.850000e+00	1.711578e+04	
118	5.900000e+00	1.745455e+04	
119	5.950000e+00	1.779308e+04	
120	6.000000e+00	1.813137e+04	
121	6.050000e+00	1.846942e+04	
122	6.100000e+00	1.880723e+04	
123	6.150000e+00	1.914479e+04	
124	6.200000e+00	1.948211e+04	
125	6.250000e+00	1.981918e+04	
126	6.300000e+00	2.015601e+04	
127	6.350000e+00	2.049259e+04	
128	6.400000e+00	2.082892e+04	
129	6.450000e+00	2.116501e+04	
130	6.500000e+00	2.150085e+04	
131	6.550000e+00	2.183643e+04	
132	6.600000e+00	2.217178e+04	
Reset re-loads circuit ***************************

Circuit: ***************************

Note: No ".plot", ".print", or ".fourier" lines; no simulations run
