
Note: Compatibility modes selected: hs

Warning: m=xx on .subckt line will override multiplier m hierarchy!


Circuit: ***************************

Doing analysis at TEMP = -40.000000 and TNOM = -40.000000


No. of Data Rows : 133
                          ***************************
                          DC transfer characteristic  Mon Jan  9 13:58:06  2023
--------------------------------------------------------------------------------
Index   v-sweep         rds             
--------------------------------------------------------------------------------
0	0.000000e+00	8.106154e+03	
1	5.000000e-02	9.980323e+03	
2	1.000000e-01	1.290165e+04	
3	1.500000e-01	1.798798e+04	
4	2.000000e-01	2.783035e+04	
5	2.500000e-01	4.310896e+04	
6	3.000000e-01	5.656547e+04	
7	3.500000e-01	6.735330e+04	
8	4.000000e-01	7.659764e+04	
9	4.500000e-01	8.468465e+04	
10	5.000000e-01	9.181351e+04	
11	5.500000e-01	9.812952e+04	
12	6.000000e-01	1.037498e+05	
13	6.500000e-01	1.087712e+05	
14	7.000000e-01	1.132746e+05	
15	7.500000e-01	1.173280e+05	
16	8.000000e-01	1.209885e+05	
17	8.500000e-01	1.243047e+05	
18	9.000000e-01	1.273178e+05	
19	9.500000e-01	1.300632e+05	
20	1.000000e+00	1.325711e+05	
21	1.050000e+00	1.348677e+05	
22	1.100000e+00	1.369755e+05	
23	1.150000e+00	1.389143e+05	
24	1.200000e+00	1.407012e+05	
25	1.250000e+00	1.423512e+05	
26	1.300000e+00	1.438774e+05	
27	1.350000e+00	1.452917e+05	
28	1.400000e+00	1.466042e+05	
29	1.450000e+00	1.478240e+05	
30	1.500000e+00	1.489594e+05	
31	1.550000e+00	1.500176e+05	
32	1.600000e+00	1.510049e+05	
33	1.650000e+00	1.519274e+05	
34	1.700000e+00	1.527901e+05	
35	1.750000e+00	1.535978e+05	
36	1.800000e+00	1.543548e+05	
37	1.850000e+00	1.550650e+05	
38	1.900000e+00	1.557317e+05	
39	1.950000e+00	1.563582e+05	
40	2.000000e+00	1.569473e+05	
41	2.050000e+00	1.575018e+05	
42	2.100000e+00	1.580240e+05	
43	2.150000e+00	1.585161e+05	
44	2.200000e+00	1.589801e+05	
45	2.250000e+00	1.594179e+05	
46	2.300000e+00	1.598312e+05	
47	2.350000e+00	1.602216e+05	
48	2.400000e+00	1.605905e+05	
49	2.450000e+00	1.609392e+05	
50	2.500000e+00	1.612690e+05	
51	2.550000e+00	1.615810e+05	
52	2.600000e+00	1.618764e+05	
53	2.650000e+00	1.621560e+05	
54	2.700000e+00	1.624207e+05	

Index   v-sweep         rds             
--------------------------------------------------------------------------------
55	2.750000e+00	1.626715e+05	
56	2.800000e+00	1.629092e+05	
57	2.850000e+00	1.631344e+05	
58	2.900000e+00	1.633478e+05	
59	2.950000e+00	1.635502e+05	
60	3.000000e+00	1.637420e+05	
61	3.050000e+00	1.639239e+05	
62	3.100000e+00	1.640964e+05	
63	3.150000e+00	1.642599e+05	
64	3.200000e+00	1.644150e+05	
65	3.250000e+00	1.645620e+05	
66	3.300000e+00	1.647015e+05	
67	3.350000e+00	1.648337e+05	
68	3.400000e+00	1.649590e+05	
69	3.450000e+00	1.650778e+05	
70	3.500000e+00	1.651904e+05	
71	3.550000e+00	1.652970e+05	
72	3.600000e+00	1.653981e+05	
73	3.650000e+00	1.654937e+05	
74	3.700000e+00	1.655843e+05	
75	3.750000e+00	1.656700e+05	
76	3.800000e+00	1.657511e+05	
77	3.850000e+00	1.658278e+05	
78	3.900000e+00	1.659003e+05	
79	3.950000e+00	1.659687e+05	
80	4.000000e+00	1.660334e+05	
81	4.050000e+00	1.660943e+05	
82	4.100000e+00	1.661518e+05	
83	4.150000e+00	1.662060e+05	
84	4.200000e+00	1.662569e+05	
85	4.250000e+00	1.663049e+05	
86	4.300000e+00	1.663499e+05	
87	4.350000e+00	1.663922e+05	
88	4.400000e+00	1.664318e+05	
89	4.450000e+00	1.664689e+05	
90	4.500000e+00	1.665036e+05	
91	4.550000e+00	1.665359e+05	
92	4.600000e+00	1.665661e+05	
93	4.650000e+00	1.665942e+05	
94	4.700000e+00	1.666202e+05	
95	4.750000e+00	1.666443e+05	
96	4.800000e+00	1.666666e+05	
97	4.850000e+00	1.666872e+05	
98	4.900000e+00	1.667061e+05	
99	4.950000e+00	1.667233e+05	
100	5.000000e+00	1.667391e+05	
101	5.050000e+00	1.667534e+05	
102	5.100000e+00	1.667663e+05	
103	5.150000e+00	1.667779e+05	
104	5.200000e+00	1.667882e+05	
105	5.250000e+00	1.667973e+05	
106	5.300000e+00	1.668053e+05	
107	5.350000e+00	1.668122e+05	
108	5.400000e+00	1.668180e+05	
109	5.450000e+00	1.668229e+05	
110	5.500000e+00	1.668268e+05	
111	5.550000e+00	1.668299e+05	
112	5.600000e+00	1.668321e+05	

Index   v-sweep         rds             
--------------------------------------------------------------------------------
113	5.650000e+00	1.668335e+05	
114	5.700000e+00	1.668342e+05	
115	5.750000e+00	1.668342e+05	
116	5.800000e+00	1.668335e+05	
117	5.850000e+00	1.668322e+05	
118	5.900000e+00	1.668302e+05	
119	5.950000e+00	1.668278e+05	
120	6.000000e+00	1.668248e+05	
121	6.050000e+00	1.668213e+05	
122	6.100000e+00	1.668174e+05	
123	6.150000e+00	1.668130e+05	
124	6.200000e+00	1.668083e+05	
125	6.250000e+00	1.668032e+05	
126	6.300000e+00	1.667978e+05	
127	6.350000e+00	1.667921e+05	
128	6.400000e+00	1.667862e+05	
129	6.450000e+00	1.667800e+05	
130	6.500000e+00	1.667736e+05	
131	6.550000e+00	1.667670e+05	
132	6.600000e+00	1.667602e+05	
Reset re-loads circuit ***************************

Circuit: ***************************

Doing analysis at TEMP = -40.000000 and TNOM = -40.000000


No. of Data Rows : 133
                          ***************************
                          DC transfer characteristic  Mon Jan  9 13:58:06  2023
--------------------------------------------------------------------------------
Index   v-sweep         rds             
--------------------------------------------------------------------------------
0	0.000000e+00	2.010227e+03	
1	5.000000e-02	2.113656e+03	
2	1.000000e-01	2.225813e+03	
3	1.500000e-01	2.347841e+03	
4	2.000000e-01	2.481093e+03	
5	2.500000e-01	2.627186e+03	
6	3.000000e-01	2.788067e+03	
7	3.500000e-01	2.966112e+03	
8	4.000000e-01	3.164268e+03	
9	4.500000e-01	3.386296e+03	
10	5.000000e-01	3.637248e+03	
11	5.500000e-01	3.924633e+03	
12	6.000000e-01	4.261885e+03	
13	6.500000e-01	4.679751e+03	
14	7.000000e-01	5.258853e+03	
15	7.500000e-01	6.163497e+03	
16	8.000000e-01	7.516339e+03	
17	8.500000e-01	9.215222e+03	
18	9.000000e-01	1.107650e+04	
19	9.500000e-01	1.298337e+04	
20	1.000000e+00	1.488024e+04	
21	1.050000e+00	1.674210e+04	
22	1.100000e+00	1.855780e+04	
23	1.150000e+00	2.032258e+04	
24	1.200000e+00	2.203481e+04	
25	1.250000e+00	2.369449e+04	
26	1.300000e+00	2.530244e+04	
27	1.350000e+00	2.685997e+04	
28	1.400000e+00	2.836861e+04	
29	1.450000e+00	2.983001e+04	
30	1.500000e+00	3.124588e+04	
31	1.550000e+00	3.261792e+04	
32	1.600000e+00	3.394781e+04	
33	1.650000e+00	3.523717e+04	
34	1.700000e+00	3.648760e+04	
35	1.750000e+00	3.770062e+04	
36	1.800000e+00	3.887770e+04	
37	1.850000e+00	4.002025e+04	
38	1.900000e+00	4.112962e+04	
39	1.950000e+00	4.220710e+04	
40	2.000000e+00	4.325391e+04	
41	2.050000e+00	4.427125e+04	
42	2.100000e+00	4.526023e+04	
43	2.150000e+00	4.622192e+04	
44	2.200000e+00	4.715735e+04	
45	2.250000e+00	4.806751e+04	
46	2.300000e+00	4.895332e+04	
47	2.350000e+00	4.981567e+04	
48	2.400000e+00	5.065543e+04	
49	2.450000e+00	5.147340e+04	
50	2.500000e+00	5.227036e+04	
51	2.550000e+00	5.304705e+04	
52	2.600000e+00	5.380420e+04	
53	2.650000e+00	5.454246e+04	
54	2.700000e+00	5.526251e+04	

Index   v-sweep         rds             
--------------------------------------------------------------------------------
55	2.750000e+00	5.596495e+04	
56	2.800000e+00	5.665039e+04	
57	2.850000e+00	5.731940e+04	
58	2.900000e+00	5.797252e+04	
59	2.950000e+00	5.861028e+04	
60	3.000000e+00	5.923317e+04	
61	3.050000e+00	5.984169e+04	
62	3.100000e+00	6.043628e+04	
63	3.150000e+00	6.101741e+04	
64	3.200000e+00	6.158548e+04	
65	3.250000e+00	6.214091e+04	
66	3.300000e+00	6.268410e+04	
67	3.350000e+00	6.321541e+04	
68	3.400000e+00	6.373521e+04	
69	3.450000e+00	6.424385e+04	
70	3.500000e+00	6.474167e+04	
71	3.550000e+00	6.522898e+04	
72	3.600000e+00	6.570609e+04	
73	3.650000e+00	6.617331e+04	
74	3.700000e+00	6.663092e+04	
75	3.750000e+00	6.707920e+04	
76	3.800000e+00	6.751841e+04	
77	3.850000e+00	6.794882e+04	
78	3.900000e+00	6.837066e+04	
79	3.950000e+00	6.878419e+04	
80	4.000000e+00	6.918962e+04	
81	4.050000e+00	6.958719e+04	
82	4.100000e+00	6.997710e+04	
83	4.150000e+00	7.035956e+04	
84	4.200000e+00	7.073477e+04	
85	4.250000e+00	7.110294e+04	
86	4.300000e+00	7.146423e+04	
87	4.350000e+00	7.181884e+04	
88	4.400000e+00	7.216693e+04	
89	4.450000e+00	7.250869e+04	
90	4.500000e+00	7.284426e+04	
91	4.550000e+00	7.317381e+04	
92	4.600000e+00	7.349749e+04	
93	4.650000e+00	7.381544e+04	
94	4.700000e+00	7.412782e+04	
95	4.750000e+00	7.443475e+04	
96	4.800000e+00	7.473638e+04	
97	4.850000e+00	7.503283e+04	
98	4.900000e+00	7.532423e+04	
99	4.950000e+00	7.561071e+04	
100	5.000000e+00	7.589237e+04	
101	5.050000e+00	7.616933e+04	
102	5.100000e+00	7.644171e+04	
103	5.150000e+00	7.670961e+04	
104	5.200000e+00	7.697314e+04	
105	5.250000e+00	7.723240e+04	
106	5.300000e+00	7.748749e+04	
107	5.350000e+00	7.773850e+04	
108	5.400000e+00	7.798552e+04	
109	5.450000e+00	7.822866e+04	
110	5.500000e+00	7.846798e+04	
111	5.550000e+00	7.870359e+04	
112	5.600000e+00	7.893556e+04	

Index   v-sweep         rds             
--------------------------------------------------------------------------------
113	5.650000e+00	7.916397e+04	
114	5.700000e+00	7.938890e+04	
115	5.750000e+00	7.961043e+04	
116	5.800000e+00	7.982863e+04	
117	5.850000e+00	8.004357e+04	
118	5.900000e+00	8.025533e+04	
119	5.950000e+00	8.046396e+04	
120	6.000000e+00	8.066955e+04	
121	6.050000e+00	8.087214e+04	
122	6.100000e+00	8.107181e+04	
123	6.150000e+00	8.126861e+04	
124	6.200000e+00	8.146260e+04	
125	6.250000e+00	8.165385e+04	
126	6.300000e+00	8.184241e+04	
127	6.350000e+00	8.202833e+04	
128	6.400000e+00	8.221167e+04	
129	6.450000e+00	8.239248e+04	
130	6.500000e+00	8.257081e+04	
131	6.550000e+00	8.274671e+04	
132	6.600000e+00	8.292023e+04	
Reset re-loads circuit ***************************

Circuit: ***************************

Doing analysis at TEMP = -40.000000 and TNOM = -40.000000


No. of Data Rows : 133
                          ***************************
                          DC transfer characteristic  Mon Jan  9 13:58:06  2023
--------------------------------------------------------------------------------
Index   v-sweep         rds             
--------------------------------------------------------------------------------
0	0.000000e+00	1.315688e+03	
1	5.000000e-02	1.360337e+03	
2	1.000000e-01	1.407098e+03	
3	1.500000e-01	1.456121e+03	
4	2.000000e-01	1.507570e+03	
5	2.500000e-01	1.561629e+03	
6	3.000000e-01	1.618499e+03	
7	3.500000e-01	1.678405e+03	
8	4.000000e-01	1.741598e+03	
9	4.500000e-01	1.808362e+03	
10	5.000000e-01	1.879018e+03	
11	5.500000e-01	1.953935e+03	
12	6.000000e-01	2.033546e+03	
13	6.500000e-01	2.118376e+03	
14	7.000000e-01	2.209095e+03	
15	7.500000e-01	2.306636e+03	
16	8.000000e-01	2.412466e+03	
17	8.500000e-01	2.529257e+03	
18	9.000000e-01	2.662670e+03	
19	9.500000e-01	2.826091e+03	
20	1.000000e+00	3.051765e+03	
21	1.050000e+00	3.405657e+03	
22	1.100000e+00	3.969958e+03	
23	1.150000e+00	4.766919e+03	
24	1.200000e+00	5.736698e+03	
25	1.250000e+00	6.803752e+03	
26	1.300000e+00	7.916531e+03	
27	1.350000e+00	9.046121e+03	
28	1.400000e+00	1.017696e+04	
29	1.450000e+00	1.130056e+04	
30	1.500000e+00	1.241218e+04	
31	1.550000e+00	1.350909e+04	
32	1.600000e+00	1.458975e+04	
33	1.650000e+00	1.565330e+04	
34	1.700000e+00	1.669931e+04	
35	1.750000e+00	1.772758e+04	
36	1.800000e+00	1.873814e+04	
37	1.850000e+00	1.973109e+04	
38	1.900000e+00	2.070662e+04	
39	1.950000e+00	2.166498e+04	
40	2.000000e+00	2.260644e+04	
41	2.050000e+00	2.353131e+04	
42	2.100000e+00	2.443990e+04	
43	2.150000e+00	2.533254e+04	
44	2.200000e+00	2.620955e+04	
45	2.250000e+00	2.707127e+04	
46	2.300000e+00	2.791802e+04	
47	2.350000e+00	2.875013e+04	
48	2.400000e+00	2.956793e+04	
49	2.450000e+00	3.037172e+04	
50	2.500000e+00	3.116183e+04	
51	2.550000e+00	3.193856e+04	
52	2.600000e+00	3.270220e+04	
53	2.650000e+00	3.345306e+04	
54	2.700000e+00	3.419142e+04	

Index   v-sweep         rds             
--------------------------------------------------------------------------------
55	2.750000e+00	3.491755e+04	
56	2.800000e+00	3.563174e+04	
57	2.850000e+00	3.633425e+04	
58	2.900000e+00	3.702535e+04	
59	2.950000e+00	3.770527e+04	
60	3.000000e+00	3.837428e+04	
61	3.050000e+00	3.903261e+04	
62	3.100000e+00	3.968050e+04	
63	3.150000e+00	4.031818e+04	
64	3.200000e+00	4.094586e+04	
65	3.250000e+00	4.156377e+04	
66	3.300000e+00	4.217212e+04	
67	3.350000e+00	4.277112e+04	
68	3.400000e+00	4.336096e+04	
69	3.450000e+00	4.394183e+04	
70	3.500000e+00	4.451394e+04	
71	3.550000e+00	4.507747e+04	
72	3.600000e+00	4.563259e+04	
73	3.650000e+00	4.617948e+04	
74	3.700000e+00	4.671831e+04	
75	3.750000e+00	4.724926e+04	
76	3.800000e+00	4.777248e+04	
77	3.850000e+00	4.828812e+04	
78	3.900000e+00	4.879636e+04	
79	3.950000e+00	4.929733e+04	
80	4.000000e+00	4.979118e+04	
81	4.050000e+00	5.027806e+04	
82	4.100000e+00	5.075810e+04	
83	4.150000e+00	5.123145e+04	
84	4.200000e+00	5.169823e+04	
85	4.250000e+00	5.215857e+04	
86	4.300000e+00	5.261260e+04	
87	4.350000e+00	5.306044e+04	
88	4.400000e+00	5.350221e+04	
89	4.450000e+00	5.393803e+04	
90	4.500000e+00	5.436801e+04	
91	4.550000e+00	5.479227e+04	
92	4.600000e+00	5.521091e+04	
93	4.650000e+00	5.562404e+04	
94	4.700000e+00	5.603175e+04	
95	4.750000e+00	5.643417e+04	
96	4.800000e+00	5.683137e+04	
97	4.850000e+00	5.722346e+04	
98	4.900000e+00	5.761054e+04	
99	4.950000e+00	5.799269e+04	
100	5.000000e+00	5.837000e+04	
101	5.050000e+00	5.874257e+04	
102	5.100000e+00	5.911047e+04	
103	5.150000e+00	5.947379e+04	
104	5.200000e+00	5.983261e+04	
105	5.250000e+00	6.018702e+04	
106	5.300000e+00	6.053709e+04	
107	5.350000e+00	6.088290e+04	
108	5.400000e+00	6.122451e+04	
109	5.450000e+00	6.156201e+04	
110	5.500000e+00	6.189547e+04	
111	5.550000e+00	6.222496e+04	
112	5.600000e+00	6.255053e+04	

Index   v-sweep         rds             
--------------------------------------------------------------------------------
113	5.650000e+00	6.287227e+04	
114	5.700000e+00	6.319024e+04	
115	5.750000e+00	6.350449e+04	
116	5.800000e+00	6.381510e+04	
117	5.850000e+00	6.412212e+04	
118	5.900000e+00	6.442562e+04	
119	5.950000e+00	6.472564e+04	
120	6.000000e+00	6.502226e+04	
121	6.050000e+00	6.531552e+04	
122	6.100000e+00	6.560549e+04	
123	6.150000e+00	6.589220e+04	
124	6.200000e+00	6.617573e+04	
125	6.250000e+00	6.645611e+04	
126	6.300000e+00	6.673341e+04	
127	6.350000e+00	6.700766e+04	
128	6.400000e+00	6.727892e+04	
129	6.450000e+00	6.754723e+04	
130	6.500000e+00	6.781264e+04	
131	6.550000e+00	6.807521e+04	
132	6.600000e+00	6.833496e+04	
Reset re-loads circuit ***************************

Circuit: ***************************

Doing analysis at TEMP = -40.000000 and TNOM = -40.000000


No. of Data Rows : 133
                          ***************************
                          DC transfer characteristic  Mon Jan  9 13:58:06  2023
--------------------------------------------------------------------------------
Index   v-sweep         rds             
--------------------------------------------------------------------------------
0	0.000000e+00	1.049309e+03	
1	5.000000e-02	1.077032e+03	
2	1.000000e-01	1.105674e+03	
3	1.500000e-01	1.135281e+03	
4	2.000000e-01	1.165901e+03	
5	2.500000e-01	1.197583e+03	
6	3.000000e-01	1.230385e+03	
7	3.500000e-01	1.264365e+03	
8	4.000000e-01	1.299588e+03	
9	4.500000e-01	1.336124e+03	
10	5.000000e-01	1.374048e+03	
11	5.500000e-01	1.413445e+03	
12	6.000000e-01	1.454405e+03	
13	6.500000e-01	1.497029e+03	
14	7.000000e-01	1.541432e+03	
15	7.500000e-01	1.587742e+03	
16	8.000000e-01	1.636110e+03	
17	8.500000e-01	1.686718e+03	
18	9.000000e-01	1.739801e+03	
19	9.500000e-01	1.795681e+03	
20	1.000000e+00	1.854849e+03	
21	1.050000e+00	1.918126e+03	
22	1.100000e+00	1.987048e+03	
23	1.150000e+00	2.064756e+03	
24	1.200000e+00	2.158102e+03	
25	1.250000e+00	2.282291e+03	
26	1.300000e+00	2.468310e+03	
27	1.350000e+00	2.764227e+03	
28	1.400000e+00	3.209829e+03	
29	1.450000e+00	3.800953e+03	
30	1.500000e+00	4.497780e+03	
31	1.550000e+00	5.258376e+03	
32	1.600000e+00	6.053561e+03	
33	1.650000e+00	6.865769e+03	
34	1.700000e+00	7.684779e+03	
35	1.750000e+00	8.504581e+03	
36	1.800000e+00	9.321547e+03	
37	1.850000e+00	1.013343e+04	
38	1.900000e+00	1.093881e+04	
39	1.950000e+00	1.173677e+04	
40	2.000000e+00	1.252672e+04	
41	2.050000e+00	1.330828e+04	
42	2.100000e+00	1.408121e+04	
43	2.150000e+00	1.484538e+04	
44	2.200000e+00	1.560072e+04	
45	2.250000e+00	1.634720e+04	
46	2.300000e+00	1.708486e+04	
47	2.350000e+00	1.781372e+04	
48	2.400000e+00	1.853386e+04	
49	2.450000e+00	1.924535e+04	
50	2.500000e+00	1.994828e+04	
51	2.550000e+00	2.064275e+04	
52	2.600000e+00	2.132886e+04	
53	2.650000e+00	2.200671e+04	
54	2.700000e+00	2.267643e+04	

Index   v-sweep         rds             
--------------------------------------------------------------------------------
55	2.750000e+00	2.333811e+04	
56	2.800000e+00	2.399187e+04	
57	2.850000e+00	2.463783e+04	
58	2.900000e+00	2.527610e+04	
59	2.950000e+00	2.590679e+04	
60	3.000000e+00	2.653002e+04	
61	3.050000e+00	2.714591e+04	
62	3.100000e+00	2.775455e+04	
63	3.150000e+00	2.835606e+04	
64	3.200000e+00	2.895056e+04	
65	3.250000e+00	2.953815e+04	
66	3.300000e+00	3.011893e+04	
67	3.350000e+00	3.069301e+04	
68	3.400000e+00	3.126050e+04	
69	3.450000e+00	3.182149e+04	
70	3.500000e+00	3.237610e+04	
71	3.550000e+00	3.292440e+04	
72	3.600000e+00	3.346652e+04	
73	3.650000e+00	3.400253e+04	
74	3.700000e+00	3.453253e+04	
75	3.750000e+00	3.505662e+04	
76	3.800000e+00	3.557489e+04	
77	3.850000e+00	3.608742e+04	
78	3.900000e+00	3.659431e+04	
79	3.950000e+00	3.709564e+04	
80	4.000000e+00	3.759149e+04	
81	4.050000e+00	3.808195e+04	
82	4.100000e+00	3.856710e+04	
83	4.150000e+00	3.904702e+04	
84	4.200000e+00	3.952179e+04	
85	4.250000e+00	3.999149e+04	
86	4.300000e+00	4.045619e+04	
87	4.350000e+00	4.091597e+04	
88	4.400000e+00	4.137089e+04	
89	4.450000e+00	4.182104e+04	
90	4.500000e+00	4.226648e+04	
91	4.550000e+00	4.270729e+04	
92	4.600000e+00	4.314353e+04	
93	4.650000e+00	4.357526e+04	
94	4.700000e+00	4.400256e+04	
95	4.750000e+00	4.442548e+04	
96	4.800000e+00	4.484410e+04	
97	4.850000e+00	4.525847e+04	
98	4.900000e+00	4.566866e+04	
99	4.950000e+00	4.607472e+04	
100	5.000000e+00	4.647672e+04	
101	5.050000e+00	4.687471e+04	
102	5.100000e+00	4.726875e+04	
103	5.150000e+00	4.765889e+04	
104	5.200000e+00	4.804520e+04	
105	5.250000e+00	4.842771e+04	
106	5.300000e+00	4.880650e+04	
107	5.350000e+00	4.918160e+04	
108	5.400000e+00	4.955308e+04	
109	5.450000e+00	4.992097e+04	
110	5.500000e+00	5.028534e+04	
111	5.550000e+00	5.064622e+04	
112	5.600000e+00	5.100367e+04	

Index   v-sweep         rds             
--------------------------------------------------------------------------------
113	5.650000e+00	5.135774e+04	
114	5.700000e+00	5.170846e+04	
115	5.750000e+00	5.205589e+04	
116	5.800000e+00	5.240007e+04	
117	5.850000e+00	5.274104e+04	
118	5.900000e+00	5.307885e+04	
119	5.950000e+00	5.341353e+04	
120	6.000000e+00	5.374514e+04	
121	6.050000e+00	5.407371e+04	
122	6.100000e+00	5.439928e+04	
123	6.150000e+00	5.472188e+04	
124	6.200000e+00	5.504157e+04	
125	6.250000e+00	5.535838e+04	
126	6.300000e+00	5.567234e+04	
127	6.350000e+00	5.598349e+04	
128	6.400000e+00	5.629188e+04	
129	6.450000e+00	5.659752e+04	
130	6.500000e+00	5.690047e+04	
131	6.550000e+00	5.720075e+04	
132	6.600000e+00	5.749840e+04	
Reset re-loads circuit ***************************

Circuit: ***************************

Doing analysis at TEMP = -40.000000 and TNOM = -40.000000


No. of Data Rows : 133
                          ***************************
                          DC transfer characteristic  Mon Jan  9 13:58:06  2023
--------------------------------------------------------------------------------
Index   v-sweep         rds             
--------------------------------------------------------------------------------
0	0.000000e+00	9.155779e+02	
1	5.000000e-02	9.355566e+02	
2	1.000000e-01	9.560451e+02	
3	1.500000e-01	9.770620e+02	
4	2.000000e-01	9.986269e+02	
5	2.500000e-01	1.020761e+03	
6	3.000000e-01	1.043485e+03	
7	3.500000e-01	1.066823e+03	
8	4.000000e-01	1.090800e+03	
9	4.500000e-01	1.115442e+03	
10	5.000000e-01	1.140778e+03	
11	5.500000e-01	1.166836e+03	
12	6.000000e-01	1.193651e+03	
13	6.500000e-01	1.221257e+03	
14	7.000000e-01	1.249690e+03	
15	7.500000e-01	1.278993e+03	
16	8.000000e-01	1.309210e+03	
17	8.500000e-01	1.340390e+03	
18	9.000000e-01	1.372587e+03	
19	9.500000e-01	1.405864e+03	
20	1.000000e+00	1.440293e+03	
21	1.050000e+00	1.475964e+03	
22	1.100000e+00	1.512987e+03	
23	1.150000e+00	1.551517e+03	
24	1.200000e+00	1.591775e+03	
25	1.250000e+00	1.634114e+03	
26	1.300000e+00	1.679134e+03	
27	1.350000e+00	1.727939e+03	
28	1.400000e+00	1.782692e+03	
29	1.450000e+00	1.847822e+03	
30	1.500000e+00	1.932512e+03	
31	1.550000e+00	2.054760e+03	
32	1.600000e+00	2.243897e+03	
33	1.650000e+00	2.531608e+03	
34	1.700000e+00	2.929858e+03	
35	1.750000e+00	3.422224e+03	
36	1.800000e+00	3.979915e+03	
37	1.850000e+00	4.577869e+03	
38	1.900000e+00	5.199064e+03	
39	1.950000e+00	5.832925e+03	
40	2.000000e+00	6.473004e+03	
41	2.050000e+00	7.115316e+03	
42	2.100000e+00	7.757345e+03	
43	2.150000e+00	8.397462e+03	
44	2.200000e+00	9.034582e+03	
45	2.250000e+00	9.667975e+03	
46	2.300000e+00	1.029714e+04	
47	2.350000e+00	1.092172e+04	
48	2.400000e+00	1.154149e+04	
49	2.450000e+00	1.215626e+04	
50	2.500000e+00	1.276594e+04	
51	2.550000e+00	1.337044e+04	
52	2.600000e+00	1.396972e+04	
53	2.650000e+00	1.456376e+04	
54	2.700000e+00	1.515256e+04	

Index   v-sweep         rds             
--------------------------------------------------------------------------------
55	2.750000e+00	1.573611e+04	
56	2.800000e+00	1.631444e+04	
57	2.850000e+00	1.688758e+04	
58	2.900000e+00	1.745555e+04	
59	2.950000e+00	1.801839e+04	
60	3.000000e+00	1.857613e+04	
61	3.050000e+00	1.912883e+04	
62	3.100000e+00	1.967652e+04	
63	3.150000e+00	2.021926e+04	
64	3.200000e+00	2.075709e+04	
65	3.250000e+00	2.129006e+04	
66	3.300000e+00	2.181822e+04	
67	3.350000e+00	2.234162e+04	
68	3.400000e+00	2.286032e+04	
69	3.450000e+00	2.337435e+04	
70	3.500000e+00	2.388379e+04	
71	3.550000e+00	2.438866e+04	
72	3.600000e+00	2.488904e+04	
73	3.650000e+00	2.538496e+04	
74	3.700000e+00	2.587649e+04	
75	3.750000e+00	2.636366e+04	
76	3.800000e+00	2.684654e+04	
77	3.850000e+00	2.732516e+04	
78	3.900000e+00	2.779958e+04	
79	3.950000e+00	2.826985e+04	
80	4.000000e+00	2.873601e+04	
81	4.050000e+00	2.919812e+04	
82	4.100000e+00	2.965622e+04	
83	4.150000e+00	3.011036e+04	
84	4.200000e+00	3.056059e+04	
85	4.250000e+00	3.100694e+04	
86	4.300000e+00	3.144947e+04	
87	4.350000e+00	3.188822e+04	
88	4.400000e+00	3.232323e+04	
89	4.450000e+00	3.275456e+04	
90	4.500000e+00	3.318223e+04	
91	4.550000e+00	3.360630e+04	
92	4.600000e+00	3.402680e+04	
93	4.650000e+00	3.444378e+04	
94	4.700000e+00	3.485728e+04	
95	4.750000e+00	3.526734e+04	
96	4.800000e+00	3.567400e+04	
97	4.850000e+00	3.607729e+04	
98	4.900000e+00	3.647726e+04	
99	4.950000e+00	3.687395e+04	
100	5.000000e+00	3.726739e+04	
101	5.050000e+00	3.765762e+04	
102	5.100000e+00	3.804468e+04	
103	5.150000e+00	3.842860e+04	
104	5.200000e+00	3.880941e+04	
105	5.250000e+00	3.918717e+04	
106	5.300000e+00	3.956189e+04	
107	5.350000e+00	3.993362e+04	
108	5.400000e+00	4.030238e+04	
109	5.450000e+00	4.066821e+04	
110	5.500000e+00	4.103115e+04	
111	5.550000e+00	4.139122e+04	
112	5.600000e+00	4.174846e+04	

Index   v-sweep         rds             
--------------------------------------------------------------------------------
113	5.650000e+00	4.210291e+04	
114	5.700000e+00	4.245458e+04	
115	5.750000e+00	4.280351e+04	
116	5.800000e+00	4.314974e+04	
117	5.850000e+00	4.349329e+04	
118	5.900000e+00	4.383419e+04	
119	5.950000e+00	4.417247e+04	
120	6.000000e+00	4.450817e+04	
121	6.050000e+00	4.484130e+04	
122	6.100000e+00	4.517189e+04	
123	6.150000e+00	4.549998e+04	
124	6.200000e+00	4.582559e+04	
125	6.250000e+00	4.614875e+04	
126	6.300000e+00	4.646948e+04	
127	6.350000e+00	4.678781e+04	
128	6.400000e+00	4.710377e+04	
129	6.450000e+00	4.741738e+04	
130	6.500000e+00	4.772867e+04	
131	6.550000e+00	4.803766e+04	
132	6.600000e+00	4.834437e+04	
Reset re-loads circuit ***************************

Circuit: ***************************

Doing analysis at TEMP = -40.000000 and TNOM = -40.000000


No. of Data Rows : 133
                          ***************************
                          DC transfer characteristic  Mon Jan  9 13:58:06  2023
--------------------------------------------------------------------------------
Index   v-sweep         rds             
--------------------------------------------------------------------------------
0	0.000000e+00	8.406009e+02	
1	5.000000e-02	8.561936e+02	
2	1.000000e-01	8.721075e+02	
3	1.500000e-01	8.883518e+02	
4	2.000000e-01	9.049364e+02	
5	2.500000e-01	9.218713e+02	
6	3.000000e-01	9.391672e+02	
7	3.500000e-01	9.568351e+02	
8	4.000000e-01	9.748869e+02	
9	4.500000e-01	9.933347e+02	
10	5.000000e-01	1.012192e+03	
11	5.500000e-01	1.031472e+03	
12	6.000000e-01	1.051189e+03	
13	6.500000e-01	1.071360e+03	
14	7.000000e-01	1.092000e+03	
15	7.500000e-01	1.113127e+03	
16	8.000000e-01	1.134760e+03	
17	8.500000e-01	1.156919e+03	
18	9.000000e-01	1.179624e+03	
19	9.500000e-01	1.202901e+03	
20	1.000000e+00	1.226772e+03	
21	1.050000e+00	1.251267e+03	
22	1.100000e+00	1.276415e+03	
23	1.150000e+00	1.302251e+03	
24	1.200000e+00	1.328816e+03	
25	1.250000e+00	1.356157e+03	
26	1.300000e+00	1.384336e+03	
27	1.350000e+00	1.413430e+03	
28	1.400000e+00	1.443550e+03	
29	1.450000e+00	1.474860e+03	
30	1.500000e+00	1.507618e+03	
31	1.550000e+00	1.542256e+03	
32	1.600000e+00	1.579541e+03	
33	1.650000e+00	1.620901e+03	
34	1.700000e+00	1.669101e+03	
35	1.750000e+00	1.729572e+03	
36	1.800000e+00	1.812679e+03	
37	1.850000e+00	1.936090e+03	
38	1.900000e+00	2.123038e+03	
39	1.950000e+00	2.391406e+03	
40	2.000000e+00	2.741211e+03	
41	2.050000e+00	3.156331e+03	
42	2.100000e+00	3.616470e+03	
43	2.150000e+00	4.105117e+03	
44	2.200000e+00	4.611011e+03	
45	2.250000e+00	5.126959e+03	
46	2.300000e+00	5.648420e+03	
47	2.350000e+00	6.172500e+03	
48	2.400000e+00	6.697314e+03	
49	2.450000e+00	7.221604e+03	
50	2.500000e+00	7.744515e+03	
51	2.550000e+00	8.265450e+03	
52	2.600000e+00	8.783988e+03	
53	2.650000e+00	9.299829e+03	
54	2.700000e+00	9.812752e+03	

Index   v-sweep         rds             
--------------------------------------------------------------------------------
55	2.750000e+00	1.032260e+04	
56	2.800000e+00	1.082925e+04	
57	2.850000e+00	1.133263e+04	
58	2.900000e+00	1.183267e+04	
59	2.950000e+00	1.232934e+04	
60	3.000000e+00	1.282260e+04	
61	3.050000e+00	1.331243e+04	
62	3.100000e+00	1.379884e+04	
63	3.150000e+00	1.428181e+04	
64	3.200000e+00	1.476136e+04	
65	3.250000e+00	1.523748e+04	
66	3.300000e+00	1.571020e+04	
67	3.350000e+00	1.617953e+04	
68	3.400000e+00	1.664549e+04	
69	3.450000e+00	1.710808e+04	
70	3.500000e+00	1.756735e+04	
71	3.550000e+00	1.802330e+04	
72	3.600000e+00	1.847596e+04	
73	3.650000e+00	1.892536e+04	
74	3.700000e+00	1.937152e+04	
75	3.750000e+00	1.981446e+04	
76	3.800000e+00	2.025422e+04	
77	3.850000e+00	2.069081e+04	
78	3.900000e+00	2.112427e+04	
79	3.950000e+00	2.155462e+04	
80	4.000000e+00	2.198188e+04	
81	4.050000e+00	2.240609e+04	
82	4.100000e+00	2.282727e+04	
83	4.150000e+00	2.324545e+04	
84	4.200000e+00	2.366065e+04	
85	4.250000e+00	2.407291e+04	
86	4.300000e+00	2.448224e+04	
87	4.350000e+00	2.488868e+04	
88	4.400000e+00	2.529225e+04	
89	4.450000e+00	2.569298e+04	
90	4.500000e+00	2.609089e+04	
91	4.550000e+00	2.648601e+04	
92	4.600000e+00	2.687837e+04	
93	4.650000e+00	2.726799e+04	
94	4.700000e+00	2.765490e+04	
95	4.750000e+00	2.803912e+04	
96	4.800000e+00	2.842068e+04	
97	4.850000e+00	2.879960e+04	
98	4.900000e+00	2.917591e+04	
99	4.950000e+00	2.954963e+04	
100	5.000000e+00	2.992079e+04	
101	5.050000e+00	3.028940e+04	
102	5.100000e+00	3.065550e+04	
103	5.150000e+00	3.101911e+04	
104	5.200000e+00	3.138024e+04	
105	5.250000e+00	3.173893e+04	
106	5.300000e+00	3.209520e+04	
107	5.350000e+00	3.244907e+04	
108	5.400000e+00	3.280055e+04	
109	5.450000e+00	3.314968e+04	
110	5.500000e+00	3.349648e+04	
111	5.550000e+00	3.384096e+04	
112	5.600000e+00	3.418315e+04	

Index   v-sweep         rds             
--------------------------------------------------------------------------------
113	5.650000e+00	3.452307e+04	
114	5.700000e+00	3.486075e+04	
115	5.750000e+00	3.519619e+04	
116	5.800000e+00	3.552943e+04	
117	5.850000e+00	3.586048e+04	
118	5.900000e+00	3.618936e+04	
119	5.950000e+00	3.651609e+04	
120	6.000000e+00	3.684070e+04	
121	6.050000e+00	3.716320e+04	
122	6.100000e+00	3.748361e+04	
123	6.150000e+00	3.780195e+04	
124	6.200000e+00	3.811825e+04	
125	6.250000e+00	3.843251e+04	
126	6.300000e+00	3.874475e+04	
127	6.350000e+00	3.905500e+04	
128	6.400000e+00	3.936328e+04	
129	6.450000e+00	3.966959e+04	
130	6.500000e+00	3.997396e+04	
131	6.550000e+00	4.027641e+04	
132	6.600000e+00	4.057695e+04	
Reset re-loads circuit ***************************

Circuit: ***************************

Note: No ".plot", ".print", or ".fourier" lines; no simulations run
