
Note: Compatibility modes selected: hs

Warning: m=xx on .subckt line will override multiplier m hierarchy!


Circuit: ***************************

Doing analysis at TEMP = 25.000000 and TNOM = 25.000000


No. of Data Rows : 133
                          ***************************
                          DC transfer characteristic  Mon Jan  9 13:58:05  2023
--------------------------------------------------------------------------------
Index   v-sweep         rds             
--------------------------------------------------------------------------------
0	0.000000e+00	3.231179e+04	
1	5.000000e-02	3.766991e+04	
2	1.000000e-01	4.504177e+04	
3	1.500000e-01	5.578946e+04	
4	2.000000e-01	7.272677e+04	
5	2.500000e-01	1.018639e+05	
6	3.000000e-01	1.505188e+05	
7	3.500000e-01	2.038297e+05	
8	4.000000e-01	2.444943e+05	
9	4.500000e-01	2.778611e+05	
10	5.000000e-01	3.073045e+05	
11	5.500000e-01	3.338207e+05	
12	6.000000e-01	3.578615e+05	
13	6.500000e-01	3.797362e+05	
14	7.000000e-01	3.996951e+05	
15	7.500000e-01	4.179516e+05	
16	8.000000e-01	4.346904e+05	
17	8.500000e-01	4.500724e+05	
18	9.000000e-01	4.642382e+05	
19	9.500000e-01	4.773110e+05	
20	1.000000e+00	4.893990e+05	
21	1.050000e+00	5.005975e+05	
22	1.100000e+00	5.109906e+05	
23	1.150000e+00	5.206527e+05	
24	1.200000e+00	5.296499e+05	
25	1.250000e+00	5.380410e+05	
26	1.300000e+00	5.458783e+05	
27	1.350000e+00	5.532087e+05	
28	1.400000e+00	5.600741e+05	
29	1.450000e+00	5.665123e+05	
30	1.500000e+00	5.725572e+05	
31	1.550000e+00	5.782394e+05	
32	1.600000e+00	5.835866e+05	
33	1.650000e+00	5.886238e+05	
34	1.700000e+00	5.933738e+05	
35	1.750000e+00	5.978573e+05	
36	1.800000e+00	6.020932e+05	
37	1.850000e+00	6.060986e+05	
38	1.900000e+00	6.098892e+05	
39	1.950000e+00	6.134795e+05	
40	2.000000e+00	6.168827e+05	
41	2.050000e+00	6.201109e+05	
42	2.100000e+00	6.231752e+05	
43	2.150000e+00	6.260860e+05	
44	2.200000e+00	6.288526e+05	
45	2.250000e+00	6.314840e+05	
46	2.300000e+00	6.339881e+05	
47	2.350000e+00	6.363725e+05	
48	2.400000e+00	6.386441e+05	
49	2.450000e+00	6.408094e+05	
50	2.500000e+00	6.428743e+05	
51	2.550000e+00	6.448446e+05	
52	2.600000e+00	6.467253e+05	
53	2.650000e+00	6.485213e+05	
54	2.700000e+00	6.502372e+05	

Index   v-sweep         rds             
--------------------------------------------------------------------------------
55	2.750000e+00	6.518771e+05	
56	2.800000e+00	6.534451e+05	
57	2.850000e+00	6.549447e+05	
58	2.900000e+00	6.563796e+05	
59	2.950000e+00	6.577529e+05	
60	3.000000e+00	6.590677e+05	
61	3.050000e+00	6.603269e+05	
62	3.100000e+00	6.615331e+05	
63	3.150000e+00	6.626889e+05	
64	3.200000e+00	6.637967e+05	
65	3.250000e+00	6.648586e+05	
66	3.300000e+00	6.658770e+05	
67	3.350000e+00	6.668536e+05	
68	3.400000e+00	6.677905e+05	
69	3.450000e+00	6.686894e+05	
70	3.500000e+00	6.695519e+05	
71	3.550000e+00	6.703798e+05	
72	3.600000e+00	6.711745e+05	
73	3.650000e+00	6.719374e+05	
74	3.700000e+00	6.726698e+05	
75	3.750000e+00	6.733732e+05	
76	3.800000e+00	6.740486e+05	
77	3.850000e+00	6.746973e+05	
78	3.900000e+00	6.753204e+05	
79	3.950000e+00	6.759188e+05	
80	4.000000e+00	6.764936e+05	
81	4.050000e+00	6.770458e+05	
82	4.100000e+00	6.775762e+05	
83	4.150000e+00	6.780857e+05	
84	4.200000e+00	6.785752e+05	
85	4.250000e+00	6.790453e+05	
86	4.300000e+00	6.794968e+05	
87	4.350000e+00	6.799306e+05	
88	4.400000e+00	6.803471e+05	
89	4.450000e+00	6.807471e+05	
90	4.500000e+00	6.811312e+05	
91	4.550000e+00	6.815000e+05	
92	4.600000e+00	6.818540e+05	
93	4.650000e+00	6.821938e+05	
94	4.700000e+00	6.825199e+05	
95	4.750000e+00	6.828328e+05	
96	4.800000e+00	6.831330e+05	
97	4.850000e+00	6.834209e+05	
98	4.900000e+00	6.836969e+05	
99	4.950000e+00	6.839616e+05	
100	5.000000e+00	6.842152e+05	
101	5.050000e+00	6.844582e+05	
102	5.100000e+00	6.846909e+05	
103	5.150000e+00	6.849137e+05	
104	5.200000e+00	6.851270e+05	
105	5.250000e+00	6.853309e+05	
106	5.300000e+00	6.855260e+05	
107	5.350000e+00	6.857124e+05	
108	5.400000e+00	6.858905e+05	
109	5.450000e+00	6.860605e+05	
110	5.500000e+00	6.862227e+05	
111	5.550000e+00	6.863774e+05	
112	5.600000e+00	6.865248e+05	

Index   v-sweep         rds             
--------------------------------------------------------------------------------
113	5.650000e+00	6.866652e+05	
114	5.700000e+00	6.867988e+05	
115	5.750000e+00	6.869257e+05	
116	5.800000e+00	6.870463e+05	
117	5.850000e+00	6.871607e+05	
118	5.900000e+00	6.872692e+05	
119	5.950000e+00	6.873718e+05	
120	6.000000e+00	6.874689e+05	
121	6.050000e+00	6.875606e+05	
122	6.100000e+00	6.876470e+05	
123	6.150000e+00	6.877284e+05	
124	6.200000e+00	6.878049e+05	
125	6.250000e+00	6.878766e+05	
126	6.300000e+00	6.879437e+05	
127	6.350000e+00	6.880064e+05	
128	6.400000e+00	6.880647e+05	
129	6.450000e+00	6.881189e+05	
130	6.500000e+00	6.881690e+05	
131	6.550000e+00	6.882152e+05	
132	6.600000e+00	6.882577e+05	
Reset re-loads circuit ***************************

Circuit: ***************************

Doing analysis at TEMP = 25.000000 and TNOM = 25.000000


No. of Data Rows : 133
                          ***************************
                          DC transfer characteristic  Mon Jan  9 13:58:06  2023
--------------------------------------------------------------------------------
Index   v-sweep         rds             
--------------------------------------------------------------------------------
0	0.000000e+00	9.800222e+03	
1	5.000000e-02	1.024795e+04	
2	1.000000e-01	1.073083e+04	
3	1.500000e-01	1.125314e+04	
4	2.000000e-01	1.181990e+04	
5	2.500000e-01	1.243698e+04	
6	3.000000e-01	1.311134e+04	
7	3.500000e-01	1.385130e+04	
8	4.000000e-01	1.466683e+04	
9	4.500000e-01	1.557002e+04	
10	5.000000e-01	1.657567e+04	
11	5.500000e-01	1.770210e+04	
12	6.000000e-01	1.897231e+04	
13	6.500000e-01	2.041590e+04	
14	7.000000e-01	2.207273e+04	
15	7.500000e-01	2.400198e+04	
16	8.000000e-01	2.630858e+04	
17	8.500000e-01	2.921095e+04	
18	9.000000e-01	3.309324e+04	
19	9.500000e-01	3.821596e+04	
20	1.000000e+00	4.430875e+04	
21	1.050000e+00	5.087457e+04	
22	1.100000e+00	5.757248e+04	
23	1.150000e+00	6.423176e+04	
24	1.200000e+00	7.077376e+04	
25	1.250000e+00	7.716298e+04	
26	1.300000e+00	8.338414e+04	
27	1.350000e+00	8.943191e+04	
28	1.400000e+00	9.530602e+04	
29	1.450000e+00	1.010089e+05	
30	1.500000e+00	1.065445e+05	
31	1.550000e+00	1.119175e+05	
32	1.600000e+00	1.171330e+05	
33	1.650000e+00	1.221961e+05	
34	1.700000e+00	1.271122e+05	
35	1.750000e+00	1.318864e+05	
36	1.800000e+00	1.365240e+05	
37	1.850000e+00	1.410297e+05	
38	1.900000e+00	1.454085e+05	
39	1.950000e+00	1.496649e+05	
40	2.000000e+00	1.538035e+05	
41	2.050000e+00	1.578285e+05	
42	2.100000e+00	1.617440e+05	
43	2.150000e+00	1.655540e+05	
44	2.200000e+00	1.692623e+05	
45	2.250000e+00	1.728725e+05	
46	2.300000e+00	1.763880e+05	
47	2.350000e+00	1.798122e+05	
48	2.400000e+00	1.831484e+05	
49	2.450000e+00	1.863995e+05	
50	2.500000e+00	1.895685e+05	
51	2.550000e+00	1.926582e+05	
52	2.600000e+00	1.956713e+05	
53	2.650000e+00	1.986103e+05	
54	2.700000e+00	2.014778e+05	

Index   v-sweep         rds             
--------------------------------------------------------------------------------
55	2.750000e+00	2.042761e+05	
56	2.800000e+00	2.070074e+05	
57	2.850000e+00	2.096740e+05	
58	2.900000e+00	2.122780e+05	
59	2.950000e+00	2.148213e+05	
60	3.000000e+00	2.173059e+05	
61	3.050000e+00	2.197337e+05	
62	3.100000e+00	2.221064e+05	
63	3.150000e+00	2.244256e+05	
64	3.200000e+00	2.266932e+05	
65	3.250000e+00	2.289106e+05	
66	3.300000e+00	2.310794e+05	
67	3.350000e+00	2.332010e+05	
68	3.400000e+00	2.352769e+05	
69	3.450000e+00	2.373083e+05	
70	3.500000e+00	2.392967e+05	
71	3.550000e+00	2.412431e+05	
72	3.600000e+00	2.431490e+05	
73	3.650000e+00	2.450154e+05	
74	3.700000e+00	2.468434e+05	
75	3.750000e+00	2.486341e+05	
76	3.800000e+00	2.503886e+05	
77	3.850000e+00	2.521079e+05	
78	3.900000e+00	2.537929e+05	
79	3.950000e+00	2.554446e+05	
80	4.000000e+00	2.570640e+05	
81	4.050000e+00	2.586517e+05	
82	4.100000e+00	2.602088e+05	
83	4.150000e+00	2.617360e+05	
84	4.200000e+00	2.632342e+05	
85	4.250000e+00	2.647040e+05	
86	4.300000e+00	2.661462e+05	
87	4.350000e+00	2.675615e+05	
88	4.400000e+00	2.689507e+05	
89	4.450000e+00	2.703143e+05	
90	4.500000e+00	2.716531e+05	
91	4.550000e+00	2.729676e+05	
92	4.600000e+00	2.742585e+05	
93	4.650000e+00	2.755263e+05	
94	4.700000e+00	2.767716e+05	
95	4.750000e+00	2.779950e+05	
96	4.800000e+00	2.791969e+05	
97	4.850000e+00	2.803780e+05	
98	4.900000e+00	2.815387e+05	
99	4.950000e+00	2.826794e+05	
100	5.000000e+00	2.838008e+05	
101	5.050000e+00	2.849031e+05	
102	5.100000e+00	2.859869e+05	
103	5.150000e+00	2.870526e+05	
104	5.200000e+00	2.881006e+05	
105	5.250000e+00	2.891312e+05	
106	5.300000e+00	2.901451e+05	
107	5.350000e+00	2.911423e+05	
108	5.400000e+00	2.921235e+05	
109	5.450000e+00	2.930888e+05	
110	5.500000e+00	2.940388e+05	
111	5.550000e+00	2.949736e+05	
112	5.600000e+00	2.958936e+05	

Index   v-sweep         rds             
--------------------------------------------------------------------------------
113	5.650000e+00	2.967993e+05	
114	5.700000e+00	2.976908e+05	
115	5.750000e+00	2.985684e+05	
116	5.800000e+00	2.994326e+05	
117	5.850000e+00	3.002835e+05	
118	5.900000e+00	3.011214e+05	
119	5.950000e+00	3.019466e+05	
120	6.000000e+00	3.027595e+05	
121	6.050000e+00	3.035601e+05	
122	6.100000e+00	3.043488e+05	
123	6.150000e+00	3.051259e+05	
124	6.200000e+00	3.058915e+05	
125	6.250000e+00	3.066460e+05	
126	6.300000e+00	3.073894e+05	
127	6.350000e+00	3.081222e+05	
128	6.400000e+00	3.088443e+05	
129	6.450000e+00	3.095562e+05	
130	6.500000e+00	3.102579e+05	
131	6.550000e+00	3.109497e+05	
132	6.600000e+00	3.116318e+05	
Reset re-loads circuit ***************************

Circuit: ***************************

Doing analysis at TEMP = 25.000000 and TNOM = 25.000000


No. of Data Rows : 133
                          ***************************
                          DC transfer characteristic  Mon Jan  9 13:58:06  2023
--------------------------------------------------------------------------------
Index   v-sweep         rds             
--------------------------------------------------------------------------------
0	0.000000e+00	6.593598e+03	
1	5.000000e-02	6.788125e+03	
2	1.000000e-01	6.991292e+03	
3	1.500000e-01	7.203678e+03	
4	2.000000e-01	7.425918e+03	
5	2.500000e-01	7.658703e+03	
6	3.000000e-01	7.902795e+03	
7	3.500000e-01	8.159029e+03	
8	4.000000e-01	8.428325e+03	
9	4.500000e-01	8.711700e+03	
10	5.000000e-01	9.010280e+03	
11	5.500000e-01	9.325317e+03	
12	6.000000e-01	9.658203e+03	
13	6.500000e-01	1.001050e+04	
14	7.000000e-01	1.038395e+04	
15	7.500000e-01	1.078055e+04	
16	8.000000e-01	1.120254e+04	
17	8.500000e-01	1.165255e+04	
18	9.000000e-01	1.213366e+04	
19	9.500000e-01	1.264966e+04	
20	1.000000e+00	1.320549e+04	
21	1.050000e+00	1.380826e+04	
22	1.100000e+00	1.446966e+04	
23	1.150000e+00	1.521200e+04	
24	1.200000e+00	1.608308e+04	
25	1.250000e+00	1.718631e+04	
26	1.300000e+00	1.870925e+04	
27	1.350000e+00	2.085862e+04	
28	1.400000e+00	2.367366e+04	
29	1.450000e+00	2.698528e+04	
30	1.500000e+00	3.058034e+04	
31	1.550000e+00	3.430788e+04	
32	1.600000e+00	3.808100e+04	
33	1.650000e+00	4.185247e+04	
34	1.700000e+00	4.559661e+04	
35	1.750000e+00	4.929923e+04	
36	1.800000e+00	5.295233e+04	
37	1.850000e+00	5.655145e+04	
38	1.900000e+00	6.009421e+04	
39	1.950000e+00	6.357946e+04	
40	2.000000e+00	6.700682e+04	
41	2.050000e+00	7.037643e+04	
42	2.100000e+00	7.368876e+04	
43	2.150000e+00	7.694446e+04	
44	2.200000e+00	8.014438e+04	
45	2.250000e+00	8.328941e+04	
46	2.300000e+00	8.638053e+04	
47	2.350000e+00	8.941876e+04	
48	2.400000e+00	9.240512e+04	
49	2.450000e+00	9.534065e+04	
50	2.500000e+00	9.822641e+04	
51	2.550000e+00	1.010634e+05	
52	2.600000e+00	1.038527e+05	
53	2.650000e+00	1.065954e+05	
54	2.700000e+00	1.092923e+05	

Index   v-sweep         rds             
--------------------------------------------------------------------------------
55	2.750000e+00	1.119445e+05	
56	2.800000e+00	1.145529e+05	
57	2.850000e+00	1.171186e+05	
58	2.900000e+00	1.196424e+05	
59	2.950000e+00	1.221252e+05	
60	3.000000e+00	1.245679e+05	
61	3.050000e+00	1.269714e+05	
62	3.100000e+00	1.293365e+05	
63	3.150000e+00	1.316640e+05	
64	3.200000e+00	1.339548e+05	
65	3.250000e+00	1.362096e+05	
66	3.300000e+00	1.384292e+05	
67	3.350000e+00	1.406144e+05	
68	3.400000e+00	1.427658e+05	
69	3.450000e+00	1.448842e+05	
70	3.500000e+00	1.469703e+05	
71	3.550000e+00	1.490247e+05	
72	3.600000e+00	1.510481e+05	
73	3.650000e+00	1.530412e+05	
74	3.700000e+00	1.550045e+05	
75	3.750000e+00	1.569387e+05	
76	3.800000e+00	1.588444e+05	
77	3.850000e+00	1.607221e+05	
78	3.900000e+00	1.625725e+05	
79	3.950000e+00	1.643960e+05	
80	4.000000e+00	1.661933e+05	
81	4.050000e+00	1.679647e+05	
82	4.100000e+00	1.697109e+05	
83	4.150000e+00	1.714324e+05	
84	4.200000e+00	1.731295e+05	
85	4.250000e+00	1.748029e+05	
86	4.300000e+00	1.764530e+05	
87	4.350000e+00	1.780801e+05	
88	4.400000e+00	1.796849e+05	
89	4.450000e+00	1.812676e+05	
90	4.500000e+00	1.828287e+05	
91	4.550000e+00	1.843686e+05	
92	4.600000e+00	1.858878e+05	
93	4.650000e+00	1.873866e+05	
94	4.700000e+00	1.888654e+05	
95	4.750000e+00	1.903245e+05	
96	4.800000e+00	1.917644e+05	
97	4.850000e+00	1.931853e+05	
98	4.900000e+00	1.945877e+05	
99	4.950000e+00	1.959719e+05	
100	5.000000e+00	1.973382e+05	
101	5.050000e+00	1.986868e+05	
102	5.100000e+00	2.000183e+05	
103	5.150000e+00	2.013328e+05	
104	5.200000e+00	2.026306e+05	
105	5.250000e+00	2.039121e+05	
106	5.300000e+00	2.051776e+05	
107	5.350000e+00	2.064273e+05	
108	5.400000e+00	2.076614e+05	
109	5.450000e+00	2.088804e+05	
110	5.500000e+00	2.100843e+05	
111	5.550000e+00	2.112736e+05	
112	5.600000e+00	2.124484e+05	

Index   v-sweep         rds             
--------------------------------------------------------------------------------
113	5.650000e+00	2.136090e+05	
114	5.700000e+00	2.147557e+05	
115	5.750000e+00	2.158886e+05	
116	5.800000e+00	2.170080e+05	
117	5.850000e+00	2.181141e+05	
118	5.900000e+00	2.192072e+05	
119	5.950000e+00	2.202874e+05	
120	6.000000e+00	2.213551e+05	
121	6.050000e+00	2.224103e+05	
122	6.100000e+00	2.234533e+05	
123	6.150000e+00	2.244843e+05	
124	6.200000e+00	2.255035e+05	
125	6.250000e+00	2.265111e+05	
126	6.300000e+00	2.275072e+05	
127	6.350000e+00	2.284921e+05	
128	6.400000e+00	2.294659e+05	
129	6.450000e+00	2.304288e+05	
130	6.500000e+00	2.313810e+05	
131	6.550000e+00	2.323226e+05	
132	6.600000e+00	2.332538e+05	
Reset re-loads circuit ***************************

Circuit: ***************************

Doing analysis at TEMP = 25.000000 and TNOM = 25.000000


No. of Data Rows : 133
                          ***************************
                          DC transfer characteristic  Mon Jan  9 13:58:06  2023
--------------------------------------------------------------------------------
Index   v-sweep         rds             
--------------------------------------------------------------------------------
0	0.000000e+00	5.344890e+03	
1	5.000000e-02	5.464787e+03	
2	1.000000e-01	5.588391e+03	
3	1.500000e-01	5.715872e+03	
4	2.000000e-01	5.847411e+03	
5	2.500000e-01	5.983200e+03	
6	3.000000e-01	6.123445e+03	
7	3.500000e-01	6.268365e+03	
8	4.000000e-01	6.418194e+03	
9	4.500000e-01	6.573181e+03	
10	5.000000e-01	6.733594e+03	
11	5.500000e-01	6.899722e+03	
12	6.000000e-01	7.071871e+03	
13	6.500000e-01	7.250374e+03	
14	7.000000e-01	7.435588e+03	
15	7.500000e-01	7.627897e+03	
16	8.000000e-01	7.827718e+03	
17	8.500000e-01	8.035502e+03	
18	9.000000e-01	8.251739e+03	
19	9.500000e-01	8.476964e+03	
20	1.000000e+00	8.711764e+03	
21	1.050000e+00	8.956792e+03	
22	1.100000e+00	9.212779e+03	
23	1.150000e+00	9.480563e+03	
24	1.200000e+00	9.761136e+03	
25	1.250000e+00	1.005572e+04	
26	1.300000e+00	1.036593e+04	
27	1.350000e+00	1.069409e+04	
28	1.400000e+00	1.104387e+04	
29	1.450000e+00	1.142175e+04	
30	1.500000e+00	1.184019e+04	
31	1.550000e+00	1.232451e+04	
32	1.600000e+00	1.292605e+04	
33	1.650000e+00	1.373833e+04	
34	1.700000e+00	1.488954e+04	
35	1.750000e+00	1.647301e+04	
36	1.800000e+00	1.846876e+04	
37	1.850000e+00	2.076748e+04	
38	1.900000e+00	2.325173e+04	
39	1.950000e+00	2.583663e+04	
40	2.000000e+00	2.846975e+04	
41	2.050000e+00	3.112028e+04	
42	2.100000e+00	3.377011e+04	
43	2.150000e+00	3.640843e+04	
44	2.200000e+00	3.902864e+04	
45	2.250000e+00	4.162662e+04	
46	2.300000e+00	4.419978e+04	
47	2.350000e+00	4.674650e+04	
48	2.400000e+00	4.926577e+04	
49	2.450000e+00	5.175699e+04	
50	2.500000e+00	5.421985e+04	
51	2.550000e+00	5.665423e+04	
52	2.600000e+00	5.906014e+04	
53	2.650000e+00	6.143769e+04	
54	2.700000e+00	6.378709e+04	

Index   v-sweep         rds             
--------------------------------------------------------------------------------
55	2.750000e+00	6.610855e+04	
56	2.800000e+00	6.840237e+04	
57	2.850000e+00	7.066883e+04	
58	2.900000e+00	7.290827e+04	
59	2.950000e+00	7.512102e+04	
60	3.000000e+00	7.730743e+04	
61	3.050000e+00	7.946786e+04	
62	3.100000e+00	8.160266e+04	
63	3.150000e+00	8.371219e+04	
64	3.200000e+00	8.579683e+04	
65	3.250000e+00	8.785692e+04	
66	3.300000e+00	8.989282e+04	
67	3.350000e+00	9.190491e+04	
68	3.400000e+00	9.389352e+04	
69	3.450000e+00	9.585901e+04	
70	3.500000e+00	9.780173e+04	
71	3.550000e+00	9.972202e+04	
72	3.600000e+00	1.016202e+05	
73	3.650000e+00	1.034967e+05	
74	3.700000e+00	1.053517e+05	
75	3.750000e+00	1.071856e+05	
76	3.800000e+00	1.089987e+05	
77	3.850000e+00	1.107914e+05	
78	3.900000e+00	1.125639e+05	
79	3.950000e+00	1.143165e+05	
80	4.000000e+00	1.160496e+05	
81	4.050000e+00	1.177634e+05	
82	4.100000e+00	1.194583e+05	
83	4.150000e+00	1.211345e+05	
84	4.200000e+00	1.227923e+05	
85	4.250000e+00	1.244319e+05	
86	4.300000e+00	1.260537e+05	
87	4.350000e+00	1.276579e+05	
88	4.400000e+00	1.292447e+05	
89	4.450000e+00	1.308145e+05	
90	4.500000e+00	1.323675e+05	
91	4.550000e+00	1.339039e+05	
92	4.600000e+00	1.354240e+05	
93	4.650000e+00	1.369279e+05	
94	4.700000e+00	1.384161e+05	
95	4.750000e+00	1.398886e+05	
96	4.800000e+00	1.413457e+05	
97	4.850000e+00	1.427876e+05	
98	4.900000e+00	1.442146e+05	
99	4.950000e+00	1.456268e+05	
100	5.000000e+00	1.470245e+05	
101	5.050000e+00	1.484079e+05	
102	5.100000e+00	1.497772e+05	
103	5.150000e+00	1.511325e+05	
104	5.200000e+00	1.524742e+05	
105	5.250000e+00	1.538023e+05	
106	5.300000e+00	1.551171e+05	
107	5.350000e+00	1.564187e+05	
108	5.400000e+00	1.577074e+05	
109	5.450000e+00	1.589833e+05	
110	5.500000e+00	1.602466e+05	
111	5.550000e+00	1.614975e+05	
112	5.600000e+00	1.627361e+05	

Index   v-sweep         rds             
--------------------------------------------------------------------------------
113	5.650000e+00	1.639626e+05	
114	5.700000e+00	1.651772e+05	
115	5.750000e+00	1.663800e+05	
116	5.800000e+00	1.675713e+05	
117	5.850000e+00	1.687511e+05	
118	5.900000e+00	1.699196e+05	
119	5.950000e+00	1.710769e+05	
120	6.000000e+00	1.722233e+05	
121	6.050000e+00	1.733589e+05	
122	6.100000e+00	1.744837e+05	
123	6.150000e+00	1.755980e+05	
124	6.200000e+00	1.767019e+05	
125	6.250000e+00	1.777955e+05	
126	6.300000e+00	1.788790e+05	
127	6.350000e+00	1.799524e+05	
128	6.400000e+00	1.810160e+05	
129	6.450000e+00	1.820698e+05	
130	6.500000e+00	1.831141e+05	
131	6.550000e+00	1.841488e+05	
132	6.600000e+00	1.851741e+05	
Reset re-loads circuit ***************************

Circuit: ***************************

Doing analysis at TEMP = 25.000000 and TNOM = 25.000000


No. of Data Rows : 133
                          ***************************
                          DC transfer characteristic  Mon Jan  9 13:58:06  2023
--------------------------------------------------------------------------------
Index   v-sweep         rds             
--------------------------------------------------------------------------------
0	0.000000e+00	4.718259e+03	
1	5.000000e-02	4.804008e+03	
2	1.000000e-01	4.891775e+03	
3	1.500000e-01	4.981629e+03	
4	2.000000e-01	5.073642e+03	
5	2.500000e-01	5.167892e+03	
6	3.000000e-01	5.264457e+03	
7	3.500000e-01	5.363422e+03	
8	4.000000e-01	5.464876e+03	
9	4.500000e-01	5.568911e+03	
10	5.000000e-01	5.675626e+03	
11	5.500000e-01	5.785122e+03	
12	6.000000e-01	5.897509e+03	
13	6.500000e-01	6.012902e+03	
14	7.000000e-01	6.131422e+03	
15	7.500000e-01	6.253197e+03	
16	8.000000e-01	6.378362e+03	
17	8.500000e-01	6.507061e+03	
18	9.000000e-01	6.639445e+03	
19	9.500000e-01	6.775676e+03	
20	1.000000e+00	6.915926e+03	
21	1.050000e+00	7.060375e+03	
22	1.100000e+00	7.209219e+03	
23	1.150000e+00	7.362667e+03	
24	1.200000e+00	7.520940e+03	
25	1.250000e+00	7.684281e+03	
26	1.300000e+00	7.852954e+03	
27	1.350000e+00	8.027248e+03	
28	1.400000e+00	8.207488e+03	
29	1.450000e+00	8.394049e+03	
30	1.500000e+00	8.587372e+03	
31	1.550000e+00	8.788007e+03	
32	1.600000e+00	8.996676e+03	
33	1.650000e+00	9.214393e+03	
34	1.700000e+00	9.442702e+03	
35	1.750000e+00	9.684129e+03	
36	1.800000e+00	9.943114e+03	
37	1.850000e+00	1.022790e+04	
38	1.900000e+00	1.055433e+04	
39	1.950000e+00	1.095264e+04	
40	2.000000e+00	1.147653e+04	
41	2.050000e+00	1.220496e+04	
42	2.100000e+00	1.321655e+04	
43	2.150000e+00	1.453959e+04	
44	2.200000e+00	1.613243e+04	
45	2.250000e+00	1.791827e+04	
46	2.300000e+00	1.982575e+04	
47	2.350000e+00	2.180390e+04	
48	2.400000e+00	2.382013e+04	
49	2.450000e+00	2.585430e+04	
50	2.500000e+00	2.789401e+04	
51	2.550000e+00	2.993148e+04	
52	2.600000e+00	3.196172e+04	
53	2.650000e+00	3.398149e+04	
54	2.700000e+00	3.598863e+04	

Index   v-sweep         rds             
--------------------------------------------------------------------------------
55	2.750000e+00	3.798168e+04	
56	2.800000e+00	3.995968e+04	
57	2.850000e+00	4.192195e+04	
58	2.900000e+00	4.386805e+04	
59	2.950000e+00	4.579769e+04	
60	3.000000e+00	4.771070e+04	
61	3.050000e+00	4.960699e+04	
62	3.100000e+00	5.148652e+04	
63	3.150000e+00	5.334933e+04	
64	3.200000e+00	5.519545e+04	
65	3.250000e+00	5.702496e+04	
66	3.300000e+00	5.883797e+04	
67	3.350000e+00	6.063459e+04	
68	3.400000e+00	6.241494e+04	
69	3.450000e+00	6.417917e+04	
70	3.500000e+00	6.592741e+04	
71	3.550000e+00	6.765982e+04	
72	3.600000e+00	6.937655e+04	
73	3.650000e+00	7.107775e+04	
74	3.700000e+00	7.276359e+04	
75	3.750000e+00	7.443423e+04	
76	3.800000e+00	7.608983e+04	
77	3.850000e+00	7.773056e+04	
78	3.900000e+00	7.935657e+04	
79	3.950000e+00	8.096802e+04	
80	4.000000e+00	8.256509e+04	
81	4.050000e+00	8.414793e+04	
82	4.100000e+00	8.571671e+04	
83	4.150000e+00	8.727158e+04	
84	4.200000e+00	8.881270e+04	
85	4.250000e+00	9.034022e+04	
86	4.300000e+00	9.185432e+04	
87	4.350000e+00	9.335513e+04	
88	4.400000e+00	9.484282e+04	
89	4.450000e+00	9.631753e+04	
90	4.500000e+00	9.777941e+04	
91	4.550000e+00	9.922862e+04	
92	4.600000e+00	1.006653e+05	
93	4.650000e+00	1.020896e+05	
94	4.700000e+00	1.035016e+05	
95	4.750000e+00	1.049016e+05	
96	4.800000e+00	1.062896e+05	
97	4.850000e+00	1.076657e+05	
98	4.900000e+00	1.090302e+05	
99	4.950000e+00	1.103831e+05	
100	5.000000e+00	1.117246e+05	
101	5.050000e+00	1.130548e+05	
102	5.100000e+00	1.143739e+05	
103	5.150000e+00	1.156819e+05	
104	5.200000e+00	1.169790e+05	
105	5.250000e+00	1.182653e+05	
106	5.300000e+00	1.195410e+05	
107	5.350000e+00	1.208062e+05	
108	5.400000e+00	1.220609e+05	
109	5.450000e+00	1.233053e+05	
110	5.500000e+00	1.245396e+05	
111	5.550000e+00	1.257638e+05	
112	5.600000e+00	1.269780e+05	

Index   v-sweep         rds             
--------------------------------------------------------------------------------
113	5.650000e+00	1.281824e+05	
114	5.700000e+00	1.293771e+05	
115	5.750000e+00	1.305621e+05	
116	5.800000e+00	1.317377e+05	
117	5.850000e+00	1.329038e+05	
118	5.900000e+00	1.340606e+05	
119	5.950000e+00	1.352082e+05	
120	6.000000e+00	1.363468e+05	
121	6.050000e+00	1.374763e+05	
122	6.100000e+00	1.385969e+05	
123	6.150000e+00	1.397088e+05	
124	6.200000e+00	1.408119e+05	
125	6.250000e+00	1.419065e+05	
126	6.300000e+00	1.429925e+05	
127	6.350000e+00	1.440701e+05	
128	6.400000e+00	1.451394e+05	
129	6.450000e+00	1.462004e+05	
130	6.500000e+00	1.472533e+05	
131	6.550000e+00	1.482981e+05	
132	6.600000e+00	1.493350e+05	
Reset re-loads circuit ***************************

Circuit: ***************************

Doing analysis at TEMP = 25.000000 and TNOM = 25.000000


No. of Data Rows : 133
                          ***************************
                          DC transfer characteristic  Mon Jan  9 13:58:06  2023
--------------------------------------------------------------------------------
Index   v-sweep         rds             
--------------------------------------------------------------------------------
0	0.000000e+00	4.369634e+03	
1	5.000000e-02	4.436111e+03	
2	1.000000e-01	4.503838e+03	
3	1.500000e-01	4.572848e+03	
4	2.000000e-01	4.643176e+03	
5	2.500000e-01	4.714860e+03	
6	3.000000e-01	4.787936e+03	
7	3.500000e-01	4.862446e+03	
8	4.000000e-01	4.938429e+03	
9	4.500000e-01	5.015929e+03	
10	5.000000e-01	5.094990e+03	
11	5.500000e-01	5.175659e+03	
12	6.000000e-01	5.257983e+03	
13	6.500000e-01	5.342015e+03	
14	7.000000e-01	5.427805e+03	
15	7.500000e-01	5.515411e+03	
16	8.000000e-01	5.604888e+03	
17	8.500000e-01	5.696299e+03	
18	9.000000e-01	5.789704e+03	
19	9.500000e-01	5.885172e+03	
20	1.000000e+00	5.982770e+03	
21	1.050000e+00	6.082571e+03	
22	1.100000e+00	6.184652e+03	
23	1.150000e+00	6.289091e+03	
24	1.200000e+00	6.395973e+03	
25	1.250000e+00	6.505385e+03	
26	1.300000e+00	6.617420e+03	
27	1.350000e+00	6.732177e+03	
28	1.400000e+00	6.849757e+03	
29	1.450000e+00	6.970272e+03	
30	1.500000e+00	7.093839e+03	
31	1.550000e+00	7.220583e+03	
32	1.600000e+00	7.350640e+03	
33	1.650000e+00	7.484161e+03	
34	1.700000e+00	7.621313e+03	
35	1.750000e+00	7.762285e+03	
36	1.800000e+00	7.907303e+03	
37	1.850000e+00	8.056640e+03	
38	1.900000e+00	8.210647e+03	
39	1.950000e+00	8.369798e+03	
40	2.000000e+00	8.534773e+03	
41	2.050000e+00	8.706606e+03	
42	2.100000e+00	8.886965e+03	
43	2.150000e+00	9.078676e+03	
44	2.200000e+00	9.286740e+03	
45	2.250000e+00	9.520249e+03	
46	2.300000e+00	9.795813e+03	
47	2.350000e+00	1.014267e+04	
48	2.400000e+00	1.060708e+04	
49	2.450000e+00	1.124749e+04	
50	2.500000e+00	1.211148e+04	
51	2.550000e+00	1.320689e+04	
52	2.600000e+00	1.449865e+04	
53	2.650000e+00	1.593309e+04	
54	2.700000e+00	1.746118e+04	

Index   v-sweep         rds             
--------------------------------------------------------------------------------
55	2.750000e+00	1.904694e+04	
56	2.800000e+00	2.066646e+04	
57	2.850000e+00	2.230439e+04	
58	2.900000e+00	2.395093e+04	
59	2.950000e+00	2.559974e+04	
60	3.000000e+00	2.724666e+04	
61	3.050000e+00	2.888890e+04	
62	3.100000e+00	3.052454e+04	
63	3.150000e+00	3.215227e+04	
64	3.200000e+00	3.377115e+04	
65	3.250000e+00	3.538053e+04	
66	3.300000e+00	3.697994e+04	
67	3.350000e+00	3.856904e+04	
68	3.400000e+00	4.014761e+04	
69	3.450000e+00	4.171547e+04	
70	3.500000e+00	4.327253e+04	
71	3.550000e+00	4.481871e+04	
72	3.600000e+00	4.635399e+04	
73	3.650000e+00	4.787836e+04	
74	3.700000e+00	4.939183e+04	
75	3.750000e+00	5.089442e+04	
76	3.800000e+00	5.238618e+04	
77	3.850000e+00	5.386715e+04	
78	3.900000e+00	5.533739e+04	
79	3.950000e+00	5.679696e+04	
80	4.000000e+00	5.824593e+04	
81	4.050000e+00	5.968437e+04	
82	4.100000e+00	6.111236e+04	
83	4.150000e+00	6.252998e+04	
84	4.200000e+00	6.393729e+04	
85	4.250000e+00	6.533440e+04	
86	4.300000e+00	6.672137e+04	
87	4.350000e+00	6.809829e+04	
88	4.400000e+00	6.946525e+04	
89	4.450000e+00	7.082233e+04	
90	4.500000e+00	7.216962e+04	
91	4.550000e+00	7.350720e+04	
92	4.600000e+00	7.483516e+04	
93	4.650000e+00	7.615358e+04	
94	4.700000e+00	7.746255e+04	
95	4.750000e+00	7.876215e+04	
96	4.800000e+00	8.005248e+04	
97	4.850000e+00	8.133360e+04	
98	4.900000e+00	8.260562e+04	
99	4.950000e+00	8.386860e+04	
100	5.000000e+00	8.512264e+04	
101	5.050000e+00	8.636781e+04	
102	5.100000e+00	8.760420e+04	
103	5.150000e+00	8.883190e+04	
104	5.200000e+00	9.005097e+04	
105	5.250000e+00	9.126150e+04	
106	5.300000e+00	9.246357e+04	
107	5.350000e+00	9.365726e+04	
108	5.400000e+00	9.484264e+04	
109	5.450000e+00	9.601980e+04	
110	5.500000e+00	9.718880e+04	
111	5.550000e+00	9.834974e+04	
112	5.600000e+00	9.950267e+04	

Index   v-sweep         rds             
--------------------------------------------------------------------------------
113	5.650000e+00	1.006477e+05	
114	5.700000e+00	1.017848e+05	
115	5.750000e+00	1.029142e+05	
116	5.800000e+00	1.040359e+05	
117	5.850000e+00	1.051499e+05	
118	5.900000e+00	1.062564e+05	
119	5.950000e+00	1.073554e+05	
120	6.000000e+00	1.084469e+05	
121	6.050000e+00	1.095311e+05	
122	6.100000e+00	1.106080e+05	
123	6.150000e+00	1.116777e+05	
124	6.200000e+00	1.127402e+05	
125	6.250000e+00	1.137957e+05	
126	6.300000e+00	1.148441e+05	
127	6.350000e+00	1.158856e+05	
128	6.400000e+00	1.169201e+05	
129	6.450000e+00	1.179479e+05	
130	6.500000e+00	1.189689e+05	
131	6.550000e+00	1.199831e+05	
132	6.600000e+00	1.209907e+05	
Reset re-loads circuit ***************************

Circuit: ***************************

Note: No ".plot", ".print", or ".fourier" lines; no simulations run
