
Note: Compatibility modes selected: hs

Warning: m=xx on .subckt line will override multiplier m hierarchy!


Circuit: ***************************

Doing analysis at TEMP = 25.000000 and TNOM = 25.000000


No. of Data Rows : 133
                          ***************************
                          DC transfer characteristic  Mon Jan  9 13:58:05  2023
--------------------------------------------------------------------------------
Index   v-sweep         rds             
--------------------------------------------------------------------------------
0	0.000000e+00	2.214220e+04	
1	5.000000e-02	2.614249e+04	
2	1.000000e-01	3.188396e+04	
3	1.500000e-01	4.080273e+04	
4	2.000000e-01	5.643461e+04	
5	2.500000e-01	8.972884e+04	
6	3.000000e-01	1.833966e+05	
7	3.500000e-01	4.554190e+05	
8	4.000000e-01	8.634085e+05	
9	4.500000e-01	1.193173e+06	
10	5.000000e-01	1.440393e+06	
11	5.500000e-01	1.648213e+06	
12	6.000000e-01	1.838219e+06	
13	6.500000e-01	2.019532e+06	
14	7.000000e-01	2.196211e+06	
15	7.500000e-01	2.370217e+06	
16	8.000000e-01	2.542577e+06	
17	8.500000e-01	2.713865e+06	
18	9.000000e-01	2.884422e+06	
19	9.500000e-01	3.054459e+06	
20	1.000000e+00	3.224114e+06	
21	1.050000e+00	3.393480e+06	
22	1.100000e+00	3.562620e+06	
23	1.150000e+00	3.731579e+06	
24	1.200000e+00	3.900391e+06	
25	1.250000e+00	4.069079e+06	
26	1.300000e+00	4.237662e+06	
27	1.350000e+00	4.406154e+06	
28	1.400000e+00	4.574566e+06	
29	1.450000e+00	4.742907e+06	
30	1.500000e+00	4.911183e+06	
31	1.550000e+00	5.079400e+06	
32	1.600000e+00	5.247563e+06	
33	1.650000e+00	5.415675e+06	
34	1.700000e+00	5.583740e+06	
35	1.750000e+00	5.751759e+06	
36	1.800000e+00	5.919735e+06	
37	1.850000e+00	6.087670e+06	
38	1.900000e+00	6.255565e+06	
39	1.950000e+00	6.423422e+06	
40	2.000000e+00	6.591241e+06	
41	2.050000e+00	6.759024e+06	
42	2.100000e+00	6.926772e+06	
43	2.150000e+00	7.094485e+06	
44	2.200000e+00	7.262163e+06	
45	2.250000e+00	7.429808e+06	
46	2.300000e+00	7.597420e+06	
47	2.350000e+00	7.765000e+06	
48	2.400000e+00	7.932547e+06	
49	2.450000e+00	8.100062e+06	
50	2.500000e+00	8.267545e+06	
51	2.550000e+00	8.434997e+06	
52	2.600000e+00	8.602418e+06	
53	2.650000e+00	8.769809e+06	
54	2.700000e+00	8.937168e+06	

Index   v-sweep         rds             
--------------------------------------------------------------------------------
55	2.750000e+00	9.104497e+06	
56	2.800000e+00	9.271795e+06	
57	2.850000e+00	9.439064e+06	
58	2.900000e+00	9.606302e+06	
59	2.950000e+00	9.773510e+06	
60	3.000000e+00	9.940688e+06	
61	3.050000e+00	1.010784e+07	
62	3.100000e+00	1.027496e+07	
63	3.150000e+00	1.044204e+07	
64	3.200000e+00	1.060910e+07	
65	3.250000e+00	1.077613e+07	
66	3.300000e+00	1.094314e+07	
67	3.350000e+00	1.111011e+07	
68	3.400000e+00	1.127705e+07	
69	3.450000e+00	1.144396e+07	
70	3.500000e+00	1.161085e+07	
71	3.550000e+00	1.177770e+07	
72	3.600000e+00	1.194453e+07	
73	3.650000e+00	1.211132e+07	
74	3.700000e+00	1.227809e+07	
75	3.750000e+00	1.244483e+07	
76	3.800000e+00	1.261154e+07	
77	3.850000e+00	1.277822e+07	
78	3.900000e+00	1.294487e+07	
79	3.950000e+00	1.311149e+07	
80	4.000000e+00	1.327809e+07	
81	4.050000e+00	1.344465e+07	
82	4.100000e+00	1.361119e+07	
83	4.150000e+00	1.377769e+07	
84	4.200000e+00	1.394417e+07	
85	4.250000e+00	1.411062e+07	
86	4.300000e+00	1.427704e+07	
87	4.350000e+00	1.444343e+07	
88	4.400000e+00	1.460980e+07	
89	4.450000e+00	1.477613e+07	
90	4.500000e+00	1.494244e+07	
91	4.550000e+00	1.510871e+07	
92	4.600000e+00	1.527496e+07	
93	4.650000e+00	1.544118e+07	
94	4.700000e+00	1.560737e+07	
95	4.750000e+00	1.577354e+07	
96	4.800000e+00	1.593967e+07	
97	4.850000e+00	1.610577e+07	
98	4.900000e+00	1.627185e+07	
99	4.950000e+00	1.643790e+07	
100	5.000000e+00	1.660392e+07	
101	5.050000e+00	1.676991e+07	
102	5.100000e+00	1.693587e+07	
103	5.150000e+00	1.710180e+07	
104	5.200000e+00	1.726770e+07	
105	5.250000e+00	1.743358e+07	
106	5.300000e+00	1.759943e+07	
107	5.350000e+00	1.776525e+07	
108	5.400000e+00	1.793104e+07	
109	5.450000e+00	1.809680e+07	
110	5.500000e+00	1.826253e+07	
111	5.550000e+00	1.842823e+07	
112	5.600000e+00	1.859391e+07	

Index   v-sweep         rds             
--------------------------------------------------------------------------------
113	5.650000e+00	1.875956e+07	
114	5.700000e+00	1.892517e+07	
115	5.750000e+00	1.909076e+07	
116	5.800000e+00	1.925632e+07	
117	5.850000e+00	1.942186e+07	
118	5.900000e+00	1.958736e+07	
119	5.950000e+00	1.975284e+07	
120	6.000000e+00	1.991828e+07	
121	6.050000e+00	2.008370e+07	
122	6.100000e+00	2.024909e+07	
123	6.150000e+00	2.041445e+07	
124	6.200000e+00	2.057978e+07	
125	6.250000e+00	2.074509e+07	
126	6.300000e+00	2.091036e+07	
127	6.350000e+00	2.107561e+07	
128	6.400000e+00	2.124083e+07	
129	6.450000e+00	2.140602e+07	
130	6.500000e+00	2.157118e+07	
131	6.550000e+00	2.173631e+07	
132	6.600000e+00	2.190141e+07	
Reset re-loads circuit ***************************

Circuit: ***************************

Doing analysis at TEMP = 25.000000 and TNOM = 25.000000


No. of Data Rows : 133
                          ***************************
                          DC transfer characteristic  Mon Jan  9 13:58:05  2023
--------------------------------------------------------------------------------
Index   v-sweep         rds             
--------------------------------------------------------------------------------
0	0.000000e+00	5.385595e+03	
1	5.000000e-02	5.584067e+03	
2	1.000000e-01	5.797077e+03	
3	1.500000e-01	6.026282e+03	
4	2.000000e-01	6.273601e+03	
5	2.500000e-01	6.541270e+03	
6	3.000000e-01	6.831906e+03	
7	3.500000e-01	7.148596e+03	
8	4.000000e-01	7.495006e+03	
9	4.500000e-01	7.875523e+03	
10	5.000000e-01	8.295442e+03	
11	5.500000e-01	8.761210e+03	
12	6.000000e-01	9.280763e+03	
13	6.500000e-01	9.863974e+03	
14	7.000000e-01	1.052329e+04	
15	7.500000e-01	1.127460e+04	
16	8.000000e-01	1.213855e+04	
17	8.500000e-01	1.314243e+04	
18	9.000000e-01	1.432299e+04	
19	9.500000e-01	1.573098e+04	
20	1.000000e+00	1.743818e+04	
21	1.050000e+00	1.954916e+04	
22	1.100000e+00	2.222095e+04	
23	1.150000e+00	2.569608e+04	
24	1.200000e+00	3.035471e+04	
25	1.250000e+00	3.677408e+04	
26	1.300000e+00	4.569398e+04	
27	1.350000e+00	5.760203e+04	
28	1.400000e+00	7.196869e+04	
29	1.450000e+00	8.740229e+04	
30	1.500000e+00	1.028569e+05	
31	1.550000e+00	1.180102e+05	
32	1.600000e+00	1.328794e+05	
33	1.650000e+00	1.475468e+05	
34	1.700000e+00	1.620804e+05	
35	1.750000e+00	1.765257e+05	
36	1.800000e+00	1.909117e+05	
37	1.850000e+00	2.052567e+05	
38	1.900000e+00	2.195728e+05	
39	1.950000e+00	2.338678e+05	
40	2.000000e+00	2.481471e+05	
41	2.050000e+00	2.624144e+05	
42	2.100000e+00	2.766724e+05	
43	2.150000e+00	2.909230e+05	
44	2.200000e+00	3.051676e+05	
45	2.250000e+00	3.194073e+05	
46	2.300000e+00	3.336429e+05	
47	2.350000e+00	3.478749e+05	
48	2.400000e+00	3.621039e+05	
49	2.450000e+00	3.763303e+05	
50	2.500000e+00	3.905544e+05	
51	2.550000e+00	4.047764e+05	
52	2.600000e+00	4.189965e+05	
53	2.650000e+00	4.332149e+05	
54	2.700000e+00	4.474317e+05	

Index   v-sweep         rds             
--------------------------------------------------------------------------------
55	2.750000e+00	4.616471e+05	
56	2.800000e+00	4.758611e+05	
57	2.850000e+00	4.900738e+05	
58	2.900000e+00	5.042853e+05	
59	2.950000e+00	5.184957e+05	
60	3.000000e+00	5.327049e+05	
61	3.050000e+00	5.469131e+05	
62	3.100000e+00	5.611202e+05	
63	3.150000e+00	5.753263e+05	
64	3.200000e+00	5.895315e+05	
65	3.250000e+00	6.037357e+05	
66	3.300000e+00	6.179390e+05	
67	3.350000e+00	6.321414e+05	
68	3.400000e+00	6.463429e+05	
69	3.450000e+00	6.605436e+05	
70	3.500000e+00	6.747433e+05	
71	3.550000e+00	6.889422e+05	
72	3.600000e+00	7.031403e+05	
73	3.650000e+00	7.173375e+05	
74	3.700000e+00	7.315340e+05	
75	3.750000e+00	7.457296e+05	
76	3.800000e+00	7.599243e+05	
77	3.850000e+00	7.741183e+05	
78	3.900000e+00	7.883115e+05	
79	3.950000e+00	8.025039e+05	
80	4.000000e+00	8.166955e+05	
81	4.050000e+00	8.308863e+05	
82	4.100000e+00	8.450763e+05	
83	4.150000e+00	8.592655e+05	
84	4.200000e+00	8.734540e+05	
85	4.250000e+00	8.876417e+05	
86	4.300000e+00	9.018286e+05	
87	4.350000e+00	9.160147e+05	
88	4.400000e+00	9.302001e+05	
89	4.450000e+00	9.443847e+05	
90	4.500000e+00	9.585685e+05	
91	4.550000e+00	9.727516e+05	
92	4.600000e+00	9.869339e+05	
93	4.650000e+00	1.001115e+06	
94	4.700000e+00	1.015296e+06	
95	4.750000e+00	1.029476e+06	
96	4.800000e+00	1.043656e+06	
97	4.850000e+00	1.057834e+06	
98	4.900000e+00	1.072012e+06	
99	4.950000e+00	1.086189e+06	
100	5.000000e+00	1.100365e+06	
101	5.050000e+00	1.114540e+06	
102	5.100000e+00	1.128715e+06	
103	5.150000e+00	1.142889e+06	
104	5.200000e+00	1.157062e+06	
105	5.250000e+00	1.171235e+06	
106	5.300000e+00	1.185406e+06	
107	5.350000e+00	1.199577e+06	
108	5.400000e+00	1.213748e+06	
109	5.450000e+00	1.227917e+06	
110	5.500000e+00	1.242086e+06	
111	5.550000e+00	1.256254e+06	
112	5.600000e+00	1.270421e+06	

Index   v-sweep         rds             
--------------------------------------------------------------------------------
113	5.650000e+00	1.284587e+06	
114	5.700000e+00	1.298753e+06	
115	5.750000e+00	1.312918e+06	
116	5.800000e+00	1.327082e+06	
117	5.850000e+00	1.341245e+06	
118	5.900000e+00	1.355408e+06	
119	5.950000e+00	1.369570e+06	
120	6.000000e+00	1.383731e+06	
121	6.050000e+00	1.397892e+06	
122	6.100000e+00	1.412051e+06	
123	6.150000e+00	1.426210e+06	
124	6.200000e+00	1.440368e+06	
125	6.250000e+00	1.454526e+06	
126	6.300000e+00	1.468682e+06	
127	6.350000e+00	1.482838e+06	
128	6.400000e+00	1.496993e+06	
129	6.450000e+00	1.511148e+06	
130	6.500000e+00	1.525301e+06	
131	6.550000e+00	1.539454e+06	
132	6.600000e+00	1.553606e+06	
Reset re-loads circuit ***************************

Circuit: ***************************

Doing analysis at TEMP = 25.000000 and TNOM = 25.000000


No. of Data Rows : 133
                          ***************************
                          DC transfer characteristic  Mon Jan  9 13:58:05  2023
--------------------------------------------------------------------------------
Index   v-sweep         rds             
--------------------------------------------------------------------------------
0	0.000000e+00	3.461421e+03	
1	5.000000e-02	3.532219e+03	
2	1.000000e-01	3.605755e+03	
3	1.500000e-01	3.682190e+03	
4	2.000000e-01	3.761698e+03	
5	2.500000e-01	3.844469e+03	
6	3.000000e-01	3.930708e+03	
7	3.500000e-01	4.020636e+03	
8	4.000000e-01	4.114497e+03	
9	4.500000e-01	4.212553e+03	
10	5.000000e-01	4.315092e+03	
11	5.500000e-01	4.422428e+03	
12	6.000000e-01	4.534906e+03	
13	6.500000e-01	4.652904e+03	
14	7.000000e-01	4.776839e+03	
15	7.500000e-01	4.907170e+03	
16	8.000000e-01	5.044406e+03	
17	8.500000e-01	5.189108e+03	
18	9.000000e-01	5.341904e+03	
19	9.500000e-01	5.503492e+03	
20	1.000000e+00	5.674652e+03	
21	1.050000e+00	5.856262e+03	
22	1.100000e+00	6.049306e+03	
23	1.150000e+00	6.254901e+03	
24	1.200000e+00	6.474311e+03	
25	1.250000e+00	6.708974e+03	
26	1.300000e+00	6.960540e+03	
27	1.350000e+00	7.230900e+03	
28	1.400000e+00	7.522241e+03	
29	1.450000e+00	7.837103e+03	
30	1.500000e+00	8.178451e+03	
31	1.550000e+00	8.549772e+03	
32	1.600000e+00	8.955188e+03	
33	1.650000e+00	9.399616e+03	
34	1.700000e+00	9.888963e+03	
35	1.750000e+00	1.043039e+04	
36	1.800000e+00	1.103264e+04	
37	1.850000e+00	1.170655e+04	
38	1.900000e+00	1.246565e+04	
39	1.950000e+00	1.332706e+04	
40	2.000000e+00	1.431272e+04	
41	2.050000e+00	1.545114e+04	
42	2.100000e+00	1.677978e+04	
43	2.150000e+00	1.834829e+04	
44	2.200000e+00	2.022223e+04	
45	2.250000e+00	2.248552e+04	
46	2.300000e+00	2.523579e+04	
47	2.350000e+00	2.856130e+04	
48	2.400000e+00	3.249469e+04	
49	2.450000e+00	3.697517e+04	
50	2.500000e+00	4.186961e+04	
51	2.550000e+00	4.703652e+04	
52	2.600000e+00	5.236891e+04	
53	2.650000e+00	5.779924e+04	
54	2.700000e+00	6.328813e+04	

Index   v-sweep         rds             
--------------------------------------------------------------------------------
55	2.750000e+00	6.881303e+04	
56	2.800000e+00	7.436086e+04	
57	2.850000e+00	7.992383e+04	
58	2.900000e+00	8.549713e+04	
59	2.950000e+00	9.107769e+04	
60	3.000000e+00	9.666349e+04	
61	3.050000e+00	1.022532e+05	
62	3.100000e+00	1.078458e+05	
63	3.150000e+00	1.134406e+05	
64	3.200000e+00	1.190372e+05	
65	3.250000e+00	1.246352e+05	
66	3.300000e+00	1.302342e+05	
67	3.350000e+00	1.358341e+05	
68	3.400000e+00	1.414348e+05	
69	3.450000e+00	1.470360e+05	
70	3.500000e+00	1.526377e+05	
71	3.550000e+00	1.582397e+05	
72	3.600000e+00	1.638421e+05	
73	3.650000e+00	1.694447e+05	
74	3.700000e+00	1.750475e+05	
75	3.750000e+00	1.806504e+05	
76	3.800000e+00	1.862535e+05	
77	3.850000e+00	1.918566e+05	
78	3.900000e+00	1.974599e+05	
79	3.950000e+00	2.030631e+05	
80	4.000000e+00	2.086664e+05	
81	4.050000e+00	2.142697e+05	
82	4.100000e+00	2.198730e+05	
83	4.150000e+00	2.254762e+05	
84	4.200000e+00	2.310794e+05	
85	4.250000e+00	2.366826e+05	
86	4.300000e+00	2.422857e+05	
87	4.350000e+00	2.478887e+05	
88	4.400000e+00	2.534917e+05	
89	4.450000e+00	2.590946e+05	
90	4.500000e+00	2.646974e+05	
91	4.550000e+00	2.703001e+05	
92	4.600000e+00	2.759028e+05	
93	4.650000e+00	2.815053e+05	
94	4.700000e+00	2.871077e+05	
95	4.750000e+00	2.927100e+05	
96	4.800000e+00	2.983122e+05	
97	4.850000e+00	3.039143e+05	
98	4.900000e+00	3.095163e+05	
99	4.950000e+00	3.151181e+05	
100	5.000000e+00	3.207198e+05	
101	5.050000e+00	3.263214e+05	
102	5.100000e+00	3.319229e+05	
103	5.150000e+00	3.375242e+05	
104	5.200000e+00	3.431255e+05	
105	5.250000e+00	3.487265e+05	
106	5.300000e+00	3.543275e+05	
107	5.350000e+00	3.599283e+05	
108	5.400000e+00	3.655289e+05	
109	5.450000e+00	3.711294e+05	
110	5.500000e+00	3.767298e+05	
111	5.550000e+00	3.823300e+05	
112	5.600000e+00	3.879301e+05	

Index   v-sweep         rds             
--------------------------------------------------------------------------------
113	5.650000e+00	3.935301e+05	
114	5.700000e+00	3.991299e+05	
115	5.750000e+00	4.047295e+05	
116	5.800000e+00	4.103290e+05	
117	5.850000e+00	4.159283e+05	
118	5.900000e+00	4.215275e+05	
119	5.950000e+00	4.271266e+05	
120	6.000000e+00	4.327255e+05	
121	6.050000e+00	4.383242e+05	
122	6.100000e+00	4.439228e+05	
123	6.150000e+00	4.495212e+05	
124	6.200000e+00	4.551195e+05	
125	6.250000e+00	4.607176e+05	
126	6.300000e+00	4.663156e+05	
127	6.350000e+00	4.719134e+05	
128	6.400000e+00	4.775111e+05	
129	6.450000e+00	4.831086e+05	
130	6.500000e+00	4.887059e+05	
131	6.550000e+00	4.943031e+05	
132	6.600000e+00	4.999001e+05	
Reset re-loads circuit ***************************

Circuit: ***************************

Doing analysis at TEMP = 25.000000 and TNOM = 25.000000


No. of Data Rows : 133
                          ***************************
                          DC transfer characteristic  Mon Jan  9 13:58:05  2023
--------------------------------------------------------------------------------
Index   v-sweep         rds             
--------------------------------------------------------------------------------
0	0.000000e+00	2.729089e+03	
1	5.000000e-02	2.767349e+03	
2	1.000000e-01	2.806588e+03	
3	1.500000e-01	2.846843e+03	
4	2.000000e-01	2.888155e+03	
5	2.500000e-01	2.930566e+03	
6	3.000000e-01	2.974120e+03	
7	3.500000e-01	3.018863e+03	
8	4.000000e-01	3.064847e+03	
9	4.500000e-01	3.112121e+03	
10	5.000000e-01	3.160743e+03	
11	5.500000e-01	3.210769e+03	
12	6.000000e-01	3.262262e+03	
13	6.500000e-01	3.315287e+03	
14	7.000000e-01	3.369913e+03	
15	7.500000e-01	3.426214e+03	
16	8.000000e-01	3.484268e+03	
17	8.500000e-01	3.544159e+03	
18	9.000000e-01	3.605974e+03	
19	9.500000e-01	3.669808e+03	
20	1.000000e+00	3.735762e+03	
21	1.050000e+00	3.803942e+03	
22	1.100000e+00	3.874463e+03	
23	1.150000e+00	3.947448e+03	
24	1.200000e+00	4.023029e+03	
25	1.250000e+00	4.101345e+03	
26	1.300000e+00	4.182548e+03	
27	1.350000e+00	4.266801e+03	
28	1.400000e+00	4.354279e+03	
29	1.450000e+00	4.445170e+03	
30	1.500000e+00	4.539678e+03	
31	1.550000e+00	4.638023e+03	
32	1.600000e+00	4.740444e+03	
33	1.650000e+00	4.847199e+03	
34	1.700000e+00	4.958569e+03	
35	1.750000e+00	5.074861e+03	
36	1.800000e+00	5.196406e+03	
37	1.850000e+00	5.323571e+03	
38	1.900000e+00	5.456752e+03	
39	1.950000e+00	5.596389e+03	
40	2.000000e+00	5.742961e+03	
41	2.050000e+00	5.896999e+03	
42	2.100000e+00	6.059087e+03	
43	2.150000e+00	6.229875e+03	
44	2.200000e+00	6.410082e+03	
45	2.250000e+00	6.600510e+03	
46	2.300000e+00	6.802054e+03	
47	2.350000e+00	7.015719e+03	
48	2.400000e+00	7.242632e+03	
49	2.450000e+00	7.484067e+03	
50	2.500000e+00	7.741468e+03	
51	2.550000e+00	8.016478e+03	
52	2.600000e+00	8.310974e+03	
53	2.650000e+00	8.627113e+03	
54	2.700000e+00	8.967389e+03	

Index   v-sweep         rds             
--------------------------------------------------------------------------------
55	2.750000e+00	9.334700e+03	
56	2.800000e+00	9.732439e+03	
57	2.850000e+00	1.016461e+04	
58	2.900000e+00	1.063599e+04	
59	2.950000e+00	1.115231e+04	
60	3.000000e+00	1.172061e+04	
61	3.050000e+00	1.234957e+04	
62	3.100000e+00	1.305023e+04	
63	3.150000e+00	1.383684e+04	
64	3.200000e+00	1.472824e+04	
65	3.250000e+00	1.574974e+04	
66	3.300000e+00	1.693487e+04	
67	3.350000e+00	1.832545e+04	
68	3.400000e+00	1.996573e+04	
69	3.450000e+00	2.188794e+04	
70	3.500000e+00	2.409522e+04	
71	3.550000e+00	2.655688e+04	
72	3.600000e+00	2.922146e+04	
73	3.650000e+00	3.203530e+04	
74	3.700000e+00	3.495389e+04	
75	3.750000e+00	3.794462e+04	
76	3.800000e+00	4.098504e+04	
77	3.850000e+00	4.406003e+04	
78	3.900000e+00	4.715949e+04	
79	3.950000e+00	5.027658e+04	
80	4.000000e+00	5.340665e+04	
81	4.050000e+00	5.654641e+04	
82	4.100000e+00	5.969357e+04	
83	4.150000e+00	6.284645e+04	
84	4.200000e+00	6.600382e+04	
85	4.250000e+00	6.916477e+04	
86	4.300000e+00	7.232861e+04	
87	4.350000e+00	7.549478e+04	
88	4.400000e+00	7.866289e+04	
89	4.450000e+00	8.183261e+04	
90	4.500000e+00	8.500366e+04	
91	4.550000e+00	8.817584e+04	
92	4.600000e+00	9.134899e+04	
93	4.650000e+00	9.452295e+04	
94	4.700000e+00	9.769761e+04	
95	4.750000e+00	1.008729e+05	
96	4.800000e+00	1.040487e+05	
97	4.850000e+00	1.072249e+05	
98	4.900000e+00	1.104015e+05	
99	4.950000e+00	1.135785e+05	
100	5.000000e+00	1.167558e+05	
101	5.050000e+00	1.199334e+05	
102	5.100000e+00	1.231111e+05	
103	5.150000e+00	1.262891e+05	
104	5.200000e+00	1.294673e+05	
105	5.250000e+00	1.326456e+05	
106	5.300000e+00	1.358241e+05	
107	5.350000e+00	1.390026e+05	
108	5.400000e+00	1.421813e+05	
109	5.450000e+00	1.453601e+05	
110	5.500000e+00	1.485389e+05	
111	5.550000e+00	1.517179e+05	
112	5.600000e+00	1.548968e+05	

Index   v-sweep         rds             
--------------------------------------------------------------------------------
113	5.650000e+00	1.580759e+05	
114	5.700000e+00	1.612549e+05	
115	5.750000e+00	1.644340e+05	
116	5.800000e+00	1.676132e+05	
117	5.850000e+00	1.707923e+05	
118	5.900000e+00	1.739715e+05	
119	5.950000e+00	1.771507e+05	
120	6.000000e+00	1.803298e+05	
121	6.050000e+00	1.835090e+05	
122	6.100000e+00	1.866882e+05	
123	6.150000e+00	1.898674e+05	
124	6.200000e+00	1.930466e+05	
125	6.250000e+00	1.962257e+05	
126	6.300000e+00	1.994048e+05	
127	6.350000e+00	2.025840e+05	
128	6.400000e+00	2.057631e+05	
129	6.450000e+00	2.089421e+05	
130	6.500000e+00	2.121212e+05	
131	6.550000e+00	2.153002e+05	
132	6.600000e+00	2.184792e+05	
Reset re-loads circuit ***************************

Circuit: ***************************

Doing analysis at TEMP = 25.000000 and TNOM = 25.000000


No. of Data Rows : 133
                          ***************************
                          DC transfer characteristic  Mon Jan  9 13:58:05  2023
--------------------------------------------------------------------------------
Index   v-sweep         rds             
--------------------------------------------------------------------------------
0	0.000000e+00	2.350561e+03	
1	5.000000e-02	2.375320e+03	
2	1.000000e-01	2.400541e+03	
3	1.500000e-01	2.426238e+03	
4	2.000000e-01	2.452424e+03	
5	2.500000e-01	2.479113e+03	
6	3.000000e-01	2.506319e+03	
7	3.500000e-01	2.534059e+03	
8	4.000000e-01	2.562348e+03	
9	4.500000e-01	2.591201e+03	
10	5.000000e-01	2.620637e+03	
11	5.500000e-01	2.650673e+03	
12	6.000000e-01	2.681327e+03	
13	6.500000e-01	2.712619e+03	
14	7.000000e-01	2.744569e+03	
15	7.500000e-01	2.777198e+03	
16	8.000000e-01	2.810527e+03	
17	8.500000e-01	2.844580e+03	
18	9.000000e-01	2.879379e+03	
19	9.500000e-01	2.914951e+03	
20	1.000000e+00	2.951321e+03	
21	1.050000e+00	2.988515e+03	
22	1.100000e+00	3.026563e+03	
23	1.150000e+00	3.065494e+03	
24	1.200000e+00	3.105339e+03	
25	1.250000e+00	3.146131e+03	
26	1.300000e+00	3.187903e+03	
27	1.350000e+00	3.230692e+03	
28	1.400000e+00	3.274535e+03	
29	1.450000e+00	3.319471e+03	
30	1.500000e+00	3.365542e+03	
31	1.550000e+00	3.412791e+03	
32	1.600000e+00	3.461264e+03	
33	1.650000e+00	3.511010e+03	
34	1.700000e+00	3.562078e+03	
35	1.750000e+00	3.614522e+03	
36	1.800000e+00	3.668399e+03	
37	1.850000e+00	3.723768e+03	
38	1.900000e+00	3.780692e+03	
39	1.950000e+00	3.839237e+03	
40	2.000000e+00	3.899473e+03	
41	2.050000e+00	3.961475e+03	
42	2.100000e+00	4.025322e+03	
43	2.150000e+00	4.091096e+03	
44	2.200000e+00	4.158887e+03	
45	2.250000e+00	4.228789e+03	
46	2.300000e+00	4.300902e+03	
47	2.350000e+00	4.375332e+03	
48	2.400000e+00	4.452192e+03	
49	2.450000e+00	4.531605e+03	
50	2.500000e+00	4.613699e+03	
51	2.550000e+00	4.698612e+03	
52	2.600000e+00	4.786491e+03	
53	2.650000e+00	4.877496e+03	
54	2.700000e+00	4.971796e+03	

Index   v-sweep         rds             
--------------------------------------------------------------------------------
55	2.750000e+00	5.069573e+03	
56	2.800000e+00	5.171024e+03	
57	2.850000e+00	5.276358e+03	
58	2.900000e+00	5.385805e+03	
59	2.950000e+00	5.499609e+03	
60	3.000000e+00	5.618038e+03	
61	3.050000e+00	5.741377e+03	
62	3.100000e+00	5.869942e+03	
63	3.150000e+00	6.004070e+03	
64	3.200000e+00	6.144134e+03	
65	3.250000e+00	6.290536e+03	
66	3.300000e+00	6.443720e+03	
67	3.350000e+00	6.604169e+03	
68	3.400000e+00	6.772418e+03	
69	3.450000e+00	6.949053e+03	
70	3.500000e+00	7.134725e+03	
71	3.550000e+00	7.330153e+03	
72	3.600000e+00	7.536140e+03	
73	3.650000e+00	7.753582e+03	
74	3.700000e+00	7.983488e+03	
75	3.750000e+00	8.226995e+03	
76	3.800000e+00	8.485399e+03	
77	3.850000e+00	8.760184e+03	
78	3.900000e+00	9.053072e+03	
79	3.950000e+00	9.366085e+03	
80	4.000000e+00	9.701631e+03	
81	4.050000e+00	1.006264e+04	
82	4.100000e+00	1.045277e+04	
83	4.150000e+00	1.087671e+04	
84	4.200000e+00	1.134065e+04	
85	4.250000e+00	1.185301e+04	
86	4.300000e+00	1.242548e+04	
87	4.350000e+00	1.307425e+04	
88	4.400000e+00	1.382097e+04	
89	4.450000e+00	1.469217e+04	
90	4.500000e+00	1.571523e+04	
91	4.550000e+00	1.691055e+04	
92	4.600000e+00	1.828334e+04	
93	4.650000e+00	1.982113e+04	
94	4.700000e+00	2.149878e+04	
95	4.750000e+00	2.328691e+04	
96	4.800000e+00	2.515835e+04	
97	4.850000e+00	2.709107e+04	
98	4.900000e+00	2.906846e+04	
99	4.950000e+00	3.107846e+04	
100	5.000000e+00	3.311245e+04	
101	5.050000e+00	3.516432e+04	
102	5.100000e+00	3.722966e+04	
103	5.150000e+00	3.930531e+04	
104	5.200000e+00	4.138896e+04	
105	5.250000e+00	4.347888e+04	
106	5.300000e+00	4.557380e+04	
107	5.350000e+00	4.767274e+04	
108	5.400000e+00	4.977495e+04	
109	5.450000e+00	5.187984e+04	
110	5.500000e+00	5.398696e+04	
111	5.550000e+00	5.609593e+04	
112	5.600000e+00	5.820648e+04	

Index   v-sweep         rds             
--------------------------------------------------------------------------------
113	5.650000e+00	6.031835e+04	
114	5.700000e+00	6.243137e+04	
115	5.750000e+00	6.454535e+04	
116	5.800000e+00	6.666019e+04	
117	5.850000e+00	6.877575e+04	
118	5.900000e+00	7.089195e+04	
119	5.950000e+00	7.300872e+04	
120	6.000000e+00	7.512597e+04	
121	6.050000e+00	7.724366e+04	
122	6.100000e+00	7.936174e+04	
123	6.150000e+00	8.148016e+04	
124	6.200000e+00	8.359888e+04	
125	6.250000e+00	8.571787e+04	
126	6.300000e+00	8.783711e+04	
127	6.350000e+00	8.995657e+04	
128	6.400000e+00	9.207623e+04	
129	6.450000e+00	9.419606e+04	
130	6.500000e+00	9.631605e+04	
131	6.550000e+00	9.843618e+04	
132	6.600000e+00	1.005564e+05	
Reset re-loads circuit ***************************

Circuit: ***************************

Doing analysis at TEMP = 25.000000 and TNOM = 25.000000


No. of Data Rows : 133
                          ***************************
                          DC transfer characteristic  Mon Jan  9 13:58:05  2023
--------------------------------------------------------------------------------
Index   v-sweep         rds             
--------------------------------------------------------------------------------
0	0.000000e+00	2.124417e+03	
1	5.000000e-02	2.142102e+03	
2	1.000000e-01	2.160042e+03	
3	1.500000e-01	2.178242e+03	
4	2.000000e-01	2.196708e+03	
5	2.500000e-01	2.215446e+03	
6	3.000000e-01	2.234462e+03	
7	3.500000e-01	2.253762e+03	
8	4.000000e-01	2.273352e+03	
9	4.500000e-01	2.293239e+03	
10	5.000000e-01	2.313430e+03	
11	5.500000e-01	2.333932e+03	
12	6.000000e-01	2.354752e+03	
13	6.500000e-01	2.375897e+03	
14	7.000000e-01	2.397376e+03	
15	7.500000e-01	2.419195e+03	
16	8.000000e-01	2.441364e+03	
17	8.500000e-01	2.463890e+03	
18	9.000000e-01	2.486783e+03	
19	9.500000e-01	2.510051e+03	
20	1.000000e+00	2.533704e+03	
21	1.050000e+00	2.557750e+03	
22	1.100000e+00	2.582201e+03	
23	1.150000e+00	2.607067e+03	
24	1.200000e+00	2.632357e+03	
25	1.250000e+00	2.658083e+03	
26	1.300000e+00	2.684257e+03	
27	1.350000e+00	2.710890e+03	
28	1.400000e+00	2.737994e+03	
29	1.450000e+00	2.765581e+03	
30	1.500000e+00	2.793666e+03	
31	1.550000e+00	2.822261e+03	
32	1.600000e+00	2.851380e+03	
33	1.650000e+00	2.881038e+03	
34	1.700000e+00	2.911250e+03	
35	1.750000e+00	2.942032e+03	
36	1.800000e+00	2.973400e+03	
37	1.850000e+00	3.005370e+03	
38	1.900000e+00	3.037961e+03	
39	1.950000e+00	3.071190e+03	
40	2.000000e+00	3.105077e+03	
41	2.050000e+00	3.139640e+03	
42	2.100000e+00	3.174901e+03	
43	2.150000e+00	3.210881e+03	
44	2.200000e+00	3.247602e+03	
45	2.250000e+00	3.285087e+03	
46	2.300000e+00	3.323360e+03	
47	2.350000e+00	3.362446e+03	
48	2.400000e+00	3.402372e+03	
49	2.450000e+00	3.443164e+03	
50	2.500000e+00	3.484852e+03	
51	2.550000e+00	3.527464e+03	
52	2.600000e+00	3.571033e+03	
53	2.650000e+00	3.615590e+03	
54	2.700000e+00	3.661170e+03	

Index   v-sweep         rds             
--------------------------------------------------------------------------------
55	2.750000e+00	3.707808e+03	
56	2.800000e+00	3.755541e+03	
57	2.850000e+00	3.804409e+03	
58	2.900000e+00	3.854452e+03	
59	2.950000e+00	3.905714e+03	
60	3.000000e+00	3.958239e+03	
61	3.050000e+00	4.012074e+03	
62	3.100000e+00	4.067269e+03	
63	3.150000e+00	4.123877e+03	
64	3.200000e+00	4.181952e+03	
65	3.250000e+00	4.241552e+03	
66	3.300000e+00	4.302738e+03	
67	3.350000e+00	4.365574e+03	
68	3.400000e+00	4.430127e+03	
69	3.450000e+00	4.496470e+03	
70	3.500000e+00	4.564677e+03	
71	3.550000e+00	4.634829e+03	
72	3.600000e+00	4.707009e+03	
73	3.650000e+00	4.781308e+03	
74	3.700000e+00	4.857819e+03	
75	3.750000e+00	4.936644e+03	
76	3.800000e+00	5.017889e+03	
77	3.850000e+00	5.101668e+03	
78	3.900000e+00	5.188100e+03	
79	3.950000e+00	5.277316e+03	
80	4.000000e+00	5.369451e+03	
81	4.050000e+00	5.464653e+03	
82	4.100000e+00	5.563077e+03	
83	4.150000e+00	5.664891e+03	
84	4.200000e+00	5.770274e+03	
85	4.250000e+00	5.879419e+03	
86	4.300000e+00	5.992534e+03	
87	4.350000e+00	6.109840e+03	
88	4.400000e+00	6.231579e+03	
89	4.450000e+00	6.358011e+03	
90	4.500000e+00	6.489418e+03	
91	4.550000e+00	6.626107e+03	
92	4.600000e+00	6.768413e+03	
93	4.650000e+00	6.916700e+03	
94	4.700000e+00	7.071372e+03	
95	4.750000e+00	7.232872e+03	
96	4.800000e+00	7.401694e+03	
97	4.850000e+00	7.578391e+03	
98	4.900000e+00	7.763586e+03	
99	4.950000e+00	7.957993e+03	
100	5.000000e+00	8.162437e+03	
101	5.050000e+00	8.377891e+03	
102	5.100000e+00	8.605523e+03	
103	5.150000e+00	8.846770e+03	
104	5.200000e+00	9.103448e+03	
105	5.250000e+00	9.377915e+03	
106	5.300000e+00	9.673324e+03	
107	5.350000e+00	9.993989e+03	
108	5.400000e+00	1.034591e+04	
109	5.450000e+00	1.073746e+04	
110	5.500000e+00	1.118008e+04	
111	5.550000e+00	1.168866e+04	
112	5.600000e+00	1.228092e+04	

Index   v-sweep         rds             
--------------------------------------------------------------------------------
113	5.650000e+00	1.297491e+04	
114	5.700000e+00	1.378476e+04	
115	5.750000e+00	1.471629e+04	
116	5.800000e+00	1.576505e+04	
117	5.850000e+00	1.691810e+04	
118	5.900000e+00	1.815811e+04	
119	5.950000e+00	1.946731e+04	
120	6.000000e+00	2.082995e+04	
121	6.050000e+00	2.223320e+04	
122	6.100000e+00	2.366716e+04	
123	6.150000e+00	2.512438e+04	
124	6.200000e+00	2.659932e+04	
125	6.250000e+00	2.808788e+04	
126	6.300000e+00	2.958701e+04	
127	6.350000e+00	3.109445e+04	
128	6.400000e+00	3.260847e+04	
129	6.450000e+00	3.412777e+04	
130	6.500000e+00	3.565134e+04	
131	6.550000e+00	3.717841e+04	
132	6.600000e+00	3.870837e+04	
Reset re-loads circuit ***************************

Circuit: ***************************

Note: No ".plot", ".print", or ".fourier" lines; no simulations run
