
Note: Compatibility modes selected: hs

Warning: m=xx on .subckt line will override multiplier m hierarchy!


Circuit: ***************************

Doing analysis at TEMP = 125.000000 and TNOM = 125.000000


No. of Data Rows : 133
                          ***************************
                          DC transfer characteristic  Mon Jan  9 13:58:06  2023
--------------------------------------------------------------------------------
Index   v-sweep         rds             
--------------------------------------------------------------------------------
0	0.000000e+00	1.296591e+05	
1	5.000000e-02	1.452577e+05	
2	1.000000e-01	1.650061e+05	
3	1.500000e-01	1.908072e+05	
4	2.000000e-01	2.259254e+05	
5	2.500000e-01	2.764391e+05	
6	3.000000e-01	3.549349e+05	
7	3.500000e-01	4.911271e+05	
8	4.000000e-01	7.630127e+05	
9	4.500000e-01	1.332184e+06	
10	5.000000e-01	2.179943e+06	
11	5.500000e-01	2.941889e+06	
12	6.000000e-01	3.540231e+06	
13	6.500000e-01	4.054604e+06	
14	7.000000e-01	4.532151e+06	
15	7.500000e-01	4.992580e+06	
16	8.000000e-01	5.444281e+06	
17	8.500000e-01	5.891130e+06	
18	9.000000e-01	6.335075e+06	
19	9.500000e-01	6.777170e+06	
20	1.000000e+00	7.218019e+06	
21	1.050000e+00	7.657991e+06	
22	1.100000e+00	8.097318e+06	
23	1.150000e+00	8.536153e+06	
24	1.200000e+00	8.974602e+06	
25	1.250000e+00	9.412735e+06	
26	1.300000e+00	9.850606e+06	
27	1.350000e+00	1.028825e+07	
28	1.400000e+00	1.072570e+07	
29	1.450000e+00	1.116298e+07	
30	1.500000e+00	1.160009e+07	
31	1.550000e+00	1.203707e+07	
32	1.600000e+00	1.247390e+07	
33	1.650000e+00	1.291061e+07	
34	1.700000e+00	1.334720e+07	
35	1.750000e+00	1.378367e+07	
36	1.800000e+00	1.422004e+07	
37	1.850000e+00	1.465629e+07	
38	1.900000e+00	1.509244e+07	
39	1.950000e+00	1.552849e+07	
40	2.000000e+00	1.596443e+07	
41	2.050000e+00	1.640028e+07	
42	2.100000e+00	1.683604e+07	
43	2.150000e+00	1.727169e+07	
44	2.200000e+00	1.770725e+07	
45	2.250000e+00	1.814272e+07	
46	2.300000e+00	1.857810e+07	
47	2.350000e+00	1.901338e+07	
48	2.400000e+00	1.944857e+07	
49	2.450000e+00	1.988367e+07	
50	2.500000e+00	2.031868e+07	
51	2.550000e+00	2.075360e+07	
52	2.600000e+00	2.118843e+07	
53	2.650000e+00	2.162317e+07	
54	2.700000e+00	2.205783e+07	

Index   v-sweep         rds             
--------------------------------------------------------------------------------
55	2.750000e+00	2.249239e+07	
56	2.800000e+00	2.292686e+07	
57	2.850000e+00	2.336125e+07	
58	2.900000e+00	2.379554e+07	
59	2.950000e+00	2.422975e+07	
60	3.000000e+00	2.466387e+07	
61	3.050000e+00	2.509790e+07	
62	3.100000e+00	2.553185e+07	
63	3.150000e+00	2.596570e+07	
64	3.200000e+00	2.639947e+07	
65	3.250000e+00	2.683315e+07	
66	3.300000e+00	2.726674e+07	
67	3.350000e+00	2.770025e+07	
68	3.400000e+00	2.813366e+07	
69	3.450000e+00	2.856699e+07	
70	3.500000e+00	2.900023e+07	
71	3.550000e+00	2.943339e+07	
72	3.600000e+00	2.986645e+07	
73	3.650000e+00	3.029943e+07	
74	3.700000e+00	3.073232e+07	
75	3.750000e+00	3.116513e+07	
76	3.800000e+00	3.159784e+07	
77	3.850000e+00	3.203047e+07	
78	3.900000e+00	3.246301e+07	
79	3.950000e+00	3.289547e+07	
80	4.000000e+00	3.332783e+07	
81	4.050000e+00	3.376011e+07	
82	4.100000e+00	3.419230e+07	
83	4.150000e+00	3.462441e+07	
84	4.200000e+00	3.505642e+07	
85	4.250000e+00	3.548835e+07	
86	4.300000e+00	3.592019e+07	
87	4.350000e+00	3.635195e+07	
88	4.400000e+00	3.678361e+07	
89	4.450000e+00	3.721519e+07	
90	4.500000e+00	3.764668e+07	
91	4.550000e+00	3.807809e+07	
92	4.600000e+00	3.850940e+07	
93	4.650000e+00	3.894063e+07	
94	4.700000e+00	3.937177e+07	
95	4.750000e+00	3.980282e+07	
96	4.800000e+00	4.023379e+07	
97	4.850000e+00	4.066467e+07	
98	4.900000e+00	4.109546e+07	
99	4.950000e+00	4.152616e+07	
100	5.000000e+00	4.195677e+07	
101	5.050000e+00	4.238730e+07	
102	5.100000e+00	4.281774e+07	
103	5.150000e+00	4.324809e+07	
104	5.200000e+00	4.367836e+07	
105	5.250000e+00	4.410853e+07	
106	5.300000e+00	4.453862e+07	
107	5.350000e+00	4.496862e+07	
108	5.400000e+00	4.539854e+07	
109	5.450000e+00	4.582836e+07	
110	5.500000e+00	4.625810e+07	
111	5.550000e+00	4.668775e+07	
112	5.600000e+00	4.711732e+07	

Index   v-sweep         rds             
--------------------------------------------------------------------------------
113	5.650000e+00	4.754679e+07	
114	5.700000e+00	4.797618e+07	
115	5.750000e+00	4.840548e+07	
116	5.800000e+00	4.883469e+07	
117	5.850000e+00	4.926381e+07	
118	5.900000e+00	4.969285e+07	
119	5.950000e+00	5.012180e+07	
120	6.000000e+00	5.055066e+07	
121	6.050000e+00	5.097943e+07	
122	6.100000e+00	5.140811e+07	
123	6.150000e+00	5.183671e+07	
124	6.200000e+00	5.226522e+07	
125	6.250000e+00	5.269364e+07	
126	6.300000e+00	5.312197e+07	
127	6.350000e+00	5.355022e+07	
128	6.400000e+00	5.397838e+07	
129	6.450000e+00	5.440645e+07	
130	6.500000e+00	5.483443e+07	
131	6.550000e+00	5.526232e+07	
132	6.600000e+00	5.569013e+07	
Reset re-loads circuit ***************************

Circuit: ***************************

Doing analysis at TEMP = 125.000000 and TNOM = 125.000000


No. of Data Rows : 133
                          ***************************
                          DC transfer characteristic  Mon Jan  9 13:58:06  2023
--------------------------------------------------------------------------------
Index   v-sweep         rds             
--------------------------------------------------------------------------------
0	0.000000e+00	4.461194e+04	
1	5.000000e-02	4.620365e+04	
2	1.000000e-01	4.790387e+04	
3	1.500000e-01	4.972409e+04	
4	2.000000e-01	5.167745e+04	
5	2.500000e-01	5.377912e+04	
6	3.000000e-01	5.604662e+04	
7	3.500000e-01	5.850038e+04	
8	4.000000e-01	6.116430e+04	
9	4.500000e-01	6.406658e+04	
10	5.000000e-01	6.724066e+04	
11	5.500000e-01	7.072655e+04	
12	6.000000e-01	7.457252e+04	
13	6.500000e-01	7.883732e+04	
14	7.000000e-01	8.359317e+04	
15	7.500000e-01	8.892986e+04	
16	8.000000e-01	9.496042e+04	
17	8.500000e-01	1.018290e+05	
18	9.000000e-01	1.097224e+05	
19	9.500000e-01	1.188867e+05	
20	1.000000e+00	1.296517e+05	
21	1.050000e+00	1.424690e+05	
22	1.100000e+00	1.579682e+05	
23	1.150000e+00	1.770409e+05	
24	1.200000e+00	2.009495e+05	
25	1.250000e+00	2.314048e+05	
26	1.300000e+00	2.703521e+05	
27	1.350000e+00	3.188957e+05	
28	1.400000e+00	3.755570e+05	
29	1.450000e+00	4.366197e+05	
30	1.500000e+00	4.990173e+05	
31	1.550000e+00	5.614875e+05	
32	1.600000e+00	6.237571e+05	
33	1.650000e+00	6.858385e+05	
34	1.700000e+00	7.477865e+05	
35	1.750000e+00	8.096455e+05	
36	1.800000e+00	8.714451e+05	
37	1.850000e+00	9.332043e+05	
38	1.900000e+00	9.949352e+05	
39	1.950000e+00	1.056645e+06	
40	2.000000e+00	1.118340e+06	
41	2.050000e+00	1.180023e+06	
42	2.100000e+00	1.241696e+06	
43	2.150000e+00	1.303361e+06	
44	2.200000e+00	1.365020e+06	
45	2.250000e+00	1.426672e+06	
46	2.300000e+00	1.488318e+06	
47	2.350000e+00	1.549960e+06	
48	2.400000e+00	1.611597e+06	
49	2.450000e+00	1.673229e+06	
50	2.500000e+00	1.734857e+06	
51	2.550000e+00	1.796480e+06	
52	2.600000e+00	1.858100e+06	
53	2.650000e+00	1.919715e+06	
54	2.700000e+00	1.981327e+06	

Index   v-sweep         rds             
--------------------------------------------------------------------------------
55	2.750000e+00	2.042935e+06	
56	2.800000e+00	2.104538e+06	
57	2.850000e+00	2.166138e+06	
58	2.900000e+00	2.227734e+06	
59	2.950000e+00	2.289326e+06	
60	3.000000e+00	2.350914e+06	
61	3.050000e+00	2.412498e+06	
62	3.100000e+00	2.474078e+06	
63	3.150000e+00	2.535654e+06	
64	3.200000e+00	2.597227e+06	
65	3.250000e+00	2.658795e+06	
66	3.300000e+00	2.720360e+06	
67	3.350000e+00	2.781921e+06	
68	3.400000e+00	2.843477e+06	
69	3.450000e+00	2.905030e+06	
70	3.500000e+00	2.966579e+06	
71	3.550000e+00	3.028124e+06	
72	3.600000e+00	3.089665e+06	
73	3.650000e+00	3.151201e+06	
74	3.700000e+00	3.212734e+06	
75	3.750000e+00	3.274263e+06	
76	3.800000e+00	3.335788e+06	
77	3.850000e+00	3.397309e+06	
78	3.900000e+00	3.458826e+06	
79	3.950000e+00	3.520338e+06	
80	4.000000e+00	3.581847e+06	
81	4.050000e+00	3.643352e+06	
82	4.100000e+00	3.704852e+06	
83	4.150000e+00	3.766349e+06	
84	4.200000e+00	3.827841e+06	
85	4.250000e+00	3.889329e+06	
86	4.300000e+00	3.950813e+06	
87	4.350000e+00	4.012294e+06	
88	4.400000e+00	4.073770e+06	
89	4.450000e+00	4.135241e+06	
90	4.500000e+00	4.196709e+06	
91	4.550000e+00	4.258173e+06	
92	4.600000e+00	4.319632e+06	
93	4.650000e+00	4.381088e+06	
94	4.700000e+00	4.442539e+06	
95	4.750000e+00	4.503986e+06	
96	4.800000e+00	4.565429e+06	
97	4.850000e+00	4.626867e+06	
98	4.900000e+00	4.688302e+06	
99	4.950000e+00	4.749732e+06	
100	5.000000e+00	4.811158e+06	
101	5.050000e+00	4.872580e+06	
102	5.100000e+00	4.933998e+06	
103	5.150000e+00	4.995412e+06	
104	5.200000e+00	5.056821e+06	
105	5.250000e+00	5.118226e+06	
106	5.300000e+00	5.179627e+06	
107	5.350000e+00	5.241024e+06	
108	5.400000e+00	5.302417e+06	
109	5.450000e+00	5.363805e+06	
110	5.500000e+00	5.425189e+06	
111	5.550000e+00	5.486569e+06	
112	5.600000e+00	5.547945e+06	

Index   v-sweep         rds             
--------------------------------------------------------------------------------
113	5.650000e+00	5.609316e+06	
114	5.700000e+00	5.670683e+06	
115	5.750000e+00	5.732046e+06	
116	5.800000e+00	5.793405e+06	
117	5.850000e+00	5.854759e+06	
118	5.900000e+00	5.916110e+06	
119	5.950000e+00	5.977456e+06	
120	6.000000e+00	6.038797e+06	
121	6.050000e+00	6.100135e+06	
122	6.100000e+00	6.161468e+06	
123	6.150000e+00	6.222797e+06	
124	6.200000e+00	6.284121e+06	
125	6.250000e+00	6.345442e+06	
126	6.300000e+00	6.406758e+06	
127	6.350000e+00	6.468069e+06	
128	6.400000e+00	6.529377e+06	
129	6.450000e+00	6.590680e+06	
130	6.500000e+00	6.651979e+06	
131	6.550000e+00	6.713274e+06	
132	6.600000e+00	6.774564e+06	
Reset re-loads circuit ***************************

Circuit: ***************************

Doing analysis at TEMP = 125.000000 and TNOM = 125.000000


No. of Data Rows : 133
                          ***************************
                          DC transfer characteristic  Mon Jan  9 13:58:06  2023
--------------------------------------------------------------------------------
Index   v-sweep         rds             
--------------------------------------------------------------------------------
0	0.000000e+00	3.049262e+04	
1	5.000000e-02	3.113725e+04	
2	1.000000e-01	3.180634e+04	
3	1.500000e-01	3.250131e+04	
4	2.000000e-01	3.322369e+04	
5	2.500000e-01	3.397513e+04	
6	3.000000e-01	3.475742e+04	
7	3.500000e-01	3.557249e+04	
8	4.000000e-01	3.642243e+04	
9	4.500000e-01	3.730955e+04	
10	5.000000e-01	3.823632e+04	
11	5.500000e-01	3.920546e+04	
12	6.000000e-01	4.021995e+04	
13	6.500000e-01	4.128302e+04	
14	7.000000e-01	4.239827e+04	
15	7.500000e-01	4.356961e+04	
16	8.000000e-01	4.480138e+04	
17	8.500000e-01	4.609839e+04	
18	9.000000e-01	4.746594e+04	
19	9.500000e-01	4.890995e+04	
20	1.000000e+00	5.043700e+04	
21	1.050000e+00	5.205448e+04	
22	1.100000e+00	5.377063e+04	
23	1.150000e+00	5.559478e+04	
24	1.200000e+00	5.753743e+04	
25	1.250000e+00	5.961052e+04	
26	1.300000e+00	6.182762e+04	
27	1.350000e+00	6.420428e+04	
28	1.400000e+00	6.675836e+04	
29	1.450000e+00	6.951048e+04	
30	1.500000e+00	7.248460e+04	
31	1.550000e+00	7.570871e+04	
32	1.600000e+00	7.921573e+04	
33	1.650000e+00	8.304464e+04	
34	1.700000e+00	8.724196e+04	
35	1.750000e+00	9.186371e+04	
36	1.800000e+00	9.697799e+04	
37	1.850000e+00	1.026686e+05	
38	1.900000e+00	1.090399e+05	
39	1.950000e+00	1.162241e+05	
40	2.000000e+00	1.243917e+05	
41	2.050000e+00	1.337668e+05	
42	2.100000e+00	1.446469e+05	
43	2.150000e+00	1.574179e+05	
44	2.200000e+00	1.725239e+05	
45	2.250000e+00	1.903189e+05	
46	2.300000e+00	2.108167e+05	
47	2.350000e+00	2.335933e+05	
48	2.400000e+00	2.580062e+05	
49	2.450000e+00	2.834756e+05	
50	2.500000e+00	3.095960e+05	
51	2.550000e+00	3.361161e+05	
52	2.600000e+00	3.628862e+05	
53	2.650000e+00	3.898173e+05	
54	2.700000e+00	4.168555e+05	

Index   v-sweep         rds             
--------------------------------------------------------------------------------
55	2.750000e+00	4.439671e+05	
56	2.800000e+00	4.711305e+05	
57	2.850000e+00	4.983313e+05	
58	2.900000e+00	5.255599e+05	
59	2.950000e+00	5.528093e+05	
60	3.000000e+00	5.800747e+05	
61	3.050000e+00	6.073526e+05	
62	3.100000e+00	6.346403e+05	
63	3.150000e+00	6.619358e+05	
64	3.200000e+00	6.892375e+05	
65	3.250000e+00	7.165442e+05	
66	3.300000e+00	7.438550e+05	
67	3.350000e+00	7.711692e+05	
68	3.400000e+00	7.984860e+05	
69	3.450000e+00	8.258050e+05	
70	3.500000e+00	8.531258e+05	
71	3.550000e+00	8.804480e+05	
72	3.600000e+00	9.077713e+05	
73	3.650000e+00	9.350955e+05	
74	3.700000e+00	9.624203e+05	
75	3.750000e+00	9.897457e+05	
76	3.800000e+00	1.017071e+06	
77	3.850000e+00	1.044397e+06	
78	3.900000e+00	1.071723e+06	
79	3.950000e+00	1.099049e+06	
80	4.000000e+00	1.126375e+06	
81	4.050000e+00	1.153700e+06	
82	4.100000e+00	1.181026e+06	
83	4.150000e+00	1.208350e+06	
84	4.200000e+00	1.235675e+06	
85	4.250000e+00	1.262999e+06	
86	4.300000e+00	1.290323e+06	
87	4.350000e+00	1.317646e+06	
88	4.400000e+00	1.344968e+06	
89	4.450000e+00	1.372290e+06	
90	4.500000e+00	1.399611e+06	
91	4.550000e+00	1.426932e+06	
92	4.600000e+00	1.454252e+06	
93	4.650000e+00	1.481571e+06	
94	4.700000e+00	1.508889e+06	
95	4.750000e+00	1.536207e+06	
96	4.800000e+00	1.563524e+06	
97	4.850000e+00	1.590840e+06	
98	4.900000e+00	1.618155e+06	
99	4.950000e+00	1.645469e+06	
100	5.000000e+00	1.672783e+06	
101	5.050000e+00	1.700095e+06	
102	5.100000e+00	1.727407e+06	
103	5.150000e+00	1.754718e+06	
104	5.200000e+00	1.782028e+06	
105	5.250000e+00	1.809337e+06	
106	5.300000e+00	1.836645e+06	
107	5.350000e+00	1.863952e+06	
108	5.400000e+00	1.891259e+06	
109	5.450000e+00	1.918564e+06	
110	5.500000e+00	1.945869e+06	
111	5.550000e+00	1.973172e+06	
112	5.600000e+00	2.000474e+06	

Index   v-sweep         rds             
--------------------------------------------------------------------------------
113	5.650000e+00	2.027776e+06	
114	5.700000e+00	2.055077e+06	
115	5.750000e+00	2.082376e+06	
116	5.800000e+00	2.109675e+06	
117	5.850000e+00	2.136972e+06	
118	5.900000e+00	2.164269e+06	
119	5.950000e+00	2.191564e+06	
120	6.000000e+00	2.218859e+06	
121	6.050000e+00	2.246152e+06	
122	6.100000e+00	2.273445e+06	
123	6.150000e+00	2.300736e+06	
124	6.200000e+00	2.328027e+06	
125	6.250000e+00	2.355316e+06	
126	6.300000e+00	2.382605e+06	
127	6.350000e+00	2.409892e+06	
128	6.400000e+00	2.437178e+06	
129	6.450000e+00	2.464464e+06	
130	6.500000e+00	2.491748e+06	
131	6.550000e+00	2.519031e+06	
132	6.600000e+00	2.546313e+06	
Reset re-loads circuit ***************************

Circuit: ***************************

Doing analysis at TEMP = 125.000000 and TNOM = 125.000000


No. of Data Rows : 133
                          ***************************
                          DC transfer characteristic  Mon Jan  9 13:58:06  2023
--------------------------------------------------------------------------------
Index   v-sweep         rds             
--------------------------------------------------------------------------------
0	0.000000e+00	2.477875e+04	
1	5.000000e-02	2.514901e+04	
2	1.000000e-01	2.552876e+04	
3	1.500000e-01	2.591837e+04	
4	2.000000e-01	2.631823e+04	
5	2.500000e-01	2.672875e+04	
6	3.000000e-01	2.715036e+04	
7	3.500000e-01	2.758350e+04	
8	4.000000e-01	2.802867e+04	
9	4.500000e-01	2.848636e+04	
10	5.000000e-01	2.895711e+04	
11	5.500000e-01	2.944149e+04	
12	6.000000e-01	2.994010e+04	
13	6.500000e-01	3.045356e+04	
14	7.000000e-01	3.098255e+04	
15	7.500000e-01	3.152779e+04	
16	8.000000e-01	3.209003e+04	
17	8.500000e-01	3.267008e+04	
18	9.000000e-01	3.326880e+04	
19	9.500000e-01	3.388710e+04	
20	1.000000e+00	3.452595e+04	
21	1.050000e+00	3.518640e+04	
22	1.100000e+00	3.586956e+04	
23	1.150000e+00	3.657662e+04	
24	1.200000e+00	3.730884e+04	
25	1.250000e+00	3.806760e+04	
26	1.300000e+00	3.885437e+04	
27	1.350000e+00	3.967072e+04	
28	1.400000e+00	4.051835e+04	
29	1.450000e+00	4.139908e+04	
30	1.500000e+00	4.231491e+04	
31	1.550000e+00	4.326795e+04	
32	1.600000e+00	4.426053e+04	
33	1.650000e+00	4.529516e+04	
34	1.700000e+00	4.637457e+04	
35	1.750000e+00	4.750172e+04	
36	1.800000e+00	4.867985e+04	
37	1.850000e+00	4.991251e+04	
38	1.900000e+00	5.120356e+04	
39	1.950000e+00	5.255727e+04	
40	2.000000e+00	5.397831e+04	
41	2.050000e+00	5.547184e+04	
42	2.100000e+00	5.704356e+04	
43	2.150000e+00	5.869981e+04	
44	2.200000e+00	6.044763e+04	
45	2.250000e+00	6.229486e+04	
46	2.300000e+00	6.425031e+04	
47	2.350000e+00	6.632389e+04	
48	2.400000e+00	6.852679e+04	
49	2.450000e+00	7.087177e+04	
50	2.500000e+00	7.337342e+04	
51	2.550000e+00	7.604863e+04	
52	2.600000e+00	7.891713e+04	
53	2.650000e+00	8.200239e+04	
54	2.700000e+00	8.533281e+04	

Index   v-sweep         rds             
--------------------------------------------------------------------------------
55	2.750000e+00	8.894381e+04	
56	2.800000e+00	9.288108e+04	
57	2.850000e+00	9.720616e+04	
58	2.900000e+00	1.020057e+05	
59	2.950000e+00	1.074057e+05	
60	3.000000e+00	1.135894e+05	
61	3.050000e+00	1.208051e+05	
62	3.100000e+00	1.293343e+05	
63	3.150000e+00	1.393907e+05	
64	3.200000e+00	1.510000e+05	
65	3.250000e+00	1.639734e+05	
66	3.300000e+00	1.780046e+05	
67	3.350000e+00	1.927898e+05	
68	3.400000e+00	2.080891e+05	
69	3.450000e+00	2.237337e+05	
70	3.500000e+00	2.396116e+05	
71	3.550000e+00	2.556492e+05	
72	3.600000e+00	2.717985e+05	
73	3.650000e+00	2.880274e+05	
74	3.700000e+00	3.043143e+05	
75	3.750000e+00	3.206443e+05	
76	3.800000e+00	3.370069e+05	
77	3.850000e+00	3.533947e+05	
78	3.900000e+00	3.698020e+05	
79	3.950000e+00	3.862249e+05	
80	4.000000e+00	4.026601e+05	
81	4.050000e+00	4.191055e+05	
82	4.100000e+00	4.355591e+05	
83	4.150000e+00	4.520196e+05	
84	4.200000e+00	4.684857e+05	
85	4.250000e+00	4.849565e+05	
86	4.300000e+00	5.014313e+05	
87	4.350000e+00	5.179095e+05	
88	4.400000e+00	5.343906e+05	
89	4.450000e+00	5.508742e+05	
90	4.500000e+00	5.673598e+05	
91	4.550000e+00	5.838473e+05	
92	4.600000e+00	6.003362e+05	
93	4.650000e+00	6.168266e+05	
94	4.700000e+00	6.333180e+05	
95	4.750000e+00	6.498105e+05	
96	4.800000e+00	6.663038e+05	
97	4.850000e+00	6.827978e+05	
98	4.900000e+00	6.992924e+05	
99	4.950000e+00	7.157876e+05	
100	5.000000e+00	7.322832e+05	
101	5.050000e+00	7.487791e+05	
102	5.100000e+00	7.652753e+05	
103	5.150000e+00	7.817718e+05	
104	5.200000e+00	7.982685e+05	
105	5.250000e+00	8.147653e+05	
106	5.300000e+00	8.312621e+05	
107	5.350000e+00	8.477591e+05	
108	5.400000e+00	8.642560e+05	
109	5.450000e+00	8.807530e+05	
110	5.500000e+00	8.972499e+05	
111	5.550000e+00	9.137467e+05	
112	5.600000e+00	9.302434e+05	

Index   v-sweep         rds             
--------------------------------------------------------------------------------
113	5.650000e+00	9.467400e+05	
114	5.700000e+00	9.632365e+05	
115	5.750000e+00	9.797328e+05	
116	5.800000e+00	9.962289e+05	
117	5.850000e+00	1.012725e+06	
118	5.900000e+00	1.029221e+06	
119	5.950000e+00	1.045716e+06	
120	6.000000e+00	1.062211e+06	
121	6.050000e+00	1.078706e+06	
122	6.100000e+00	1.095201e+06	
123	6.150000e+00	1.111696e+06	
124	6.200000e+00	1.128190e+06	
125	6.250000e+00	1.144684e+06	
126	6.300000e+00	1.161178e+06	
127	6.350000e+00	1.177671e+06	
128	6.400000e+00	1.194164e+06	
129	6.450000e+00	1.210657e+06	
130	6.500000e+00	1.227149e+06	
131	6.550000e+00	1.243641e+06	
132	6.600000e+00	1.260133e+06	
Reset re-loads circuit ***************************

Circuit: ***************************

Doing analysis at TEMP = 125.000000 and TNOM = 125.000000


No. of Data Rows : 133
                          ***************************
                          DC transfer characteristic  Mon Jan  9 13:58:06  2023
--------------------------------------------------------------------------------
Index   v-sweep         rds             
--------------------------------------------------------------------------------
0	0.000000e+00	2.175360e+04	
1	5.000000e-02	2.200240e+04	
2	1.000000e-01	2.225591e+04	
3	1.500000e-01	2.251426e+04	
4	2.000000e-01	2.277759e+04	
5	2.500000e-01	2.304605e+04	
6	3.000000e-01	2.331977e+04	
7	3.500000e-01	2.359893e+04	
8	4.000000e-01	2.388369e+04	
9	4.500000e-01	2.417420e+04	
10	5.000000e-01	2.447066e+04	
11	5.500000e-01	2.477323e+04	
12	6.000000e-01	2.508212e+04	
13	6.500000e-01	2.539752e+04	
14	7.000000e-01	2.571963e+04	
15	7.500000e-01	2.604868e+04	
16	8.000000e-01	2.638489e+04	
17	8.500000e-01	2.672849e+04	
18	9.000000e-01	2.707974e+04	
19	9.500000e-01	2.743888e+04	
20	1.000000e+00	2.780619e+04	
21	1.050000e+00	2.818194e+04	
22	1.100000e+00	2.856644e+04	
23	1.150000e+00	2.895998e+04	
24	1.200000e+00	2.936289e+04	
25	1.250000e+00	2.977551e+04	
26	1.300000e+00	3.019818e+04	
27	1.350000e+00	3.063130e+04	
28	1.400000e+00	3.107523e+04	
29	1.450000e+00	3.153040e+04	
30	1.500000e+00	3.199723e+04	
31	1.550000e+00	3.247617e+04	
32	1.600000e+00	3.296771e+04	
33	1.650000e+00	3.347234e+04	
34	1.700000e+00	3.399060e+04	
35	1.750000e+00	3.452304e+04	
36	1.800000e+00	3.507025e+04	
37	1.850000e+00	3.563285e+04	
38	1.900000e+00	3.621150e+04	
39	1.950000e+00	3.680690e+04	
40	2.000000e+00	3.741978e+04	
41	2.050000e+00	3.805092e+04	
42	2.100000e+00	3.870116e+04	
43	2.150000e+00	3.937136e+04	
44	2.200000e+00	4.006246e+04	
45	2.250000e+00	4.077546e+04	
46	2.300000e+00	4.151141e+04	
47	2.350000e+00	4.227144e+04	
48	2.400000e+00	4.305674e+04	
49	2.450000e+00	4.386861e+04	
50	2.500000e+00	4.470841e+04	
51	2.550000e+00	4.557762e+04	
52	2.600000e+00	4.647780e+04	
53	2.650000e+00	4.741065e+04	
54	2.700000e+00	4.837798e+04	

Index   v-sweep         rds             
--------------------------------------------------------------------------------
55	2.750000e+00	4.938176e+04	
56	2.800000e+00	5.042409e+04	
57	2.850000e+00	5.150725e+04	
58	2.900000e+00	5.263372e+04	
59	2.950000e+00	5.380617e+04	
60	3.000000e+00	5.502752e+04	
61	3.050000e+00	5.630096e+04	
62	3.100000e+00	5.762997e+04	
63	3.150000e+00	5.901840e+04	
64	3.200000e+00	6.047047e+04	
65	3.250000e+00	6.199091e+04	
66	3.300000e+00	6.358501e+04	
67	3.350000e+00	6.525877e+04	
68	3.400000e+00	6.701908e+04	
69	3.450000e+00	6.887399e+04	
70	3.500000e+00	7.083313e+04	
71	3.550000e+00	7.290837e+04	
72	3.600000e+00	7.511481e+04	
73	3.650000e+00	7.747251e+04	
74	3.700000e+00	8.000923e+04	
75	3.750000e+00	8.276496e+04	
76	3.800000e+00	8.579881e+04	
77	3.850000e+00	8.919853e+04	
78	3.900000e+00	9.309024e+04	
79	3.950000e+00	9.763983e+04	
80	4.000000e+00	1.030311e+05	
81	4.050000e+00	1.094118e+05	
82	4.100000e+00	1.168305e+05	
83	4.150000e+00	1.252127e+05	
84	4.200000e+00	1.343977e+05	
85	4.250000e+00	1.441991e+05	
86	4.300000e+00	1.544505e+05	
87	4.350000e+00	1.650221e+05	
88	4.400000e+00	1.758201e+05	
89	4.450000e+00	1.867787e+05	
90	4.500000e+00	1.978526e+05	
91	4.550000e+00	2.090106e+05	
92	4.600000e+00	2.202307e+05	
93	4.650000e+00	2.314975e+05	
94	4.700000e+00	2.428001e+05	
95	4.750000e+00	2.541303e+05	
96	4.800000e+00	2.654823e+05	
97	4.850000e+00	2.768516e+05	
98	4.900000e+00	2.882348e+05	
99	4.950000e+00	2.996294e+05	
100	5.000000e+00	3.110333e+05	
101	5.050000e+00	3.224449e+05	
102	5.100000e+00	3.338630e+05	
103	5.150000e+00	3.452865e+05	
104	5.200000e+00	3.567147e+05	
105	5.250000e+00	3.681467e+05	
106	5.300000e+00	3.795822e+05	
107	5.350000e+00	3.910205e+05	
108	5.400000e+00	4.024614e+05	
109	5.450000e+00	4.139044e+05	
110	5.500000e+00	4.253494e+05	
111	5.550000e+00	4.367960e+05	
112	5.600000e+00	4.482441e+05	

Index   v-sweep         rds             
--------------------------------------------------------------------------------
113	5.650000e+00	4.596935e+05	
114	5.700000e+00	4.711440e+05	
115	5.750000e+00	4.825955e+05	
116	5.800000e+00	4.940478e+05	
117	5.850000e+00	5.055010e+05	
118	5.900000e+00	5.169548e+05	
119	5.950000e+00	5.284093e+05	
120	6.000000e+00	5.398643e+05	
121	6.050000e+00	5.513198e+05	
122	6.100000e+00	5.627757e+05	
123	6.150000e+00	5.742319e+05	
124	6.200000e+00	5.856885e+05	
125	6.250000e+00	5.971454e+05	
126	6.300000e+00	6.086025e+05	
127	6.350000e+00	6.200598e+05	
128	6.400000e+00	6.315173e+05	
129	6.450000e+00	6.429749e+05	
130	6.500000e+00	6.544327e+05	
131	6.550000e+00	6.658905e+05	
132	6.600000e+00	6.773485e+05	
Reset re-loads circuit ***************************

Circuit: ***************************

Doing analysis at TEMP = 125.000000 and TNOM = 125.000000


No. of Data Rows : 133
                          ***************************
                          DC transfer characteristic  Mon Jan  9 13:58:06  2023
--------------------------------------------------------------------------------
Index   v-sweep         rds             
--------------------------------------------------------------------------------
0	0.000000e+00	1.992779e+04	
1	5.000000e-02	2.011021e+04	
2	1.000000e-01	2.029531e+04	
3	1.500000e-01	2.048315e+04	
4	2.000000e-01	2.067378e+04	
5	2.500000e-01	2.086727e+04	
6	3.000000e-01	2.106368e+04	
7	3.500000e-01	2.126308e+04	
8	4.000000e-01	2.146554e+04	
9	4.500000e-01	2.167112e+04	
10	5.000000e-01	2.187990e+04	
11	5.500000e-01	2.209196e+04	
12	6.000000e-01	2.230736e+04	
13	6.500000e-01	2.252620e+04	
14	7.000000e-01	2.274855e+04	
15	7.500000e-01	2.297450e+04	
16	8.000000e-01	2.320413e+04	
17	8.500000e-01	2.343754e+04	
18	9.000000e-01	2.367482e+04	
19	9.500000e-01	2.391607e+04	
20	1.000000e+00	2.416138e+04	
21	1.050000e+00	2.441085e+04	
22	1.100000e+00	2.466460e+04	
23	1.150000e+00	2.492274e+04	
24	1.200000e+00	2.518538e+04	
25	1.250000e+00	2.545263e+04	
26	1.300000e+00	2.572463e+04	
27	1.350000e+00	2.600148e+04	
28	1.400000e+00	2.628334e+04	
29	1.450000e+00	2.657033e+04	
30	1.500000e+00	2.686260e+04	
31	1.550000e+00	2.716028e+04	
32	1.600000e+00	2.746354e+04	
33	1.650000e+00	2.777252e+04	
34	1.700000e+00	2.808740e+04	
35	1.750000e+00	2.840834e+04	
36	1.800000e+00	2.873551e+04	
37	1.850000e+00	2.906911e+04	
38	1.900000e+00	2.940932e+04	
39	1.950000e+00	2.975634e+04	
40	2.000000e+00	3.011037e+04	
41	2.050000e+00	3.047163e+04	
42	2.100000e+00	3.084035e+04	
43	2.150000e+00	3.121675e+04	
44	2.200000e+00	3.160107e+04	
45	2.250000e+00	3.199357e+04	
46	2.300000e+00	3.239452e+04	
47	2.350000e+00	3.280418e+04	
48	2.400000e+00	3.322284e+04	
49	2.450000e+00	3.365080e+04	
50	2.500000e+00	3.408838e+04	
51	2.550000e+00	3.453590e+04	
52	2.600000e+00	3.499371e+04	
53	2.650000e+00	3.546216e+04	
54	2.700000e+00	3.594162e+04	

Index   v-sweep         rds             
--------------------------------------------------------------------------------
55	2.750000e+00	3.643250e+04	
56	2.800000e+00	3.693519e+04	
57	2.850000e+00	3.745014e+04	
58	2.900000e+00	3.797780e+04	
59	2.950000e+00	3.851863e+04	
60	3.000000e+00	3.907315e+04	
61	3.050000e+00	3.964188e+04	
62	3.100000e+00	4.022537e+04	
63	3.150000e+00	4.082421e+04	
64	3.200000e+00	4.143901e+04	
65	3.250000e+00	4.207041e+04	
66	3.300000e+00	4.271911e+04	
67	3.350000e+00	4.338582e+04	
68	3.400000e+00	4.407131e+04	
69	3.450000e+00	4.477640e+04	
70	3.500000e+00	4.550193e+04	
71	3.550000e+00	4.624883e+04	
72	3.600000e+00	4.701806e+04	
73	3.650000e+00	4.781064e+04	
74	3.700000e+00	4.862770e+04	
75	3.750000e+00	4.947038e+04	
76	3.800000e+00	5.033997e+04	
77	3.850000e+00	5.123780e+04	
78	3.900000e+00	5.216535e+04	
79	3.950000e+00	5.312418e+04	
80	4.000000e+00	5.411600e+04	
81	4.050000e+00	5.514271e+04	
82	4.100000e+00	5.620636e+04	
83	4.150000e+00	5.730925e+04	
84	4.200000e+00	5.845399e+04	
85	4.250000e+00	5.964353e+04	
86	4.300000e+00	6.088133e+04	
87	4.350000e+00	6.217152e+04	
88	4.400000e+00	6.351914e+04	
89	4.450000e+00	6.493057e+04	
90	4.500000e+00	6.641415e+04	
91	4.550000e+00	6.798119e+04	
92	4.600000e+00	6.964748e+04	
93	4.650000e+00	7.143578e+04	
94	4.700000e+00	7.337937e+04	
95	4.750000e+00	7.552710e+04	
96	4.800000e+00	7.794918e+04	
97	4.850000e+00	8.074132e+04	
98	4.900000e+00	8.402158e+04	
99	4.950000e+00	8.791289e+04	
100	5.000000e+00	9.251026e+04	
101	5.050000e+00	9.784695e+04	
102	5.100000e+00	1.038824e+05	
103	5.150000e+00	1.105201e+05	
104	5.200000e+00	1.176411e+05	
105	5.250000e+00	1.251312e+05	
106	5.300000e+00	1.328954e+05	
107	5.350000e+00	1.408606e+05	
108	5.400000e+00	1.489731e+05	
109	5.450000e+00	1.571939e+05	
110	5.500000e+00	1.654953e+05	
111	5.550000e+00	1.738574e+05	
112	5.600000e+00	1.822657e+05	

Index   v-sweep         rds             
--------------------------------------------------------------------------------
113	5.650000e+00	1.907097e+05	
114	5.700000e+00	1.991816e+05	
115	5.750000e+00	2.076756e+05	
116	5.800000e+00	2.161873e+05	
117	5.850000e+00	2.247132e+05	
118	5.900000e+00	2.332509e+05	
119	5.950000e+00	2.417983e+05	
120	6.000000e+00	2.503536e+05	
121	6.050000e+00	2.589157e+05	
122	6.100000e+00	2.674835e+05	
123	6.150000e+00	2.760561e+05	
124	6.200000e+00	2.846328e+05	
125	6.250000e+00	2.932131e+05	
126	6.300000e+00	3.017964e+05	
127	6.350000e+00	3.103825e+05	
128	6.400000e+00	3.189709e+05	
129	6.450000e+00	3.275613e+05	
130	6.500000e+00	3.361535e+05	
131	6.550000e+00	3.447473e+05	
132	6.600000e+00	3.533425e+05	
Reset re-loads circuit ***************************

Circuit: ***************************

Note: No ".plot", ".print", or ".fourier" lines; no simulations run
