
Note: Compatibility modes selected: hs

Warning: m=xx on .subckt line will override multiplier m hierarchy!


Circuit: ***************************

Doing analysis at TEMP = 25.000000 and TNOM = 25.000000


No. of Data Rows : 133
                          ***************************
                          DC transfer characteristic  Mon Jan  9 13:58:05  2023
--------------------------------------------------------------------------------
Index   v-sweep         rds             
--------------------------------------------------------------------------------
0	0.000000e+00	1.209773e+05	
1	5.000000e-02	1.424905e+05	
2	1.000000e-01	1.731164e+05	
3	1.500000e-01	2.201110e+05	
4	2.000000e-01	3.008060e+05	
5	2.500000e-01	4.657438e+05	
6	3.000000e-01	8.822365e+05	
7	3.500000e-01	1.805846e+06	
8	4.000000e-01	2.824805e+06	
9	4.500000e-01	3.593024e+06	
10	5.000000e-01	4.222874e+06	
11	5.500000e-01	4.797692e+06	
12	6.000000e-01	5.349081e+06	
13	6.500000e-01	5.889243e+06	
14	7.000000e-01	6.423422e+06	
15	7.500000e-01	6.954116e+06	
16	8.000000e-01	7.482625e+06	
17	8.500000e-01	8.009677e+06	
18	9.000000e-01	8.535703e+06	
19	9.500000e-01	9.060971e+06	
20	1.000000e+00	9.585656e+06	
21	1.050000e+00	1.010987e+07	
22	1.100000e+00	1.063371e+07	
23	1.150000e+00	1.115721e+07	
24	1.200000e+00	1.168043e+07	
25	1.250000e+00	1.220340e+07	
26	1.300000e+00	1.272613e+07	
27	1.350000e+00	1.324865e+07	
28	1.400000e+00	1.377097e+07	
29	1.450000e+00	1.429310e+07	
30	1.500000e+00	1.481506e+07	
31	1.550000e+00	1.533683e+07	
32	1.600000e+00	1.585844e+07	
33	1.650000e+00	1.637989e+07	
34	1.700000e+00	1.690118e+07	
35	1.750000e+00	1.742231e+07	
36	1.800000e+00	1.794329e+07	
37	1.850000e+00	1.846412e+07	
38	1.900000e+00	1.898479e+07	
39	1.950000e+00	1.950532e+07	
40	2.000000e+00	2.002571e+07	
41	2.050000e+00	2.054594e+07	
42	2.100000e+00	2.106603e+07	
43	2.150000e+00	2.158598e+07	
44	2.200000e+00	2.210579e+07	
45	2.250000e+00	2.262545e+07	
46	2.300000e+00	2.314497e+07	
47	2.350000e+00	2.366435e+07	
48	2.400000e+00	2.418358e+07	
49	2.450000e+00	2.470268e+07	
50	2.500000e+00	2.522163e+07	
51	2.550000e+00	2.574045e+07	
52	2.600000e+00	2.625912e+07	
53	2.650000e+00	2.677765e+07	
54	2.700000e+00	2.729605e+07	

Index   v-sweep         rds             
--------------------------------------------------------------------------------
55	2.750000e+00	2.781430e+07	
56	2.800000e+00	2.833242e+07	
57	2.850000e+00	2.885039e+07	
58	2.900000e+00	2.936823e+07	
59	2.950000e+00	2.988592e+07	
60	3.000000e+00	3.040348e+07	
61	3.050000e+00	3.092090e+07	
62	3.100000e+00	3.143818e+07	
63	3.150000e+00	3.195532e+07	
64	3.200000e+00	3.247232e+07	
65	3.250000e+00	3.298918e+07	
66	3.300000e+00	3.350590e+07	
67	3.350000e+00	3.402248e+07	
68	3.400000e+00	3.453893e+07	
69	3.450000e+00	3.505523e+07	
70	3.500000e+00	3.557140e+07	
71	3.550000e+00	3.608742e+07	
72	3.600000e+00	3.660331e+07	
73	3.650000e+00	3.711906e+07	
74	3.700000e+00	3.763467e+07	
75	3.750000e+00	3.815014e+07	
76	3.800000e+00	3.866547e+07	
77	3.850000e+00	3.918067e+07	
78	3.900000e+00	3.969572e+07	
79	3.950000e+00	4.021063e+07	
80	4.000000e+00	4.072541e+07	
81	4.050000e+00	4.124005e+07	
82	4.100000e+00	4.175454e+07	
83	4.150000e+00	4.226890e+07	
84	4.200000e+00	4.278312e+07	
85	4.250000e+00	4.329720e+07	
86	4.300000e+00	4.381114e+07	
87	4.350000e+00	4.432494e+07	
88	4.400000e+00	4.483860e+07	
89	4.450000e+00	4.535213e+07	
90	4.500000e+00	4.586551e+07	
91	4.550000e+00	4.637875e+07	
92	4.600000e+00	4.689186e+07	
93	4.650000e+00	4.740483e+07	
94	4.700000e+00	4.791765e+07	
95	4.750000e+00	4.843034e+07	
96	4.800000e+00	4.894289e+07	
97	4.850000e+00	4.945530e+07	
98	4.900000e+00	4.996757e+07	
99	4.950000e+00	5.047970e+07	
100	5.000000e+00	5.099169e+07	
101	5.050000e+00	5.150354e+07	
102	5.100000e+00	5.201525e+07	
103	5.150000e+00	5.252683e+07	
104	5.200000e+00	5.303826e+07	
105	5.250000e+00	5.354956e+07	
106	5.300000e+00	5.406071e+07	
107	5.350000e+00	5.457173e+07	
108	5.400000e+00	5.508260e+07	
109	5.450000e+00	5.559334e+07	
110	5.500000e+00	5.610394e+07	
111	5.550000e+00	5.661440e+07	
112	5.600000e+00	5.712472e+07	

Index   v-sweep         rds             
--------------------------------------------------------------------------------
113	5.650000e+00	5.763490e+07	
114	5.700000e+00	5.814494e+07	
115	5.750000e+00	5.865484e+07	
116	5.800000e+00	5.916460e+07	
117	5.850000e+00	5.967422e+07	
118	5.900000e+00	6.018371e+07	
119	5.950000e+00	6.069305e+07	
120	6.000000e+00	6.120225e+07	
121	6.050000e+00	6.171132e+07	
122	6.100000e+00	6.222024e+07	
123	6.150000e+00	6.272903e+07	
124	6.200000e+00	6.323768e+07	
125	6.250000e+00	6.374618e+07	
126	6.300000e+00	6.425455e+07	
127	6.350000e+00	6.476278e+07	
128	6.400000e+00	6.527087e+07	
129	6.450000e+00	6.577882e+07	
130	6.500000e+00	6.628663e+07	
131	6.550000e+00	6.679430e+07	
132	6.600000e+00	6.730183e+07	
Reset re-loads circuit ***************************

Circuit: ***************************

Doing analysis at TEMP = 25.000000 and TNOM = 25.000000


No. of Data Rows : 133
                          ***************************
                          DC transfer characteristic  Mon Jan  9 13:58:06  2023
--------------------------------------------------------------------------------
Index   v-sweep         rds             
--------------------------------------------------------------------------------
0	0.000000e+00	3.167413e+04	
1	5.000000e-02	3.292602e+04	
2	1.000000e-01	3.427306e+04	
3	1.500000e-01	3.572650e+04	
4	2.000000e-01	3.729948e+04	
5	2.500000e-01	3.900734e+04	
6	3.000000e-01	4.086821e+04	
7	3.500000e-01	4.290358e+04	
8	4.000000e-01	4.513920e+04	
9	4.500000e-01	4.760609e+04	
10	5.000000e-01	5.034207e+04	
11	5.500000e-01	5.339364e+04	
12	6.000000e-01	5.681865e+04	
13	6.500000e-01	6.068997e+04	
14	7.000000e-01	6.510066e+04	
15	7.500000e-01	7.017146e+04	
16	8.000000e-01	7.606172e+04	
17	8.500000e-01	8.298591e+04	
18	9.000000e-01	9.123892e+04	
19	9.500000e-01	1.012355e+05	
20	1.000000e+00	1.135717e+05	
21	1.050000e+00	1.291152e+05	
22	1.100000e+00	1.491066e+05	
23	1.150000e+00	1.751300e+05	
24	1.200000e+00	2.085108e+05	
25	1.250000e+00	2.489423e+05	
26	1.300000e+00	2.941495e+05	
27	1.350000e+00	3.417168e+05	
28	1.400000e+00	3.902796e+05	
29	1.450000e+00	4.392621e+05	
30	1.500000e+00	4.884365e+05	
31	1.550000e+00	5.377084e+05	
32	1.600000e+00	5.870344e+05	
33	1.650000e+00	6.363929e+05	
34	1.700000e+00	6.857720e+05	
35	1.750000e+00	7.351647e+05	
36	1.800000e+00	7.845665e+05	
37	1.850000e+00	8.339745e+05	
38	1.900000e+00	8.833866e+05	
39	1.950000e+00	9.328014e+05	
40	2.000000e+00	9.822178e+05	
41	2.050000e+00	1.031635e+06	
42	2.100000e+00	1.081052e+06	
43	2.150000e+00	1.130469e+06	
44	2.200000e+00	1.179885e+06	
45	2.250000e+00	1.229300e+06	
46	2.300000e+00	1.278713e+06	
47	2.350000e+00	1.328125e+06	
48	2.400000e+00	1.377535e+06	
49	2.450000e+00	1.426943e+06	
50	2.500000e+00	1.476348e+06	
51	2.550000e+00	1.525751e+06	
52	2.600000e+00	1.575152e+06	
53	2.650000e+00	1.624550e+06	
54	2.700000e+00	1.673946e+06	

Index   v-sweep         rds             
--------------------------------------------------------------------------------
55	2.750000e+00	1.723339e+06	
56	2.800000e+00	1.772729e+06	
57	2.850000e+00	1.822116e+06	
58	2.900000e+00	1.871500e+06	
59	2.950000e+00	1.920881e+06	
60	3.000000e+00	1.970259e+06	
61	3.050000e+00	2.019635e+06	
62	3.100000e+00	2.069007e+06	
63	3.150000e+00	2.118375e+06	
64	3.200000e+00	2.167741e+06	
65	3.250000e+00	2.217104e+06	
66	3.300000e+00	2.266463e+06	
67	3.350000e+00	2.315819e+06	
68	3.400000e+00	2.365171e+06	
69	3.450000e+00	2.414521e+06	
70	3.500000e+00	2.463867e+06	
71	3.550000e+00	2.513209e+06	
72	3.600000e+00	2.562549e+06	
73	3.650000e+00	2.611884e+06	
74	3.700000e+00	2.661217e+06	
75	3.750000e+00	2.710546e+06	
76	3.800000e+00	2.759871e+06	
77	3.850000e+00	2.809193e+06	
78	3.900000e+00	2.858512e+06	
79	3.950000e+00	2.907827e+06	
80	4.000000e+00	2.957138e+06	
81	4.050000e+00	3.006446e+06	
82	4.100000e+00	3.055751e+06	
83	4.150000e+00	3.105052e+06	
84	4.200000e+00	3.154349e+06	
85	4.250000e+00	3.203643e+06	
86	4.300000e+00	3.252933e+06	
87	4.350000e+00	3.302219e+06	
88	4.400000e+00	3.351502e+06	
89	4.450000e+00	3.400782e+06	
90	4.500000e+00	3.450058e+06	
91	4.550000e+00	3.499330e+06	
92	4.600000e+00	3.548598e+06	
93	4.650000e+00	3.597863e+06	
94	4.700000e+00	3.647124e+06	
95	4.750000e+00	3.696382e+06	
96	4.800000e+00	3.745636e+06	
97	4.850000e+00	3.794886e+06	
98	4.900000e+00	3.844133e+06	
99	4.950000e+00	3.893376e+06	
100	5.000000e+00	3.942615e+06	
101	5.050000e+00	3.991850e+06	
102	5.100000e+00	4.041082e+06	
103	5.150000e+00	4.090310e+06	
104	5.200000e+00	4.139535e+06	
105	5.250000e+00	4.188756e+06	
106	5.300000e+00	4.237973e+06	
107	5.350000e+00	4.287186e+06	
108	5.400000e+00	4.336395e+06	
109	5.450000e+00	4.385601e+06	
110	5.500000e+00	4.434803e+06	
111	5.550000e+00	4.484002e+06	
112	5.600000e+00	4.533196e+06	

Index   v-sweep         rds             
--------------------------------------------------------------------------------
113	5.650000e+00	4.582387e+06	
114	5.700000e+00	4.631575e+06	
115	5.750000e+00	4.680758e+06	
116	5.800000e+00	4.729938e+06	
117	5.850000e+00	4.779114e+06	
118	5.900000e+00	4.828286e+06	
119	5.950000e+00	4.877454e+06	
120	6.000000e+00	4.926619e+06	
121	6.050000e+00	4.975779e+06	
122	6.100000e+00	5.024937e+06	
123	6.150000e+00	5.074090e+06	
124	6.200000e+00	5.123239e+06	
125	6.250000e+00	5.172385e+06	
126	6.300000e+00	5.221527e+06	
127	6.350000e+00	5.270665e+06	
128	6.400000e+00	5.319800e+06	
129	6.450000e+00	5.368930e+06	
130	6.500000e+00	5.418057e+06	
131	6.550000e+00	5.467180e+06	
132	6.600000e+00	5.516299e+06	
Reset re-loads circuit ***************************

Circuit: ***************************

Doing analysis at TEMP = 25.000000 and TNOM = 25.000000


No. of Data Rows : 133
                          ***************************
                          DC transfer characteristic  Mon Jan  9 13:58:06  2023
--------------------------------------------------------------------------------
Index   v-sweep         rds             
--------------------------------------------------------------------------------
0	0.000000e+00	2.063615e+04	
1	5.000000e-02	2.110649e+04	
2	1.000000e-01	2.159594e+04	
3	1.500000e-01	2.210568e+04	
4	2.000000e-01	2.263701e+04	
5	2.500000e-01	2.319132e+04	
6	3.000000e-01	2.377013e+04	
7	3.500000e-01	2.437510e+04	
8	4.000000e-01	2.500804e+04	
9	4.500000e-01	2.567093e+04	
10	5.000000e-01	2.636594e+04	
11	5.500000e-01	2.709547e+04	
12	6.000000e-01	2.786215e+04	
13	6.500000e-01	2.866888e+04	
14	7.000000e-01	2.951889e+04	
15	7.500000e-01	3.041574e+04	
16	8.000000e-01	3.136342e+04	
17	8.500000e-01	3.236636e+04	
18	9.000000e-01	3.342955e+04	
19	9.500000e-01	3.455857e+04	
20	1.000000e+00	3.575974e+04	
21	1.050000e+00	3.704018e+04	
22	1.100000e+00	3.840802e+04	
23	1.150000e+00	3.987252e+04	
24	1.200000e+00	4.144431e+04	
25	1.250000e+00	4.313564e+04	
26	1.300000e+00	4.496070e+04	
27	1.350000e+00	4.693607e+04	
28	1.400000e+00	4.908118e+04	
29	1.450000e+00	5.141904e+04	
30	1.500000e+00	5.397712e+04	
31	1.550000e+00	5.678853e+04	
32	1.600000e+00	5.989374e+04	
33	1.650000e+00	6.334300e+04	
34	1.700000e+00	6.720010e+04	
35	1.750000e+00	7.154841e+04	
36	1.800000e+00	7.650136e+04	
37	1.850000e+00	8.222098e+04	
38	1.900000e+00	8.894920e+04	
39	1.950000e+00	9.704743e+04	
40	2.000000e+00	1.069960e+05	
41	2.050000e+00	1.192400e+05	
42	2.100000e+00	1.338828e+05	
43	2.150000e+00	1.505644e+05	
44	2.200000e+00	1.687039e+05	
45	2.250000e+00	1.877844e+05	
46	2.300000e+00	2.074493e+05	
47	2.350000e+00	2.274782e+05	
48	2.400000e+00	2.477386e+05	
49	2.450000e+00	2.681510e+05	
50	2.500000e+00	2.886663e+05	
51	2.550000e+00	3.092535e+05	
52	2.600000e+00	3.298921e+05	
53	2.650000e+00	3.505686e+05	
54	2.700000e+00	3.712735e+05	

Index   v-sweep         rds             
--------------------------------------------------------------------------------
55	2.750000e+00	3.920000e+05	
56	2.800000e+00	4.127435e+05	
57	2.850000e+00	4.335003e+05	
58	2.900000e+00	4.542677e+05	
59	2.950000e+00	4.750436e+05	
60	3.000000e+00	4.958266e+05	
61	3.050000e+00	5.166152e+05	
62	3.100000e+00	5.374086e+05	
63	3.150000e+00	5.582059e+05	
64	3.200000e+00	5.790064e+05	
65	3.250000e+00	5.998096e+05	
66	3.300000e+00	6.206151e+05	
67	3.350000e+00	6.414224e+05	
68	3.400000e+00	6.622314e+05	
69	3.450000e+00	6.830416e+05	
70	3.500000e+00	7.038528e+05	
71	3.550000e+00	7.246650e+05	
72	3.600000e+00	7.454778e+05	
73	3.650000e+00	7.662912e+05	
74	3.700000e+00	7.871050e+05	
75	3.750000e+00	8.079191e+05	
76	3.800000e+00	8.287334e+05	
77	3.850000e+00	8.495478e+05	
78	3.900000e+00	8.703622e+05	
79	3.950000e+00	8.911766e+05	
80	4.000000e+00	9.119908e+05	
81	4.050000e+00	9.328050e+05	
82	4.100000e+00	9.536189e+05	
83	4.150000e+00	9.744325e+05	
84	4.200000e+00	9.952458e+05	
85	4.250000e+00	1.016059e+06	
86	4.300000e+00	1.036871e+06	
87	4.350000e+00	1.057684e+06	
88	4.400000e+00	1.078495e+06	
89	4.450000e+00	1.099307e+06	
90	4.500000e+00	1.120118e+06	
91	4.550000e+00	1.140928e+06	
92	4.600000e+00	1.161738e+06	
93	4.650000e+00	1.182547e+06	
94	4.700000e+00	1.203355e+06	
95	4.750000e+00	1.224163e+06	
96	4.800000e+00	1.244971e+06	
97	4.850000e+00	1.265778e+06	
98	4.900000e+00	1.286584e+06	
99	4.950000e+00	1.307389e+06	
100	5.000000e+00	1.328194e+06	
101	5.050000e+00	1.348998e+06	
102	5.100000e+00	1.369802e+06	
103	5.150000e+00	1.390605e+06	
104	5.200000e+00	1.411407e+06	
105	5.250000e+00	1.432208e+06	
106	5.300000e+00	1.453009e+06	
107	5.350000e+00	1.473809e+06	
108	5.400000e+00	1.494608e+06	
109	5.450000e+00	1.515407e+06	
110	5.500000e+00	1.536204e+06	
111	5.550000e+00	1.557001e+06	
112	5.600000e+00	1.577797e+06	

Index   v-sweep         rds             
--------------------------------------------------------------------------------
113	5.650000e+00	1.598593e+06	
114	5.700000e+00	1.619387e+06	
115	5.750000e+00	1.640181e+06	
116	5.800000e+00	1.660974e+06	
117	5.850000e+00	1.681767e+06	
118	5.900000e+00	1.702558e+06	
119	5.950000e+00	1.723349e+06	
120	6.000000e+00	1.744139e+06	
121	6.050000e+00	1.764928e+06	
122	6.100000e+00	1.785716e+06	
123	6.150000e+00	1.806504e+06	
124	6.200000e+00	1.827290e+06	
125	6.250000e+00	1.848076e+06	
126	6.300000e+00	1.868861e+06	
127	6.350000e+00	1.889645e+06	
128	6.400000e+00	1.910429e+06	
129	6.450000e+00	1.931211e+06	
130	6.500000e+00	1.951993e+06	
131	6.550000e+00	1.972774e+06	
132	6.600000e+00	1.993554e+06	
Reset re-loads circuit ***************************

Circuit: ***************************

Doing analysis at TEMP = 25.000000 and TNOM = 25.000000


No. of Data Rows : 133
                          ***************************
                          DC transfer characteristic  Mon Jan  9 13:58:06  2023
--------------------------------------------------------------------------------
Index   v-sweep         rds             
--------------------------------------------------------------------------------
0	0.000000e+00	1.640295e+04	
1	5.000000e-02	1.666633e+04	
2	1.000000e-01	1.693685e+04	
3	1.500000e-01	1.721480e+04	
4	2.000000e-01	1.750048e+04	
5	2.500000e-01	1.779423e+04	
6	3.000000e-01	1.809638e+04	
7	3.500000e-01	1.840731e+04	
8	4.000000e-01	1.872739e+04	
9	4.500000e-01	1.905704e+04	
10	5.000000e-01	1.939670e+04	
11	5.500000e-01	1.974681e+04	
12	6.000000e-01	2.010787e+04	
13	6.500000e-01	2.048041e+04	
14	7.000000e-01	2.086497e+04	
15	7.500000e-01	2.126215e+04	
16	8.000000e-01	2.167257e+04	
17	8.500000e-01	2.209691e+04	
18	9.000000e-01	2.253588e+04	
19	9.500000e-01	2.299026e+04	
20	1.000000e+00	2.346086e+04	
21	1.050000e+00	2.394858e+04	
22	1.100000e+00	2.445435e+04	
23	1.150000e+00	2.497920e+04	
24	1.200000e+00	2.552422e+04	
25	1.250000e+00	2.609061e+04	
26	1.300000e+00	2.667964e+04	
27	1.350000e+00	2.729269e+04	
28	1.400000e+00	2.793127e+04	
29	1.450000e+00	2.859700e+04	
30	1.500000e+00	2.929165e+04	
31	1.550000e+00	3.001714e+04	
32	1.600000e+00	3.077559e+04	
33	1.650000e+00	3.156928e+04	
34	1.700000e+00	3.240074e+04	
35	1.750000e+00	3.327275e+04	
36	1.800000e+00	3.418834e+04	
37	1.850000e+00	3.515090e+04	
38	1.900000e+00	3.616417e+04	
39	1.950000e+00	3.723229e+04	
40	2.000000e+00	3.835991e+04	
41	2.050000e+00	3.955225e+04	
42	2.100000e+00	4.081518e+04	
43	2.150000e+00	4.215539e+04	
44	2.200000e+00	4.358055e+04	
45	2.250000e+00	4.509957e+04	
46	2.300000e+00	4.672295e+04	
47	2.350000e+00	4.846333e+04	
48	2.400000e+00	5.033639e+04	
49	2.450000e+00	5.236235e+04	
50	2.500000e+00	5.456854e+04	
51	2.550000e+00	5.699412e+04	
52	2.600000e+00	5.969838e+04	
53	2.650000e+00	6.277490e+04	
54	2.700000e+00	6.637195e+04	

Index   v-sweep         rds             
--------------------------------------------------------------------------------
55	2.750000e+00	7.071016e+04	
56	2.800000e+00	7.606678e+04	
57	2.850000e+00	8.268765e+04	
58	2.900000e+00	9.065576e+04	
59	2.950000e+00	9.984034e+04	
60	3.000000e+00	1.099803e+05	
61	3.050000e+00	1.208042e+05	
62	3.100000e+00	1.320950e+05	
63	3.150000e+00	1.437000e+05	
64	3.200000e+00	1.555176e+05	
65	3.250000e+00	1.674815e+05	
66	3.300000e+00	1.795479e+05	
67	3.350000e+00	1.916881e+05	
68	3.400000e+00	2.038822e+05	
69	3.450000e+00	2.161166e+05	
70	3.500000e+00	2.283818e+05	
71	3.550000e+00	2.406709e+05	
72	3.600000e+00	2.529786e+05	
73	3.650000e+00	2.653013e+05	
74	3.700000e+00	2.776360e+05	
75	3.750000e+00	2.899805e+05	
76	3.800000e+00	3.023332e+05	
77	3.850000e+00	3.146926e+05	
78	3.900000e+00	3.270577e+05	
79	3.950000e+00	3.394275e+05	
80	4.000000e+00	3.518013e+05	
81	4.050000e+00	3.641786e+05	
82	4.100000e+00	3.765589e+05	
83	4.150000e+00	3.889418e+05	
84	4.200000e+00	4.013268e+05	
85	4.250000e+00	4.137138e+05	
86	4.300000e+00	4.261025e+05	
87	4.350000e+00	4.384926e+05	
88	4.400000e+00	4.508839e+05	
89	4.450000e+00	4.632764e+05	
90	4.500000e+00	4.756699e+05	
91	4.550000e+00	4.880642e+05	
92	4.600000e+00	5.004592e+05	
93	4.650000e+00	5.128549e+05	
94	4.700000e+00	5.252512e+05	
95	4.750000e+00	5.376479e+05	
96	4.800000e+00	5.500451e+05	
97	4.850000e+00	5.624426e+05	
98	4.900000e+00	5.748405e+05	
99	4.950000e+00	5.872386e+05	
100	5.000000e+00	5.996369e+05	
101	5.050000e+00	6.120354e+05	
102	5.100000e+00	6.244340e+05	
103	5.150000e+00	6.368328e+05	
104	5.200000e+00	6.492316e+05	
105	5.250000e+00	6.616304e+05	
106	5.300000e+00	6.740293e+05	
107	5.350000e+00	6.864282e+05	
108	5.400000e+00	6.988271e+05	
109	5.450000e+00	7.112259e+05	
110	5.500000e+00	7.236247e+05	
111	5.550000e+00	7.360234e+05	
112	5.600000e+00	7.484220e+05	

Index   v-sweep         rds             
--------------------------------------------------------------------------------
113	5.650000e+00	7.608205e+05	
114	5.700000e+00	7.732189e+05	
115	5.750000e+00	7.856171e+05	
116	5.800000e+00	7.980152e+05	
117	5.850000e+00	8.104132e+05	
118	5.900000e+00	8.228110e+05	
119	5.950000e+00	8.352086e+05	
120	6.000000e+00	8.476061e+05	
121	6.050000e+00	8.600033e+05	
122	6.100000e+00	8.724004e+05	
123	6.150000e+00	8.847972e+05	
124	6.200000e+00	8.971938e+05	
125	6.250000e+00	9.095903e+05	
126	6.300000e+00	9.219864e+05	
127	6.350000e+00	9.343824e+05	
128	6.400000e+00	9.467781e+05	
129	6.450000e+00	9.591736e+05	
130	6.500000e+00	9.715688e+05	
131	6.550000e+00	9.839638e+05	
132	6.600000e+00	9.963585e+05	
Reset re-loads circuit ***************************

Circuit: ***************************

Doing analysis at TEMP = 25.000000 and TNOM = 25.000000


No. of Data Rows : 133
                          ***************************
                          DC transfer characteristic  Mon Jan  9 13:58:06  2023
--------------------------------------------------------------------------------
Index   v-sweep         rds             
--------------------------------------------------------------------------------
0	0.000000e+00	1.422767e+04	
1	5.000000e-02	1.440293e+04	
2	1.000000e-01	1.458168e+04	
3	1.500000e-01	1.476401e+04	
4	2.000000e-01	1.495004e+04	
5	2.500000e-01	1.513989e+04	
6	3.000000e-01	1.533365e+04	
7	3.500000e-01	1.553147e+04	
8	4.000000e-01	1.573347e+04	
9	4.500000e-01	1.593978e+04	
10	5.000000e-01	1.615053e+04	
11	5.500000e-01	1.636588e+04	
12	6.000000e-01	1.658597e+04	
13	6.500000e-01	1.681097e+04	
14	7.000000e-01	1.704103e+04	
15	7.500000e-01	1.727633e+04	
16	8.000000e-01	1.751705e+04	
17	8.500000e-01	1.776338e+04	
18	9.000000e-01	1.801552e+04	
19	9.500000e-01	1.827366e+04	
20	1.000000e+00	1.853804e+04	
21	1.050000e+00	1.880887e+04	
22	1.100000e+00	1.908639e+04	
23	1.150000e+00	1.937086e+04	
24	1.200000e+00	1.966254e+04	
25	1.250000e+00	1.996170e+04	
26	1.300000e+00	2.026863e+04	
27	1.350000e+00	2.058365e+04	
28	1.400000e+00	2.090707e+04	
29	1.450000e+00	2.123923e+04	
30	1.500000e+00	2.158049e+04	
31	1.550000e+00	2.193124e+04	
32	1.600000e+00	2.229186e+04	
33	1.650000e+00	2.266278e+04	
34	1.700000e+00	2.304445e+04	
35	1.750000e+00	2.343735e+04	
36	1.800000e+00	2.384196e+04	
37	1.850000e+00	2.425883e+04	
38	1.900000e+00	2.468852e+04	
39	1.950000e+00	2.513163e+04	
40	2.000000e+00	2.558880e+04	
41	2.050000e+00	2.606071e+04	
42	2.100000e+00	2.654808e+04	
43	2.150000e+00	2.705169e+04	
44	2.200000e+00	2.757237e+04	
45	2.250000e+00	2.811100e+04	
46	2.300000e+00	2.866853e+04	
47	2.350000e+00	2.924597e+04	
48	2.400000e+00	2.984444e+04	
49	2.450000e+00	3.046510e+04	
50	2.500000e+00	3.110924e+04	
51	2.550000e+00	3.177823e+04	
52	2.600000e+00	3.247357e+04	
53	2.650000e+00	3.319690e+04	
54	2.700000e+00	3.395001e+04	

Index   v-sweep         rds             
--------------------------------------------------------------------------------
55	2.750000e+00	3.473486e+04	
56	2.800000e+00	3.555364e+04	
57	2.850000e+00	3.640877e+04	
58	2.900000e+00	3.730299e+04	
59	2.950000e+00	3.823945e+04	
60	3.000000e+00	3.922181e+04	
61	3.050000e+00	4.025442e+04	
62	3.100000e+00	4.134263e+04	
63	3.150000e+00	4.249328e+04	
64	3.200000e+00	4.371541e+04	
65	3.250000e+00	4.502161e+04	
66	3.300000e+00	4.643026e+04	
67	3.350000e+00	4.796922e+04	
68	3.400000e+00	4.968198e+04	
69	3.450000e+00	5.163669e+04	
70	3.500000e+00	5.393692e+04	
71	3.550000e+00	5.672710e+04	
72	3.600000e+00	6.017781e+04	
73	3.650000e+00	6.443787e+04	
74	3.700000e+00	6.957073e+04	
75	3.750000e+00	7.552535e+04	
76	3.800000e+00	8.216704e+04	
77	3.850000e+00	8.933554e+04	
78	3.900000e+00	9.688732e+04	
79	3.950000e+00	1.047112e+05	
80	4.000000e+00	1.127273e+05	
81	4.050000e+00	1.208800e+05	
82	4.100000e+00	1.291311e+05	
83	4.150000e+00	1.374540e+05	
84	4.200000e+00	1.458305e+05	
85	4.250000e+00	1.542473e+05	
86	4.300000e+00	1.626953e+05	
87	4.350000e+00	1.711675e+05	
88	4.400000e+00	1.796589e+05	
89	4.450000e+00	1.881656e+05	
90	4.500000e+00	1.966848e+05	
91	4.550000e+00	2.052142e+05	
92	4.600000e+00	2.137520e+05	
93	4.650000e+00	2.222968e+05	
94	4.700000e+00	2.308476e+05	
95	4.750000e+00	2.394033e+05	
96	4.800000e+00	2.479634e+05	
97	4.850000e+00	2.565271e+05	
98	4.900000e+00	2.650940e+05	
99	4.950000e+00	2.736636e+05	
100	5.000000e+00	2.822357e+05	
101	5.050000e+00	2.908098e+05	
102	5.100000e+00	2.993858e+05	
103	5.150000e+00	3.079634e+05	
104	5.200000e+00	3.165424e+05	
105	5.250000e+00	3.251227e+05	
106	5.300000e+00	3.337042e+05	
107	5.350000e+00	3.422866e+05	
108	5.400000e+00	3.508700e+05	
109	5.450000e+00	3.594542e+05	
110	5.500000e+00	3.680390e+05	
111	5.550000e+00	3.766245e+05	
112	5.600000e+00	3.852106e+05	

Index   v-sweep         rds             
--------------------------------------------------------------------------------
113	5.650000e+00	3.937972e+05	
114	5.700000e+00	4.023843e+05	
115	5.750000e+00	4.109718e+05	
116	5.800000e+00	4.195597e+05	
117	5.850000e+00	4.281478e+05	
118	5.900000e+00	4.367363e+05	
119	5.950000e+00	4.453251e+05	
120	6.000000e+00	4.539141e+05	
121	6.050000e+00	4.625032e+05	
122	6.100000e+00	4.710926e+05	
123	6.150000e+00	4.796821e+05	
124	6.200000e+00	4.882718e+05	
125	6.250000e+00	4.968616e+05	
126	6.300000e+00	5.054515e+05	
127	6.350000e+00	5.140414e+05	
128	6.400000e+00	5.226315e+05	
129	6.450000e+00	5.312216e+05	
130	6.500000e+00	5.398117e+05	
131	6.550000e+00	5.484019e+05	
132	6.600000e+00	5.569921e+05	
Reset re-loads circuit ***************************

Circuit: ***************************

Doing analysis at TEMP = 25.000000 and TNOM = 25.000000


No. of Data Rows : 133
                          ***************************
                          DC transfer characteristic  Mon Jan  9 13:58:06  2023
--------------------------------------------------------------------------------
Index   v-sweep         rds             
--------------------------------------------------------------------------------
0	0.000000e+00	1.294737e+04	
1	5.000000e-02	1.307550e+04	
2	1.000000e-01	1.320560e+04	
3	1.500000e-01	1.333772e+04	
4	2.000000e-01	1.347190e+04	
5	2.500000e-01	1.360819e+04	
6	3.000000e-01	1.374665e+04	
7	3.500000e-01	1.388731e+04	
8	4.000000e-01	1.403025e+04	
9	4.500000e-01	1.417550e+04	
10	5.000000e-01	1.432313e+04	
11	5.500000e-01	1.447319e+04	
12	6.000000e-01	1.462575e+04	
13	6.500000e-01	1.478087e+04	
14	7.000000e-01	1.493861e+04	
15	7.500000e-01	1.509903e+04	
16	8.000000e-01	1.526222e+04	
17	8.500000e-01	1.542823e+04	
18	9.000000e-01	1.559715e+04	
19	9.500000e-01	1.576904e+04	
20	1.000000e+00	1.594399e+04	
21	1.050000e+00	1.612208e+04	
22	1.100000e+00	1.630340e+04	
23	1.150000e+00	1.648802e+04	
24	1.200000e+00	1.667605e+04	
25	1.250000e+00	1.686757e+04	
26	1.300000e+00	1.706269e+04	
27	1.350000e+00	1.726151e+04	
28	1.400000e+00	1.746413e+04	
29	1.450000e+00	1.767066e+04	
30	1.500000e+00	1.788121e+04	
31	1.550000e+00	1.809591e+04	
32	1.600000e+00	1.831487e+04	
33	1.650000e+00	1.853823e+04	
34	1.700000e+00	1.876611e+04	
35	1.750000e+00	1.899866e+04	
36	1.800000e+00	1.923602e+04	
37	1.850000e+00	1.947834e+04	
38	1.900000e+00	1.972578e+04	
39	1.950000e+00	1.997850e+04	
40	2.000000e+00	2.023666e+04	
41	2.050000e+00	2.050045e+04	
42	2.100000e+00	2.077006e+04	
43	2.150000e+00	2.104567e+04	
44	2.200000e+00	2.132749e+04	
45	2.250000e+00	2.161573e+04	
46	2.300000e+00	2.191062e+04	
47	2.350000e+00	2.221237e+04	
48	2.400000e+00	2.252125e+04	
49	2.450000e+00	2.283749e+04	
50	2.500000e+00	2.316137e+04	
51	2.550000e+00	2.349318e+04	
52	2.600000e+00	2.383319e+04	
53	2.650000e+00	2.418173e+04	
54	2.700000e+00	2.453911e+04	

Index   v-sweep         rds             
--------------------------------------------------------------------------------
55	2.750000e+00	2.490568e+04	
56	2.800000e+00	2.528180e+04	
57	2.850000e+00	2.566786e+04	
58	2.900000e+00	2.606424e+04	
59	2.950000e+00	2.647138e+04	
60	3.000000e+00	2.688973e+04	
61	3.050000e+00	2.731975e+04	
62	3.100000e+00	2.776196e+04	
63	3.150000e+00	2.821689e+04	
64	3.200000e+00	2.868512e+04	
65	3.250000e+00	2.916725e+04	
66	3.300000e+00	2.966395e+04	
67	3.350000e+00	3.017590e+04	
68	3.400000e+00	3.070388e+04	
69	3.450000e+00	3.124871e+04	
70	3.500000e+00	3.181130e+04	
71	3.550000e+00	3.239263e+04	
72	3.600000e+00	3.299382e+04	
73	3.650000e+00	3.361611e+04	
74	3.700000e+00	3.426096e+04	
75	3.750000e+00	3.493004e+04	
76	3.800000e+00	3.562538e+04	
77	3.850000e+00	3.634947e+04	
78	3.900000e+00	3.710551e+04	
79	3.950000e+00	3.789772e+04	
80	4.000000e+00	3.873190e+04	
81	4.050000e+00	3.961627e+04	
82	4.100000e+00	4.056293e+04	
83	4.150000e+00	4.159006e+04	
84	4.200000e+00	4.272539e+04	
85	4.250000e+00	4.401111e+04	
86	4.300000e+00	4.550969e+04	
87	4.350000e+00	4.730796e+04	
88	4.400000e+00	4.951339e+04	
89	4.450000e+00	5.223537e+04	
90	4.500000e+00	5.555211e+04	
91	4.550000e+00	5.948080e+04	
92	4.600000e+00	6.397321e+04	
93	4.650000e+00	6.893866e+04	
94	4.700000e+00	7.427495e+04	
95	4.750000e+00	7.988985e+04	
96	4.800000e+00	8.570963e+04	
97	4.850000e+00	9.167907e+04	
98	4.900000e+00	9.775815e+04	
99	4.950000e+00	1.039183e+05	
100	5.000000e+00	1.101391e+05	
101	5.050000e+00	1.164059e+05	
102	5.100000e+00	1.227080e+05	
103	5.150000e+00	1.290376e+05	
104	5.200000e+00	1.353890e+05	
105	5.250000e+00	1.417578e+05	
106	5.300000e+00	1.481405e+05	
107	5.350000e+00	1.545348e+05	
108	5.400000e+00	1.609384e+05	
109	5.450000e+00	1.673499e+05	
110	5.500000e+00	1.737681e+05	
111	5.550000e+00	1.801917e+05	
112	5.600000e+00	1.866202e+05	

Index   v-sweep         rds             
--------------------------------------------------------------------------------
113	5.650000e+00	1.930527e+05	
114	5.700000e+00	1.994887e+05	
115	5.750000e+00	2.059277e+05	
116	5.800000e+00	2.123694e+05	
117	5.850000e+00	2.188134e+05	
118	5.900000e+00	2.252594e+05	
119	5.950000e+00	2.317073e+05	
120	6.000000e+00	2.381567e+05	
121	6.050000e+00	2.446075e+05	
122	6.100000e+00	2.510596e+05	
123	6.150000e+00	2.575129e+05	
124	6.200000e+00	2.639671e+05	
125	6.250000e+00	2.704223e+05	
126	6.300000e+00	2.768782e+05	
127	6.350000e+00	2.833350e+05	
128	6.400000e+00	2.897923e+05	
129	6.450000e+00	2.962503e+05	
130	6.500000e+00	3.027088e+05	
131	6.550000e+00	3.091679e+05	
132	6.600000e+00	3.156274e+05	
Reset re-loads circuit ***************************

Circuit: ***************************

Note: No ".plot", ".print", or ".fourier" lines; no simulations run
