
Note: Compatibility modes selected: hs

Warning: m=xx on .subckt line will override multiplier m hierarchy!


Circuit: ***************************

Doing analysis at TEMP = 125.000000 and TNOM = 125.000000


No. of Data Rows : 133
                          ***************************
                          DC transfer characteristic  Mon Jan  9 13:58:06  2023
--------------------------------------------------------------------------------
Index   v-sweep         rds             
--------------------------------------------------------------------------------
0	0.000000e+00	3.646259e+04	
1	5.000000e-02	4.078356e+04	
2	1.000000e-01	4.618936e+04	
3	1.500000e-01	5.314236e+04	
4	2.000000e-01	6.240375e+04	
5	2.500000e-01	7.530273e+04	
6	3.000000e-01	9.428968e+04	
7	3.500000e-01	1.237857e+05	
8	4.000000e-01	1.683745e+05	
9	4.500000e-01	2.188595e+05	
10	5.000000e-01	2.588712e+05	
11	5.500000e-01	2.908305e+05	
12	6.000000e-01	3.190617e+05	
13	6.500000e-01	3.449300e+05	
14	7.000000e-01	3.688784e+05	
15	7.500000e-01	3.911291e+05	
16	8.000000e-01	4.118419e+05	
17	8.500000e-01	4.311517e+05	
18	9.000000e-01	4.491781e+05	
19	9.500000e-01	4.660289e+05	
20	1.000000e+00	4.818015e+05	
21	1.050000e+00	4.965837e+05	
22	1.100000e+00	5.104554e+05	
23	1.150000e+00	5.234886e+05	
24	1.200000e+00	5.357485e+05	
25	1.250000e+00	5.472946e+05	
26	1.300000e+00	5.581804e+05	
27	1.350000e+00	5.684550e+05	
28	1.400000e+00	5.781627e+05	
29	1.450000e+00	5.873440e+05	
30	1.500000e+00	5.960360e+05	
31	1.550000e+00	6.042724e+05	
32	1.600000e+00	6.120841e+05	
33	1.650000e+00	6.194996e+05	
34	1.700000e+00	6.265448e+05	
35	1.750000e+00	6.332435e+05	
36	1.800000e+00	6.396179e+05	
37	1.850000e+00	6.456881e+05	
38	1.900000e+00	6.514730e+05	
39	1.950000e+00	6.569896e+05	
40	2.000000e+00	6.622541e+05	
41	2.050000e+00	6.672812e+05	
42	2.100000e+00	6.720847e+05	
43	2.150000e+00	6.766773e+05	
44	2.200000e+00	6.810707e+05	
45	2.250000e+00	6.852762e+05	
46	2.300000e+00	6.893038e+05	
47	2.350000e+00	6.931631e+05	
48	2.400000e+00	6.968631e+05	
49	2.450000e+00	7.004121e+05	
50	2.500000e+00	7.038179e+05	
51	2.550000e+00	7.070878e+05	
52	2.600000e+00	7.102286e+05	
53	2.650000e+00	7.132467e+05	
54	2.700000e+00	7.161481e+05	

Index   v-sweep         rds             
--------------------------------------------------------------------------------
55	2.750000e+00	7.189385e+05	
56	2.800000e+00	7.216231e+05	
57	2.850000e+00	7.242070e+05	
58	2.900000e+00	7.266949e+05	
59	2.950000e+00	7.290911e+05	
60	3.000000e+00	7.313998e+05	
61	3.050000e+00	7.336251e+05	
62	3.100000e+00	7.357705e+05	
63	3.150000e+00	7.378397e+05	
64	3.200000e+00	7.398359e+05	
65	3.250000e+00	7.417622e+05	
66	3.300000e+00	7.436217e+05	
67	3.350000e+00	7.454171e+05	
68	3.400000e+00	7.471511e+05	
69	3.450000e+00	7.488263e+05	
70	3.500000e+00	7.504450e+05	
71	3.550000e+00	7.520096e+05	
72	3.600000e+00	7.535221e+05	
73	3.650000e+00	7.549848e+05	
74	3.700000e+00	7.563994e+05	
75	3.750000e+00	7.577679e+05	
76	3.800000e+00	7.590920e+05	
77	3.850000e+00	7.603735e+05	
78	3.900000e+00	7.616139e+05	
79	3.950000e+00	7.628149e+05	
80	4.000000e+00	7.639777e+05	
81	4.050000e+00	7.651039e+05	
82	4.100000e+00	7.661948e+05	
83	4.150000e+00	7.672517e+05	
84	4.200000e+00	7.682757e+05	
85	4.250000e+00	7.692680e+05	
86	4.300000e+00	7.702298e+05	
87	4.350000e+00	7.711621e+05	
88	4.400000e+00	7.720660e+05	
89	4.450000e+00	7.729423e+05	
90	4.500000e+00	7.737921e+05	
91	4.550000e+00	7.746162e+05	
92	4.600000e+00	7.754156e+05	
93	4.650000e+00	7.761910e+05	
94	4.700000e+00	7.769431e+05	
95	4.750000e+00	7.776729e+05	
96	4.800000e+00	7.783809e+05	
97	4.850000e+00	7.790680e+05	
98	4.900000e+00	7.797347e+05	
99	4.950000e+00	7.803818e+05	
100	5.000000e+00	7.810098e+05	
101	5.050000e+00	7.816193e+05	
102	5.100000e+00	7.822109e+05	
103	5.150000e+00	7.827852e+05	
104	5.200000e+00	7.833427e+05	
105	5.250000e+00	7.838839e+05	
106	5.300000e+00	7.844093e+05	
107	5.350000e+00	7.849194e+05	
108	5.400000e+00	7.854146e+05	
109	5.450000e+00	7.858954e+05	
110	5.500000e+00	7.863622e+05	
111	5.550000e+00	7.868154e+05	
112	5.600000e+00	7.872554e+05	

Index   v-sweep         rds             
--------------------------------------------------------------------------------
113	5.650000e+00	7.876826e+05	
114	5.700000e+00	7.880973e+05	
115	5.750000e+00	7.885000e+05	
116	5.800000e+00	7.888909e+05	
117	5.850000e+00	7.892704e+05	
118	5.900000e+00	7.896388e+05	
119	5.950000e+00	7.899964e+05	
120	6.000000e+00	7.903436e+05	
121	6.050000e+00	7.906805e+05	
122	6.100000e+00	7.910075e+05	
123	6.150000e+00	7.913249e+05	
124	6.200000e+00	7.916329e+05	
125	6.250000e+00	7.919318e+05	
126	6.300000e+00	7.922218e+05	
127	6.350000e+00	7.925031e+05	
128	6.400000e+00	7.927761e+05	
129	6.450000e+00	7.930408e+05	
130	6.500000e+00	7.932976e+05	
131	6.550000e+00	7.935466e+05	
132	6.600000e+00	7.937880e+05	
Reset re-loads circuit ***************************

Circuit: ***************************

Doing analysis at TEMP = 125.000000 and TNOM = 125.000000


No. of Data Rows : 133
                          ***************************
                          DC transfer characteristic  Mon Jan  9 13:58:06  2023
--------------------------------------------------------------------------------
Index   v-sweep         rds             
--------------------------------------------------------------------------------
0	0.000000e+00	1.361477e+04	
1	5.000000e-02	1.417153e+04	
2	1.000000e-01	1.476759e+04	
3	1.500000e-01	1.540726e+04	
4	2.000000e-01	1.609546e+04	
5	2.500000e-01	1.683790e+04	
6	3.000000e-01	1.764122e+04	
7	3.500000e-01	1.851317e+04	
8	4.000000e-01	1.946287e+04	
9	4.500000e-01	2.050111e+04	
10	5.000000e-01	2.164074e+04	
11	5.500000e-01	2.289721e+04	
12	6.000000e-01	2.428916e+04	
13	6.500000e-01	2.583930e+04	
14	7.000000e-01	2.757547e+04	
15	7.500000e-01	2.953201e+04	
16	8.000000e-01	3.175150e+04	
17	8.500000e-01	3.428685e+04	
18	9.000000e-01	3.720441e+04	
19	9.500000e-01	4.059072e+04	
20	1.000000e+00	4.457200e+04	
21	1.050000e+00	4.933928e+04	
22	1.100000e+00	5.505338e+04	
23	1.150000e+00	6.159586e+04	
24	1.200000e+00	6.861681e+04	
25	1.250000e+00	7.580980e+04	
26	1.300000e+00	8.299709e+04	
27	1.350000e+00	9.008940e+04	
28	1.400000e+00	9.704368e+04	
29	1.450000e+00	1.038398e+05	
30	1.500000e+00	1.104692e+05	
31	1.550000e+00	1.169293e+05	
32	1.600000e+00	1.232209e+05	
33	1.650000e+00	1.293465e+05	
34	1.700000e+00	1.353098e+05	
35	1.750000e+00	1.411149e+05	
36	1.800000e+00	1.467662e+05	
37	1.850000e+00	1.522684e+05	
38	1.900000e+00	1.576260e+05	
39	1.950000e+00	1.628438e+05	
40	2.000000e+00	1.679261e+05	
41	2.050000e+00	1.728773e+05	
42	2.100000e+00	1.777019e+05	
43	2.150000e+00	1.824038e+05	
44	2.200000e+00	1.869872e+05	
45	2.250000e+00	1.914560e+05	
46	2.300000e+00	1.958138e+05	
47	2.350000e+00	2.000642e+05	
48	2.400000e+00	2.042109e+05	
49	2.450000e+00	2.082571e+05	
50	2.500000e+00	2.122060e+05	
51	2.550000e+00	2.160608e+05	
52	2.600000e+00	2.198244e+05	
53	2.650000e+00	2.234998e+05	
54	2.700000e+00	2.270896e+05	

Index   v-sweep         rds             
--------------------------------------------------------------------------------
55	2.750000e+00	2.305966e+05	
56	2.800000e+00	2.340234e+05	
57	2.850000e+00	2.373723e+05	
58	2.900000e+00	2.406458e+05	
59	2.950000e+00	2.438461e+05	
60	3.000000e+00	2.469755e+05	
61	3.050000e+00	2.500361e+05	
62	3.100000e+00	2.530299e+05	
63	3.150000e+00	2.559588e+05	
64	3.200000e+00	2.588249e+05	
65	3.250000e+00	2.616298e+05	
66	3.300000e+00	2.643755e+05	
67	3.350000e+00	2.670635e+05	
68	3.400000e+00	2.696955e+05	
69	3.450000e+00	2.722731e+05	
70	3.500000e+00	2.747978e+05	
71	3.550000e+00	2.772710e+05	
72	3.600000e+00	2.796943e+05	
73	3.650000e+00	2.820690e+05	
74	3.700000e+00	2.843963e+05	
75	3.750000e+00	2.866776e+05	
76	3.800000e+00	2.889142e+05	
77	3.850000e+00	2.911071e+05	
78	3.900000e+00	2.932576e+05	
79	3.950000e+00	2.953667e+05	
80	4.000000e+00	2.974356e+05	
81	4.050000e+00	2.994653e+05	
82	4.100000e+00	3.014568e+05	
83	4.150000e+00	3.034110e+05	
84	4.200000e+00	3.053290e+05	
85	4.250000e+00	3.072116e+05	
86	4.300000e+00	3.090598e+05	
87	4.350000e+00	3.108743e+05	
88	4.400000e+00	3.126560e+05	
89	4.450000e+00	3.144057e+05	
90	4.500000e+00	3.161242e+05	
91	4.550000e+00	3.178123e+05	
92	4.600000e+00	3.194707e+05	
93	4.650000e+00	3.211000e+05	
94	4.700000e+00	3.227010e+05	
95	4.750000e+00	3.242744e+05	
96	4.800000e+00	3.258207e+05	
97	4.850000e+00	3.273407e+05	
98	4.900000e+00	3.288349e+05	
99	4.950000e+00	3.303040e+05	
100	5.000000e+00	3.317484e+05	
101	5.050000e+00	3.331688e+05	
102	5.100000e+00	3.345657e+05	
103	5.150000e+00	3.359396e+05	
104	5.200000e+00	3.372911e+05	
105	5.250000e+00	3.386206e+05	
106	5.300000e+00	3.399286e+05	
107	5.350000e+00	3.412156e+05	
108	5.400000e+00	3.424821e+05	
109	5.450000e+00	3.437284e+05	
110	5.500000e+00	3.449551e+05	
111	5.550000e+00	3.461625e+05	
112	5.600000e+00	3.473511e+05	

Index   v-sweep         rds             
--------------------------------------------------------------------------------
113	5.650000e+00	3.485212e+05	
114	5.700000e+00	3.496733e+05	
115	5.750000e+00	3.508077e+05	
116	5.800000e+00	3.519247e+05	
117	5.850000e+00	3.530248e+05	
118	5.900000e+00	3.541083e+05	
119	5.950000e+00	3.551755e+05	
120	6.000000e+00	3.562267e+05	
121	6.050000e+00	3.572624e+05	
122	6.100000e+00	3.582827e+05	
123	6.150000e+00	3.592880e+05	
124	6.200000e+00	3.602786e+05	
125	6.250000e+00	3.612548e+05	
126	6.300000e+00	3.622169e+05	
127	6.350000e+00	3.631651e+05	
128	6.400000e+00	3.640997e+05	
129	6.450000e+00	3.650210e+05	
130	6.500000e+00	3.659292e+05	
131	6.550000e+00	3.668246e+05	
132	6.600000e+00	3.677074e+05	
Reset re-loads circuit ***************************

Circuit: ***************************

Doing analysis at TEMP = 125.000000 and TNOM = 125.000000


No. of Data Rows : 133
                          ***************************
                          DC transfer characteristic  Mon Jan  9 13:58:06  2023
--------------------------------------------------------------------------------
Index   v-sweep         rds             
--------------------------------------------------------------------------------
0	0.000000e+00	9.538238e+03	
1	5.000000e-02	9.790804e+03	
2	1.000000e-01	1.005376e+04	
3	1.500000e-01	1.032774e+04	
4	2.000000e-01	1.061345e+04	
5	2.500000e-01	1.091166e+04	
6	3.000000e-01	1.122320e+04	
7	3.500000e-01	1.154896e+04	
8	4.000000e-01	1.188993e+04	
9	4.500000e-01	1.224720e+04	
10	5.000000e-01	1.262195e+04	
11	5.500000e-01	1.301549e+04	
12	6.000000e-01	1.342924e+04	
13	6.500000e-01	1.386480e+04	
14	7.000000e-01	1.432392e+04	
15	7.500000e-01	1.480853e+04	
16	8.000000e-01	1.532082e+04	
17	8.500000e-01	1.586318e+04	
18	9.000000e-01	1.643833e+04	
19	9.500000e-01	1.704930e+04	
20	1.000000e+00	1.769950e+04	
21	1.050000e+00	1.839283e+04	
22	1.100000e+00	1.913371e+04	
23	1.150000e+00	1.992728e+04	
24	1.200000e+00	2.077962e+04	
25	1.250000e+00	2.169817e+04	
26	1.300000e+00	2.269277e+04	
27	1.350000e+00	2.377790e+04	
28	1.400000e+00	2.497832e+04	
29	1.450000e+00	2.634196e+04	
30	1.500000e+00	2.796325e+04	
31	1.550000e+00	2.999715e+04	
32	1.600000e+00	3.259623e+04	
33	1.650000e+00	3.577463e+04	
34	1.700000e+00	3.938853e+04	
35	1.750000e+00	4.325790e+04	
36	1.800000e+00	4.724967e+04	
37	1.850000e+00	5.128376e+04	
38	1.900000e+00	5.531521e+04	
39	1.950000e+00	5.931896e+04	
40	2.000000e+00	6.328093e+04	
41	2.050000e+00	6.719311e+04	
42	2.100000e+00	7.105096e+04	
43	2.150000e+00	7.485200e+04	
44	2.200000e+00	7.859499e+04	
45	2.250000e+00	8.227947e+04	
46	2.300000e+00	8.590550e+04	
47	2.350000e+00	8.947346e+04	
48	2.400000e+00	9.298394e+04	
49	2.450000e+00	9.643770e+04	
50	2.500000e+00	9.983557e+04	
51	2.550000e+00	1.031785e+05	
52	2.600000e+00	1.064673e+05	
53	2.650000e+00	1.097031e+05	
54	2.700000e+00	1.128869e+05	

Index   v-sweep         rds             
--------------------------------------------------------------------------------
55	2.750000e+00	1.160195e+05	
56	2.800000e+00	1.191021e+05	
57	2.850000e+00	1.221356e+05	
58	2.900000e+00	1.251210e+05	
59	2.950000e+00	1.280591e+05	
60	3.000000e+00	1.309511e+05	
61	3.050000e+00	1.337977e+05	
62	3.100000e+00	1.366000e+05	
63	3.150000e+00	1.393588e+05	
64	3.200000e+00	1.420750e+05	
65	3.250000e+00	1.447495e+05	
66	3.300000e+00	1.473830e+05	
67	3.350000e+00	1.499765e+05	
68	3.400000e+00	1.525307e+05	
69	3.450000e+00	1.550464e+05	
70	3.500000e+00	1.575244e+05	
71	3.550000e+00	1.599655e+05	
72	3.600000e+00	1.623703e+05	
73	3.650000e+00	1.647396e+05	
74	3.700000e+00	1.670741e+05	
75	3.750000e+00	1.693746e+05	
76	3.800000e+00	1.716415e+05	
77	3.850000e+00	1.738757e+05	
78	3.900000e+00	1.760778e+05	
79	3.950000e+00	1.782483e+05	
80	4.000000e+00	1.803879e+05	
81	4.050000e+00	1.824972e+05	
82	4.100000e+00	1.845768e+05	
83	4.150000e+00	1.866272e+05	
84	4.200000e+00	1.886490e+05	
85	4.250000e+00	1.906427e+05	
86	4.300000e+00	1.926089e+05	
87	4.350000e+00	1.945481e+05	
88	4.400000e+00	1.964608e+05	
89	4.450000e+00	1.983474e+05	
90	4.500000e+00	2.002086e+05	
91	4.550000e+00	2.020446e+05	
92	4.600000e+00	2.038560e+05	
93	4.650000e+00	2.056433e+05	
94	4.700000e+00	2.074069e+05	
95	4.750000e+00	2.091472e+05	
96	4.800000e+00	2.108647e+05	
97	4.850000e+00	2.125597e+05	
98	4.900000e+00	2.142326e+05	
99	4.950000e+00	2.158839e+05	
100	5.000000e+00	2.175139e+05	
101	5.050000e+00	2.191231e+05	
102	5.100000e+00	2.207117e+05	
103	5.150000e+00	2.222801e+05	
104	5.200000e+00	2.238287e+05	
105	5.250000e+00	2.253579e+05	
106	5.300000e+00	2.268679e+05	
107	5.350000e+00	2.283591e+05	
108	5.400000e+00	2.298318e+05	
109	5.450000e+00	2.312864e+05	
110	5.500000e+00	2.327231e+05	
111	5.550000e+00	2.341422e+05	
112	5.600000e+00	2.355441e+05	

Index   v-sweep         rds             
--------------------------------------------------------------------------------
113	5.650000e+00	2.369290e+05	
114	5.700000e+00	2.382972e+05	
115	5.750000e+00	2.396490e+05	
116	5.800000e+00	2.409846e+05	
117	5.850000e+00	2.423044e+05	
118	5.900000e+00	2.436085e+05	
119	5.950000e+00	2.448973e+05	
120	6.000000e+00	2.461710e+05	
121	6.050000e+00	2.474298e+05	
122	6.100000e+00	2.486740e+05	
123	6.150000e+00	2.499037e+05	
124	6.200000e+00	2.511193e+05	
125	6.250000e+00	2.523210e+05	
126	6.300000e+00	2.535090e+05	
127	6.350000e+00	2.546834e+05	
128	6.400000e+00	2.558446e+05	
129	6.450000e+00	2.569926e+05	
130	6.500000e+00	2.581278e+05	
131	6.550000e+00	2.592503e+05	
132	6.600000e+00	2.603603e+05	
Reset re-loads circuit ***************************

Circuit: ***************************

Doing analysis at TEMP = 125.000000 and TNOM = 125.000000


No. of Data Rows : 133
                          ***************************
                          DC transfer characteristic  Mon Jan  9 13:58:06  2023
--------------------------------------------------------------------------------
Index   v-sweep         rds             
--------------------------------------------------------------------------------
0	0.000000e+00	7.901881e+03	
1	5.000000e-02	8.059140e+03	
2	1.000000e-01	8.220925e+03	
3	1.500000e-01	8.387430e+03	
4	2.000000e-01	8.558861e+03	
5	2.500000e-01	8.735436e+03	
6	3.000000e-01	8.917387e+03	
7	3.500000e-01	9.104958e+03	
8	4.000000e-01	9.298411e+03	
9	4.500000e-01	9.498021e+03	
10	5.000000e-01	9.704084e+03	
11	5.500000e-01	9.916913e+03	
12	6.000000e-01	1.013684e+04	
13	6.500000e-01	1.036423e+04	
14	7.000000e-01	1.059945e+04	
15	7.500000e-01	1.084292e+04	
16	8.000000e-01	1.109507e+04	
17	8.500000e-01	1.135637e+04	
18	9.000000e-01	1.162732e+04	
19	9.500000e-01	1.190846e+04	
20	1.000000e+00	1.220037e+04	
21	1.050000e+00	1.250366e+04	
22	1.100000e+00	1.281903e+04	
23	1.150000e+00	1.314719e+04	
24	1.200000e+00	1.348893e+04	
25	1.250000e+00	1.384511e+04	
26	1.300000e+00	1.421666e+04	
27	1.350000e+00	1.460461e+04	
28	1.400000e+00	1.501007e+04	
29	1.450000e+00	1.543429e+04	
30	1.500000e+00	1.587869e+04	
31	1.550000e+00	1.634488e+04	
32	1.600000e+00	1.683480e+04	
33	1.650000e+00	1.735089e+04	
34	1.700000e+00	1.789646e+04	
35	1.750000e+00	1.847651e+04	
36	1.800000e+00	1.909935e+04	
37	1.850000e+00	1.978024e+04	
38	1.900000e+00	2.054842e+04	
39	1.950000e+00	2.145868e+04	
40	2.000000e+00	2.260026e+04	
41	2.050000e+00	2.407821e+04	
42	2.100000e+00	2.595137e+04	
43	2.150000e+00	2.818486e+04	
44	2.200000e+00	3.068070e+04	
45	2.250000e+00	3.333867e+04	
46	2.300000e+00	3.608537e+04	
47	2.350000e+00	3.887422e+04	
48	2.400000e+00	4.167712e+04	
49	2.450000e+00	4.447722e+04	
50	2.500000e+00	4.726435e+04	
51	2.550000e+00	5.003222e+04	
52	2.600000e+00	5.277690e+04	
53	2.650000e+00	5.549591e+04	
54	2.700000e+00	5.818769e+04	

Index   v-sweep         rds             
--------------------------------------------------------------------------------
55	2.750000e+00	6.085127e+04	
56	2.800000e+00	6.348610e+04	
57	2.850000e+00	6.609187e+04	
58	2.900000e+00	6.866848e+04	
59	2.950000e+00	7.121595e+04	
60	3.000000e+00	7.373440e+04	
61	3.050000e+00	7.622402e+04	
62	3.100000e+00	7.868504e+04	
63	3.150000e+00	8.111773e+04	
64	3.200000e+00	8.352239e+04	
65	3.250000e+00	8.589935e+04	
66	3.300000e+00	8.824893e+04	
67	3.350000e+00	9.057147e+04	
68	3.400000e+00	9.286733e+04	
69	3.450000e+00	9.513685e+04	
70	3.500000e+00	9.738039e+04	
71	3.550000e+00	9.959830e+04	
72	3.600000e+00	1.017909e+05	
73	3.650000e+00	1.039587e+05	
74	3.700000e+00	1.061018e+05	
75	3.750000e+00	1.082208e+05	
76	3.800000e+00	1.103159e+05	
77	3.850000e+00	1.123874e+05	
78	3.900000e+00	1.144357e+05	
79	3.950000e+00	1.164612e+05	
80	4.000000e+00	1.184642e+05	
81	4.050000e+00	1.204450e+05	
82	4.100000e+00	1.224039e+05	
83	4.150000e+00	1.243412e+05	
84	4.200000e+00	1.262573e+05	
85	4.250000e+00	1.281524e+05	
86	4.300000e+00	1.300269e+05	
87	4.350000e+00	1.318810e+05	
88	4.400000e+00	1.337151e+05	
89	4.450000e+00	1.355294e+05	
90	4.500000e+00	1.373242e+05	
91	4.550000e+00	1.390999e+05	
92	4.600000e+00	1.408566e+05	
93	4.650000e+00	1.425947e+05	
94	4.700000e+00	1.443143e+05	
95	4.750000e+00	1.460159e+05	
96	4.800000e+00	1.476996e+05	
97	4.850000e+00	1.493656e+05	
98	4.900000e+00	1.510143e+05	
99	4.950000e+00	1.526459e+05	
100	5.000000e+00	1.542606e+05	
101	5.050000e+00	1.558587e+05	
102	5.100000e+00	1.574403e+05	
103	5.150000e+00	1.590058e+05	
104	5.200000e+00	1.605553e+05	
105	5.250000e+00	1.620890e+05	
106	5.300000e+00	1.636073e+05	
107	5.350000e+00	1.651102e+05	
108	5.400000e+00	1.665981e+05	
109	5.450000e+00	1.680710e+05	
110	5.500000e+00	1.695293e+05	
111	5.550000e+00	1.709731e+05	
112	5.600000e+00	1.724026e+05	

Index   v-sweep         rds             
--------------------------------------------------------------------------------
113	5.650000e+00	1.738180e+05	
114	5.700000e+00	1.752195e+05	
115	5.750000e+00	1.766073e+05	
116	5.800000e+00	1.779816e+05	
117	5.850000e+00	1.793425e+05	
118	5.900000e+00	1.806902e+05	
119	5.950000e+00	1.820250e+05	
120	6.000000e+00	1.833469e+05	
121	6.050000e+00	1.846562e+05	
122	6.100000e+00	1.859529e+05	
123	6.150000e+00	1.872374e+05	
124	6.200000e+00	1.885097e+05	
125	6.250000e+00	1.897699e+05	
126	6.300000e+00	1.910184e+05	
127	6.350000e+00	1.922551e+05	
128	6.400000e+00	1.934803e+05	
129	6.450000e+00	1.946941e+05	
130	6.500000e+00	1.958966e+05	
131	6.550000e+00	1.970880e+05	
132	6.600000e+00	1.982685e+05	
Reset re-loads circuit ***************************

Circuit: ***************************

Doing analysis at TEMP = 125.000000 and TNOM = 125.000000


No. of Data Rows : 133
                          ***************************
                          DC transfer characteristic  Mon Jan  9 13:58:06  2023
--------------------------------------------------------------------------------
Index   v-sweep         rds             
--------------------------------------------------------------------------------
0	0.000000e+00	7.072686e+03	
1	5.000000e-02	7.185396e+03	
2	1.000000e-01	7.300573e+03	
3	1.500000e-01	7.418298e+03	
4	2.000000e-01	7.538653e+03	
5	2.500000e-01	7.661727e+03	
6	3.000000e-01	7.787608e+03	
7	3.500000e-01	7.916394e+03	
8	4.000000e-01	8.048183e+03	
9	4.500000e-01	8.183079e+03	
10	5.000000e-01	8.321192e+03	
11	5.500000e-01	8.462634e+03	
12	6.000000e-01	8.607527e+03	
13	6.500000e-01	8.755996e+03	
14	7.000000e-01	8.908172e+03	
15	7.500000e-01	9.064193e+03	
16	8.000000e-01	9.224206e+03	
17	8.500000e-01	9.388361e+03	
18	9.000000e-01	9.556821e+03	
19	9.500000e-01	9.729754e+03	
20	1.000000e+00	9.907338e+03	
21	1.050000e+00	1.008976e+04	
22	1.100000e+00	1.027722e+04	
23	1.150000e+00	1.046992e+04	
24	1.200000e+00	1.066809e+04	
25	1.250000e+00	1.087196e+04	
26	1.300000e+00	1.108177e+04	
27	1.350000e+00	1.129779e+04	
28	1.400000e+00	1.152029e+04	
29	1.450000e+00	1.174957e+04	
30	1.500000e+00	1.198593e+04	
31	1.550000e+00	1.222972e+04	
32	1.600000e+00	1.248128e+04	
33	1.650000e+00	1.274100e+04	
34	1.700000e+00	1.300928e+04	
35	1.750000e+00	1.328657e+04	
36	1.800000e+00	1.357335e+04	
37	1.850000e+00	1.387015e+04	
38	1.900000e+00	1.417758e+04	
39	1.950000e+00	1.449633e+04	
40	2.000000e+00	1.482724e+04	
41	2.050000e+00	1.517137e+04	
42	2.100000e+00	1.553016e+04	
43	2.150000e+00	1.590573e+04	
44	2.200000e+00	1.630141e+04	
45	2.250000e+00	1.672290e+04	
46	2.300000e+00	1.718036e+04	
47	2.350000e+00	1.769241e+04	
48	2.400000e+00	1.829221e+04	
49	2.450000e+00	1.903327e+04	
50	2.500000e+00	1.998493e+04	
51	2.550000e+00	2.120569e+04	
52	2.600000e+00	2.270685e+04	
53	2.650000e+00	2.444604e+04	
54	2.700000e+00	2.635637e+04	

Index   v-sweep         rds             
--------------------------------------------------------------------------------
55	2.750000e+00	2.837626e+04	
56	2.800000e+00	3.046066e+04	
57	2.850000e+00	3.257993e+04	
58	2.900000e+00	3.471527e+04	
59	2.950000e+00	3.685491e+04	
60	3.000000e+00	3.899134e+04	
61	3.050000e+00	4.111974e+04	
62	3.100000e+00	4.323693e+04	
63	3.150000e+00	4.534081e+04	
64	3.200000e+00	4.742997e+04	
65	3.250000e+00	4.950345e+04	
66	3.300000e+00	5.156059e+04	
67	3.350000e+00	5.360099e+04	
68	3.400000e+00	5.562436e+04	
69	3.450000e+00	5.763055e+04	
70	3.500000e+00	5.961947e+04	
71	3.550000e+00	6.159110e+04	
72	3.600000e+00	6.354548e+04	
73	3.650000e+00	6.548264e+04	
74	3.700000e+00	6.740269e+04	
75	3.750000e+00	6.930572e+04	
76	3.800000e+00	7.119185e+04	
77	3.850000e+00	7.306121e+04	
78	3.900000e+00	7.491394e+04	
79	3.950000e+00	7.675018e+04	
80	4.000000e+00	7.857010e+04	
81	4.050000e+00	8.037383e+04	
82	4.100000e+00	8.216155e+04	
83	4.150000e+00	8.393341e+04	
84	4.200000e+00	8.568958e+04	
85	4.250000e+00	8.743022e+04	
86	4.300000e+00	8.915548e+04	
87	4.350000e+00	9.086555e+04	
88	4.400000e+00	9.256057e+04	
89	4.450000e+00	9.424071e+04	
90	4.500000e+00	9.590614e+04	
91	4.550000e+00	9.755701e+04	
92	4.600000e+00	9.919349e+04	
93	4.650000e+00	1.008157e+05	
94	4.700000e+00	1.024239e+05	
95	4.750000e+00	1.040181e+05	
96	4.800000e+00	1.055986e+05	
97	4.850000e+00	1.071655e+05	
98	4.900000e+00	1.087189e+05	
99	4.950000e+00	1.102590e+05	
100	5.000000e+00	1.117859e+05	
101	5.050000e+00	1.132998e+05	
102	5.100000e+00	1.148009e+05	
103	5.150000e+00	1.162892e+05	
104	5.200000e+00	1.177650e+05	
105	5.250000e+00	1.192283e+05	
106	5.300000e+00	1.206793e+05	
107	5.350000e+00	1.221181e+05	
108	5.400000e+00	1.235449e+05	
109	5.450000e+00	1.249598e+05	
110	5.500000e+00	1.263630e+05	
111	5.550000e+00	1.277545e+05	
112	5.600000e+00	1.291346e+05	

Index   v-sweep         rds             
--------------------------------------------------------------------------------
113	5.650000e+00	1.305032e+05	
114	5.700000e+00	1.318606e+05	
115	5.750000e+00	1.332069e+05	
116	5.800000e+00	1.345422e+05	
117	5.850000e+00	1.358666e+05	
118	5.900000e+00	1.371802e+05	
119	5.950000e+00	1.384832e+05	
120	6.000000e+00	1.397757e+05	
121	6.050000e+00	1.410578e+05	
122	6.100000e+00	1.423295e+05	
123	6.150000e+00	1.435911e+05	
124	6.200000e+00	1.448426e+05	
125	6.250000e+00	1.460842e+05	
126	6.300000e+00	1.473159e+05	
127	6.350000e+00	1.485378e+05	
128	6.400000e+00	1.497501e+05	
129	6.450000e+00	1.509529e+05	
130	6.500000e+00	1.521462e+05	
131	6.550000e+00	1.533302e+05	
132	6.600000e+00	1.545050e+05	
Reset re-loads circuit ***************************

Circuit: ***************************

Doing analysis at TEMP = 125.000000 and TNOM = 125.000000


No. of Data Rows : 133
                          ***************************
                          DC transfer characteristic  Mon Jan  9 13:58:06  2023
--------------------------------------------------------------------------------
Index   v-sweep         rds             
--------------------------------------------------------------------------------
0	0.000000e+00	6.610327e+03	
1	5.000000e-02	6.697648e+03	
2	1.000000e-01	6.786493e+03	
3	1.500000e-01	6.876902e+03	
4	2.000000e-01	6.968914e+03	
5	2.500000e-01	7.062571e+03	
6	3.000000e-01	7.157916e+03	
7	3.500000e-01	7.254995e+03	
8	4.000000e-01	7.353853e+03	
9	4.500000e-01	7.454539e+03	
10	5.000000e-01	7.557102e+03	
11	5.500000e-01	7.661595e+03	
12	6.000000e-01	7.768070e+03	
13	6.500000e-01	7.876583e+03	
14	7.000000e-01	7.987193e+03	
15	7.500000e-01	8.099959e+03	
16	8.000000e-01	8.214944e+03	
17	8.500000e-01	8.332211e+03	
18	9.000000e-01	8.451829e+03	
19	9.500000e-01	8.573868e+03	
20	1.000000e+00	8.698400e+03	
21	1.050000e+00	8.825501e+03	
22	1.100000e+00	8.955251e+03	
23	1.150000e+00	9.087731e+03	
24	1.200000e+00	9.223027e+03	
25	1.250000e+00	9.361228e+03	
26	1.300000e+00	9.502428e+03	
27	1.350000e+00	9.646723e+03	
28	1.400000e+00	9.794215e+03	
29	1.450000e+00	9.945010e+03	
30	1.500000e+00	1.009922e+04	
31	1.550000e+00	1.025696e+04	
32	1.600000e+00	1.041834e+04	
33	1.650000e+00	1.058351e+04	
34	1.700000e+00	1.075258e+04	
35	1.750000e+00	1.092570e+04	
36	1.800000e+00	1.110302e+04	
37	1.850000e+00	1.128468e+04	
38	1.900000e+00	1.147085e+04	
39	1.950000e+00	1.166171e+04	
40	2.000000e+00	1.185742e+04	
41	2.050000e+00	1.205818e+04	
42	2.100000e+00	1.226420e+04	
43	2.150000e+00	1.247569e+04	
44	2.200000e+00	1.269289e+04	
45	2.250000e+00	1.291607e+04	
46	2.300000e+00	1.314551e+04	
47	2.350000e+00	1.338155e+04	
48	2.400000e+00	1.362459e+04	
49	2.450000e+00	1.387514e+04	
50	2.500000e+00	1.413382e+04	
51	2.550000e+00	1.440156e+04	
52	2.600000e+00	1.467967e+04	
53	2.650000e+00	1.497024e+04	
54	2.700000e+00	1.527670e+04	

Index   v-sweep         rds             
--------------------------------------------------------------------------------
55	2.750000e+00	1.560493e+04	
56	2.800000e+00	1.596517e+04	
57	2.850000e+00	1.637515e+04	
58	2.900000e+00	1.686402e+04	
59	2.950000e+00	1.747417e+04	
60	3.000000e+00	1.825458e+04	
61	3.050000e+00	1.924154e+04	
62	3.100000e+00	2.043845e+04	
63	3.150000e+00	2.181508e+04	
64	3.200000e+00	2.332553e+04	
65	3.250000e+00	2.492631e+04	
66	3.300000e+00	2.658409e+04	
67	3.350000e+00	2.827582e+04	
68	3.400000e+00	2.998630e+04	
69	3.450000e+00	3.170559e+04	
70	3.500000e+00	3.342718e+04	
71	3.550000e+00	3.514677e+04	
72	3.600000e+00	3.686145e+04	
73	3.650000e+00	3.856923e+04	
74	3.700000e+00	4.026874e+04	
75	3.750000e+00	4.195901e+04	
76	3.800000e+00	4.363937e+04	
77	3.850000e+00	4.530933e+04	
78	3.900000e+00	4.696855e+04	
79	3.950000e+00	4.861679e+04	
80	4.000000e+00	5.025389e+04	
81	4.050000e+00	5.187976e+04	
82	4.100000e+00	5.349431e+04	
83	4.150000e+00	5.509754e+04	
84	4.200000e+00	5.668942e+04	
85	4.250000e+00	5.826997e+04	
86	4.300000e+00	5.983923e+04	
87	4.350000e+00	6.139724e+04	
88	4.400000e+00	6.294405e+04	
89	4.450000e+00	6.447972e+04	
90	4.500000e+00	6.600431e+04	
91	4.550000e+00	6.751789e+04	
92	4.600000e+00	6.902055e+04	
93	4.650000e+00	7.051235e+04	
94	4.700000e+00	7.199338e+04	
95	4.750000e+00	7.346372e+04	
96	4.800000e+00	7.492345e+04	
97	4.850000e+00	7.637267e+04	
98	4.900000e+00	7.781145e+04	
99	4.950000e+00	7.923988e+04	
100	5.000000e+00	8.065805e+04	
101	5.050000e+00	8.206605e+04	
102	5.100000e+00	8.346396e+04	
103	5.150000e+00	8.485187e+04	
104	5.200000e+00	8.622988e+04	
105	5.250000e+00	8.759805e+04	
106	5.300000e+00	8.895650e+04	
107	5.350000e+00	9.030529e+04	
108	5.400000e+00	9.164451e+04	
109	5.450000e+00	9.297426e+04	
110	5.500000e+00	9.429462e+04	
111	5.550000e+00	9.560566e+04	
112	5.600000e+00	9.690749e+04	

Index   v-sweep         rds             
--------------------------------------------------------------------------------
113	5.650000e+00	9.820017e+04	
114	5.700000e+00	9.948379e+04	
115	5.750000e+00	1.007584e+05	
116	5.800000e+00	1.020242e+05	
117	5.850000e+00	1.032811e+05	
118	5.900000e+00	1.045293e+05	
119	5.950000e+00	1.057689e+05	
120	6.000000e+00	1.069998e+05	
121	6.050000e+00	1.082223e+05	
122	6.100000e+00	1.094364e+05	
123	6.150000e+00	1.106421e+05	
124	6.200000e+00	1.118395e+05	
125	6.250000e+00	1.130288e+05	
126	6.300000e+00	1.142099e+05	
127	6.350000e+00	1.153830e+05	
128	6.400000e+00	1.165481e+05	
129	6.450000e+00	1.177054e+05	
130	6.500000e+00	1.188547e+05	
131	6.550000e+00	1.199964e+05	
132	6.600000e+00	1.211303e+05	
Reset re-loads circuit ***************************

Circuit: ***************************

Note: No ".plot", ".print", or ".fourier" lines; no simulations run
