
Note: Compatibility modes selected: hs

Warning: m=xx on .subckt line will override multiplier m hierarchy!


Circuit: ***************************

Doing analysis at TEMP = 25.000000 and TNOM = 25.000000


No. of Data Rows : 133
                          ***************************
                          DC transfer characteristic  Mon Jan  9 13:58:05  2023
--------------------------------------------------------------------------------
Index   v-sweep         rds             
--------------------------------------------------------------------------------
0	0.000000e+00	3.336063e+04	
1	5.000000e-02	3.928344e+04	
2	1.000000e-01	4.770413e+04	
3	1.500000e-01	6.060075e+04	
4	2.000000e-01	8.267838e+04	
5	2.500000e-01	1.275685e+05	
6	3.000000e-01	2.399774e+05	
7	3.500000e-01	4.875724e+05	
8	4.000000e-01	7.609092e+05	
9	4.500000e-01	9.682347e+05	
10	5.000000e-01	1.139156e+06	
11	5.500000e-01	1.295611e+06	
12	6.000000e-01	1.445906e+06	
13	6.500000e-01	1.593249e+06	
14	7.000000e-01	1.739016e+06	
15	7.500000e-01	1.883864e+06	
16	8.000000e-01	2.028136e+06	
17	8.500000e-01	2.172021e+06	
18	9.000000e-01	2.315635e+06	
19	9.500000e-01	2.459046e+06	
20	1.000000e+00	2.602302e+06	
21	1.050000e+00	2.745433e+06	
22	1.100000e+00	2.888460e+06	
23	1.150000e+00	3.031399e+06	
24	1.200000e+00	3.174261e+06	
25	1.250000e+00	3.317053e+06	
26	1.300000e+00	3.459782e+06	
27	1.350000e+00	3.602452e+06	
28	1.400000e+00	3.745068e+06	
29	1.450000e+00	3.887632e+06	
30	1.500000e+00	4.030146e+06	
31	1.550000e+00	4.172613e+06	
32	1.600000e+00	4.315033e+06	
33	1.650000e+00	4.457408e+06	
34	1.700000e+00	4.599739e+06	
35	1.750000e+00	4.742026e+06	
36	1.800000e+00	4.884271e+06	
37	1.850000e+00	5.026474e+06	
38	1.900000e+00	5.168635e+06	
39	1.950000e+00	5.310755e+06	
40	2.000000e+00	5.452834e+06	
41	2.050000e+00	5.594873e+06	
42	2.100000e+00	5.736871e+06	
43	2.150000e+00	5.878830e+06	
44	2.200000e+00	6.020748e+06	
45	2.250000e+00	6.162626e+06	
46	2.300000e+00	6.304465e+06	
47	2.350000e+00	6.446265e+06	
48	2.400000e+00	6.588025e+06	
49	2.450000e+00	6.729745e+06	
50	2.500000e+00	6.871427e+06	
51	2.550000e+00	7.013069e+06	
52	2.600000e+00	7.154672e+06	
53	2.650000e+00	7.296236e+06	
54	2.700000e+00	7.437761e+06	

Index   v-sweep         rds             
--------------------------------------------------------------------------------
55	2.750000e+00	7.579247e+06	
56	2.800000e+00	7.720694e+06	
57	2.850000e+00	7.862101e+06	
58	2.900000e+00	8.003470e+06	
59	2.950000e+00	8.144801e+06	
60	3.000000e+00	8.286092e+06	
61	3.050000e+00	8.427344e+06	
62	3.100000e+00	8.568557e+06	
63	3.150000e+00	8.709732e+06	
64	3.200000e+00	8.850868e+06	
65	3.250000e+00	8.991964e+06	
66	3.300000e+00	9.133022e+06	
67	3.350000e+00	9.274042e+06	
68	3.400000e+00	9.415022e+06	
69	3.450000e+00	9.555963e+06	
70	3.500000e+00	9.696866e+06	
71	3.550000e+00	9.837730e+06	
72	3.600000e+00	9.978555e+06	
73	3.650000e+00	1.011934e+07	
74	3.700000e+00	1.026009e+07	
75	3.750000e+00	1.040080e+07	
76	3.800000e+00	1.054147e+07	
77	3.850000e+00	1.068210e+07	
78	3.900000e+00	1.082269e+07	
79	3.950000e+00	1.096324e+07	
80	4.000000e+00	1.110376e+07	
81	4.050000e+00	1.124423e+07	
82	4.100000e+00	1.138467e+07	
83	4.150000e+00	1.152507e+07	
84	4.200000e+00	1.166542e+07	
85	4.250000e+00	1.180574e+07	
86	4.300000e+00	1.194603e+07	
87	4.350000e+00	1.208627e+07	
88	4.400000e+00	1.222647e+07	
89	4.450000e+00	1.236663e+07	
90	4.500000e+00	1.250676e+07	
91	4.550000e+00	1.264685e+07	
92	4.600000e+00	1.278689e+07	
93	4.650000e+00	1.292690e+07	
94	4.700000e+00	1.306687e+07	
95	4.750000e+00	1.320680e+07	
96	4.800000e+00	1.334670e+07	
97	4.850000e+00	1.348655e+07	
98	4.900000e+00	1.362636e+07	
99	4.950000e+00	1.376614e+07	
100	5.000000e+00	1.390587e+07	
101	5.050000e+00	1.404557e+07	
102	5.100000e+00	1.418523e+07	
103	5.150000e+00	1.432485e+07	
104	5.200000e+00	1.446443e+07	
105	5.250000e+00	1.460397e+07	
106	5.300000e+00	1.474348e+07	
107	5.350000e+00	1.488294e+07	
108	5.400000e+00	1.502236e+07	
109	5.450000e+00	1.516175e+07	
110	5.500000e+00	1.530110e+07	
111	5.550000e+00	1.544041e+07	
112	5.600000e+00	1.557968e+07	

Index   v-sweep         rds             
--------------------------------------------------------------------------------
113	5.650000e+00	1.571891e+07	
114	5.700000e+00	1.585810e+07	
115	5.750000e+00	1.599725e+07	
116	5.800000e+00	1.613636e+07	
117	5.850000e+00	1.627544e+07	
118	5.900000e+00	1.641447e+07	
119	5.950000e+00	1.655347e+07	
120	6.000000e+00	1.669243e+07	
121	6.050000e+00	1.683135e+07	
122	6.100000e+00	1.697023e+07	
123	6.150000e+00	1.710907e+07	
124	6.200000e+00	1.724787e+07	
125	6.250000e+00	1.738663e+07	
126	6.300000e+00	1.752536e+07	
127	6.350000e+00	1.766404e+07	
128	6.400000e+00	1.780269e+07	
129	6.450000e+00	1.794129e+07	
130	6.500000e+00	1.807986e+07	
131	6.550000e+00	1.821839e+07	
132	6.600000e+00	1.835688e+07	
Reset re-loads circuit ***************************

Circuit: ***************************

Doing analysis at TEMP = 25.000000 and TNOM = 25.000000


No. of Data Rows : 133
                          ***************************
                          DC transfer characteristic  Mon Jan  9 13:58:05  2023
--------------------------------------------------------------------------------
Index   v-sweep         rds             
--------------------------------------------------------------------------------
0	0.000000e+00	8.506450e+03	
1	5.000000e-02	8.838581e+03	
2	1.000000e-01	9.195460e+03	
3	1.500000e-01	9.579960e+03	
4	2.000000e-01	9.995410e+03	
5	2.500000e-01	1.044570e+04	
6	3.000000e-01	1.093541e+04	
7	3.500000e-01	1.146993e+04	
8	4.000000e-01	1.205571e+04	
9	4.500000e-01	1.270049e+04	
10	5.000000e-01	1.341363e+04	
11	5.500000e-01	1.420661e+04	
12	6.000000e-01	1.509361e+04	
13	6.500000e-01	1.609237e+04	
14	7.000000e-01	1.722538e+04	
15	7.500000e-01	1.852157e+04	
16	8.000000e-01	2.001876e+04	
17	8.500000e-01	2.176734e+04	
18	9.000000e-01	2.383578e+04	
19	9.500000e-01	2.631922e+04	
20	1.000000e+00	2.935281e+04	
21	1.050000e+00	3.313187e+04	
22	1.100000e+00	3.793803e+04	
23	1.150000e+00	4.415120e+04	
24	1.200000e+00	5.216561e+04	
25	1.250000e+00	6.209827e+04	
26	1.300000e+00	7.354248e+04	
27	1.350000e+00	8.586069e+04	
28	1.400000e+00	9.859827e+04	
29	1.450000e+00	1.115298e+05	
30	1.500000e+00	1.245557e+05	
31	1.550000e+00	1.376314e+05	
32	1.600000e+00	1.507355e+05	
33	1.650000e+00	1.638568e+05	
34	1.700000e+00	1.769891e+05	
35	1.750000e+00	1.901289e+05	
36	1.800000e+00	2.032737e+05	
37	1.850000e+00	2.164220e+05	
38	1.900000e+00	2.295729e+05	
39	1.950000e+00	2.427255e+05	
40	2.000000e+00	2.558794e+05	
41	2.050000e+00	2.690342e+05	
42	2.100000e+00	2.821896e+05	
43	2.150000e+00	2.953452e+05	
44	2.200000e+00	3.085010e+05	
45	2.250000e+00	3.216568e+05	
46	2.300000e+00	3.348124e+05	
47	2.350000e+00	3.479678e+05	
48	2.400000e+00	3.611229e+05	
49	2.450000e+00	3.742775e+05	
50	2.500000e+00	3.874317e+05	
51	2.550000e+00	4.005855e+05	
52	2.600000e+00	4.137386e+05	
53	2.650000e+00	4.268912e+05	
54	2.700000e+00	4.400431e+05	

Index   v-sweep         rds             
--------------------------------------------------------------------------------
55	2.750000e+00	4.531944e+05	
56	2.800000e+00	4.663450e+05	
57	2.850000e+00	4.794949e+05	
58	2.900000e+00	4.926440e+05	
59	2.950000e+00	5.057924e+05	
60	3.000000e+00	5.189401e+05	
61	3.050000e+00	5.320869e+05	
62	3.100000e+00	5.452330e+05	
63	3.150000e+00	5.583783e+05	
64	3.200000e+00	5.715227e+05	
65	3.250000e+00	5.846663e+05	
66	3.300000e+00	5.978091e+05	
67	3.350000e+00	6.109510e+05	
68	3.400000e+00	6.240920e+05	
69	3.450000e+00	6.372322e+05	
70	3.500000e+00	6.503715e+05	
71	3.550000e+00	6.635100e+05	
72	3.600000e+00	6.766475e+05	
73	3.650000e+00	6.897841e+05	
74	3.700000e+00	7.029199e+05	
75	3.750000e+00	7.160547e+05	
76	3.800000e+00	7.291886e+05	
77	3.850000e+00	7.423216e+05	
78	3.900000e+00	7.554537e+05	
79	3.950000e+00	7.685849e+05	
80	4.000000e+00	7.817151e+05	
81	4.050000e+00	7.948444e+05	
82	4.100000e+00	8.079727e+05	
83	4.150000e+00	8.211002e+05	
84	4.200000e+00	8.342266e+05	
85	4.250000e+00	8.473522e+05	
86	4.300000e+00	8.604767e+05	
87	4.350000e+00	8.736004e+05	
88	4.400000e+00	8.867230e+05	
89	4.450000e+00	8.998447e+05	
90	4.500000e+00	9.129655e+05	
91	4.550000e+00	9.260853e+05	
92	4.600000e+00	9.392041e+05	
93	4.650000e+00	9.523219e+05	
94	4.700000e+00	9.654388e+05	
95	4.750000e+00	9.785547e+05	
96	4.800000e+00	9.916697e+05	
97	4.850000e+00	1.004784e+06	
98	4.900000e+00	1.017897e+06	
99	4.950000e+00	1.031009e+06	
100	5.000000e+00	1.044120e+06	
101	5.050000e+00	1.057230e+06	
102	5.100000e+00	1.070339e+06	
103	5.150000e+00	1.083447e+06	
104	5.200000e+00	1.096554e+06	
105	5.250000e+00	1.109660e+06	
106	5.300000e+00	1.122765e+06	
107	5.350000e+00	1.135869e+06	
108	5.400000e+00	1.148972e+06	
109	5.450000e+00	1.162074e+06	
110	5.500000e+00	1.175176e+06	
111	5.550000e+00	1.188276e+06	
112	5.600000e+00	1.201375e+06	

Index   v-sweep         rds             
--------------------------------------------------------------------------------
113	5.650000e+00	1.214473e+06	
114	5.700000e+00	1.227570e+06	
115	5.750000e+00	1.240666e+06	
116	5.800000e+00	1.253761e+06	
117	5.850000e+00	1.266855e+06	
118	5.900000e+00	1.279949e+06	
119	5.950000e+00	1.293041e+06	
120	6.000000e+00	1.306132e+06	
121	6.050000e+00	1.319222e+06	
122	6.100000e+00	1.332311e+06	
123	6.150000e+00	1.345399e+06	
124	6.200000e+00	1.358486e+06	
125	6.250000e+00	1.371572e+06	
126	6.300000e+00	1.384657e+06	
127	6.350000e+00	1.397741e+06	
128	6.400000e+00	1.410824e+06	
129	6.450000e+00	1.423906e+06	
130	6.500000e+00	1.436988e+06	
131	6.550000e+00	1.450068e+06	
132	6.600000e+00	1.463146e+06	
Reset re-loads circuit ***************************

Circuit: ***************************

Doing analysis at TEMP = 25.000000 and TNOM = 25.000000


No. of Data Rows : 133
                          ***************************
                          DC transfer characteristic  Mon Jan  9 13:58:05  2023
--------------------------------------------------------------------------------
Index   v-sweep         rds             
--------------------------------------------------------------------------------
0	0.000000e+00	5.523730e+03	
1	5.000000e-02	5.648910e+03	
2	1.000000e-01	5.779099e+03	
3	1.500000e-01	5.914604e+03	
4	2.000000e-01	6.055755e+03	
5	2.500000e-01	6.202912e+03	
6	3.000000e-01	6.356466e+03	
7	3.500000e-01	6.516843e+03	
8	4.000000e-01	6.684505e+03	
9	4.500000e-01	6.859962e+03	
10	5.000000e-01	7.043766e+03	
11	5.500000e-01	7.236529e+03	
12	6.000000e-01	7.438920e+03	
13	6.500000e-01	7.651678e+03	
14	7.000000e-01	7.875619e+03	
15	7.500000e-01	8.111646e+03	
16	8.000000e-01	8.360766e+03	
17	8.500000e-01	8.624096e+03	
18	9.000000e-01	8.902888e+03	
19	9.500000e-01	9.198543e+03	
20	1.000000e+00	9.512638e+03	
21	1.050000e+00	9.846953e+03	
22	1.100000e+00	1.020350e+04	
23	1.150000e+00	1.058459e+04	
24	1.200000e+00	1.099283e+04	
25	1.250000e+00	1.143125e+04	
26	1.300000e+00	1.190333e+04	
27	1.350000e+00	1.241310e+04	
28	1.400000e+00	1.296531e+04	
29	1.450000e+00	1.356553e+04	
30	1.500000e+00	1.422038e+04	
31	1.550000e+00	1.493784e+04	
32	1.600000e+00	1.572760e+04	
33	1.650000e+00	1.660169e+04	
34	1.700000e+00	1.757537e+04	
35	1.750000e+00	1.866867e+04	
36	1.800000e+00	1.990908e+04	
37	1.850000e+00	2.133647e+04	
38	1.900000e+00	2.301186e+04	
39	1.950000e+00	2.502948e+04	
40	2.000000e+00	2.752115e+04	
41	2.050000e+00	3.062114e+04	
42	2.100000e+00	3.438164e+04	
43	2.150000e+00	3.872366e+04	
44	2.200000e+00	4.349280e+04	
45	2.250000e+00	4.854236e+04	
46	2.300000e+00	5.376776e+04	
47	2.350000e+00	5.910314e+04	
48	2.400000e+00	6.450870e+04	
49	2.450000e+00	6.996034e+04	
50	2.500000e+00	7.544319e+04	
51	2.550000e+00	8.094782e+04	
52	2.600000e+00	8.646806e+04	
53	2.650000e+00	9.199977e+04	
54	2.700000e+00	9.754009e+04	

Index   v-sweep         rds             
--------------------------------------------------------------------------------
55	2.750000e+00	1.030870e+05	
56	2.800000e+00	1.086390e+05	
57	2.850000e+00	1.141951e+05	
58	2.900000e+00	1.197544e+05	
59	2.950000e+00	1.253163e+05	
60	3.000000e+00	1.308804e+05	
61	3.050000e+00	1.364461e+05	
62	3.100000e+00	1.420134e+05	
63	3.150000e+00	1.475818e+05	
64	3.200000e+00	1.531512e+05	
65	3.250000e+00	1.587215e+05	
66	3.300000e+00	1.642925e+05	
67	3.350000e+00	1.698640e+05	
68	3.400000e+00	1.754361e+05	
69	3.450000e+00	1.810085e+05	
70	3.500000e+00	1.865814e+05	
71	3.550000e+00	1.921544e+05	
72	3.600000e+00	1.977278e+05	
73	3.650000e+00	2.033013e+05	
74	3.700000e+00	2.088750e+05	
75	3.750000e+00	2.144488e+05	
76	3.800000e+00	2.200226e+05	
77	3.850000e+00	2.255966e+05	
78	3.900000e+00	2.311705e+05	
79	3.950000e+00	2.367445e+05	
80	4.000000e+00	2.423185e+05	
81	4.050000e+00	2.478924e+05	
82	4.100000e+00	2.534663e+05	
83	4.150000e+00	2.590402e+05	
84	4.200000e+00	2.646140e+05	
85	4.250000e+00	2.701877e+05	
86	4.300000e+00	2.757614e+05	
87	4.350000e+00	2.813349e+05	
88	4.400000e+00	2.869083e+05	
89	4.450000e+00	2.924816e+05	
90	4.500000e+00	2.980548e+05	
91	4.550000e+00	3.036279e+05	
92	4.600000e+00	3.092008e+05	
93	4.650000e+00	3.147736e+05	
94	4.700000e+00	3.203463e+05	
95	4.750000e+00	3.259188e+05	
96	4.800000e+00	3.314911e+05	
97	4.850000e+00	3.370633e+05	
98	4.900000e+00	3.426353e+05	
99	4.950000e+00	3.482072e+05	
100	5.000000e+00	3.537789e+05	
101	5.050000e+00	3.593504e+05	
102	5.100000e+00	3.649217e+05	
103	5.150000e+00	3.704929e+05	
104	5.200000e+00	3.760638e+05	
105	5.250000e+00	3.816346e+05	
106	5.300000e+00	3.872052e+05	
107	5.350000e+00	3.927756e+05	
108	5.400000e+00	3.983458e+05	
109	5.450000e+00	4.039159e+05	
110	5.500000e+00	4.094857e+05	
111	5.550000e+00	4.150553e+05	
112	5.600000e+00	4.206247e+05	

Index   v-sweep         rds             
--------------------------------------------------------------------------------
113	5.650000e+00	4.261939e+05	
114	5.700000e+00	4.317629e+05	
115	5.750000e+00	4.373318e+05	
116	5.800000e+00	4.429004e+05	
117	5.850000e+00	4.484687e+05	
118	5.900000e+00	4.540369e+05	
119	5.950000e+00	4.596049e+05	
120	6.000000e+00	4.651727e+05	
121	6.050000e+00	4.707402e+05	
122	6.100000e+00	4.763075e+05	
123	6.150000e+00	4.818746e+05	
124	6.200000e+00	4.874415e+05	
125	6.250000e+00	4.930082e+05	
126	6.300000e+00	4.985747e+05	
127	6.350000e+00	5.041409e+05	
128	6.400000e+00	5.097069e+05	
129	6.450000e+00	5.152727e+05	
130	6.500000e+00	5.208383e+05	
131	6.550000e+00	5.264037e+05	
132	6.600000e+00	5.319688e+05	
Reset re-loads circuit ***************************

Circuit: ***************************

Doing analysis at TEMP = 25.000000 and TNOM = 25.000000


No. of Data Rows : 133
                          ***************************
                          DC transfer characteristic  Mon Jan  9 13:58:05  2023
--------------------------------------------------------------------------------
Index   v-sweep         rds             
--------------------------------------------------------------------------------
0	0.000000e+00	4.384706e+03	
1	5.000000e-02	4.455183e+03	
2	1.000000e-01	4.527552e+03	
3	1.500000e-01	4.601889e+03	
4	2.000000e-01	4.678275e+03	
5	2.500000e-01	4.756797e+03	
6	3.000000e-01	4.837543e+03	
7	3.500000e-01	4.920611e+03	
8	4.000000e-01	5.006100e+03	
9	4.500000e-01	5.094118e+03	
10	5.000000e-01	5.184779e+03	
11	5.500000e-01	5.278202e+03	
12	6.000000e-01	5.374516e+03	
13	6.500000e-01	5.473856e+03	
14	7.000000e-01	5.576366e+03	
15	7.500000e-01	5.682201e+03	
16	8.000000e-01	5.791525e+03	
17	8.500000e-01	5.904511e+03	
18	9.000000e-01	6.021347e+03	
19	9.500000e-01	6.142233e+03	
20	1.000000e+00	6.267382e+03	
21	1.050000e+00	6.397023e+03	
22	1.100000e+00	6.531402e+03	
23	1.150000e+00	6.670783e+03	
24	1.200000e+00	6.815450e+03	
25	1.250000e+00	6.965710e+03	
26	1.300000e+00	7.121891e+03	
27	1.350000e+00	7.284352e+03	
28	1.400000e+00	7.453478e+03	
29	1.450000e+00	7.629688e+03	
30	1.500000e+00	7.813436e+03	
31	1.550000e+00	8.005217e+03	
32	1.600000e+00	8.205571e+03	
33	1.650000e+00	8.415086e+03	
34	1.700000e+00	8.634407e+03	
35	1.750000e+00	8.864241e+03	
36	1.800000e+00	9.105369e+03	
37	1.850000e+00	9.358649e+03	
38	1.900000e+00	9.625034e+03	
39	1.950000e+00	9.905581e+03	
40	2.000000e+00	1.020147e+04	
41	2.050000e+00	1.051403e+04	
42	2.100000e+00	1.084476e+04	
43	2.150000e+00	1.119536e+04	
44	2.200000e+00	1.156780e+04	
45	2.250000e+00	1.196437e+04	
46	2.300000e+00	1.238779e+04	
47	2.350000e+00	1.284138e+04	
48	2.400000e+00	1.332935e+04	
49	2.450000e+00	1.385724e+04	
50	2.500000e+00	1.443276e+04	
51	2.550000e+00	1.506735e+04	
52	2.600000e+00	1.577880e+04	
53	2.650000e+00	1.659579e+04	
54	2.700000e+00	1.756390e+04	

Index   v-sweep         rds             
--------------------------------------------------------------------------------
55	2.750000e+00	1.874940e+04	
56	2.800000e+00	2.023077e+04	
57	2.850000e+00	2.206915e+04	
58	2.900000e+00	2.427373e+04	
59	2.950000e+00	2.679730e+04	
60	3.000000e+00	2.956514e+04	
61	3.050000e+00	3.250557e+04	
62	3.100000e+00	3.556345e+04	
63	3.150000e+00	3.870059e+04	
64	3.200000e+00	4.189172e+04	
65	3.250000e+00	4.512025e+04	
66	3.300000e+00	4.837526e+04	
67	3.350000e+00	5.164940e+04	
68	3.400000e+00	5.493768e+04	
69	3.450000e+00	5.823661e+04	
70	3.500000e+00	6.154369e+04	
71	3.550000e+00	6.485712e+04	
72	3.600000e+00	6.817559e+04	
73	3.650000e+00	7.149807e+04	
74	3.700000e+00	7.482383e+04	
75	3.750000e+00	7.815225e+04	
76	3.800000e+00	8.148289e+04	
77	3.850000e+00	8.481538e+04	
78	3.900000e+00	8.814942e+04	
79	3.950000e+00	9.148478e+04	
80	4.000000e+00	9.482125e+04	
81	4.050000e+00	9.815869e+04	
82	4.100000e+00	1.014969e+05	
83	4.150000e+00	1.048359e+05	
84	4.200000e+00	1.081755e+05	
85	4.250000e+00	1.115157e+05	
86	4.300000e+00	1.148563e+05	
87	4.350000e+00	1.181973e+05	
88	4.400000e+00	1.215386e+05	
89	4.450000e+00	1.248803e+05	
90	4.500000e+00	1.282223e+05	
91	4.550000e+00	1.315645e+05	
92	4.600000e+00	1.349069e+05	
93	4.650000e+00	1.382496e+05	
94	4.700000e+00	1.415923e+05	
95	4.750000e+00	1.449353e+05	
96	4.800000e+00	1.482783e+05	
97	4.850000e+00	1.516214e+05	
98	4.900000e+00	1.549647e+05	
99	4.950000e+00	1.583080e+05	
100	5.000000e+00	1.616514e+05	
101	5.050000e+00	1.649948e+05	
102	5.100000e+00	1.683383e+05	
103	5.150000e+00	1.716818e+05	
104	5.200000e+00	1.750254e+05	
105	5.250000e+00	1.783690e+05	
106	5.300000e+00	1.817125e+05	
107	5.350000e+00	1.850561e+05	
108	5.400000e+00	1.883997e+05	
109	5.450000e+00	1.917433e+05	
110	5.500000e+00	1.950869e+05	
111	5.550000e+00	1.984304e+05	
112	5.600000e+00	2.017739e+05	

Index   v-sweep         rds             
--------------------------------------------------------------------------------
113	5.650000e+00	2.051175e+05	
114	5.700000e+00	2.084609e+05	
115	5.750000e+00	2.118044e+05	
116	5.800000e+00	2.151478e+05	
117	5.850000e+00	2.184912e+05	
118	5.900000e+00	2.218345e+05	
119	5.950000e+00	2.251778e+05	
120	6.000000e+00	2.285211e+05	
121	6.050000e+00	2.318643e+05	
122	6.100000e+00	2.352074e+05	
123	6.150000e+00	2.385505e+05	
124	6.200000e+00	2.418936e+05	
125	6.250000e+00	2.452365e+05	
126	6.300000e+00	2.485795e+05	
127	6.350000e+00	2.519223e+05	
128	6.400000e+00	2.552651e+05	
129	6.450000e+00	2.586079e+05	
130	6.500000e+00	2.619505e+05	
131	6.550000e+00	2.652932e+05	
132	6.600000e+00	2.686357e+05	
Reset re-loads circuit ***************************

Circuit: ***************************

Doing analysis at TEMP = 25.000000 and TNOM = 25.000000


No. of Data Rows : 133
                          ***************************
                          DC transfer characteristic  Mon Jan  9 13:58:05  2023
--------------------------------------------------------------------------------
Index   v-sweep         rds             
--------------------------------------------------------------------------------
0	0.000000e+00	3.800367e+03	
1	5.000000e-02	3.847533e+03	
2	1.000000e-01	3.895634e+03	
3	1.500000e-01	3.944698e+03	
4	2.000000e-01	3.994754e+03	
5	2.500000e-01	4.045833e+03	
6	3.000000e-01	4.097966e+03	
7	3.500000e-01	4.151185e+03	
8	4.000000e-01	4.205524e+03	
9	4.500000e-01	4.261020e+03	
10	5.000000e-01	4.317709e+03	
11	5.500000e-01	4.375630e+03	
12	6.000000e-01	4.434823e+03	
13	6.500000e-01	4.495330e+03	
14	7.000000e-01	4.557195e+03	
15	7.500000e-01	4.620465e+03	
16	8.000000e-01	4.685187e+03	
17	8.500000e-01	4.751412e+03	
18	9.000000e-01	4.819193e+03	
19	9.500000e-01	4.888584e+03	
20	1.000000e+00	4.959643e+03	
21	1.050000e+00	5.032431e+03	
22	1.100000e+00	5.107012e+03	
23	1.150000e+00	5.183453e+03	
24	1.200000e+00	5.261822e+03	
25	1.250000e+00	5.342195e+03	
26	1.300000e+00	5.424649e+03	
27	1.350000e+00	5.509265e+03	
28	1.400000e+00	5.596129e+03	
29	1.450000e+00	5.685332e+03	
30	1.500000e+00	5.776969e+03	
31	1.550000e+00	5.871141e+03	
32	1.600000e+00	5.967954e+03	
33	1.650000e+00	6.067520e+03	
34	1.700000e+00	6.169959e+03	
35	1.750000e+00	6.275397e+03	
36	1.800000e+00	6.383967e+03	
37	1.850000e+00	6.495809e+03	
38	1.900000e+00	6.611076e+03	
39	1.950000e+00	6.729926e+03	
40	2.000000e+00	6.852528e+03	
41	2.050000e+00	6.979065e+03	
42	2.100000e+00	7.109728e+03	
43	2.150000e+00	7.244723e+03	
44	2.200000e+00	7.384271e+03	
45	2.250000e+00	7.528607e+03	
46	2.300000e+00	7.677983e+03	
47	2.350000e+00	7.832670e+03	
48	2.400000e+00	7.992960e+03	
49	2.450000e+00	8.159169e+03	
50	2.500000e+00	8.331635e+03	
51	2.550000e+00	8.510728e+03	
52	2.600000e+00	8.696849e+03	
53	2.650000e+00	8.890438e+03	
54	2.700000e+00	9.091977e+03	

Index   v-sweep         rds             
--------------------------------------------------------------------------------
55	2.750000e+00	9.301998e+03	
56	2.800000e+00	9.521097e+03	
57	2.850000e+00	9.749945e+03	
58	2.900000e+00	9.989310e+03	
59	2.950000e+00	1.024009e+04	
60	3.000000e+00	1.050334e+04	
61	3.050000e+00	1.078039e+04	
62	3.100000e+00	1.107291e+04	
63	3.150000e+00	1.138313e+04	
64	3.200000e+00	1.171415e+04	
65	3.250000e+00	1.207052e+04	
66	3.300000e+00	1.245914e+04	
67	3.350000e+00	1.289084e+04	
68	3.400000e+00	1.338277e+04	
69	3.450000e+00	1.396136e+04	
70	3.500000e+00	1.466453e+04	
71	3.550000e+00	1.553911e+04	
72	3.600000e+00	1.662937e+04	
73	3.650000e+00	1.795906e+04	
74	3.700000e+00	1.952033e+04	
75	3.750000e+00	2.127938e+04	
76	3.800000e+00	2.319226e+04	
77	3.850000e+00	2.521797e+04	
78	3.900000e+00	2.732410e+04	
79	3.950000e+00	2.948708e+04	
80	4.000000e+00	3.169044e+04	
81	4.050000e+00	3.392284e+04	
82	4.100000e+00	3.617644e+04	
83	4.150000e+00	3.844578e+04	
84	4.200000e+00	4.072700e+04	
85	4.250000e+00	4.301735e+04	
86	4.300000e+00	4.531479e+04	
87	4.350000e+00	4.761785e+04	
88	4.400000e+00	4.992540e+04	
89	4.450000e+00	5.223658e+04	
90	4.500000e+00	5.455074e+04	
91	4.550000e+00	5.686736e+04	
92	4.600000e+00	5.918603e+04	
93	4.650000e+00	6.150643e+04	
94	4.700000e+00	6.382829e+04	
95	4.750000e+00	6.615140e+04	
96	4.800000e+00	6.847558e+04	
97	4.850000e+00	7.080068e+04	
98	4.900000e+00	7.312658e+04	
99	4.950000e+00	7.545319e+04	
100	5.000000e+00	7.778041e+04	
101	5.050000e+00	8.010816e+04	
102	5.100000e+00	8.243639e+04	
103	5.150000e+00	8.476504e+04	
104	5.200000e+00	8.709406e+04	
105	5.250000e+00	8.942342e+04	
106	5.300000e+00	9.175307e+04	
107	5.350000e+00	9.408298e+04	
108	5.400000e+00	9.641313e+04	
109	5.450000e+00	9.874349e+04	
110	5.500000e+00	1.010740e+05	
111	5.550000e+00	1.034048e+05	
112	5.600000e+00	1.057356e+05	

Index   v-sweep         rds             
--------------------------------------------------------------------------------
113	5.650000e+00	1.080666e+05	
114	5.700000e+00	1.103978e+05	
115	5.750000e+00	1.127290e+05	
116	5.800000e+00	1.150604e+05	
117	5.850000e+00	1.173918e+05	
118	5.900000e+00	1.197233e+05	
119	5.950000e+00	1.220549e+05	
120	6.000000e+00	1.243866e+05	
121	6.050000e+00	1.267183e+05	
122	6.100000e+00	1.290500e+05	
123	6.150000e+00	1.313818e+05	
124	6.200000e+00	1.337136e+05	
125	6.250000e+00	1.360455e+05	
126	6.300000e+00	1.383774e+05	
127	6.350000e+00	1.407093e+05	
128	6.400000e+00	1.430413e+05	
129	6.450000e+00	1.453732e+05	
130	6.500000e+00	1.477052e+05	
131	6.550000e+00	1.500372e+05	
132	6.600000e+00	1.523692e+05	
Reset re-loads circuit ***************************

Circuit: ***************************

Doing analysis at TEMP = 25.000000 and TNOM = 25.000000


No. of Data Rows : 133
                          ***************************
                          DC transfer characteristic  Mon Jan  9 13:58:05  2023
--------------------------------------------------------------------------------
Index   v-sweep         rds             
--------------------------------------------------------------------------------
0	0.000000e+00	3.456689e+03	
1	5.000000e-02	3.491374e+03	
2	1.000000e-01	3.526595e+03	
3	1.500000e-01	3.562365e+03	
4	2.000000e-01	3.598695e+03	
5	2.500000e-01	3.635601e+03	
6	3.000000e-01	3.673094e+03	
7	3.500000e-01	3.711189e+03	
8	4.000000e-01	3.749900e+03	
9	4.500000e-01	3.789243e+03	
10	5.000000e-01	3.829233e+03	
11	5.500000e-01	3.869886e+03	
12	6.000000e-01	3.911218e+03	
13	6.500000e-01	3.953246e+03	
14	7.000000e-01	3.995988e+03	
15	7.500000e-01	4.039463e+03	
16	8.000000e-01	4.083688e+03	
17	8.500000e-01	4.128684e+03	
18	9.000000e-01	4.174470e+03	
19	9.500000e-01	4.221067e+03	
20	1.000000e+00	4.268498e+03	
21	1.050000e+00	4.316784e+03	
22	1.100000e+00	4.365948e+03	
23	1.150000e+00	4.416015e+03	
24	1.200000e+00	4.467010e+03	
25	1.250000e+00	4.518958e+03	
26	1.300000e+00	4.571886e+03	
27	1.350000e+00	4.625822e+03	
28	1.400000e+00	4.680795e+03	
29	1.450000e+00	4.736835e+03	
30	1.500000e+00	4.793973e+03	
31	1.550000e+00	4.852242e+03	
32	1.600000e+00	4.911675e+03	
33	1.650000e+00	4.972307e+03	
34	1.700000e+00	5.034175e+03	
35	1.750000e+00	5.097317e+03	
36	1.800000e+00	5.161772e+03	
37	1.850000e+00	5.227582e+03	
38	1.900000e+00	5.294790e+03	
39	1.950000e+00	5.363440e+03	
40	2.000000e+00	5.433579e+03	
41	2.050000e+00	5.505256e+03	
42	2.100000e+00	5.578523e+03	
43	2.150000e+00	5.653431e+03	
44	2.200000e+00	5.730038e+03	
45	2.250000e+00	5.808400e+03	
46	2.300000e+00	5.888581e+03	
47	2.350000e+00	5.970642e+03	
48	2.400000e+00	6.054651e+03	
49	2.450000e+00	6.140679e+03	
50	2.500000e+00	6.228798e+03	
51	2.550000e+00	6.319087e+03	
52	2.600000e+00	6.411626e+03	
53	2.650000e+00	6.506501e+03	
54	2.700000e+00	6.603802e+03	

Index   v-sweep         rds             
--------------------------------------------------------------------------------
55	2.750000e+00	6.703624e+03	
56	2.800000e+00	6.806066e+03	
57	2.850000e+00	6.911234e+03	
58	2.900000e+00	7.019240e+03	
59	2.950000e+00	7.130201e+03	
60	3.000000e+00	7.244242e+03	
61	3.050000e+00	7.361497e+03	
62	3.100000e+00	7.482107e+03	
63	3.150000e+00	7.606223e+03	
64	3.200000e+00	7.734005e+03	
65	3.250000e+00	7.865627e+03	
66	3.300000e+00	8.001276e+03	
67	3.350000e+00	8.141154e+03	
68	3.400000e+00	8.285481e+03	
69	3.450000e+00	8.434500e+03	
70	3.500000e+00	8.588481e+03	
71	3.550000e+00	8.747725e+03	
72	3.600000e+00	8.912578e+03	
73	3.650000e+00	9.083444e+03	
74	3.700000e+00	9.260801e+03	
75	3.750000e+00	9.445239e+03	
76	3.800000e+00	9.637500e+03	
77	3.850000e+00	9.838558e+03	
78	3.900000e+00	1.004974e+04	
79	3.950000e+00	1.027290e+04	
80	4.000000e+00	1.051075e+04	
81	4.050000e+00	1.076735e+04	
82	4.100000e+00	1.104891e+04	
83	4.150000e+00	1.136496e+04	
84	4.200000e+00	1.172990e+04	
85	4.250000e+00	1.216460e+04	
86	4.300000e+00	1.269671e+04	
87	4.350000e+00	1.335758e+04	
88	4.400000e+00	1.417456e+04	
89	4.450000e+00	1.516124e+04	
90	4.500000e+00	1.631230e+04	
91	4.550000e+00	1.760685e+04	
92	4.600000e+00	1.901697e+04	
93	4.650000e+00	2.051527e+04	
94	4.700000e+00	2.207887e+04	
95	4.750000e+00	2.369022e+04	
96	4.800000e+00	2.533647e+04	
97	4.850000e+00	2.700842e+04	
98	4.900000e+00	2.869950e+04	
99	4.950000e+00	3.040500e+04	
100	5.000000e+00	3.212153e+04	
101	5.050000e+00	3.384660e+04	
102	5.100000e+00	3.557838e+04	
103	5.150000e+00	3.731550e+04	
104	5.200000e+00	3.905691e+04	
105	5.250000e+00	4.080182e+04	
106	5.300000e+00	4.254959e+04	
107	5.350000e+00	4.429975e+04	
108	5.400000e+00	4.605191e+04	
109	5.450000e+00	4.780574e+04	
110	5.500000e+00	4.956100e+04	
111	5.550000e+00	5.131748e+04	
112	5.600000e+00	5.307501e+04	

Index   v-sweep         rds             
--------------------------------------------------------------------------------
113	5.650000e+00	5.483345e+04	
114	5.700000e+00	5.659269e+04	
115	5.750000e+00	5.835261e+04	
116	5.800000e+00	6.011314e+04	
117	5.850000e+00	6.187421e+04	
118	5.900000e+00	6.363575e+04	
119	5.950000e+00	6.539771e+04	
120	6.000000e+00	6.716005e+04	
121	6.050000e+00	6.892272e+04	
122	6.100000e+00	7.068570e+04	
123	6.150000e+00	7.244894e+04	
124	6.200000e+00	7.421243e+04	
125	6.250000e+00	7.597614e+04	
126	6.300000e+00	7.774005e+04	
127	6.350000e+00	7.950413e+04	
128	6.400000e+00	8.126838e+04	
129	6.450000e+00	8.303278e+04	
130	6.500000e+00	8.479731e+04	
131	6.550000e+00	8.656196e+04	
132	6.600000e+00	8.832673e+04	
Reset re-loads circuit ***************************

Circuit: ***************************

Note: No ".plot", ".print", or ".fourier" lines; no simulations run
