
Note: Compatibility modes selected: hs

Warning: m=xx on .subckt line will override multiplier m hierarchy!


Circuit: ***************************

Doing analysis at TEMP = 125.000000 and TNOM = 125.000000


No. of Data Rows : 133
                          ***************************
                          DC transfer characteristic  Mon Jan  9 13:58:06  2023
--------------------------------------------------------------------------------
Index   v-sweep         rds             
--------------------------------------------------------------------------------
0	0.000000e+00	2.305307e+04	
1	5.000000e-02	2.579074e+04	
2	1.000000e-01	2.925448e+04	
3	1.500000e-01	3.377622e+04	
4	2.000000e-01	3.992483e+04	
5	2.500000e-01	4.875921e+04	
6	3.000000e-01	6.247795e+04	
7	3.500000e-01	8.635436e+04	
8	4.000000e-01	1.353343e+05	
9	4.500000e-01	2.534856e+05	
10	5.000000e-01	5.037545e+05	
11	5.500000e-01	8.121017e+05	
12	6.000000e-01	1.064515e+06	
13	6.500000e-01	1.263152e+06	
14	7.000000e-01	1.433635e+06	
15	7.500000e-01	1.590343e+06	
16	8.000000e-01	1.739960e+06	
17	8.500000e-01	1.885660e+06	
18	9.000000e-01	2.029048e+06	
19	9.500000e-01	2.170989e+06	
20	1.000000e+00	2.311978e+06	
21	1.050000e+00	2.452314e+06	
22	1.100000e+00	2.592185e+06	
23	1.150000e+00	2.731715e+06	
24	1.200000e+00	2.870986e+06	
25	1.250000e+00	3.010057e+06	
26	1.300000e+00	3.148969e+06	
27	1.350000e+00	3.287753e+06	
28	1.400000e+00	3.426430e+06	
29	1.450000e+00	3.565018e+06	
30	1.500000e+00	3.703529e+06	
31	1.550000e+00	3.841975e+06	
32	1.600000e+00	3.980362e+06	
33	1.650000e+00	4.118698e+06	
34	1.700000e+00	4.256987e+06	
35	1.750000e+00	4.395233e+06	
36	1.800000e+00	4.533441e+06	
37	1.850000e+00	4.671613e+06	
38	1.900000e+00	4.809751e+06	
39	1.950000e+00	4.947857e+06	
40	2.000000e+00	5.085933e+06	
41	2.050000e+00	5.223980e+06	
42	2.100000e+00	5.362000e+06	
43	2.150000e+00	5.499994e+06	
44	2.200000e+00	5.637962e+06	
45	2.250000e+00	5.775906e+06	
46	2.300000e+00	5.913826e+06	
47	2.350000e+00	6.051722e+06	
48	2.400000e+00	6.189595e+06	
49	2.450000e+00	6.327446e+06	
50	2.500000e+00	6.465276e+06	
51	2.550000e+00	6.603083e+06	
52	2.600000e+00	6.740869e+06	
53	2.650000e+00	6.878634e+06	
54	2.700000e+00	7.016379e+06	

Index   v-sweep         rds             
--------------------------------------------------------------------------------
55	2.750000e+00	7.154103e+06	
56	2.800000e+00	7.291806e+06	
57	2.850000e+00	7.429490e+06	
58	2.900000e+00	7.567154e+06	
59	2.950000e+00	7.704797e+06	
60	3.000000e+00	7.842421e+06	
61	3.050000e+00	7.980026e+06	
62	3.100000e+00	8.117611e+06	
63	3.150000e+00	8.255177e+06	
64	3.200000e+00	8.392723e+06	
65	3.250000e+00	8.530251e+06	
66	3.300000e+00	8.667759e+06	
67	3.350000e+00	8.805248e+06	
68	3.400000e+00	8.942719e+06	
69	3.450000e+00	9.080170e+06	
70	3.500000e+00	9.217603e+06	
71	3.550000e+00	9.355017e+06	
72	3.600000e+00	9.492412e+06	
73	3.650000e+00	9.629788e+06	
74	3.700000e+00	9.767146e+06	
75	3.750000e+00	9.904485e+06	
76	3.800000e+00	1.004181e+07	
77	3.850000e+00	1.017911e+07	
78	3.900000e+00	1.031639e+07	
79	3.950000e+00	1.045366e+07	
80	4.000000e+00	1.059090e+07	
81	4.050000e+00	1.072813e+07	
82	4.100000e+00	1.086534e+07	
83	4.150000e+00	1.100253e+07	
84	4.200000e+00	1.113971e+07	
85	4.250000e+00	1.127686e+07	
86	4.300000e+00	1.141400e+07	
87	4.350000e+00	1.155112e+07	
88	4.400000e+00	1.168822e+07	
89	4.450000e+00	1.182530e+07	
90	4.500000e+00	1.196236e+07	
91	4.550000e+00	1.209941e+07	
92	4.600000e+00	1.223643e+07	
93	4.650000e+00	1.237344e+07	
94	4.700000e+00	1.251043e+07	
95	4.750000e+00	1.264741e+07	
96	4.800000e+00	1.278436e+07	
97	4.850000e+00	1.292130e+07	
98	4.900000e+00	1.305821e+07	
99	4.950000e+00	1.319511e+07	
100	5.000000e+00	1.333199e+07	
101	5.050000e+00	1.346886e+07	
102	5.100000e+00	1.360570e+07	
103	5.150000e+00	1.374253e+07	
104	5.200000e+00	1.387934e+07	
105	5.250000e+00	1.401613e+07	
106	5.300000e+00	1.415290e+07	
107	5.350000e+00	1.428966e+07	
108	5.400000e+00	1.442639e+07	
109	5.450000e+00	1.456311e+07	
110	5.500000e+00	1.469981e+07	
111	5.550000e+00	1.483649e+07	
112	5.600000e+00	1.497315e+07	

Index   v-sweep         rds             
--------------------------------------------------------------------------------
113	5.650000e+00	1.510980e+07	
114	5.700000e+00	1.524643e+07	
115	5.750000e+00	1.538304e+07	
116	5.800000e+00	1.551963e+07	
117	5.850000e+00	1.565620e+07	
118	5.900000e+00	1.579276e+07	
119	5.950000e+00	1.592929e+07	
120	6.000000e+00	1.606581e+07	
121	6.050000e+00	1.620231e+07	
122	6.100000e+00	1.633880e+07	
123	6.150000e+00	1.647526e+07	
124	6.200000e+00	1.661171e+07	
125	6.250000e+00	1.674814e+07	
126	6.300000e+00	1.688455e+07	
127	6.350000e+00	1.702094e+07	
128	6.400000e+00	1.715731e+07	
129	6.450000e+00	1.729367e+07	
130	6.500000e+00	1.743001e+07	
131	6.550000e+00	1.756633e+07	
132	6.600000e+00	1.770263e+07	
Reset re-loads circuit ***************************

Circuit: ***************************

Doing analysis at TEMP = 125.000000 and TNOM = 125.000000


No. of Data Rows : 133
                          ***************************
                          DC transfer characteristic  Mon Jan  9 13:58:06  2023
--------------------------------------------------------------------------------
Index   v-sweep         rds             
--------------------------------------------------------------------------------
0	0.000000e+00	7.593052e+03	
1	5.000000e-02	7.845321e+03	
2	1.000000e-01	8.114138e+03	
3	1.500000e-01	8.401187e+03	
4	2.000000e-01	8.708386e+03	
5	2.500000e-01	9.037935e+03	
6	3.000000e-01	9.392361e+03	
7	3.500000e-01	9.774594e+03	
8	4.000000e-01	1.018803e+04	
9	4.500000e-01	1.063667e+04	
10	5.000000e-01	1.112518e+04	
11	5.500000e-01	1.165915e+04	
12	6.000000e-01	1.224520e+04	
13	6.500000e-01	1.289135e+04	
14	7.000000e-01	1.360733e+04	
15	7.500000e-01	1.440509e+04	
16	8.000000e-01	1.529948e+04	
17	8.500000e-01	1.630913e+04	
18	9.000000e-01	1.745781e+04	
19	9.500000e-01	1.877625e+04	
20	1.000000e+00	2.030486e+04	
21	1.050000e+00	2.209792e+04	
22	1.100000e+00	2.422976e+04	
23	1.150000e+00	2.680483e+04	
24	1.200000e+00	2.997375e+04	
25	1.250000e+00	3.395976e+04	
26	1.300000e+00	3.910160e+04	
27	1.350000e+00	4.591746e+04	
28	1.400000e+00	5.516914e+04	
29	1.450000e+00	6.779501e+04	
30	1.500000e+00	8.437627e+04	
31	1.550000e+00	1.041734e+05	
32	1.600000e+00	1.252504e+05	
33	1.650000e+00	1.460750e+05	
34	1.700000e+00	1.661852e+05	
35	1.750000e+00	1.856705e+05	
36	1.800000e+00	2.047209e+05	
37	1.850000e+00	2.234866e+05	
38	1.900000e+00	2.420667e+05	
39	1.950000e+00	2.605236e+05	
40	2.000000e+00	2.788967e+05	
41	2.050000e+00	2.972110e+05	
42	2.100000e+00	3.154832e+05	
43	2.150000e+00	3.337244e+05	
44	2.200000e+00	3.519422e+05	
45	2.250000e+00	3.701420e+05	
46	2.300000e+00	3.883277e+05	
47	2.350000e+00	4.065022e+05	
48	2.400000e+00	4.246675e+05	
49	2.450000e+00	4.428254e+05	
50	2.500000e+00	4.609769e+05	
51	2.550000e+00	4.791232e+05	
52	2.600000e+00	4.972648e+05	
53	2.650000e+00	5.154025e+05	
54	2.700000e+00	5.335368e+05	

Index   v-sweep         rds             
--------------------------------------------------------------------------------
55	2.750000e+00	5.516679e+05	
56	2.800000e+00	5.697963e+05	
57	2.850000e+00	5.879222e+05	
58	2.900000e+00	6.060458e+05	
59	2.950000e+00	6.241674e+05	
60	3.000000e+00	6.422870e+05	
61	3.050000e+00	6.604048e+05	
62	3.100000e+00	6.785209e+05	
63	3.150000e+00	6.966354e+05	
64	3.200000e+00	7.147484e+05	
65	3.250000e+00	7.328600e+05	
66	3.300000e+00	7.509702e+05	
67	3.350000e+00	7.690791e+05	
68	3.400000e+00	7.871867e+05	
69	3.450000e+00	8.052931e+05	
70	3.500000e+00	8.233982e+05	
71	3.550000e+00	8.415022e+05	
72	3.600000e+00	8.596051e+05	
73	3.650000e+00	8.777068e+05	
74	3.700000e+00	8.958075e+05	
75	3.750000e+00	9.139071e+05	
76	3.800000e+00	9.320056e+05	
77	3.850000e+00	9.501031e+05	
78	3.900000e+00	9.681995e+05	
79	3.950000e+00	9.862950e+05	
80	4.000000e+00	1.004389e+06	
81	4.050000e+00	1.022483e+06	
82	4.100000e+00	1.040575e+06	
83	4.150000e+00	1.058667e+06	
84	4.200000e+00	1.076757e+06	
85	4.250000e+00	1.094847e+06	
86	4.300000e+00	1.112936e+06	
87	4.350000e+00	1.131023e+06	
88	4.400000e+00	1.149110e+06	
89	4.450000e+00	1.167196e+06	
90	4.500000e+00	1.185281e+06	
91	4.550000e+00	1.203365e+06	
92	4.600000e+00	1.221448e+06	
93	4.650000e+00	1.239530e+06	
94	4.700000e+00	1.257611e+06	
95	4.750000e+00	1.275692e+06	
96	4.800000e+00	1.293771e+06	
97	4.850000e+00	1.311850e+06	
98	4.900000e+00	1.329927e+06	
99	4.950000e+00	1.348004e+06	
100	5.000000e+00	1.366080e+06	
101	5.050000e+00	1.384155e+06	
102	5.100000e+00	1.402229e+06	
103	5.150000e+00	1.420302e+06	
104	5.200000e+00	1.438374e+06	
105	5.250000e+00	1.456445e+06	
106	5.300000e+00	1.474516e+06	
107	5.350000e+00	1.492585e+06	
108	5.400000e+00	1.510654e+06	
109	5.450000e+00	1.528722e+06	
110	5.500000e+00	1.546789e+06	
111	5.550000e+00	1.564855e+06	
112	5.600000e+00	1.582920e+06	

Index   v-sweep         rds             
--------------------------------------------------------------------------------
113	5.650000e+00	1.600984e+06	
114	5.700000e+00	1.619047e+06	
115	5.750000e+00	1.637110e+06	
116	5.800000e+00	1.655171e+06	
117	5.850000e+00	1.673232e+06	
118	5.900000e+00	1.691292e+06	
119	5.950000e+00	1.709351e+06	
120	6.000000e+00	1.727409e+06	
121	6.050000e+00	1.745466e+06	
122	6.100000e+00	1.763522e+06	
123	6.150000e+00	1.781578e+06	
124	6.200000e+00	1.799632e+06	
125	6.250000e+00	1.817686e+06	
126	6.300000e+00	1.835739e+06	
127	6.350000e+00	1.853791e+06	
128	6.400000e+00	1.871842e+06	
129	6.450000e+00	1.889892e+06	
130	6.500000e+00	1.907941e+06	
131	6.550000e+00	1.925990e+06	
132	6.600000e+00	1.944037e+06	
Reset re-loads circuit ***************************

Circuit: ***************************

Doing analysis at TEMP = 125.000000 and TNOM = 125.000000


No. of Data Rows : 133
                          ***************************
                          DC transfer characteristic  Mon Jan  9 13:58:06  2023
--------------------------------------------------------------------------------
Index   v-sweep         rds             
--------------------------------------------------------------------------------
0	0.000000e+00	5.133945e+03	
1	5.000000e-02	5.232090e+03	
2	1.000000e-01	5.333786e+03	
3	1.500000e-01	5.439230e+03	
4	2.000000e-01	5.548631e+03	
5	2.500000e-01	5.662217e+03	
6	3.000000e-01	5.780233e+03	
7	3.500000e-01	5.902943e+03	
8	4.000000e-01	6.030632e+03	
9	4.500000e-01	6.163610e+03	
10	5.000000e-01	6.302211e+03	
11	5.500000e-01	6.446801e+03	
12	6.000000e-01	6.597775e+03	
13	6.500000e-01	6.755565e+03	
14	7.000000e-01	6.920645e+03	
15	7.500000e-01	7.093530e+03	
16	8.000000e-01	7.274788e+03	
17	8.500000e-01	7.465041e+03	
18	9.000000e-01	7.664975e+03	
19	9.500000e-01	7.875349e+03	
20	1.000000e+00	8.097002e+03	
21	1.050000e+00	8.330866e+03	
22	1.100000e+00	8.577977e+03	
23	1.150000e+00	8.839493e+03	
24	1.200000e+00	9.116712e+03	
25	1.250000e+00	9.411090e+03	
26	1.300000e+00	9.724271e+03	
27	1.350000e+00	1.005811e+04	
28	1.400000e+00	1.041473e+04	
29	1.450000e+00	1.079654e+04	
30	1.500000e+00	1.120630e+04	
31	1.550000e+00	1.164719e+04	
32	1.600000e+00	1.212290e+04	
33	1.650000e+00	1.263773e+04	
34	1.700000e+00	1.319668e+04	
35	1.750000e+00	1.380568e+04	
36	1.800000e+00	1.447176e+04	
37	1.850000e+00	1.520332e+04	
38	1.900000e+00	1.601046e+04	
39	1.950000e+00	1.690549e+04	
40	2.000000e+00	1.790352e+04	
41	2.050000e+00	1.902326e+04	
42	2.100000e+00	2.028817e+04	
43	2.150000e+00	2.172799e+04	
44	2.200000e+00	2.338079e+04	
45	2.250000e+00	2.529587e+04	
46	2.300000e+00	2.753734e+04	
47	2.350000e+00	3.018837e+04	
48	2.400000e+00	3.335410e+04	
49	2.450000e+00	3.715848e+04	
50	2.500000e+00	4.172350e+04	
51	2.550000e+00	4.711963e+04	
52	2.600000e+00	5.330343e+04	
53	2.650000e+00	6.010705e+04	
54	2.700000e+00	6.731372e+04	

Index   v-sweep         rds             
--------------------------------------------------------------------------------
55	2.750000e+00	7.474557e+04	
56	2.800000e+00	8.229234e+04	
57	2.850000e+00	8.989575e+04	
58	2.900000e+00	9.752718e+04	
59	2.950000e+00	1.051728e+05	
60	3.000000e+00	1.128259e+05	
61	3.050000e+00	1.204830e+05	
62	3.100000e+00	1.281424e+05	
63	3.150000e+00	1.358031e+05	
64	3.200000e+00	1.434646e+05	
65	3.250000e+00	1.511265e+05	
66	3.300000e+00	1.587887e+05	
67	3.350000e+00	1.664510e+05	
68	3.400000e+00	1.741134e+05	
69	3.450000e+00	1.817758e+05	
70	3.500000e+00	1.894382e+05	
71	3.550000e+00	1.971005e+05	
72	3.600000e+00	2.047628e+05	
73	3.650000e+00	2.124249e+05	
74	3.700000e+00	2.200870e+05	
75	3.750000e+00	2.277489e+05	
76	3.800000e+00	2.354107e+05	
77	3.850000e+00	2.430724e+05	
78	3.900000e+00	2.507340e+05	
79	3.950000e+00	2.583954e+05	
80	4.000000e+00	2.660566e+05	
81	4.050000e+00	2.737178e+05	
82	4.100000e+00	2.813787e+05	
83	4.150000e+00	2.890395e+05	
84	4.200000e+00	2.967002e+05	
85	4.250000e+00	3.043607e+05	
86	4.300000e+00	3.120210e+05	
87	4.350000e+00	3.196811e+05	
88	4.400000e+00	3.273411e+05	
89	4.450000e+00	3.350009e+05	
90	4.500000e+00	3.426605e+05	
91	4.550000e+00	3.503200e+05	
92	4.600000e+00	3.579792e+05	
93	4.650000e+00	3.656383e+05	
94	4.700000e+00	3.732972e+05	
95	4.750000e+00	3.809559e+05	
96	4.800000e+00	3.886145e+05	
97	4.850000e+00	3.962728e+05	
98	4.900000e+00	4.039310e+05	
99	4.950000e+00	4.115889e+05	
100	5.000000e+00	4.192467e+05	
101	5.050000e+00	4.269043e+05	
102	5.100000e+00	4.345616e+05	
103	5.150000e+00	4.422188e+05	
104	5.200000e+00	4.498758e+05	
105	5.250000e+00	4.575326e+05	
106	5.300000e+00	4.651892e+05	
107	5.350000e+00	4.728456e+05	
108	5.400000e+00	4.805018e+05	
109	5.450000e+00	4.881578e+05	
110	5.500000e+00	4.958136e+05	
111	5.550000e+00	5.034692e+05	
112	5.600000e+00	5.111246e+05	

Index   v-sweep         rds             
--------------------------------------------------------------------------------
113	5.650000e+00	5.187798e+05	
114	5.700000e+00	5.264348e+05	
115	5.750000e+00	5.340895e+05	
116	5.800000e+00	5.417441e+05	
117	5.850000e+00	5.493985e+05	
118	5.900000e+00	5.570526e+05	
119	5.950000e+00	5.647066e+05	
120	6.000000e+00	5.723603e+05	
121	6.050000e+00	5.800139e+05	
122	6.100000e+00	5.876672e+05	
123	6.150000e+00	5.953203e+05	
124	6.200000e+00	6.029732e+05	
125	6.250000e+00	6.106259e+05	
126	6.300000e+00	6.182784e+05	
127	6.350000e+00	6.259307e+05	
128	6.400000e+00	6.335828e+05	
129	6.450000e+00	6.412347e+05	
130	6.500000e+00	6.488863e+05	
131	6.550000e+00	6.565377e+05	
132	6.600000e+00	6.641890e+05	
Reset re-loads circuit ***************************

Circuit: ***************************

Doing analysis at TEMP = 125.000000 and TNOM = 125.000000


No. of Data Rows : 133
                          ***************************
                          DC transfer characteristic  Mon Jan  9 13:58:06  2023
--------------------------------------------------------------------------------
Index   v-sweep         rds             
--------------------------------------------------------------------------------
0	0.000000e+00	4.140517e+03	
1	5.000000e-02	4.195317e+03	
2	1.000000e-01	4.251449e+03	
3	1.500000e-01	4.308964e+03	
4	2.000000e-01	4.367912e+03	
5	2.500000e-01	4.428347e+03	
6	3.000000e-01	4.490327e+03	
7	3.500000e-01	4.553912e+03	
8	4.000000e-01	4.619164e+03	
9	4.500000e-01	4.686150e+03	
10	5.000000e-01	4.754941e+03	
11	5.500000e-01	4.825609e+03	
12	6.000000e-01	4.898232e+03	
13	6.500000e-01	4.972894e+03	
14	7.000000e-01	5.049680e+03	
15	7.500000e-01	5.128683e+03	
16	8.000000e-01	5.210000e+03	
17	8.500000e-01	5.293735e+03	
18	9.000000e-01	5.379996e+03	
19	9.500000e-01	5.468899e+03	
20	1.000000e+00	5.560568e+03	
21	1.050000e+00	5.655134e+03	
22	1.100000e+00	5.752736e+03	
23	1.150000e+00	5.853523e+03	
24	1.200000e+00	5.957652e+03	
25	1.250000e+00	6.065294e+03	
26	1.300000e+00	6.176628e+03	
27	1.350000e+00	6.291849e+03	
28	1.400000e+00	6.411162e+03	
29	1.450000e+00	6.534790e+03	
30	1.500000e+00	6.662970e+03	
31	1.550000e+00	6.795960e+03	
32	1.600000e+00	6.934035e+03	
33	1.650000e+00	7.077491e+03	
34	1.700000e+00	7.226650e+03	
35	1.750000e+00	7.381858e+03	
36	1.800000e+00	7.543492e+03	
37	1.850000e+00	7.711957e+03	
38	1.900000e+00	7.887697e+03	
39	1.950000e+00	8.071192e+03	
40	2.000000e+00	8.262969e+03	
41	2.050000e+00	8.463599e+03	
42	2.100000e+00	8.673710e+03	
43	2.150000e+00	8.893991e+03	
44	2.200000e+00	9.125198e+03	
45	2.250000e+00	9.368164e+03	
46	2.300000e+00	9.623810e+03	
47	2.350000e+00	9.893154e+03	
48	2.400000e+00	1.017733e+04	
49	2.450000e+00	1.047759e+04	
50	2.500000e+00	1.079535e+04	
51	2.550000e+00	1.113217e+04	
52	2.600000e+00	1.148984e+04	
53	2.650000e+00	1.187034e+04	
54	2.700000e+00	1.227593e+04	

Index   v-sweep         rds             
--------------------------------------------------------------------------------
55	2.750000e+00	1.270919e+04	
56	2.800000e+00	1.317304e+04	
57	2.850000e+00	1.367084e+04	
58	2.900000e+00	1.420647e+04	
59	2.950000e+00	1.478441e+04	
60	3.000000e+00	1.540990e+04	
61	3.050000e+00	1.608906e+04	
62	3.100000e+00	1.682913e+04	
63	3.150000e+00	1.763873e+04	
64	3.200000e+00	1.852818e+04	
65	3.250000e+00	1.951001e+04	
66	3.300000e+00	2.059950e+04	
67	3.350000e+00	2.181553e+04	
68	3.400000e+00	2.318164e+04	
69	3.450000e+00	2.472724e+04	
70	3.500000e+00	2.648883e+04	
71	3.550000e+00	2.851009e+04	
72	3.600000e+00	3.083853e+04	
73	3.650000e+00	3.351559e+04	
74	3.700000e+00	3.656006e+04	
75	3.750000e+00	3.995415e+04	
76	3.800000e+00	4.364548e+04	
77	3.850000e+00	4.756540e+04	
78	3.900000e+00	5.164885e+04	
79	3.950000e+00	5.584454e+04	
80	4.000000e+00	6.011608e+04	
81	4.050000e+00	6.443899e+04	
82	4.100000e+00	6.879711e+04	
83	4.150000e+00	7.317982e+04	
84	4.200000e+00	7.758003e+04	
85	4.250000e+00	8.199294e+04	
86	4.300000e+00	8.641527e+04	
87	4.350000e+00	9.084469e+04	
88	4.400000e+00	9.527955e+04	
89	4.450000e+00	9.971865e+04	
90	4.500000e+00	1.041611e+05	
91	4.550000e+00	1.086062e+05	
92	4.600000e+00	1.130535e+05	
93	4.650000e+00	1.175025e+05	
94	4.700000e+00	1.219530e+05	
95	4.750000e+00	1.264047e+05	
96	4.800000e+00	1.308574e+05	
97	4.850000e+00	1.353109e+05	
98	4.900000e+00	1.397652e+05	
99	4.950000e+00	1.442200e+05	
100	5.000000e+00	1.486754e+05	
101	5.050000e+00	1.531312e+05	
102	5.100000e+00	1.575874e+05	
103	5.150000e+00	1.620439e+05	
104	5.200000e+00	1.665007e+05	
105	5.250000e+00	1.709577e+05	
106	5.300000e+00	1.754150e+05	
107	5.350000e+00	1.798724e+05	
108	5.400000e+00	1.843300e+05	
109	5.450000e+00	1.887877e+05	
110	5.500000e+00	1.932455e+05	
111	5.550000e+00	1.977034e+05	
112	5.600000e+00	2.021614e+05	

Index   v-sweep         rds             
--------------------------------------------------------------------------------
113	5.650000e+00	2.066194e+05	
114	5.700000e+00	2.110775e+05	
115	5.750000e+00	2.155357e+05	
116	5.800000e+00	2.199938e+05	
117	5.850000e+00	2.244520e+05	
118	5.900000e+00	2.289102e+05	
119	5.950000e+00	2.333684e+05	
120	6.000000e+00	2.378266e+05	
121	6.050000e+00	2.422848e+05	
122	6.100000e+00	2.467430e+05	
123	6.150000e+00	2.512012e+05	
124	6.200000e+00	2.556593e+05	
125	6.250000e+00	2.601174e+05	
126	6.300000e+00	2.645755e+05	
127	6.350000e+00	2.690336e+05	
128	6.400000e+00	2.734916e+05	
129	6.450000e+00	2.779496e+05	
130	6.500000e+00	2.824076e+05	
131	6.550000e+00	2.868655e+05	
132	6.600000e+00	2.913233e+05	
Reset re-loads circuit ***************************

Circuit: ***************************

Doing analysis at TEMP = 125.000000 and TNOM = 125.000000


No. of Data Rows : 133
                          ***************************
                          DC transfer characteristic  Mon Jan  9 13:58:06  2023
--------------------------------------------------------------------------------
Index   v-sweep         rds             
--------------------------------------------------------------------------------
0	0.000000e+00	3.609422e+03	
1	5.000000e-02	3.645419e+03	
2	1.000000e-01	3.682059e+03	
3	1.500000e-01	3.719361e+03	
4	2.000000e-01	3.757343e+03	
5	2.500000e-01	3.796022e+03	
6	3.000000e-01	3.835419e+03	
7	3.500000e-01	3.875554e+03	
8	4.000000e-01	3.916447e+03	
9	4.500000e-01	3.958121e+03	
10	5.000000e-01	4.000597e+03	
11	5.500000e-01	4.043899e+03	
12	6.000000e-01	4.088052e+03	
13	6.500000e-01	4.133080e+03	
14	7.000000e-01	4.179011e+03	
15	7.500000e-01	4.225871e+03	
16	8.000000e-01	4.273688e+03	
17	8.500000e-01	4.322493e+03	
18	9.000000e-01	4.372316e+03	
19	9.500000e-01	4.423189e+03	
20	1.000000e+00	4.475146e+03	
21	1.050000e+00	4.528223e+03	
22	1.100000e+00	4.582454e+03	
23	1.150000e+00	4.637879e+03	
24	1.200000e+00	4.694538e+03	
25	1.250000e+00	4.752471e+03	
26	1.300000e+00	4.811722e+03	
27	1.350000e+00	4.872338e+03	
28	1.400000e+00	4.934365e+03	
29	1.450000e+00	4.997852e+03	
30	1.500000e+00	5.062854e+03	
31	1.550000e+00	5.129423e+03	
32	1.600000e+00	5.197618e+03	
33	1.650000e+00	5.267499e+03	
34	1.700000e+00	5.339129e+03	
35	1.750000e+00	5.412574e+03	
36	1.800000e+00	5.487904e+03	
37	1.850000e+00	5.565194e+03	
38	1.900000e+00	5.644519e+03	
39	1.950000e+00	5.725961e+03	
40	2.000000e+00	5.809608e+03	
41	2.050000e+00	5.895548e+03	
42	2.100000e+00	5.983878e+03	
43	2.150000e+00	6.074698e+03	
44	2.200000e+00	6.168116e+03	
45	2.250000e+00	6.264244e+03	
46	2.300000e+00	6.363202e+03	
47	2.350000e+00	6.465117e+03	
48	2.400000e+00	6.570123e+03	
49	2.450000e+00	6.678363e+03	
50	2.500000e+00	6.789989e+03	
51	2.550000e+00	6.905162e+03	
52	2.600000e+00	7.024054e+03	
53	2.650000e+00	7.146847e+03	
54	2.700000e+00	7.273737e+03	

Index   v-sweep         rds             
--------------------------------------------------------------------------------
55	2.750000e+00	7.404932e+03	
56	2.800000e+00	7.540655e+03	
57	2.850000e+00	7.681145e+03	
58	2.900000e+00	7.826658e+03	
59	2.950000e+00	7.977466e+03	
60	3.000000e+00	8.133866e+03	
61	3.050000e+00	8.296173e+03	
62	3.100000e+00	8.464730e+03	
63	3.150000e+00	8.639903e+03	
64	3.200000e+00	8.822091e+03	
65	3.250000e+00	9.011723e+03	
66	3.300000e+00	9.209266e+03	
67	3.350000e+00	9.415226e+03	
68	3.400000e+00	9.630152e+03	
69	3.450000e+00	9.854644e+03	
70	3.500000e+00	1.008936e+04	
71	3.550000e+00	1.033500e+04	
72	3.600000e+00	1.059237e+04	
73	3.650000e+00	1.086232e+04	
74	3.700000e+00	1.114580e+04	
75	3.750000e+00	1.144386e+04	
76	3.800000e+00	1.175765e+04	
77	3.850000e+00	1.208846e+04	
78	3.900000e+00	1.243774e+04	
79	3.950000e+00	1.280708e+04	
80	4.000000e+00	1.319829e+04	
81	4.050000e+00	1.361339e+04	
82	4.100000e+00	1.405469e+04	
83	4.150000e+00	1.452482e+04	
84	4.200000e+00	1.502679e+04	
85	4.250000e+00	1.556409e+04	
86	4.300000e+00	1.614081e+04	
87	4.350000e+00	1.676178e+04	
88	4.400000e+00	1.743283e+04	
89	4.450000e+00	1.816108e+04	
90	4.500000e+00	1.895541e+04	
91	4.550000e+00	1.982718e+04	
92	4.600000e+00	2.079108e+04	
93	4.650000e+00	2.186622e+04	
94	4.700000e+00	2.307695e+04	
95	4.750000e+00	2.445225e+04	
96	4.800000e+00	2.602225e+04	
97	4.850000e+00	2.781062e+04	
98	4.900000e+00	2.982556e+04	
99	4.950000e+00	3.205497e+04	
100	5.000000e+00	3.446999e+04	
101	5.050000e+00	3.703405e+04	
102	5.100000e+00	3.971156e+04	
103	5.150000e+00	4.247269e+04	
104	5.200000e+00	4.529452e+04	
105	5.250000e+00	4.816032e+04	
106	5.300000e+00	5.105812e+04	
107	5.350000e+00	5.397947e+04	
108	5.400000e+00	5.691834e+04	
109	5.450000e+00	5.987045e+04	
110	5.500000e+00	6.283270e+04	
111	5.550000e+00	6.580281e+04	
112	5.600000e+00	6.877910e+04	

Index   v-sweep         rds             
--------------------------------------------------------------------------------
113	5.650000e+00	7.176030e+04	
114	5.700000e+00	7.474546e+04	
115	5.750000e+00	7.773384e+04	
116	5.800000e+00	8.072485e+04	
117	5.850000e+00	8.371806e+04	
118	5.900000e+00	8.671308e+04	
119	5.950000e+00	8.970965e+04	
120	6.000000e+00	9.270751e+04	
121	6.050000e+00	9.570648e+04	
122	6.100000e+00	9.870641e+04	
123	6.150000e+00	1.017072e+05	
124	6.200000e+00	1.047086e+05	
125	6.250000e+00	1.077107e+05	
126	6.300000e+00	1.107133e+05	
127	6.350000e+00	1.137164e+05	
128	6.400000e+00	1.167198e+05	
129	6.450000e+00	1.197237e+05	
130	6.500000e+00	1.227279e+05	
131	6.550000e+00	1.257324e+05	
132	6.600000e+00	1.287371e+05	
Reset re-loads circuit ***************************

Circuit: ***************************

Doing analysis at TEMP = 125.000000 and TNOM = 125.000000


No. of Data Rows : 133
                          ***************************
                          DC transfer characteristic  Mon Jan  9 13:58:06  2023
--------------------------------------------------------------------------------
Index   v-sweep         rds             
--------------------------------------------------------------------------------
0	0.000000e+00	3.283059e+03	
1	5.000000e-02	3.308944e+03	
2	1.000000e-01	3.335188e+03	
3	1.500000e-01	3.361797e+03	
4	2.000000e-01	3.388781e+03	
5	2.500000e-01	3.416146e+03	
6	3.000000e-01	3.443901e+03	
7	3.500000e-01	3.472053e+03	
8	4.000000e-01	3.500613e+03	
9	4.500000e-01	3.529588e+03	
10	5.000000e-01	3.558988e+03	
11	5.500000e-01	3.588822e+03	
12	6.000000e-01	3.619099e+03	
13	6.500000e-01	3.649831e+03	
14	7.000000e-01	3.681026e+03	
15	7.500000e-01	3.712696e+03	
16	8.000000e-01	3.744851e+03	
17	8.500000e-01	3.777502e+03	
18	9.000000e-01	3.810662e+03	
19	9.500000e-01	3.844342e+03	
20	1.000000e+00	3.878555e+03	
21	1.050000e+00	3.913313e+03	
22	1.100000e+00	3.948628e+03	
23	1.150000e+00	3.984516e+03	
24	1.200000e+00	4.020990e+03	
25	1.250000e+00	4.058063e+03	
26	1.300000e+00	4.095752e+03	
27	1.350000e+00	4.134071e+03	
28	1.400000e+00	4.173037e+03	
29	1.450000e+00	4.212666e+03	
30	1.500000e+00	4.252974e+03	
31	1.550000e+00	4.293981e+03	
32	1.600000e+00	4.335703e+03	
33	1.650000e+00	4.378159e+03	
34	1.700000e+00	4.421370e+03	
35	1.750000e+00	4.465356e+03	
36	1.800000e+00	4.510137e+03	
37	1.850000e+00	4.555735e+03	
38	1.900000e+00	4.602174e+03	
39	1.950000e+00	4.649475e+03	
40	2.000000e+00	4.697664e+03	
41	2.050000e+00	4.746765e+03	
42	2.100000e+00	4.796805e+03	
43	2.150000e+00	4.847811e+03	
44	2.200000e+00	4.899812e+03	
45	2.250000e+00	4.952835e+03	
46	2.300000e+00	5.006913e+03	
47	2.350000e+00	5.062076e+03	
48	2.400000e+00	5.118358e+03	
49	2.450000e+00	5.175793e+03	
50	2.500000e+00	5.234416e+03	
51	2.550000e+00	5.294266e+03	
52	2.600000e+00	5.355380e+03	
53	2.650000e+00	5.417800e+03	
54	2.700000e+00	5.481567e+03	

Index   v-sweep         rds             
--------------------------------------------------------------------------------
55	2.750000e+00	5.546726e+03	
56	2.800000e+00	5.613323e+03	
57	2.850000e+00	5.681405e+03	
58	2.900000e+00	5.751023e+03	
59	2.950000e+00	5.822229e+03	
60	3.000000e+00	5.895079e+03	
61	3.050000e+00	5.969630e+03	
62	3.100000e+00	6.045943e+03	
63	3.150000e+00	6.124079e+03	
64	3.200000e+00	6.204106e+03	
65	3.250000e+00	6.286093e+03	
66	3.300000e+00	6.370112e+03	
67	3.350000e+00	6.456241e+03	
68	3.400000e+00	6.544559e+03	
69	3.450000e+00	6.635152e+03	
70	3.500000e+00	6.728108e+03	
71	3.550000e+00	6.823520e+03	
72	3.600000e+00	6.921488e+03	
73	3.650000e+00	7.022116e+03	
74	3.700000e+00	7.125513e+03	
75	3.750000e+00	7.231795e+03	
76	3.800000e+00	7.341085e+03	
77	3.850000e+00	7.453512e+03	
78	3.900000e+00	7.569213e+03	
79	3.950000e+00	7.688334e+03	
80	4.000000e+00	7.811028e+03	
81	4.050000e+00	7.937459e+03	
82	4.100000e+00	8.067801e+03	
83	4.150000e+00	8.202236e+03	
84	4.200000e+00	8.340963e+03	
85	4.250000e+00	8.484190e+03	
86	4.300000e+00	8.632140e+03	
87	4.350000e+00	8.785050e+03	
88	4.400000e+00	8.943175e+03	
89	4.450000e+00	9.106788e+03	
90	4.500000e+00	9.276179e+03	
91	4.550000e+00	9.451661e+03	
92	4.600000e+00	9.633571e+03	
93	4.650000e+00	9.822270e+03	
94	4.700000e+00	1.001815e+04	
95	4.750000e+00	1.022162e+04	
96	4.800000e+00	1.043315e+04	
97	4.850000e+00	1.065323e+04	
98	4.900000e+00	1.088238e+04	
99	4.950000e+00	1.112120e+04	
100	5.000000e+00	1.137032e+04	
101	5.050000e+00	1.163043e+04	
102	5.100000e+00	1.190230e+04	
103	5.150000e+00	1.218676e+04	
104	5.200000e+00	1.248476e+04	
105	5.250000e+00	1.279732e+04	
106	5.300000e+00	1.312562e+04	
107	5.350000e+00	1.347096e+04	
108	5.400000e+00	1.383485e+04	
109	5.450000e+00	1.421903e+04	
110	5.500000e+00	1.462551e+04	
111	5.550000e+00	1.505673e+04	
112	5.600000e+00	1.551562e+04	

Index   v-sweep         rds             
--------------------------------------------------------------------------------
113	5.650000e+00	1.600587e+04	
114	5.700000e+00	1.653215e+04	
115	5.750000e+00	1.710058e+04	
116	5.800000e+00	1.771927e+04	
117	5.850000e+00	1.839901e+04	
118	5.900000e+00	1.915403e+04	
119	5.950000e+00	2.000223e+04	
120	6.000000e+00	2.096435e+04	
121	6.050000e+00	2.206120e+04	
122	6.100000e+00	2.330886e+04	
123	6.150000e+00	2.471371e+04	
124	6.200000e+00	2.627000e+04	
125	6.250000e+00	2.796157e+04	
126	6.300000e+00	2.976652e+04	
127	6.350000e+00	3.166201e+04	
128	6.400000e+00	3.362757e+04	
129	6.450000e+00	3.564635e+04	
130	6.500000e+00	3.770526e+04	
131	6.550000e+00	3.979444e+04	
132	6.600000e+00	4.190656e+04	
Reset re-loads circuit ***************************

Circuit: ***************************

Note: No ".plot", ".print", or ".fourier" lines; no simulations run
