
Note: Compatibility modes selected: hs

Warning: m=xx on .subckt line will override multiplier m hierarchy!


Circuit: ***************************

Doing analysis at TEMP = -40.000000 and TNOM = -40.000000


No. of Data Rows : 133
                          ***************************
                          DC transfer characteristic  Mon Jan  9 13:58:06  2023
--------------------------------------------------------------------------------
Index   v-sweep         rds             
--------------------------------------------------------------------------------
0	0.000000e+00	2.581352e+05	
1	5.000000e-02	3.276884e+05	
2	1.000000e-01	4.476585e+05	
3	1.500000e-01	6.995651e+05	
4	2.000000e-01	1.445585e+06	
5	2.500000e-01	4.344344e+06	
6	3.000000e-01	1.013590e+07	
7	3.500000e-01	1.498840e+07	
8	4.000000e-01	1.850988e+07	
9	4.500000e-01	2.144276e+07	
10	5.000000e-01	2.412823e+07	
11	5.500000e-01	2.669868e+07	
12	6.000000e-01	2.920964e+07	
13	6.500000e-01	3.168693e+07	
14	7.000000e-01	3.414372e+07	
15	7.500000e-01	3.658724e+07	
16	8.000000e-01	3.902172e+07	
17	8.500000e-01	4.144977e+07	
18	9.000000e-01	4.387306e+07	
19	9.500000e-01	4.629273e+07	
20	1.000000e+00	4.870953e+07	
21	1.050000e+00	5.112402e+07	
22	1.100000e+00	5.353658e+07	
23	1.150000e+00	5.594753e+07	
24	1.200000e+00	5.835706e+07	
25	1.250000e+00	6.076536e+07	
26	1.300000e+00	6.317255e+07	
27	1.350000e+00	6.557873e+07	
28	1.400000e+00	6.798400e+07	
29	1.450000e+00	7.038841e+07	
30	1.500000e+00	7.279202e+07	
31	1.550000e+00	7.519487e+07	
32	1.600000e+00	7.759700e+07	
33	1.650000e+00	7.999843e+07	
34	1.700000e+00	8.239921e+07	
35	1.750000e+00	8.479933e+07	
36	1.800000e+00	8.719884e+07	
37	1.850000e+00	8.959773e+07	
38	1.900000e+00	9.199602e+07	
39	1.950000e+00	9.439373e+07	
40	2.000000e+00	9.679087e+07	
41	2.050000e+00	9.918744e+07	
42	2.100000e+00	1.015834e+08	
43	2.150000e+00	1.039789e+08	
44	2.200000e+00	1.063738e+08	
45	2.250000e+00	1.087682e+08	
46	2.300000e+00	1.111620e+08	
47	2.350000e+00	1.135553e+08	
48	2.400000e+00	1.159481e+08	
49	2.450000e+00	1.183403e+08	
50	2.500000e+00	1.207320e+08	
51	2.550000e+00	1.231232e+08	
52	2.600000e+00	1.255139e+08	
53	2.650000e+00	1.279040e+08	
54	2.700000e+00	1.302937e+08	

Index   v-sweep         rds             
--------------------------------------------------------------------------------
55	2.750000e+00	1.326828e+08	
56	2.800000e+00	1.350714e+08	
57	2.850000e+00	1.374596e+08	
58	2.900000e+00	1.398472e+08	
59	2.950000e+00	1.422342e+08	
60	3.000000e+00	1.446208e+08	
61	3.050000e+00	1.470069e+08	
62	3.100000e+00	1.493925e+08	
63	3.150000e+00	1.517776e+08	
64	3.200000e+00	1.541621e+08	
65	3.250000e+00	1.565462e+08	
66	3.300000e+00	1.589298e+08	
67	3.350000e+00	1.613128e+08	
68	3.400000e+00	1.636954e+08	
69	3.450000e+00	1.660774e+08	
70	3.500000e+00	1.684590e+08	
71	3.550000e+00	1.708401e+08	
72	3.600000e+00	1.732206e+08	
73	3.650000e+00	1.756007e+08	
74	3.700000e+00	1.779802e+08	
75	3.750000e+00	1.803593e+08	
76	3.800000e+00	1.827379e+08	
77	3.850000e+00	1.851159e+08	
78	3.900000e+00	1.874935e+08	
79	3.950000e+00	1.898706e+08	
80	4.000000e+00	1.922472e+08	
81	4.050000e+00	1.946232e+08	
82	4.100000e+00	1.969988e+08	
83	4.150000e+00	1.993739e+08	
84	4.200000e+00	2.017485e+08	
85	4.250000e+00	2.041226e+08	
86	4.300000e+00	2.064962e+08	
87	4.350000e+00	2.088693e+08	
88	4.400000e+00	2.112419e+08	
89	4.450000e+00	2.136140e+08	
90	4.500000e+00	2.159856e+08	
91	4.550000e+00	2.183567e+08	
92	4.600000e+00	2.207273e+08	
93	4.650000e+00	2.230975e+08	
94	4.700000e+00	2.254671e+08	
95	4.750000e+00	2.278362e+08	
96	4.800000e+00	2.302049e+08	
97	4.850000e+00	2.325730e+08	
98	4.900000e+00	2.349407e+08	
99	4.950000e+00	2.373078e+08	
100	5.000000e+00	2.396745e+08	
101	5.050000e+00	2.420406e+08	
102	5.100000e+00	2.444063e+08	
103	5.150000e+00	2.467715e+08	
104	5.200000e+00	2.491362e+08	
105	5.250000e+00	2.515003e+08	
106	5.300000e+00	2.538640e+08	
107	5.350000e+00	2.562272e+08	
108	5.400000e+00	2.585899e+08	
109	5.450000e+00	2.609521e+08	
110	5.500000e+00	2.633139e+08	
111	5.550000e+00	2.656751e+08	
112	5.600000e+00	2.680358e+08	

Index   v-sweep         rds             
--------------------------------------------------------------------------------
113	5.650000e+00	2.703960e+08	
114	5.700000e+00	2.727558e+08	
115	5.750000e+00	2.751150e+08	
116	5.800000e+00	2.774738e+08	
117	5.850000e+00	2.798320e+08	
118	5.900000e+00	2.821898e+08	
119	5.950000e+00	2.845471e+08	
120	6.000000e+00	2.869038e+08	
121	6.050000e+00	2.892601e+08	
122	6.100000e+00	2.916159e+08	
123	6.150000e+00	2.939712e+08	
124	6.200000e+00	2.963260e+08	
125	6.250000e+00	2.986803e+08	
126	6.300000e+00	3.010341e+08	
127	6.350000e+00	3.033874e+08	
128	6.400000e+00	3.057403e+08	
129	6.450000e+00	3.080926e+08	
130	6.500000e+00	3.104444e+08	
131	6.550000e+00	3.127958e+08	
132	6.600000e+00	3.151466e+08	
Reset re-loads circuit ***************************

Circuit: ***************************

Doing analysis at TEMP = -40.000000 and TNOM = -40.000000


No. of Data Rows : 133
                          ***************************
                          DC transfer characteristic  Mon Jan  9 13:58:06  2023
--------------------------------------------------------------------------------
Index   v-sweep         rds             
--------------------------------------------------------------------------------
0	0.000000e+00	4.922568e+04	
1	5.000000e-02	5.123078e+04	
2	1.000000e-01	5.339902e+04	
3	1.500000e-01	5.575115e+04	
4	2.000000e-01	5.831157e+04	
5	2.500000e-01	6.110924e+04	
6	3.000000e-01	6.417871e+04	
7	3.500000e-01	6.756158e+04	
8	4.000000e-01	7.130842e+04	
9	4.500000e-01	7.548123e+04	
10	5.000000e-01	8.015697e+04	
11	5.500000e-01	8.543228e+04	
12	6.000000e-01	9.143019e+04	
13	6.500000e-01	9.830976e+04	
14	7.000000e-01	1.062802e+05	
15	7.500000e-01	1.156223e+05	
16	8.000000e-01	1.267211e+05	
17	8.500000e-01	1.401190e+05	
18	9.000000e-01	1.566019e+05	
19	9.500000e-01	1.773464e+05	
20	1.000000e+00	2.041746e+05	
21	1.050000e+00	2.399863e+05	
22	1.100000e+00	2.893964e+05	
23	1.150000e+00	3.591135e+05	
24	1.200000e+00	4.558828e+05	
25	1.250000e+00	5.796802e+05	
26	1.300000e+00	7.205180e+05	
27	1.350000e+00	8.675104e+05	
28	1.400000e+00	1.015409e+06	
29	1.450000e+00	1.162790e+06	
30	1.500000e+00	1.309518e+06	
31	1.550000e+00	1.455728e+06	
32	1.600000e+00	1.601567e+06	
33	1.650000e+00	1.747144e+06	
34	1.700000e+00	1.892535e+06	
35	1.750000e+00	2.037789e+06	
36	1.800000e+00	2.182943e+06	
37	1.850000e+00	2.328021e+06	
38	1.900000e+00	2.473038e+06	
39	1.950000e+00	2.618008e+06	
40	2.000000e+00	2.762939e+06	
41	2.050000e+00	2.907839e+06	
42	2.100000e+00	3.052711e+06	
43	2.150000e+00	3.197560e+06	
44	2.200000e+00	3.342389e+06	
45	2.250000e+00	3.487200e+06	
46	2.300000e+00	3.631995e+06	
47	2.350000e+00	3.776774e+06	
48	2.400000e+00	3.921540e+06	
49	2.450000e+00	4.066294e+06	
50	2.500000e+00	4.211035e+06	
51	2.550000e+00	4.355765e+06	
52	2.600000e+00	4.500485e+06	
53	2.650000e+00	4.645194e+06	
54	2.700000e+00	4.789892e+06	

Index   v-sweep         rds             
--------------------------------------------------------------------------------
55	2.750000e+00	4.934582e+06	
56	2.800000e+00	5.079261e+06	
57	2.850000e+00	5.223932e+06	
58	2.900000e+00	5.368593e+06	
59	2.950000e+00	5.513246e+06	
60	3.000000e+00	5.657889e+06	
61	3.050000e+00	5.802524e+06	
62	3.100000e+00	5.947151e+06	
63	3.150000e+00	6.091769e+06	
64	3.200000e+00	6.236378e+06	
65	3.250000e+00	6.380980e+06	
66	3.300000e+00	6.525573e+06	
67	3.350000e+00	6.670157e+06	
68	3.400000e+00	6.814734e+06	
69	3.450000e+00	6.959302e+06	
70	3.500000e+00	7.103862e+06	
71	3.550000e+00	7.248414e+06	
72	3.600000e+00	7.392958e+06	
73	3.650000e+00	7.537494e+06	
74	3.700000e+00	7.682022e+06	
75	3.750000e+00	7.826542e+06	
76	3.800000e+00	7.971053e+06	
77	3.850000e+00	8.115557e+06	
78	3.900000e+00	8.260053e+06	
79	3.950000e+00	8.404540e+06	
80	4.000000e+00	8.549020e+06	
81	4.050000e+00	8.693492e+06	
82	4.100000e+00	8.837955e+06	
83	4.150000e+00	8.982411e+06	
84	4.200000e+00	9.126859e+06	
85	4.250000e+00	9.271299e+06	
86	4.300000e+00	9.415730e+06	
87	4.350000e+00	9.560154e+06	
88	4.400000e+00	9.704570e+06	
89	4.450000e+00	9.848978e+06	
90	4.500000e+00	9.993377e+06	
91	4.550000e+00	1.013777e+07	
92	4.600000e+00	1.028215e+07	
93	4.650000e+00	1.042653e+07	
94	4.700000e+00	1.057090e+07	
95	4.750000e+00	1.071526e+07	
96	4.800000e+00	1.085961e+07	
97	4.850000e+00	1.100395e+07	
98	4.900000e+00	1.114829e+07	
99	4.950000e+00	1.129262e+07	
100	5.000000e+00	1.143694e+07	
101	5.050000e+00	1.158125e+07	
102	5.100000e+00	1.172555e+07	
103	5.150000e+00	1.186985e+07	
104	5.200000e+00	1.201414e+07	
105	5.250000e+00	1.215841e+07	
106	5.300000e+00	1.230269e+07	
107	5.350000e+00	1.244695e+07	
108	5.400000e+00	1.259121e+07	
109	5.450000e+00	1.273545e+07	
110	5.500000e+00	1.287969e+07	
111	5.550000e+00	1.302392e+07	
112	5.600000e+00	1.316815e+07	

Index   v-sweep         rds             
--------------------------------------------------------------------------------
113	5.650000e+00	1.331236e+07	
114	5.700000e+00	1.345657e+07	
115	5.750000e+00	1.360077e+07	
116	5.800000e+00	1.374496e+07	
117	5.850000e+00	1.388915e+07	
118	5.900000e+00	1.403332e+07	
119	5.950000e+00	1.417749e+07	
120	6.000000e+00	1.432165e+07	
121	6.050000e+00	1.446580e+07	
122	6.100000e+00	1.460994e+07	
123	6.150000e+00	1.475408e+07	
124	6.200000e+00	1.489820e+07	
125	6.250000e+00	1.504232e+07	
126	6.300000e+00	1.518643e+07	
127	6.350000e+00	1.533054e+07	
128	6.400000e+00	1.547463e+07	
129	6.450000e+00	1.561872e+07	
130	6.500000e+00	1.576280e+07	
131	6.550000e+00	1.590687e+07	
132	6.600000e+00	1.605093e+07	
Reset re-loads circuit ***************************

Circuit: ***************************

Doing analysis at TEMP = -40.000000 and TNOM = -40.000000


No. of Data Rows : 133
                          ***************************
                          DC transfer characteristic  Mon Jan  9 13:58:06  2023
--------------------------------------------------------------------------------
Index   v-sweep         rds             
--------------------------------------------------------------------------------
0	0.000000e+00	3.069937e+04	
1	5.000000e-02	3.137492e+04	
2	1.000000e-01	3.207845e+04	
3	1.500000e-01	3.281172e+04	
4	2.000000e-01	3.357667e+04	
5	2.500000e-01	3.437540e+04	
6	3.000000e-01	3.521017e+04	
7	3.500000e-01	3.608351e+04	
8	4.000000e-01	3.699812e+04	
9	4.500000e-01	3.795702e+04	
10	5.000000e-01	3.896349e+04	
11	5.500000e-01	4.002116e+04	
12	6.000000e-01	4.113404e+04	
13	6.500000e-01	4.230657e+04	
14	7.000000e-01	4.354367e+04	
15	7.500000e-01	4.485083e+04	
16	8.000000e-01	4.623415e+04	
17	8.500000e-01	4.770051e+04	
18	9.000000e-01	4.925759e+04	
19	9.500000e-01	5.091410e+04	
20	1.000000e+00	5.267986e+04	
21	1.050000e+00	5.456604e+04	
22	1.100000e+00	5.658539e+04	
23	1.150000e+00	5.875253e+04	
24	1.200000e+00	6.108430e+04	
25	1.250000e+00	6.360020e+04	
26	1.300000e+00	6.632291e+04	
27	1.350000e+00	6.927905e+04	
28	1.400000e+00	7.249996e+04	
29	1.450000e+00	7.602291e+04	
30	1.500000e+00	7.989248e+04	
31	1.550000e+00	8.416251e+04	
32	1.600000e+00	8.889863e+04	
33	1.650000e+00	9.418169e+04	
34	1.700000e+00	1.001125e+05	
35	1.750000e+00	1.068183e+05	
36	1.800000e+00	1.144627e+05	
37	1.850000e+00	1.232588e+05	
38	1.900000e+00	1.334910e+05	
39	1.950000e+00	1.455458e+05	
40	2.000000e+00	1.599596e+05	
41	2.050000e+00	1.774800e+05	
42	2.100000e+00	1.991092e+05	
43	2.150000e+00	2.260067e+05	
44	2.200000e+00	2.590607e+05	
45	2.250000e+00	2.982619e+05	
46	2.300000e+00	3.425735e+05	
47	2.350000e+00	3.905285e+05	
48	2.400000e+00	4.408509e+05	
49	2.450000e+00	4.926574e+05	
50	2.500000e+00	5.453960e+05	
51	2.550000e+00	5.987323e+05	
52	2.600000e+00	6.524633e+05	
53	2.650000e+00	7.064630e+05	
54	2.700000e+00	7.606510e+05	

Index   v-sweep         rds             
--------------------------------------------------------------------------------
55	2.750000e+00	8.149746e+05	
56	2.800000e+00	8.693982e+05	
57	2.850000e+00	9.238971e+05	
58	2.900000e+00	9.784539e+05	
59	2.950000e+00	1.033056e+06	
60	3.000000e+00	1.087693e+06	
61	3.050000e+00	1.142360e+06	
62	3.100000e+00	1.197049e+06	
63	3.150000e+00	1.251758e+06	
64	3.200000e+00	1.306482e+06	
65	3.250000e+00	1.361219e+06	
66	3.300000e+00	1.415967e+06	
67	3.350000e+00	1.470725e+06	
68	3.400000e+00	1.525490e+06	
69	3.450000e+00	1.580261e+06	
70	3.500000e+00	1.635038e+06	
71	3.550000e+00	1.689820e+06	
72	3.600000e+00	1.744606e+06	
73	3.650000e+00	1.799395e+06	
74	3.700000e+00	1.854187e+06	
75	3.750000e+00	1.908981e+06	
76	3.800000e+00	1.963777e+06	
77	3.850000e+00	2.018575e+06	
78	3.900000e+00	2.073375e+06	
79	3.950000e+00	2.128175e+06	
80	4.000000e+00	2.182977e+06	
81	4.050000e+00	2.237779e+06	
82	4.100000e+00	2.292581e+06	
83	4.150000e+00	2.347384e+06	
84	4.200000e+00	2.402186e+06	
85	4.250000e+00	2.456989e+06	
86	4.300000e+00	2.511792e+06	
87	4.350000e+00	2.566595e+06	
88	4.400000e+00	2.621397e+06	
89	4.450000e+00	2.676199e+06	
90	4.500000e+00	2.731000e+06	
91	4.550000e+00	2.785800e+06	
92	4.600000e+00	2.840601e+06	
93	4.650000e+00	2.895400e+06	
94	4.700000e+00	2.950198e+06	
95	4.750000e+00	3.004996e+06	
96	4.800000e+00	3.059793e+06	
97	4.850000e+00	3.114589e+06	
98	4.900000e+00	3.169384e+06	
99	4.950000e+00	3.224178e+06	
100	5.000000e+00	3.278971e+06	
101	5.050000e+00	3.333763e+06	
102	5.100000e+00	3.388554e+06	
103	5.150000e+00	3.443343e+06	
104	5.200000e+00	3.498132e+06	
105	5.250000e+00	3.552919e+06	
106	5.300000e+00	3.607705e+06	
107	5.350000e+00	3.662490e+06	
108	5.400000e+00	3.717273e+06	
109	5.450000e+00	3.772056e+06	
110	5.500000e+00	3.826837e+06	
111	5.550000e+00	3.881616e+06	
112	5.600000e+00	3.936394e+06	

Index   v-sweep         rds             
--------------------------------------------------------------------------------
113	5.650000e+00	3.991171e+06	
114	5.700000e+00	4.045947e+06	
115	5.750000e+00	4.100721e+06	
116	5.800000e+00	4.155494e+06	
117	5.850000e+00	4.210265e+06	
118	5.900000e+00	4.265035e+06	
119	5.950000e+00	4.319804e+06	
120	6.000000e+00	4.374571e+06	
121	6.050000e+00	4.429336e+06	
122	6.100000e+00	4.484100e+06	
123	6.150000e+00	4.538863e+06	
124	6.200000e+00	4.593624e+06	
125	6.250000e+00	4.648384e+06	
126	6.300000e+00	4.703142e+06	
127	6.350000e+00	4.757898e+06	
128	6.400000e+00	4.812654e+06	
129	6.450000e+00	4.867407e+06	
130	6.500000e+00	4.922159e+06	
131	6.550000e+00	4.976909e+06	
132	6.600000e+00	5.031658e+06	
Reset re-loads circuit ***************************

Circuit: ***************************

Doing analysis at TEMP = -40.000000 and TNOM = -40.000000


No. of Data Rows : 133
                          ***************************
                          DC transfer characteristic  Mon Jan  9 13:58:06  2023
--------------------------------------------------------------------------------
Index   v-sweep         rds             
--------------------------------------------------------------------------------
0	0.000000e+00	2.388498e+04	
1	5.000000e-02	2.424180e+04	
2	1.000000e-01	2.460824e+04	
3	1.500000e-01	2.498468e+04	
4	2.000000e-01	2.537153e+04	
5	2.500000e-01	2.576925e+04	
6	3.000000e-01	2.617828e+04	
7	3.500000e-01	2.659912e+04	
8	4.000000e-01	2.703229e+04	
9	4.500000e-01	2.747833e+04	
10	5.000000e-01	2.793784e+04	
11	5.500000e-01	2.841141e+04	
12	6.000000e-01	2.889972e+04	
13	6.500000e-01	2.940346e+04	
14	7.000000e-01	2.992336e+04	
15	7.500000e-01	3.046023e+04	
16	8.000000e-01	3.101490e+04	
17	8.500000e-01	3.158828e+04	
18	9.000000e-01	3.218132e+04	
19	9.500000e-01	3.279505e+04	
20	1.000000e+00	3.343058e+04	
21	1.050000e+00	3.408908e+04	
22	1.100000e+00	3.477183e+04	
23	1.150000e+00	3.548018e+04	
24	1.200000e+00	3.621560e+04	
25	1.250000e+00	3.697968e+04	
26	1.300000e+00	3.777412e+04	
27	1.350000e+00	3.860076e+04	
28	1.400000e+00	3.946161e+04	
29	1.450000e+00	4.035883e+04	
30	1.500000e+00	4.129478e+04	
31	1.550000e+00	4.227201e+04	
32	1.600000e+00	4.329332e+04	
33	1.650000e+00	4.436177e+04	
34	1.700000e+00	4.548068e+04	
35	1.750000e+00	4.665373e+04	
36	1.800000e+00	4.788494e+04	
37	1.850000e+00	4.917876e+04	
38	1.900000e+00	5.054007e+04	
39	1.950000e+00	5.197433e+04	
40	2.000000e+00	5.348755e+04	
41	2.050000e+00	5.508646e+04	
42	2.100000e+00	5.677857e+04	
43	2.150000e+00	5.857229e+04	
44	2.200000e+00	6.047712e+04	
45	2.250000e+00	6.250375e+04	
46	2.300000e+00	6.466435e+04	
47	2.350000e+00	6.697278e+04	
48	2.400000e+00	6.944493e+04	
49	2.450000e+00	7.209915e+04	
50	2.500000e+00	7.495678e+04	
51	2.550000e+00	7.804280e+04	
52	2.600000e+00	8.138684e+04	
53	2.650000e+00	8.502447e+04	
54	2.700000e+00	8.899907e+04	

Index   v-sweep         rds             
--------------------------------------------------------------------------------
55	2.750000e+00	9.336475e+04	
56	2.800000e+00	9.819080e+04	
57	2.850000e+00	1.035690e+05	
58	2.900000e+00	1.096257e+05	
59	2.950000e+00	1.165416e+05	
60	3.000000e+00	1.245808e+05	
61	3.050000e+00	1.341256e+05	
62	3.100000e+00	1.456870e+05	
63	3.150000e+00	1.598302e+05	
64	3.200000e+00	1.769744e+05	
65	3.250000e+00	1.971720e+05	
66	3.300000e+00	2.200751e+05	
67	3.350000e+00	2.451173e+05	
68	3.400000e+00	2.717276e+05	
69	3.450000e+00	2.994434e+05	
70	3.500000e+00	3.279283e+05	
71	3.550000e+00	3.569506e+05	
72	3.600000e+00	3.863532e+05	
73	3.650000e+00	4.160297e+05	
74	3.700000e+00	4.459069e+05	
75	3.750000e+00	4.759343e+05	
76	3.800000e+00	5.060757e+05	
77	3.850000e+00	5.363054e+05	
78	3.900000e+00	5.666044e+05	
79	3.950000e+00	5.969585e+05	
80	4.000000e+00	6.273571e+05	
81	4.050000e+00	6.577919e+05	
82	4.100000e+00	6.882565e+05	
83	4.150000e+00	7.187460e+05	
84	4.200000e+00	7.492562e+05	
85	4.250000e+00	7.797841e+05	
86	4.300000e+00	8.103270e+05	
87	4.350000e+00	8.408827e+05	
88	4.400000e+00	8.714494e+05	
89	4.450000e+00	9.020257e+05	
90	4.500000e+00	9.326103e+05	
91	4.550000e+00	9.632022e+05	
92	4.600000e+00	9.938005e+05	
93	4.650000e+00	1.024404e+06	
94	4.700000e+00	1.055013e+06	
95	4.750000e+00	1.085626e+06	
96	4.800000e+00	1.116244e+06	
97	4.850000e+00	1.146864e+06	
98	4.900000e+00	1.177488e+06	
99	4.950000e+00	1.208114e+06	
100	5.000000e+00	1.238743e+06	
101	5.050000e+00	1.269374e+06	
102	5.100000e+00	1.300007e+06	
103	5.150000e+00	1.330642e+06	
104	5.200000e+00	1.361278e+06	
105	5.250000e+00	1.391916e+06	
106	5.300000e+00	1.422555e+06	
107	5.350000e+00	1.453195e+06	
108	5.400000e+00	1.483836e+06	
109	5.450000e+00	1.514478e+06	
110	5.500000e+00	1.545121e+06	
111	5.550000e+00	1.575764e+06	
112	5.600000e+00	1.606408e+06	

Index   v-sweep         rds             
--------------------------------------------------------------------------------
113	5.650000e+00	1.637053e+06	
114	5.700000e+00	1.667698e+06	
115	5.750000e+00	1.698343e+06	
116	5.800000e+00	1.728989e+06	
117	5.850000e+00	1.759635e+06	
118	5.900000e+00	1.790281e+06	
119	5.950000e+00	1.820927e+06	
120	6.000000e+00	1.851573e+06	
121	6.050000e+00	1.882220e+06	
122	6.100000e+00	1.912867e+06	
123	6.150000e+00	1.943513e+06	
124	6.200000e+00	1.974160e+06	
125	6.250000e+00	2.004806e+06	
126	6.300000e+00	2.035452e+06	
127	6.350000e+00	2.066099e+06	
128	6.400000e+00	2.096745e+06	
129	6.450000e+00	2.127391e+06	
130	6.500000e+00	2.158036e+06	
131	6.550000e+00	2.188682e+06	
132	6.600000e+00	2.219327e+06	
Reset re-loads circuit ***************************

Circuit: ***************************

Doing analysis at TEMP = -40.000000 and TNOM = -40.000000


No. of Data Rows : 133
                          ***************************
                          DC transfer characteristic  Mon Jan  9 13:58:06  2023
--------------------------------------------------------------------------------
Index   v-sweep         rds             
--------------------------------------------------------------------------------
0	0.000000e+00	2.042793e+04	
1	5.000000e-02	2.065591e+04	
2	1.000000e-01	2.088832e+04	
3	1.500000e-01	2.112528e+04	
4	2.000000e-01	2.136694e+04	
5	2.500000e-01	2.161343e+04	
6	3.000000e-01	2.186490e+04	
7	3.500000e-01	2.212150e+04	
8	4.000000e-01	2.238339e+04	
9	4.500000e-01	2.265074e+04	
10	5.000000e-01	2.292371e+04	
11	5.500000e-01	2.320249e+04	
12	6.000000e-01	2.348726e+04	
13	6.500000e-01	2.377822e+04	
14	7.000000e-01	2.407556e+04	
15	7.500000e-01	2.437951e+04	
16	8.000000e-01	2.469029e+04	
17	8.500000e-01	2.500812e+04	
18	9.000000e-01	2.533325e+04	
19	9.500000e-01	2.566593e+04	
20	1.000000e+00	2.600643e+04	
21	1.050000e+00	2.635503e+04	
22	1.100000e+00	2.671202e+04	
23	1.150000e+00	2.707771e+04	
24	1.200000e+00	2.745241e+04	
25	1.250000e+00	2.783646e+04	
26	1.300000e+00	2.823023e+04	
27	1.350000e+00	2.863407e+04	
28	1.400000e+00	2.904838e+04	
29	1.450000e+00	2.947358e+04	
30	1.500000e+00	2.991009e+04	
31	1.550000e+00	3.035838e+04	
32	1.600000e+00	3.081892e+04	
33	1.650000e+00	3.129224e+04	
34	1.700000e+00	3.177885e+04	
35	1.750000e+00	3.227934e+04	
36	1.800000e+00	3.279430e+04	
37	1.850000e+00	3.332437e+04	
38	1.900000e+00	3.387023e+04	
39	1.950000e+00	3.443258e+04	
40	2.000000e+00	3.501220e+04	
41	2.050000e+00	3.560987e+04	
42	2.100000e+00	3.622648e+04	
43	2.150000e+00	3.686291e+04	
44	2.200000e+00	3.752016e+04	
45	2.250000e+00	3.819925e+04	
46	2.300000e+00	3.890130e+04	
47	2.350000e+00	3.962748e+04	
48	2.400000e+00	4.037907e+04	
49	2.450000e+00	4.115742e+04	
50	2.500000e+00	4.196399e+04	
51	2.550000e+00	4.280034e+04	
52	2.600000e+00	4.366817e+04	
53	2.650000e+00	4.456928e+04	
54	2.700000e+00	4.550563e+04	

Index   v-sweep         rds             
--------------------------------------------------------------------------------
55	2.750000e+00	4.647934e+04	
56	2.800000e+00	4.749269e+04	
57	2.850000e+00	4.854817e+04	
58	2.900000e+00	4.964849e+04	
59	2.950000e+00	5.079657e+04	
60	3.000000e+00	5.199564e+04	
61	3.050000e+00	5.324920e+04	
62	3.100000e+00	5.456110e+04	
63	3.150000e+00	5.593558e+04	
64	3.200000e+00	5.737734e+04	
65	3.250000e+00	5.889156e+04	
66	3.300000e+00	6.048403e+04	
67	3.350000e+00	6.216125e+04	
68	3.400000e+00	6.393054e+04	
69	3.450000e+00	6.580024e+04	
70	3.500000e+00	6.777994e+04	
71	3.550000e+00	6.988083e+04	
72	3.600000e+00	7.211615e+04	
73	3.650000e+00	7.450199e+04	
74	3.700000e+00	7.705832e+04	
75	3.750000e+00	7.981076e+04	
76	3.800000e+00	8.279341e+04	
77	3.850000e+00	8.605335e+04	
78	3.900000e+00	8.965792e+04	
79	3.950000e+00	9.370587e+04	
80	4.000000e+00	9.834300e+04	
81	4.050000e+00	1.037792e+05	
82	4.100000e+00	1.102956e+05	
83	4.150000e+00	1.182196e+05	
84	4.200000e+00	1.278479e+05	
85	4.250000e+00	1.393399e+05	
86	4.300000e+00	1.526520e+05	
87	4.350000e+00	1.675654e+05	
88	4.400000e+00	1.837766e+05	
89	4.450000e+00	2.009836e+05	
90	4.500000e+00	2.189314e+05	
91	4.550000e+00	2.374237e+05	
92	4.600000e+00	2.563159e+05	
93	4.650000e+00	2.755041e+05	
94	4.700000e+00	2.949137e+05	
95	4.750000e+00	3.144911e+05	
96	4.800000e+00	3.341974e+05	
97	4.850000e+00	3.540041e+05	
98	4.900000e+00	3.738900e+05	
99	4.950000e+00	3.938393e+05	
100	5.000000e+00	4.138398e+05	
101	5.050000e+00	4.338820e+05	
102	5.100000e+00	4.539588e+05	
103	5.150000e+00	4.740643e+05	
104	5.200000e+00	4.941939e+05	
105	5.250000e+00	5.143440e+05	
106	5.300000e+00	5.345114e+05	
107	5.350000e+00	5.546938e+05	
108	5.400000e+00	5.748890e+05	
109	5.450000e+00	5.950954e+05	
110	5.500000e+00	6.153116e+05	
111	5.550000e+00	6.355364e+05	
112	5.600000e+00	6.557686e+05	

Index   v-sweep         rds             
--------------------------------------------------------------------------------
113	5.650000e+00	6.760076e+05	
114	5.700000e+00	6.962524e+05	
115	5.750000e+00	7.165025e+05	
116	5.800000e+00	7.367573e+05	
117	5.850000e+00	7.570163e+05	
118	5.900000e+00	7.772791e+05	
119	5.950000e+00	7.975453e+05	
120	6.000000e+00	8.178145e+05	
121	6.050000e+00	8.380866e+05	
122	6.100000e+00	8.583611e+05	
123	6.150000e+00	8.786380e+05	
124	6.200000e+00	8.989169e+05	
125	6.250000e+00	9.191977e+05	
126	6.300000e+00	9.394803e+05	
127	6.350000e+00	9.597644e+05	
128	6.400000e+00	9.800499e+05	
129	6.450000e+00	1.000337e+06	
130	6.500000e+00	1.020625e+06	
131	6.550000e+00	1.040914e+06	
132	6.600000e+00	1.061204e+06	
Reset re-loads circuit ***************************

Circuit: ***************************

Doing analysis at TEMP = -40.000000 and TNOM = -40.000000


No. of Data Rows : 133
                          ***************************
                          DC transfer characteristic  Mon Jan  9 13:58:06  2023
--------------------------------------------------------------------------------
Index   v-sweep         rds             
--------------------------------------------------------------------------------
0	0.000000e+00	1.839529e+04	
1	5.000000e-02	1.855673e+04	
2	1.000000e-01	1.872057e+04	
3	1.500000e-01	1.888685e+04	
4	2.000000e-01	1.905563e+04	
5	2.500000e-01	1.922696e+04	
6	3.000000e-01	1.940091e+04	
7	3.500000e-01	1.957753e+04	
8	4.000000e-01	1.975689e+04	
9	4.500000e-01	1.993905e+04	
10	5.000000e-01	2.012407e+04	
11	5.500000e-01	2.031202e+04	
12	6.000000e-01	2.050298e+04	
13	6.500000e-01	2.069701e+04	
14	7.000000e-01	2.089420e+04	
15	7.500000e-01	2.109460e+04	
16	8.000000e-01	2.129832e+04	
17	8.500000e-01	2.150542e+04	
18	9.000000e-01	2.171600e+04	
19	9.500000e-01	2.193014e+04	
20	1.000000e+00	2.214793e+04	
21	1.050000e+00	2.236947e+04	
22	1.100000e+00	2.259486e+04	
23	1.150000e+00	2.282418e+04	
24	1.200000e+00	2.305756e+04	
25	1.250000e+00	2.329509e+04	
26	1.300000e+00	2.353689e+04	
27	1.350000e+00	2.378307e+04	
28	1.400000e+00	2.403376e+04	
29	1.450000e+00	2.428907e+04	
30	1.500000e+00	2.454914e+04	
31	1.550000e+00	2.481411e+04	
32	1.600000e+00	2.508410e+04	
33	1.650000e+00	2.535927e+04	
34	1.700000e+00	2.563976e+04	
35	1.750000e+00	2.592573e+04	
36	1.800000e+00	2.621735e+04	
37	1.850000e+00	2.651477e+04	
38	1.900000e+00	2.681818e+04	
39	1.950000e+00	2.712776e+04	
40	2.000000e+00	2.744369e+04	
41	2.050000e+00	2.776618e+04	
42	2.100000e+00	2.809543e+04	
43	2.150000e+00	2.843166e+04	
44	2.200000e+00	2.877508e+04	
45	2.250000e+00	2.912593e+04	
46	2.300000e+00	2.948446e+04	
47	2.350000e+00	2.985092e+04	
48	2.400000e+00	3.022557e+04	
49	2.450000e+00	3.060870e+04	
50	2.500000e+00	3.100059e+04	
51	2.550000e+00	3.140154e+04	
52	2.600000e+00	3.181189e+04	
53	2.650000e+00	3.223195e+04	
54	2.700000e+00	3.266207e+04	

Index   v-sweep         rds             
--------------------------------------------------------------------------------
55	2.750000e+00	3.310263e+04	
56	2.800000e+00	3.355401e+04	
57	2.850000e+00	3.401661e+04	
58	2.900000e+00	3.449086e+04	
59	2.950000e+00	3.497719e+04	
60	3.000000e+00	3.547608e+04	
61	3.050000e+00	3.598803e+04	
62	3.100000e+00	3.651354e+04	
63	3.150000e+00	3.705318e+04	
64	3.200000e+00	3.760751e+04	
65	3.250000e+00	3.817714e+04	
66	3.300000e+00	3.876272e+04	
67	3.350000e+00	3.936493e+04	
68	3.400000e+00	3.998450e+04	
69	3.450000e+00	4.062218e+04	
70	3.500000e+00	4.127878e+04	
71	3.550000e+00	4.195517e+04	
72	3.600000e+00	4.265225e+04	
73	3.650000e+00	4.337100e+04	
74	3.700000e+00	4.411246e+04	
75	3.750000e+00	4.487772e+04	
76	3.800000e+00	4.566797e+04	
77	3.850000e+00	4.648446e+04	
78	3.900000e+00	4.732856e+04	
79	3.950000e+00	4.820171e+04	
80	4.000000e+00	4.910548e+04	
81	4.050000e+00	5.004154e+04	
82	4.100000e+00	5.101173e+04	
83	4.150000e+00	5.201803e+04	
84	4.200000e+00	5.306260e+04	
85	4.250000e+00	5.414779e+04	
86	4.300000e+00	5.527623e+04	
87	4.350000e+00	5.645081e+04	
88	4.400000e+00	5.767475e+04	
89	4.450000e+00	5.895173e+04	
90	4.500000e+00	6.028593e+04	
91	4.550000e+00	6.168225e+04	
92	4.600000e+00	6.314649e+04	
93	4.650000e+00	6.468568e+04	
94	4.700000e+00	6.630858e+04	
95	4.750000e+00	6.802643e+04	
96	4.800000e+00	6.985410e+04	
97	4.850000e+00	7.181184e+04	
98	4.900000e+00	7.392804e+04	
99	4.950000e+00	7.624340e+04	
100	5.000000e+00	7.881702e+04	
101	5.050000e+00	8.173444e+04	
102	5.100000e+00	8.511662e+04	
103	5.150000e+00	8.912555e+04	
104	5.200000e+00	9.395801e+04	
105	5.250000e+00	9.981788e+04	
106	5.300000e+00	1.068666e+05	
107	5.350000e+00	1.151729e+05	
108	5.400000e+00	1.246920e+05	
109	5.450000e+00	1.352880e+05	
110	5.500000e+00	1.467800e+05	
111	5.550000e+00	1.589844e+05	
112	5.600000e+00	1.717398e+05	

Index   v-sweep         rds             
--------------------------------------------------------------------------------
113	5.650000e+00	1.849157e+05	
114	5.700000e+00	1.984113e+05	
115	5.750000e+00	2.121507e+05	
116	5.800000e+00	2.260773e+05	
117	5.850000e+00	2.401492e+05	
118	5.900000e+00	2.543347e+05	
119	5.950000e+00	2.686102e+05	
120	6.000000e+00	2.829578e+05	
121	6.050000e+00	2.973636e+05	
122	6.100000e+00	3.118170e+05	
123	6.150000e+00	3.263096e+05	
124	6.200000e+00	3.408348e+05	
125	6.250000e+00	3.553873e+05	
126	6.300000e+00	3.699629e+05	
127	6.350000e+00	3.845582e+05	
128	6.400000e+00	3.991704e+05	
129	6.450000e+00	4.137970e+05	
130	6.500000e+00	4.284362e+05	
131	6.550000e+00	4.430864e+05	
132	6.600000e+00	4.577462e+05	
Reset re-loads circuit ***************************

Circuit: ***************************

Note: No ".plot", ".print", or ".fourier" lines; no simulations run
