
Note: Compatibility modes selected: hs

Warning: m=xx on .subckt line will override multiplier m hierarchy!


Circuit: ***************************

Doing analysis at TEMP = 25.000000 and TNOM = 25.000000


No. of Data Rows : 133
                          ***************************
                          DC transfer characteristic  Mon Jan  9 13:58:05  2023
--------------------------------------------------------------------------------
Index   v-sweep         rds             
--------------------------------------------------------------------------------
0	0.000000e+00	7.314349e+04	
1	5.000000e-02	8.635172e+04	
2	1.000000e-01	1.053067e+05	
3	1.500000e-01	1.347463e+05	
4	2.000000e-01	1.863304e+05	
5	2.500000e-01	2.961506e+05	
6	3.000000e-01	6.049954e+05	
7	3.500000e-01	1.503167e+06	
8	4.000000e-01	2.854387e+06	
9	4.500000e-01	3.948190e+06	
10	5.000000e-01	4.768027e+06	
11	5.500000e-01	5.456867e+06	
12	6.000000e-01	6.086451e+06	
13	6.500000e-01	6.687123e+06	
14	7.000000e-01	7.272380e+06	
15	7.500000e-01	7.848749e+06	
16	8.000000e-01	8.419643e+06	
17	8.500000e-01	8.986972e+06	
18	9.000000e-01	9.551871e+06	
19	9.500000e-01	1.011504e+07	
20	1.000000e+00	1.067695e+07	
21	1.050000e+00	1.123789e+07	
22	1.100000e+00	1.179808e+07	
23	1.150000e+00	1.235767e+07	
24	1.200000e+00	1.291677e+07	
25	1.250000e+00	1.347547e+07	
26	1.300000e+00	1.403381e+07	
27	1.350000e+00	1.459185e+07	
28	1.400000e+00	1.514963e+07	
29	1.450000e+00	1.570717e+07	
30	1.500000e+00	1.626450e+07	
31	1.550000e+00	1.682163e+07	
32	1.600000e+00	1.737858e+07	
33	1.650000e+00	1.793536e+07	
34	1.700000e+00	1.849199e+07	
35	1.750000e+00	1.904847e+07	
36	1.800000e+00	1.960480e+07	
37	1.850000e+00	2.016100e+07	
38	1.900000e+00	2.071707e+07	
39	1.950000e+00	2.127301e+07	
40	2.000000e+00	2.182882e+07	
41	2.050000e+00	2.238452e+07	
42	2.100000e+00	2.294010e+07	
43	2.150000e+00	2.349556e+07	
44	2.200000e+00	2.405092e+07	
45	2.250000e+00	2.460616e+07	
46	2.300000e+00	2.516129e+07	
47	2.350000e+00	2.571631e+07	
48	2.400000e+00	2.627123e+07	
49	2.450000e+00	2.682605e+07	
50	2.500000e+00	2.738075e+07	
51	2.550000e+00	2.793536e+07	
52	2.600000e+00	2.848986e+07	
53	2.650000e+00	2.904426e+07	
54	2.700000e+00	2.959856e+07	

Index   v-sweep         rds             
--------------------------------------------------------------------------------
55	2.750000e+00	3.015276e+07	
56	2.800000e+00	3.070686e+07	
57	2.850000e+00	3.126086e+07	
58	2.900000e+00	3.181476e+07	
59	2.950000e+00	3.236856e+07	
60	3.000000e+00	3.292226e+07	
61	3.050000e+00	3.347586e+07	
62	3.100000e+00	3.402937e+07	
63	3.150000e+00	3.458278e+07	
64	3.200000e+00	3.513609e+07	
65	3.250000e+00	3.568931e+07	
66	3.300000e+00	3.624242e+07	
67	3.350000e+00	3.679544e+07	
68	3.400000e+00	3.734837e+07	
69	3.450000e+00	3.790120e+07	
70	3.500000e+00	3.845393e+07	
71	3.550000e+00	3.900656e+07	
72	3.600000e+00	3.955910e+07	
73	3.650000e+00	4.011155e+07	
74	3.700000e+00	4.066390e+07	
75	3.750000e+00	4.121615e+07	
76	3.800000e+00	4.176830e+07	
77	3.850000e+00	4.232037e+07	
78	3.900000e+00	4.287233e+07	
79	3.950000e+00	4.342420e+07	
80	4.000000e+00	4.397598e+07	
81	4.050000e+00	4.452766e+07	
82	4.100000e+00	4.507925e+07	
83	4.150000e+00	4.563074e+07	
84	4.200000e+00	4.618213e+07	
85	4.250000e+00	4.673343e+07	
86	4.300000e+00	4.728464e+07	
87	4.350000e+00	4.783575e+07	
88	4.400000e+00	4.838677e+07	
89	4.450000e+00	4.893769e+07	
90	4.500000e+00	4.948852e+07	
91	4.550000e+00	5.003925e+07	
92	4.600000e+00	5.058989e+07	
93	4.650000e+00	5.114043e+07	
94	4.700000e+00	5.169088e+07	
95	4.750000e+00	5.224123e+07	
96	4.800000e+00	5.279149e+07	
97	4.850000e+00	5.334166e+07	
98	4.900000e+00	5.389173e+07	
99	4.950000e+00	5.444170e+07	
100	5.000000e+00	5.499159e+07	
101	5.050000e+00	5.554137e+07	
102	5.100000e+00	5.609107e+07	
103	5.150000e+00	5.664066e+07	
104	5.200000e+00	5.719017e+07	
105	5.250000e+00	5.773958e+07	
106	5.300000e+00	5.828889e+07	
107	5.350000e+00	5.883812e+07	
108	5.400000e+00	5.938724e+07	
109	5.450000e+00	5.993628e+07	
110	5.500000e+00	6.048521e+07	
111	5.550000e+00	6.103406e+07	
112	5.600000e+00	6.158281e+07	

Index   v-sweep         rds             
--------------------------------------------------------------------------------
113	5.650000e+00	6.213146e+07	
114	5.700000e+00	6.268003e+07	
115	5.750000e+00	6.322849e+07	
116	5.800000e+00	6.377687e+07	
117	5.850000e+00	6.432515e+07	
118	5.900000e+00	6.487333e+07	
119	5.950000e+00	6.542142e+07	
120	6.000000e+00	6.596942e+07	
121	6.050000e+00	6.651732e+07	
122	6.100000e+00	6.706513e+07	
123	6.150000e+00	6.761284e+07	
124	6.200000e+00	6.816046e+07	
125	6.250000e+00	6.870799e+07	
126	6.300000e+00	6.925542e+07	
127	6.350000e+00	6.980276e+07	
128	6.400000e+00	7.035000e+07	
129	6.450000e+00	7.089715e+07	
130	6.500000e+00	7.144421e+07	
131	6.550000e+00	7.199117e+07	
132	6.600000e+00	7.253804e+07	
Reset re-loads circuit ***************************

Circuit: ***************************

Doing analysis at TEMP = 25.000000 and TNOM = 25.000000


No. of Data Rows : 133
                          ***************************
                          DC transfer characteristic  Mon Jan  9 13:58:05  2023
--------------------------------------------------------------------------------
Index   v-sweep         rds             
--------------------------------------------------------------------------------
0	0.000000e+00	1.791920e+04	
1	5.000000e-02	1.858195e+04	
2	1.000000e-01	1.929345e+04	
3	1.500000e-01	2.005929e+04	
4	2.000000e-01	2.088595e+04	
5	2.500000e-01	2.178094e+04	
6	3.000000e-01	2.275312e+04	
7	3.500000e-01	2.381291e+04	
8	4.000000e-01	2.497272e+04	
9	4.500000e-01	2.624737e+04	
10	5.000000e-01	2.765482e+04	
11	5.500000e-01	2.921694e+04	
12	6.000000e-01	3.096067e+04	
13	6.500000e-01	3.291959e+04	
14	7.000000e-01	3.513610e+04	
15	7.500000e-01	3.766445e+04	
16	8.000000e-01	4.057521e+04	
17	8.500000e-01	4.396187e+04	
18	9.000000e-01	4.795077e+04	
19	9.500000e-01	5.271673e+04	
20	1.000000e+00	5.850797e+04	
21	1.050000e+00	6.568746e+04	
22	1.100000e+00	7.480238e+04	
23	1.150000e+00	8.670121e+04	
24	1.200000e+00	1.027163e+05	
25	1.250000e+00	1.248610e+05	
26	1.300000e+00	1.556482e+05	
27	1.350000e+00	1.965209e+05	
28	1.400000e+00	2.452985e+05	
29	1.450000e+00	2.971850e+05	
30	1.500000e+00	3.488825e+05	
31	1.550000e+00	3.994898e+05	
32	1.600000e+00	4.491319e+05	
33	1.650000e+00	4.981004e+05	
34	1.700000e+00	5.466246e+05	
35	1.750000e+00	5.948558e+05	
36	1.800000e+00	6.428901e+05	
37	1.850000e+00	6.907884e+05	
38	1.900000e+00	7.385903e+05	
39	1.950000e+00	7.863220e+05	
40	2.000000e+00	8.340013e+05	
41	2.050000e+00	8.816407e+05	
42	2.100000e+00	9.292488e+05	
43	2.150000e+00	9.768321e+05	
44	2.200000e+00	1.024395e+06	
45	2.250000e+00	1.071942e+06	
46	2.300000e+00	1.119475e+06	
47	2.350000e+00	1.166996e+06	
48	2.400000e+00	1.214507e+06	
49	2.450000e+00	1.262009e+06	
50	2.500000e+00	1.309503e+06	
51	2.550000e+00	1.356990e+06	
52	2.600000e+00	1.404471e+06	
53	2.650000e+00	1.451947e+06	
54	2.700000e+00	1.499416e+06	

Index   v-sweep         rds             
--------------------------------------------------------------------------------
55	2.750000e+00	1.546881e+06	
56	2.800000e+00	1.594342e+06	
57	2.850000e+00	1.641798e+06	
58	2.900000e+00	1.689250e+06	
59	2.950000e+00	1.736698e+06	
60	3.000000e+00	1.784142e+06	
61	3.050000e+00	1.831583e+06	
62	3.100000e+00	1.879021e+06	
63	3.150000e+00	1.926455e+06	
64	3.200000e+00	1.973885e+06	
65	3.250000e+00	2.021313e+06	
66	3.300000e+00	2.068738e+06	
67	3.350000e+00	2.116159e+06	
68	3.400000e+00	2.163578e+06	
69	3.450000e+00	2.210993e+06	
70	3.500000e+00	2.258406e+06	
71	3.550000e+00	2.305816e+06	
72	3.600000e+00	2.353223e+06	
73	3.650000e+00	2.400627e+06	
74	3.700000e+00	2.448028e+06	
75	3.750000e+00	2.495427e+06	
76	3.800000e+00	2.542823e+06	
77	3.850000e+00	2.590216e+06	
78	3.900000e+00	2.637607e+06	
79	3.950000e+00	2.684995e+06	
80	4.000000e+00	2.732380e+06	
81	4.050000e+00	2.779763e+06	
82	4.100000e+00	2.827143e+06	
83	4.150000e+00	2.874520e+06	
84	4.200000e+00	2.921895e+06	
85	4.250000e+00	2.969268e+06	
86	4.300000e+00	3.016637e+06	
87	4.350000e+00	3.064004e+06	
88	4.400000e+00	3.111369e+06	
89	4.450000e+00	3.158731e+06	
90	4.500000e+00	3.206090e+06	
91	4.550000e+00	3.253447e+06	
92	4.600000e+00	3.300802e+06	
93	4.650000e+00	3.348153e+06	
94	4.700000e+00	3.395503e+06	
95	4.750000e+00	3.442849e+06	
96	4.800000e+00	3.490193e+06	
97	4.850000e+00	3.537535e+06	
98	4.900000e+00	3.584874e+06	
99	4.950000e+00	3.632211e+06	
100	5.000000e+00	3.679545e+06	
101	5.050000e+00	3.726876e+06	
102	5.100000e+00	3.774205e+06	
103	5.150000e+00	3.821532e+06	
104	5.200000e+00	3.868856e+06	
105	5.250000e+00	3.916177e+06	
106	5.300000e+00	3.963496e+06	
107	5.350000e+00	4.010813e+06	
108	5.400000e+00	4.058126e+06	
109	5.450000e+00	4.105438e+06	
110	5.500000e+00	4.152747e+06	
111	5.550000e+00	4.200053e+06	
112	5.600000e+00	4.247357e+06	

Index   v-sweep         rds             
--------------------------------------------------------------------------------
113	5.650000e+00	4.294658e+06	
114	5.700000e+00	4.341957e+06	
115	5.750000e+00	4.389253e+06	
116	5.800000e+00	4.436547e+06	
117	5.850000e+00	4.483838e+06	
118	5.900000e+00	4.531127e+06	
119	5.950000e+00	4.578413e+06	
120	6.000000e+00	4.625697e+06	
121	6.050000e+00	4.672978e+06	
122	6.100000e+00	4.720257e+06	
123	6.150000e+00	4.767533e+06	
124	6.200000e+00	4.814807e+06	
125	6.250000e+00	4.862078e+06	
126	6.300000e+00	4.909347e+06	
127	6.350000e+00	4.956613e+06	
128	6.400000e+00	5.003877e+06	
129	6.450000e+00	5.051138e+06	
130	6.500000e+00	5.098397e+06	
131	6.550000e+00	5.145653e+06	
132	6.600000e+00	5.192906e+06	
Reset re-loads circuit ***************************

Circuit: ***************************

Doing analysis at TEMP = 25.000000 and TNOM = 25.000000


No. of Data Rows : 133
                          ***************************
                          DC transfer characteristic  Mon Jan  9 13:58:05  2023
--------------------------------------------------------------------------------
Index   v-sweep         rds             
--------------------------------------------------------------------------------
0	0.000000e+00	1.152709e+04	
1	5.000000e-02	1.176342e+04	
2	1.000000e-01	1.200892e+04	
3	1.500000e-01	1.226413e+04	
4	2.000000e-01	1.252964e+04	
5	2.500000e-01	1.280608e+04	
6	3.000000e-01	1.309414e+04	
7	3.500000e-01	1.339457e+04	
8	4.000000e-01	1.370818e+04	
9	4.500000e-01	1.403587e+04	
10	5.000000e-01	1.437859e+04	
11	5.500000e-01	1.473740e+04	
12	6.000000e-01	1.511348e+04	
13	6.500000e-01	1.550809e+04	
14	7.000000e-01	1.592263e+04	
15	7.500000e-01	1.635866e+04	
16	8.000000e-01	1.681789e+04	
17	8.500000e-01	1.730222e+04	
18	9.000000e-01	1.781376e+04	
19	9.500000e-01	1.835488e+04	
20	1.000000e+00	1.892822e+04	
21	1.050000e+00	1.953673e+04	
22	1.100000e+00	2.018376e+04	
23	1.150000e+00	2.087308e+04	
24	1.200000e+00	2.160897e+04	
25	1.250000e+00	2.239632e+04	
26	1.300000e+00	2.324073e+04	
27	1.350000e+00	2.414861e+04	
28	1.400000e+00	2.512740e+04	
29	1.450000e+00	2.618574e+04	
30	1.500000e+00	2.733373e+04	
31	1.550000e+00	2.858326e+04	
32	1.600000e+00	2.994839e+04	
33	1.650000e+00	3.144594e+04	
34	1.700000e+00	3.309611e+04	
35	1.750000e+00	3.492343e+04	
36	1.800000e+00	3.695797e+04	
37	1.850000e+00	3.923694e+04	
38	1.900000e+00	4.180695e+04	
39	1.950000e+00	4.472712e+04	
40	2.000000e+00	4.807334e+04	
41	2.050000e+00	5.194439e+04	
42	2.100000e+00	5.647032e+04	
43	2.150000e+00	6.182352e+04	
44	2.200000e+00	6.823119e+04	
45	2.250000e+00	7.598188e+04	
46	2.300000e+00	8.540450e+04	
47	2.350000e+00	9.678058e+04	
48	2.400000e+00	1.101835e+05	
49	2.450000e+00	1.253687e+05	
50	2.500000e+00	1.418720e+05	
51	2.550000e+00	1.592275e+05	
52	2.600000e+00	1.770948e+05	
53	2.650000e+00	1.952633e+05	
54	2.700000e+00	2.136113e+05	

Index   v-sweep         rds             
--------------------------------------------------------------------------------
55	2.750000e+00	2.320697e+05	
56	2.800000e+00	2.505984e+05	
57	2.850000e+00	2.691735e+05	
58	2.900000e+00	2.877804e+05	
59	2.950000e+00	3.064096e+05	
60	3.000000e+00	3.250549e+05	
61	3.050000e+00	3.437122e+05	
62	3.100000e+00	3.623785e+05	
63	3.150000e+00	3.810517e+05	
64	3.200000e+00	3.997303e+05	
65	3.250000e+00	4.184132e+05	
66	3.300000e+00	4.370994e+05	
67	3.350000e+00	4.557882e+05	
68	3.400000e+00	4.744793e+05	
69	3.450000e+00	4.931721e+05	
70	3.500000e+00	5.118663e+05	
71	3.550000e+00	5.305617e+05	
72	3.600000e+00	5.492580e+05	
73	3.650000e+00	5.679551e+05	
74	3.700000e+00	5.866527e+05	
75	3.750000e+00	6.053508e+05	
76	3.800000e+00	6.240492e+05	
77	3.850000e+00	6.427479e+05	
78	3.900000e+00	6.614468e+05	
79	3.950000e+00	6.801457e+05	
80	4.000000e+00	6.988447e+05	
81	4.050000e+00	7.175437e+05	
82	4.100000e+00	7.362426e+05	
83	4.150000e+00	7.549414e+05	
84	4.200000e+00	7.736400e+05	
85	4.250000e+00	7.923385e+05	
86	4.300000e+00	8.110368e+05	
87	4.350000e+00	8.297349e+05	
88	4.400000e+00	8.484326e+05	
89	4.450000e+00	8.671302e+05	
90	4.500000e+00	8.858274e+05	
91	4.550000e+00	9.045243e+05	
92	4.600000e+00	9.232209e+05	
93	4.650000e+00	9.419171e+05	
94	4.700000e+00	9.606130e+05	
95	4.750000e+00	9.793085e+05	
96	4.800000e+00	9.980037e+05	
97	4.850000e+00	1.016698e+06	
98	4.900000e+00	1.035393e+06	
99	4.950000e+00	1.054087e+06	
100	5.000000e+00	1.072780e+06	
101	5.050000e+00	1.091473e+06	
102	5.100000e+00	1.110166e+06	
103	5.150000e+00	1.128858e+06	
104	5.200000e+00	1.147550e+06	
105	5.250000e+00	1.166241e+06	
106	5.300000e+00	1.184932e+06	
107	5.350000e+00	1.203622e+06	
108	5.400000e+00	1.222312e+06	
109	5.450000e+00	1.241002e+06	
110	5.500000e+00	1.259691e+06	
111	5.550000e+00	1.278379e+06	
112	5.600000e+00	1.297067e+06	

Index   v-sweep         rds             
--------------------------------------------------------------------------------
113	5.650000e+00	1.315755e+06	
114	5.700000e+00	1.334442e+06	
115	5.750000e+00	1.353128e+06	
116	5.800000e+00	1.371814e+06	
117	5.850000e+00	1.390500e+06	
118	5.900000e+00	1.409185e+06	
119	5.950000e+00	1.427869e+06	
120	6.000000e+00	1.446554e+06	
121	6.050000e+00	1.465237e+06	
122	6.100000e+00	1.483920e+06	
123	6.150000e+00	1.502602e+06	
124	6.200000e+00	1.521284e+06	
125	6.250000e+00	1.539966e+06	
126	6.300000e+00	1.558647e+06	
127	6.350000e+00	1.577327e+06	
128	6.400000e+00	1.596007e+06	
129	6.450000e+00	1.614686e+06	
130	6.500000e+00	1.633365e+06	
131	6.550000e+00	1.652043e+06	
132	6.600000e+00	1.670721e+06	
Reset re-loads circuit ***************************

Circuit: ***************************

Doing analysis at TEMP = 25.000000 and TNOM = 25.000000


No. of Data Rows : 133
                          ***************************
                          DC transfer characteristic  Mon Jan  9 13:58:05  2023
--------------------------------------------------------------------------------
Index   v-sweep         rds             
--------------------------------------------------------------------------------
0	0.000000e+00	9.091515e+03	
1	5.000000e-02	9.219072e+03	
2	1.000000e-01	9.349897e+03	
3	1.500000e-01	9.484117e+03	
4	2.000000e-01	9.621867e+03	
5	2.500000e-01	9.763286e+03	
6	3.000000e-01	9.908523e+03	
7	3.500000e-01	1.005773e+04	
8	4.000000e-01	1.021109e+04	
9	4.500000e-01	1.036875e+04	
10	5.000000e-01	1.053092e+04	
11	5.500000e-01	1.069778e+04	
12	6.000000e-01	1.086954e+04	
13	6.500000e-01	1.104642e+04	
14	7.000000e-01	1.122865e+04	
15	7.500000e-01	1.141648e+04	
16	8.000000e-01	1.161017e+04	
17	8.500000e-01	1.181000e+04	
18	9.000000e-01	1.201626e+04	
19	9.500000e-01	1.222928e+04	
20	1.000000e+00	1.244938e+04	
21	1.050000e+00	1.267692e+04	
22	1.100000e+00	1.291230e+04	
23	1.150000e+00	1.315592e+04	
24	1.200000e+00	1.340822e+04	
25	1.250000e+00	1.366967e+04	
26	1.300000e+00	1.394078e+04	
27	1.350000e+00	1.422210e+04	
28	1.400000e+00	1.451421e+04	
29	1.450000e+00	1.481775e+04	
30	1.500000e+00	1.513340e+04	
31	1.550000e+00	1.546189e+04	
32	1.600000e+00	1.580403e+04	
33	1.650000e+00	1.616069e+04	
34	1.700000e+00	1.653281e+04	
35	1.750000e+00	1.692142e+04	
36	1.800000e+00	1.732763e+04	
37	1.850000e+00	1.775268e+04	
38	1.900000e+00	1.819790e+04	
39	1.950000e+00	1.866476e+04	
40	2.000000e+00	1.915489e+04	
41	2.050000e+00	1.967005e+04	
42	2.100000e+00	2.021223e+04	
43	2.150000e+00	2.078361e+04	
44	2.200000e+00	2.138660e+04	
45	2.250000e+00	2.202392e+04	
46	2.300000e+00	2.269857e+04	
47	2.350000e+00	2.341394e+04	
48	2.400000e+00	2.417385e+04	
49	2.450000e+00	2.498257e+04	
50	2.500000e+00	2.584500e+04	
51	2.550000e+00	2.676667e+04	
52	2.600000e+00	2.775394e+04	
53	2.650000e+00	2.881408e+04	
54	2.700000e+00	2.995554e+04	

Index   v-sweep         rds             
--------------------------------------------------------------------------------
55	2.750000e+00	3.118812e+04	
56	2.800000e+00	3.252332e+04	
57	2.850000e+00	3.397469e+04	
58	2.900000e+00	3.555842e+04	
59	2.950000e+00	3.729399e+04	
60	3.000000e+00	3.920521e+04	
61	3.050000e+00	4.132162e+04	
62	3.100000e+00	4.368060e+04	
63	3.150000e+00	4.633051e+04	
64	3.200000e+00	4.933519e+04	
65	3.250000e+00	5.278010e+04	
66	3.300000e+00	5.677813e+04	
67	3.350000e+00	6.146886e+04	
68	3.400000e+00	6.699802e+04	
69	3.450000e+00	7.346843e+04	
70	3.500000e+00	8.088425e+04	
71	3.550000e+00	8.913826e+04	
72	3.600000e+00	9.805734e+04	
73	3.650000e+00	1.074637e+05	
74	3.700000e+00	1.172113e+05	
75	3.750000e+00	1.271936e+05	
76	3.800000e+00	1.373373e+05	
77	3.850000e+00	1.475934e+05	
78	3.900000e+00	1.579290e+05	
79	3.950000e+00	1.683220e+05	
80	4.000000e+00	1.787571e+05	
81	4.050000e+00	1.892238e+05	
82	4.100000e+00	1.997146e+05	
83	4.150000e+00	2.102239e+05	
84	4.200000e+00	2.207479e+05	
85	4.250000e+00	2.312835e+05	
86	4.300000e+00	2.418286e+05	
87	4.350000e+00	2.523812e+05	
88	4.400000e+00	2.629402e+05	
89	4.450000e+00	2.735043e+05	
90	4.500000e+00	2.840729e+05	
91	4.550000e+00	2.946451e+05	
92	4.600000e+00	3.052204e+05	
93	4.650000e+00	3.157985e+05	
94	4.700000e+00	3.263787e+05	
95	4.750000e+00	3.369610e+05	
96	4.800000e+00	3.475450e+05	
97	4.850000e+00	3.581304e+05	
98	4.900000e+00	3.687171e+05	
99	4.950000e+00	3.793050e+05	
100	5.000000e+00	3.898938e+05	
101	5.050000e+00	4.004835e+05	
102	5.100000e+00	4.110739e+05	
103	5.150000e+00	4.216650e+05	
104	5.200000e+00	4.322567e+05	
105	5.250000e+00	4.428489e+05	
106	5.300000e+00	4.534415e+05	
107	5.350000e+00	4.640345e+05	
108	5.400000e+00	4.746279e+05	
109	5.450000e+00	4.852215e+05	
110	5.500000e+00	4.958154e+05	
111	5.550000e+00	5.064096e+05	
112	5.600000e+00	5.170039e+05	

Index   v-sweep         rds             
--------------------------------------------------------------------------------
113	5.650000e+00	5.275984e+05	
114	5.700000e+00	5.381930e+05	
115	5.750000e+00	5.487877e+05	
116	5.800000e+00	5.593825e+05	
117	5.850000e+00	5.699773e+05	
118	5.900000e+00	5.805722e+05	
119	5.950000e+00	5.911672e+05	
120	6.000000e+00	6.017621e+05	
121	6.050000e+00	6.123571e+05	
122	6.100000e+00	6.229520e+05	
123	6.150000e+00	6.335469e+05	
124	6.200000e+00	6.441418e+05	
125	6.250000e+00	6.547367e+05	
126	6.300000e+00	6.653314e+05	
127	6.350000e+00	6.759262e+05	
128	6.400000e+00	6.865208e+05	
129	6.450000e+00	6.971154e+05	
130	6.500000e+00	7.077099e+05	
131	6.550000e+00	7.183042e+05	
132	6.600000e+00	7.288985e+05	
Reset re-loads circuit ***************************

Circuit: ***************************

Doing analysis at TEMP = 25.000000 and TNOM = 25.000000


No. of Data Rows : 133
                          ***************************
                          DC transfer characteristic  Mon Jan  9 13:58:05  2023
--------------------------------------------------------------------------------
Index   v-sweep         rds             
--------------------------------------------------------------------------------
0	0.000000e+00	7.832044e+03	
1	5.000000e-02	7.914462e+03	
2	1.000000e-01	7.998418e+03	
3	1.500000e-01	8.083957e+03	
4	2.000000e-01	8.171124e+03	
5	2.500000e-01	8.259965e+03	
6	3.000000e-01	8.350529e+03	
7	3.500000e-01	8.442866e+03	
8	4.000000e-01	8.537029e+03	
9	4.500000e-01	8.633073e+03	
10	5.000000e-01	8.731054e+03	
11	5.500000e-01	8.831032e+03	
12	6.000000e-01	8.933067e+03	
13	6.500000e-01	9.037225e+03	
14	7.000000e-01	9.143572e+03	
15	7.500000e-01	9.252177e+03	
16	8.000000e-01	9.363113e+03	
17	8.500000e-01	9.476456e+03	
18	9.000000e-01	9.592285e+03	
19	9.500000e-01	9.710683e+03	
20	1.000000e+00	9.831735e+03	
21	1.050000e+00	9.955532e+03	
22	1.100000e+00	1.008217e+04	
23	1.150000e+00	1.021174e+04	
24	1.200000e+00	1.034436e+04	
25	1.250000e+00	1.048012e+04	
26	1.300000e+00	1.061915e+04	
27	1.350000e+00	1.076156e+04	
28	1.400000e+00	1.090748e+04	
29	1.450000e+00	1.105703e+04	
30	1.500000e+00	1.121036e+04	
31	1.550000e+00	1.136761e+04	
32	1.600000e+00	1.152893e+04	
33	1.650000e+00	1.169448e+04	
34	1.700000e+00	1.186443e+04	
35	1.750000e+00	1.203896e+04	
36	1.800000e+00	1.221826e+04	
37	1.850000e+00	1.240252e+04	
38	1.900000e+00	1.259195e+04	
39	1.950000e+00	1.278677e+04	
40	2.000000e+00	1.298722e+04	
41	2.050000e+00	1.319354e+04	
42	2.100000e+00	1.340600e+04	
43	2.150000e+00	1.362487e+04	
44	2.200000e+00	1.385045e+04	
45	2.250000e+00	1.408305e+04	
46	2.300000e+00	1.432300e+04	
47	2.350000e+00	1.457065e+04	
48	2.400000e+00	1.482639e+04	
49	2.450000e+00	1.509062e+04	
50	2.500000e+00	1.536376e+04	
51	2.550000e+00	1.564628e+04	
52	2.600000e+00	1.593867e+04	
53	2.650000e+00	1.624144e+04	
54	2.700000e+00	1.655517e+04	

Index   v-sweep         rds             
--------------------------------------------------------------------------------
55	2.750000e+00	1.688047e+04	
56	2.800000e+00	1.721797e+04	
57	2.850000e+00	1.756839e+04	
58	2.900000e+00	1.793249e+04	
59	2.950000e+00	1.831106e+04	
60	3.000000e+00	1.870501e+04	
61	3.050000e+00	1.911529e+04	
62	3.100000e+00	1.954294e+04	
63	3.150000e+00	1.998908e+04	
64	3.200000e+00	2.045494e+04	
65	3.250000e+00	2.094188e+04	
66	3.300000e+00	2.145135e+04	
67	3.350000e+00	2.198496e+04	
68	3.400000e+00	2.254450e+04	
69	3.450000e+00	2.313189e+04	
70	3.500000e+00	2.374931e+04	
71	3.550000e+00	2.439914e+04	
72	3.600000e+00	2.508404e+04	
73	3.650000e+00	2.580698e+04	
74	3.700000e+00	2.657131e+04	
75	3.750000e+00	2.738079e+04	
76	3.800000e+00	2.823970e+04	
77	3.850000e+00	2.915296e+04	
78	3.900000e+00	3.012626e+04	
79	3.950000e+00	3.116624e+04	
80	4.000000e+00	3.228083e+04	
81	4.050000e+00	3.347964e+04	
82	4.100000e+00	3.477462e+04	
83	4.150000e+00	3.618100e+04	
84	4.200000e+00	3.771884e+04	
85	4.250000e+00	3.941531e+04	
86	4.300000e+00	4.130798e+04	
87	4.350000e+00	4.344890e+04	
88	4.400000e+00	4.590800e+04	
89	4.450000e+00	4.877187e+04	
90	4.500000e+00	5.213183e+04	
91	4.550000e+00	5.605893e+04	
92	4.600000e+00	6.057617e+04	
93	4.650000e+00	6.564748e+04	
94	4.700000e+00	7.119240e+04	
95	4.750000e+00	7.711362e+04	
96	4.800000e+00	8.331960e+04	
97	4.850000e+00	8.973535e+04	
98	4.900000e+00	9.630402e+04	
99	4.950000e+00	1.029843e+05	
100	5.000000e+00	1.097465e+05	
101	5.050000e+00	1.165697e+05	
102	5.100000e+00	1.234387e+05	
103	5.150000e+00	1.303429e+05	
104	5.200000e+00	1.372741e+05	
105	5.250000e+00	1.442267e+05	
106	5.300000e+00	1.511962e+05	
107	5.350000e+00	1.581792e+05	
108	5.400000e+00	1.651733e+05	
109	5.450000e+00	1.721764e+05	
110	5.500000e+00	1.791871e+05	
111	5.550000e+00	1.862040e+05	
112	5.600000e+00	1.932262e+05	

Index   v-sweep         rds             
--------------------------------------------------------------------------------
113	5.650000e+00	2.002528e+05	
114	5.700000e+00	2.072832e+05	
115	5.750000e+00	2.143170e+05	
116	5.800000e+00	2.213535e+05	
117	5.850000e+00	2.283925e+05	
118	5.900000e+00	2.354337e+05	
119	5.950000e+00	2.424767e+05	
120	6.000000e+00	2.495214e+05	
121	6.050000e+00	2.565675e+05	
122	6.100000e+00	2.636149e+05	
123	6.150000e+00	2.706635e+05	
124	6.200000e+00	2.777130e+05	
125	6.250000e+00	2.847635e+05	
126	6.300000e+00	2.918148e+05	
127	6.350000e+00	2.988668e+05	
128	6.400000e+00	3.059195e+05	
129	6.450000e+00	3.129728e+05	
130	6.500000e+00	3.200266e+05	
131	6.550000e+00	3.270808e+05	
132	6.600000e+00	3.341355e+05	
Reset re-loads circuit ***************************

Circuit: ***************************

Doing analysis at TEMP = 25.000000 and TNOM = 25.000000


No. of Data Rows : 133
                          ***************************
                          DC transfer characteristic  Mon Jan  9 13:58:05  2023
--------------------------------------------------------------------------------
Index   v-sweep         rds             
--------------------------------------------------------------------------------
0	0.000000e+00	7.079432e+03	
1	5.000000e-02	7.138201e+03	
2	1.000000e-01	7.197814e+03	
3	1.500000e-01	7.258291e+03	
4	2.000000e-01	7.319648e+03	
5	2.500000e-01	7.381907e+03	
6	3.000000e-01	7.445086e+03	
7	3.500000e-01	7.509207e+03	
8	4.000000e-01	7.574290e+03	
9	4.500000e-01	7.640357e+03	
10	5.000000e-01	7.707431e+03	
11	5.500000e-01	7.775535e+03	
12	6.000000e-01	7.844693e+03	
13	6.500000e-01	7.914929e+03	
14	7.000000e-01	7.986268e+03	
15	7.500000e-01	8.058737e+03	
16	8.000000e-01	8.132363e+03	
17	8.500000e-01	8.207173e+03	
18	9.000000e-01	8.283197e+03	
19	9.500000e-01	8.360463e+03	
20	1.000000e+00	8.439004e+03	
21	1.050000e+00	8.518849e+03	
22	1.100000e+00	8.600033e+03	
23	1.150000e+00	8.682589e+03	
24	1.200000e+00	8.766552e+03	
25	1.250000e+00	8.851958e+03	
26	1.300000e+00	8.938844e+03	
27	1.350000e+00	9.027250e+03	
28	1.400000e+00	9.117215e+03	
29	1.450000e+00	9.208782e+03	
30	1.500000e+00	9.301993e+03	
31	1.550000e+00	9.396892e+03	
32	1.600000e+00	9.493526e+03	
33	1.650000e+00	9.591943e+03	
34	1.700000e+00	9.692193e+03	
35	1.750000e+00	9.794327e+03	
36	1.800000e+00	9.898399e+03	
37	1.850000e+00	1.000446e+04	
38	1.900000e+00	1.011258e+04	
39	1.950000e+00	1.022281e+04	
40	2.000000e+00	1.033521e+04	
41	2.050000e+00	1.044985e+04	
42	2.100000e+00	1.056679e+04	
43	2.150000e+00	1.068611e+04	
44	2.200000e+00	1.080788e+04	
45	2.250000e+00	1.093217e+04	
46	2.300000e+00	1.105907e+04	
47	2.350000e+00	1.118866e+04	
48	2.400000e+00	1.132101e+04	
49	2.450000e+00	1.145623e+04	
50	2.500000e+00	1.159441e+04	
51	2.550000e+00	1.173564e+04	
52	2.600000e+00	1.188003e+04	
53	2.650000e+00	1.202768e+04	
54	2.700000e+00	1.217871e+04	

Index   v-sweep         rds             
--------------------------------------------------------------------------------
55	2.750000e+00	1.233323e+04	
56	2.800000e+00	1.249137e+04	
57	2.850000e+00	1.265325e+04	
58	2.900000e+00	1.281900e+04	
59	2.950000e+00	1.298878e+04	
60	3.000000e+00	1.316272e+04	
61	3.050000e+00	1.334098e+04	
62	3.100000e+00	1.352373e+04	
63	3.150000e+00	1.371114e+04	
64	3.200000e+00	1.390338e+04	
65	3.250000e+00	1.410065e+04	
66	3.300000e+00	1.430314e+04	
67	3.350000e+00	1.451107e+04	
68	3.400000e+00	1.472465e+04	
69	3.450000e+00	1.494413e+04	
70	3.500000e+00	1.516975e+04	
71	3.550000e+00	1.540177e+04	
72	3.600000e+00	1.564047e+04	
73	3.650000e+00	1.588613e+04	
74	3.700000e+00	1.613908e+04	
75	3.750000e+00	1.639964e+04	
76	3.800000e+00	1.666815e+04	
77	3.850000e+00	1.694499e+04	
78	3.900000e+00	1.723056e+04	
79	3.950000e+00	1.752527e+04	
80	4.000000e+00	1.782958e+04	
81	4.050000e+00	1.814395e+04	
82	4.100000e+00	1.846891e+04	
83	4.150000e+00	1.880499e+04	
84	4.200000e+00	1.915278e+04	
85	4.250000e+00	1.951291e+04	
86	4.300000e+00	1.988606e+04	
87	4.350000e+00	2.027295e+04	
88	4.400000e+00	2.067436e+04	
89	4.450000e+00	2.109114e+04	
90	4.500000e+00	2.152420e+04	
91	4.550000e+00	2.197455e+04	
92	4.600000e+00	2.244326e+04	
93	4.650000e+00	2.293153e+04	
94	4.700000e+00	2.344064e+04	
95	4.750000e+00	2.397204e+04	
96	4.800000e+00	2.452731e+04	
97	4.850000e+00	2.510823e+04	
98	4.900000e+00	2.571679e+04	
99	4.950000e+00	2.635527e+04	
100	5.000000e+00	2.702628e+04	
101	5.050000e+00	2.773290e+04	
102	5.100000e+00	2.847877e+04	
103	5.150000e+00	2.926836e+04	
104	5.200000e+00	3.010723e+04	
105	5.250000e+00	3.100258e+04	
106	5.300000e+00	3.196390e+04	
107	5.350000e+00	3.300409e+04	
108	5.400000e+00	3.414099e+04	
109	5.450000e+00	3.539951e+04	
110	5.500000e+00	3.681396e+04	
111	5.550000e+00	3.842992e+04	
112	5.600000e+00	4.030348e+04	

Index   v-sweep         rds             
--------------------------------------------------------------------------------
113	5.650000e+00	4.249527e+04	
114	5.700000e+00	4.505807e+04	
115	5.750000e+00	4.802145e+04	
116	5.800000e+00	5.138184e+04	
117	5.850000e+00	5.510448e+04	
118	5.900000e+00	5.913525e+04	
119	5.950000e+00	6.341457e+04	
120	6.000000e+00	6.788746e+04	
121	6.050000e+00	7.250813e+04	
122	6.100000e+00	7.724063e+04	
123	6.150000e+00	8.205775e+04	
124	6.200000e+00	8.693919e+04	
125	6.250000e+00	9.186991e+04	
126	6.300000e+00	9.683876e+04	
127	6.350000e+00	1.018374e+05	
128	6.400000e+00	1.068597e+05	
129	6.450000e+00	1.119008e+05	
130	6.500000e+00	1.169571e+05	
131	6.550000e+00	1.220257e+05	
132	6.600000e+00	1.271046e+05	
Reset re-loads circuit ***************************

Circuit: ***************************

Note: No ".plot", ".print", or ".fourier" lines; no simulations run
