
Note: Compatibility modes selected: hs

Warning: m=xx on .subckt line will override multiplier m hierarchy!


Circuit: ***************************

Doing analysis at TEMP = 25.000000 and TNOM = 25.000000


No. of Data Rows : 133
                          ***************************
                          DC transfer characteristic  Mon Jan  9 13:58:05  2023
--------------------------------------------------------------------------------
Index   v-sweep         rds             
--------------------------------------------------------------------------------
0	0.000000e+00	2.681538e+03	
1	5.000000e-02	3.135128e+03	
2	1.000000e-01	3.759169e+03	
3	1.500000e-01	4.668632e+03	
4	2.000000e-01	6.099064e+03	
5	2.500000e-01	8.534094e+03	
6	3.000000e-01	1.242180e+04	
7	3.500000e-01	1.649825e+04	
8	4.000000e-01	1.977994e+04	
9	4.500000e-01	2.258833e+04	
10	5.000000e-01	2.509177e+04	
11	5.500000e-01	2.734826e+04	
12	6.000000e-01	2.939107e+04	
13	6.500000e-01	3.124599e+04	
14	7.000000e-01	3.293477e+04	
15	7.500000e-01	3.447624e+04	
16	8.000000e-01	3.588669e+04	
17	8.500000e-01	3.718034e+04	
18	9.000000e-01	3.836955e+04	
19	9.500000e-01	3.946514e+04	
20	1.000000e+00	4.047658e+04	
21	1.050000e+00	4.141218e+04	
22	1.100000e+00	4.227925e+04	
23	1.150000e+00	4.308426e+04	
24	1.200000e+00	4.383291e+04	
25	1.250000e+00	4.453028e+04	
26	1.300000e+00	4.518088e+04	
27	1.350000e+00	4.578874e+04	
28	1.400000e+00	4.635745e+04	
29	1.450000e+00	4.689024e+04	
30	1.500000e+00	4.739001e+04	
31	1.550000e+00	4.785937e+04	
32	1.600000e+00	4.830067e+04	
33	1.650000e+00	4.871604e+04	
34	1.700000e+00	4.910742e+04	
35	1.750000e+00	4.947655e+04	
36	1.800000e+00	4.982504e+04	
37	1.850000e+00	5.015433e+04	
38	1.900000e+00	5.046575e+04	
39	1.950000e+00	5.076052e+04	
40	2.000000e+00	5.103974e+04	
41	2.050000e+00	5.130444e+04	
42	2.100000e+00	5.155555e+04	
43	2.150000e+00	5.179393e+04	
44	2.200000e+00	5.202039e+04	
45	2.250000e+00	5.223565e+04	
46	2.300000e+00	5.244038e+04	
47	2.350000e+00	5.263523e+04	
48	2.400000e+00	5.282076e+04	
49	2.450000e+00	5.299752e+04	
50	2.500000e+00	5.316601e+04	
51	2.550000e+00	5.332669e+04	
52	2.600000e+00	5.347999e+04	
53	2.650000e+00	5.362632e+04	
54	2.700000e+00	5.376606e+04	

Index   v-sweep         rds             
--------------------------------------------------------------------------------
55	2.750000e+00	5.389955e+04	
56	2.800000e+00	5.402713e+04	
57	2.850000e+00	5.414909e+04	
58	2.900000e+00	5.426574e+04	
59	2.950000e+00	5.437733e+04	
60	3.000000e+00	5.448412e+04	
61	3.050000e+00	5.458634e+04	
62	3.100000e+00	5.468423e+04	
63	3.150000e+00	5.477799e+04	
64	3.200000e+00	5.486781e+04	
65	3.250000e+00	5.495388e+04	
66	3.300000e+00	5.503638e+04	
67	3.350000e+00	5.511547e+04	
68	3.400000e+00	5.519131e+04	
69	3.450000e+00	5.526405e+04	
70	3.500000e+00	5.533381e+04	
71	3.550000e+00	5.540074e+04	
72	3.600000e+00	5.546496e+04	
73	3.650000e+00	5.552659e+04	
74	3.700000e+00	5.558573e+04	
75	3.750000e+00	5.564250e+04	
76	3.800000e+00	5.569700e+04	
77	3.850000e+00	5.574931e+04	
78	3.900000e+00	5.579953e+04	
79	3.950000e+00	5.584775e+04	
80	4.000000e+00	5.589404e+04	
81	4.050000e+00	5.593849e+04	
82	4.100000e+00	5.598117e+04	
83	4.150000e+00	5.602214e+04	
84	4.200000e+00	5.606149e+04	
85	4.250000e+00	5.609926e+04	
86	4.300000e+00	5.613552e+04	
87	4.350000e+00	5.617033e+04	
88	4.400000e+00	5.620375e+04	
89	4.450000e+00	5.623583e+04	
90	4.500000e+00	5.626661e+04	
91	4.550000e+00	5.629614e+04	
92	4.600000e+00	5.632448e+04	
93	4.650000e+00	5.635167e+04	
94	4.700000e+00	5.637775e+04	
95	4.750000e+00	5.640275e+04	
96	4.800000e+00	5.642672e+04	
97	4.850000e+00	5.644970e+04	
98	4.900000e+00	5.647172e+04	
99	4.950000e+00	5.649281e+04	
100	5.000000e+00	5.651301e+04	
101	5.050000e+00	5.653235e+04	
102	5.100000e+00	5.655085e+04	
103	5.150000e+00	5.656856e+04	
104	5.200000e+00	5.658549e+04	
105	5.250000e+00	5.660167e+04	
106	5.300000e+00	5.661713e+04	
107	5.350000e+00	5.663189e+04	
108	5.400000e+00	5.664597e+04	
109	5.450000e+00	5.665941e+04	
110	5.500000e+00	5.667221e+04	
111	5.550000e+00	5.668441e+04	
112	5.600000e+00	5.669602e+04	

Index   v-sweep         rds             
--------------------------------------------------------------------------------
113	5.650000e+00	5.670705e+04	
114	5.700000e+00	5.671754e+04	
115	5.750000e+00	5.672750e+04	
116	5.800000e+00	5.673694e+04	
117	5.850000e+00	5.674589e+04	
118	5.900000e+00	5.675435e+04	
119	5.950000e+00	5.676235e+04	
120	6.000000e+00	5.676990e+04	
121	6.050000e+00	5.677701e+04	
122	6.100000e+00	5.678370e+04	
123	6.150000e+00	5.678998e+04	
124	6.200000e+00	5.679587e+04	
125	6.250000e+00	5.680138e+04	
126	6.300000e+00	5.680651e+04	
127	6.350000e+00	5.681129e+04	
128	6.400000e+00	5.681572e+04	
129	6.450000e+00	5.681981e+04	
130	6.500000e+00	5.682358e+04	
131	6.550000e+00	5.682704e+04	
132	6.600000e+00	5.683019e+04	
Reset re-loads circuit ***************************

Circuit: ***************************

Doing analysis at TEMP = 25.000000 and TNOM = 25.000000


No. of Data Rows : 133
                          ***************************
                          DC transfer characteristic  Mon Jan  9 13:58:05  2023
--------------------------------------------------------------------------------
Index   v-sweep         rds             
--------------------------------------------------------------------------------
0	0.000000e+00	7.908949e+02	
1	5.000000e-02	8.284932e+02	
2	1.000000e-01	8.690232e+02	
3	1.500000e-01	9.128384e+02	
4	2.000000e-01	9.603512e+02	
5	2.500000e-01	1.012046e+03	
6	3.000000e-01	1.068495e+03	
7	3.500000e-01	1.130382e+03	
8	4.000000e-01	1.198524e+03	
9	4.500000e-01	1.273917e+03	
10	5.000000e-01	1.357782e+03	
11	5.500000e-01	1.451650e+03	
12	6.000000e-01	1.557504e+03	
13	6.500000e-01	1.678092e+03	
14	7.000000e-01	1.817759e+03	
15	7.500000e-01	1.984998e+03	
16	8.000000e-01	2.199478e+03	
17	8.500000e-01	2.500308e+03	
18	9.000000e-01	2.922090e+03	
19	9.500000e-01	3.446053e+03	
20	1.000000e+00	4.023012e+03	
21	1.050000e+00	4.617182e+03	
22	1.100000e+00	5.210486e+03	
23	1.150000e+00	5.794608e+03	
24	1.200000e+00	6.365772e+03	
25	1.250000e+00	6.922315e+03	
26	1.300000e+00	7.463599e+03	
27	1.350000e+00	7.989509e+03	
28	1.400000e+00	8.500209e+03	
29	1.450000e+00	8.996013e+03	
30	1.500000e+00	9.477318e+03	
31	1.550000e+00	9.944562e+03	
32	1.600000e+00	1.039820e+04	
33	1.650000e+00	1.083871e+04	
34	1.700000e+00	1.126653e+04	
35	1.750000e+00	1.168213e+04	
36	1.800000e+00	1.208594e+04	
37	1.850000e+00	1.247840e+04	
38	1.900000e+00	1.285991e+04	
39	1.950000e+00	1.323087e+04	
40	2.000000e+00	1.359167e+04	
41	2.050000e+00	1.394268e+04	
42	2.100000e+00	1.428425e+04	
43	2.150000e+00	1.461671e+04	
44	2.200000e+00	1.494039e+04	
45	2.250000e+00	1.525560e+04	
46	2.300000e+00	1.556264e+04	
47	2.350000e+00	1.586180e+04	
48	2.400000e+00	1.615335e+04	
49	2.450000e+00	1.643755e+04	
50	2.500000e+00	1.671465e+04	
51	2.550000e+00	1.698489e+04	
52	2.600000e+00	1.724851e+04	
53	2.650000e+00	1.750572e+04	
54	2.700000e+00	1.775674e+04	

Index   v-sweep         rds             
--------------------------------------------------------------------------------
55	2.750000e+00	1.800177e+04	
56	2.800000e+00	1.824100e+04	
57	2.850000e+00	1.847463e+04	
58	2.900000e+00	1.870283e+04	
59	2.950000e+00	1.892577e+04	
60	3.000000e+00	1.914362e+04	
61	3.050000e+00	1.935655e+04	
62	3.100000e+00	1.956469e+04	
63	3.150000e+00	1.976821e+04	
64	3.200000e+00	1.996723e+04	
65	3.250000e+00	2.016191e+04	
66	3.300000e+00	2.035236e+04	
67	3.350000e+00	2.053871e+04	
68	3.400000e+00	2.072109e+04	
69	3.450000e+00	2.089960e+04	
70	3.500000e+00	2.107438e+04	
71	3.550000e+00	2.124551e+04	
72	3.600000e+00	2.141310e+04	
73	3.650000e+00	2.157727e+04	
74	3.700000e+00	2.173809e+04	
75	3.750000e+00	2.189567e+04	
76	3.800000e+00	2.205010e+04	
77	3.850000e+00	2.220146e+04	
78	3.900000e+00	2.234984e+04	
79	3.950000e+00	2.249531e+04	
80	4.000000e+00	2.263796e+04	
81	4.050000e+00	2.277786e+04	
82	4.100000e+00	2.291509e+04	
83	4.150000e+00	2.304971e+04	
84	4.200000e+00	2.318179e+04	
85	4.250000e+00	2.331140e+04	
86	4.300000e+00	2.343861e+04	
87	4.350000e+00	2.356347e+04	
88	4.400000e+00	2.368604e+04	
89	4.450000e+00	2.380638e+04	
90	4.500000e+00	2.392455e+04	
91	4.550000e+00	2.404060e+04	
92	4.600000e+00	2.415459e+04	
93	4.650000e+00	2.426655e+04	
94	4.700000e+00	2.437655e+04	
95	4.750000e+00	2.448464e+04	
96	4.800000e+00	2.459085e+04	
97	4.850000e+00	2.469523e+04	
98	4.900000e+00	2.479782e+04	
99	4.950000e+00	2.489868e+04	
100	5.000000e+00	2.499783e+04	
101	5.050000e+00	2.509532e+04	
102	5.100000e+00	2.519118e+04	
103	5.150000e+00	2.528546e+04	
104	5.200000e+00	2.537819e+04	
105	5.250000e+00	2.546940e+04	
106	5.300000e+00	2.555913e+04	
107	5.350000e+00	2.564741e+04	
108	5.400000e+00	2.573427e+04	
109	5.450000e+00	2.581975e+04	
110	5.500000e+00	2.590388e+04	
111	5.550000e+00	2.598668e+04	
112	5.600000e+00	2.606819e+04	

Index   v-sweep         rds             
--------------------------------------------------------------------------------
113	5.650000e+00	2.614843e+04	
114	5.700000e+00	2.622742e+04	
115	5.750000e+00	2.630520e+04	
116	5.800000e+00	2.638180e+04	
117	5.850000e+00	2.645723e+04	
118	5.900000e+00	2.653152e+04	
119	5.950000e+00	2.660469e+04	
120	6.000000e+00	2.667677e+04	
121	6.050000e+00	2.674778e+04	
122	6.100000e+00	2.681775e+04	
123	6.150000e+00	2.688668e+04	
124	6.200000e+00	2.695462e+04	
125	6.250000e+00	2.702156e+04	
126	6.300000e+00	2.708754e+04	
127	6.350000e+00	2.715257e+04	
128	6.400000e+00	2.721667e+04	
129	6.450000e+00	2.727987e+04	
130	6.500000e+00	2.734217e+04	
131	6.550000e+00	2.740359e+04	
132	6.600000e+00	2.746416e+04	
Reset re-loads circuit ***************************

Circuit: ***************************

Doing analysis at TEMP = 25.000000 and TNOM = 25.000000


No. of Data Rows : 133
                          ***************************
                          DC transfer characteristic  Mon Jan  9 13:58:05  2023
--------------------------------------------------------------------------------
Index   v-sweep         rds             
--------------------------------------------------------------------------------
0	0.000000e+00	5.301412e+02	
1	5.000000e-02	5.467194e+02	
2	1.000000e-01	5.640365e+02	
3	1.500000e-01	5.821421e+02	
4	2.000000e-01	6.010901e+02	
5	2.500000e-01	6.209397e+02	
6	3.000000e-01	6.417557e+02	
7	3.500000e-01	6.636094e+02	
8	4.000000e-01	6.865794e+02	
9	4.500000e-01	7.107527e+02	
10	5.000000e-01	7.362256e+02	
11	5.500000e-01	7.631056e+02	
12	6.000000e-01	7.915128e+02	
13	6.500000e-01	8.215829e+02	
14	7.000000e-01	8.534701e+02	
15	7.500000e-01	8.873531e+02	
16	8.000000e-01	9.234440e+02	
17	8.500000e-01	9.620051e+02	
18	9.000000e-01	1.003385e+03	
19	9.500000e-01	1.048095e+03	
20	1.000000e+00	1.097001e+03	
21	1.050000e+00	1.151800e+03	
22	1.100000e+00	1.216236e+03	
23	1.150000e+00	1.298815e+03	
24	1.200000e+00	1.416431e+03	
25	1.250000e+00	1.591021e+03	
26	1.300000e+00	1.831406e+03	
27	1.350000e+00	2.123822e+03	
28	1.400000e+00	2.446993e+03	
29	1.450000e+00	2.785081e+03	
30	1.500000e+00	3.128889e+03	
31	1.550000e+00	3.473437e+03	
32	1.600000e+00	3.816031e+03	
33	1.650000e+00	4.155180e+03	
34	1.700000e+00	4.490046e+03	
35	1.750000e+00	4.820152e+03	
36	1.800000e+00	5.145236e+03	
37	1.850000e+00	5.465165e+03	
38	1.900000e+00	5.779884e+03	
39	1.950000e+00	6.089391e+03	
40	2.000000e+00	6.393715e+03	
41	2.050000e+00	6.692910e+03	
42	2.100000e+00	6.987044e+03	
43	2.150000e+00	7.276195e+03	
44	2.200000e+00	7.560447e+03	
45	2.250000e+00	7.839888e+03	
46	2.300000e+00	8.114610e+03	
47	2.350000e+00	8.384706e+03	
48	2.400000e+00	8.650268e+03	
49	2.450000e+00	8.911388e+03	
50	2.500000e+00	9.168160e+03	
51	2.550000e+00	9.420674e+03	
52	2.600000e+00	9.669020e+03	
53	2.650000e+00	9.913286e+03	
54	2.700000e+00	1.015356e+04	

Index   v-sweep         rds             
--------------------------------------------------------------------------------
55	2.750000e+00	1.038993e+04	
56	2.800000e+00	1.062247e+04	
57	2.850000e+00	1.085127e+04	
58	2.900000e+00	1.107640e+04	
59	2.950000e+00	1.129796e+04	
60	3.000000e+00	1.151600e+04	
61	3.050000e+00	1.173062e+04	
62	3.100000e+00	1.194187e+04	
63	3.150000e+00	1.214983e+04	
64	3.200000e+00	1.235457e+04	
65	3.250000e+00	1.255616e+04	
66	3.300000e+00	1.275466e+04	
67	3.350000e+00	1.295014e+04	
68	3.400000e+00	1.314267e+04	
69	3.450000e+00	1.333229e+04	
70	3.500000e+00	1.351907e+04	
71	3.550000e+00	1.370308e+04	
72	3.600000e+00	1.388436e+04	
73	3.650000e+00	1.406297e+04	
74	3.700000e+00	1.423897e+04	
75	3.750000e+00	1.441241e+04	
76	3.800000e+00	1.458334e+04	
77	3.850000e+00	1.475181e+04	
78	3.900000e+00	1.491787e+04	
79	3.950000e+00	1.508156e+04	
80	4.000000e+00	1.524294e+04	
81	4.050000e+00	1.540205e+04	
82	4.100000e+00	1.555893e+04	
83	4.150000e+00	1.571362e+04	
84	4.200000e+00	1.586618e+04	
85	4.250000e+00	1.601663e+04	
86	4.300000e+00	1.616503e+04	
87	4.350000e+00	1.631140e+04	
88	4.400000e+00	1.645579e+04	
89	4.450000e+00	1.659824e+04	
90	4.500000e+00	1.673877e+04	
91	4.550000e+00	1.687744e+04	
92	4.600000e+00	1.701426e+04	
93	4.650000e+00	1.714928e+04	
94	4.700000e+00	1.728253e+04	
95	4.750000e+00	1.741404e+04	
96	4.800000e+00	1.754385e+04	
97	4.850000e+00	1.767198e+04	
98	4.900000e+00	1.779846e+04	
99	4.950000e+00	1.792332e+04	
100	5.000000e+00	1.804660e+04	
101	5.050000e+00	1.816832e+04	
102	5.100000e+00	1.828851e+04	
103	5.150000e+00	1.840719e+04	
104	5.200000e+00	1.852440e+04	
105	5.250000e+00	1.864015e+04	
106	5.300000e+00	1.875448e+04	
107	5.350000e+00	1.886740e+04	
108	5.400000e+00	1.897894e+04	
109	5.450000e+00	1.908913e+04	
110	5.500000e+00	1.919799e+04	
111	5.550000e+00	1.930554e+04	
112	5.600000e+00	1.941180e+04	

Index   v-sweep         rds             
--------------------------------------------------------------------------------
113	5.650000e+00	1.951680e+04	
114	5.700000e+00	1.962055e+04	
115	5.750000e+00	1.972307e+04	
116	5.800000e+00	1.982440e+04	
117	5.850000e+00	1.992454e+04	
118	5.900000e+00	2.002352e+04	
119	5.950000e+00	2.012135e+04	
120	6.000000e+00	2.021806e+04	
121	6.050000e+00	2.031365e+04	
122	6.100000e+00	2.040816e+04	
123	6.150000e+00	2.050160e+04	
124	6.200000e+00	2.059398e+04	
125	6.250000e+00	2.068532e+04	
126	6.300000e+00	2.077563e+04	
127	6.350000e+00	2.086495e+04	
128	6.400000e+00	2.095327e+04	
129	6.450000e+00	2.104061e+04	
130	6.500000e+00	2.112700e+04	
131	6.550000e+00	2.121244e+04	
132	6.600000e+00	2.129695e+04	
Reset re-loads circuit ***************************

Circuit: ***************************

Doing analysis at TEMP = 25.000000 and TNOM = 25.000000


No. of Data Rows : 133
                          ***************************
                          DC transfer characteristic  Mon Jan  9 13:58:05  2023
--------------------------------------------------------------------------------
Index   v-sweep         rds             
--------------------------------------------------------------------------------
0	0.000000e+00	4.290713e+02	
1	5.000000e-02	4.393925e+02	
2	1.000000e-01	4.500371e+02	
3	1.500000e-01	4.610199e+02	
4	2.000000e-01	4.723569e+02	
5	2.500000e-01	4.840648e+02	
6	3.000000e-01	4.961618e+02	
7	3.500000e-01	5.086669e+02	
8	4.000000e-01	5.216007e+02	
9	4.500000e-01	5.349852e+02	
10	5.000000e-01	5.488440e+02	
11	5.500000e-01	5.632024e+02	
12	6.000000e-01	5.780875e+02	
13	6.500000e-01	5.935288e+02	
14	7.000000e-01	6.095580e+02	
15	7.500000e-01	6.262094e+02	
16	8.000000e-01	6.435206e+02	
17	8.500000e-01	6.615328e+02	
18	9.000000e-01	6.802915e+02	
19	9.500000e-01	6.998480e+02	
20	1.000000e+00	7.202611e+02	
21	1.050000e+00	7.416005e+02	
22	1.100000e+00	7.639527e+02	
23	1.150000e+00	7.874325e+02	
24	1.200000e+00	8.122056e+02	
25	1.250000e+00	8.385362e+02	
26	1.300000e+00	8.668918e+02	
27	1.350000e+00	8.981784e+02	
28	1.400000e+00	9.342725e+02	
29	1.450000e+00	9.791355e+02	
30	1.500000e+00	1.040579e+03	
31	1.550000e+00	1.130899e+03	
32	1.600000e+00	1.261710e+03	
33	1.650000e+00	1.434509e+03	
34	1.700000e+00	1.639890e+03	
35	1.750000e+00	1.865809e+03	
36	1.800000e+00	2.103114e+03	
37	1.850000e+00	2.346094e+03	
38	1.900000e+00	2.591406e+03	
39	1.950000e+00	2.837104e+03	
40	2.000000e+00	3.082029e+03	
41	2.050000e+00	3.325480e+03	
42	2.100000e+00	3.567018e+03	
43	2.150000e+00	3.806367e+03	
44	2.200000e+00	4.043351e+03	
45	2.250000e+00	4.277861e+03	
46	2.300000e+00	4.509828e+03	
47	2.350000e+00	4.739213e+03	
48	2.400000e+00	4.966000e+03	
49	2.450000e+00	5.190183e+03	
50	2.500000e+00	5.411770e+03	
51	2.550000e+00	5.630773e+03	
52	2.600000e+00	5.847213e+03	
53	2.650000e+00	6.061111e+03	
54	2.700000e+00	6.272494e+03	

Index   v-sweep         rds             
--------------------------------------------------------------------------------
55	2.750000e+00	6.481390e+03	
56	2.800000e+00	6.687828e+03	
57	2.850000e+00	6.891840e+03	
58	2.900000e+00	7.093458e+03	
59	2.950000e+00	7.292712e+03	
60	3.000000e+00	7.489636e+03	
61	3.050000e+00	7.684262e+03	
62	3.100000e+00	7.876623e+03	
63	3.150000e+00	8.066751e+03	
64	3.200000e+00	8.254678e+03	
65	3.250000e+00	8.440438e+03	
66	3.300000e+00	8.624061e+03	
67	3.350000e+00	8.805580e+03	
68	3.400000e+00	8.985025e+03	
69	3.450000e+00	9.162427e+03	
70	3.500000e+00	9.337817e+03	
71	3.550000e+00	9.511225e+03	
72	3.600000e+00	9.682680e+03	
73	3.650000e+00	9.852211e+03	
74	3.700000e+00	1.001985e+04	
75	3.750000e+00	1.018562e+04	
76	3.800000e+00	1.034955e+04	
77	3.850000e+00	1.051167e+04	
78	3.900000e+00	1.067201e+04	
79	3.950000e+00	1.083059e+04	
80	4.000000e+00	1.098743e+04	
81	4.050000e+00	1.114258e+04	
82	4.100000e+00	1.129604e+04	
83	4.150000e+00	1.144784e+04	
84	4.200000e+00	1.159802e+04	
85	4.250000e+00	1.174658e+04	
86	4.300000e+00	1.189357e+04	
87	4.350000e+00	1.203899e+04	
88	4.400000e+00	1.218287e+04	
89	4.450000e+00	1.232524e+04	
90	4.500000e+00	1.246611e+04	
91	4.550000e+00	1.260552e+04	
92	4.600000e+00	1.274347e+04	
93	4.650000e+00	1.287999e+04	
94	4.700000e+00	1.301510e+04	
95	4.750000e+00	1.314883e+04	
96	4.800000e+00	1.328118e+04	
97	4.850000e+00	1.341219e+04	
98	4.900000e+00	1.354186e+04	
99	4.950000e+00	1.367022e+04	
100	5.000000e+00	1.379729e+04	
101	5.050000e+00	1.392308e+04	
102	5.100000e+00	1.404761e+04	
103	5.150000e+00	1.417090e+04	
104	5.200000e+00	1.429297e+04	
105	5.250000e+00	1.441384e+04	
106	5.300000e+00	1.453351e+04	
107	5.350000e+00	1.465202e+04	
108	5.400000e+00	1.476936e+04	
109	5.450000e+00	1.488556e+04	
110	5.500000e+00	1.500064e+04	
111	5.550000e+00	1.511461e+04	
112	5.600000e+00	1.522748e+04	

Index   v-sweep         rds             
--------------------------------------------------------------------------------
113	5.650000e+00	1.533927e+04	
114	5.700000e+00	1.545000e+04	
115	5.750000e+00	1.555967e+04	
116	5.800000e+00	1.566831e+04	
117	5.850000e+00	1.577592e+04	
118	5.900000e+00	1.588252e+04	
119	5.950000e+00	1.598812e+04	
120	6.000000e+00	1.609274e+04	
121	6.050000e+00	1.619639e+04	
122	6.100000e+00	1.629908e+04	
123	6.150000e+00	1.640082e+04	
124	6.200000e+00	1.650163e+04	
125	6.250000e+00	1.660152e+04	
126	6.300000e+00	1.670050e+04	
127	6.350000e+00	1.679857e+04	
128	6.400000e+00	1.689577e+04	
129	6.450000e+00	1.699209e+04	
130	6.500000e+00	1.708754e+04	
131	6.550000e+00	1.718214e+04	
132	6.600000e+00	1.727590e+04	
Reset re-loads circuit ***************************

Circuit: ***************************

Doing analysis at TEMP = 25.000000 and TNOM = 25.000000


No. of Data Rows : 133
                          ***************************
                          DC transfer characteristic  Mon Jan  9 13:58:05  2023
--------------------------------------------------------------------------------
Index   v-sweep         rds             
--------------------------------------------------------------------------------
0	0.000000e+00	3.784258e+02	
1	5.000000e-02	3.858610e+02	
2	1.000000e-01	3.934749e+02	
3	1.500000e-01	4.012739e+02	
4	2.000000e-01	4.092644e+02	
5	2.500000e-01	4.174532e+02	
6	3.000000e-01	4.258476e+02	
7	3.500000e-01	4.344551e+02	
8	4.000000e-01	4.432836e+02	
9	4.500000e-01	4.523414e+02	
10	5.000000e-01	4.616374e+02	
11	5.500000e-01	4.711808e+02	
12	6.000000e-01	4.809815e+02	
13	6.500000e-01	4.910497e+02	
14	7.000000e-01	5.013965e+02	
15	7.500000e-01	5.120333e+02	
16	8.000000e-01	5.229726e+02	
17	8.500000e-01	5.342275e+02	
18	9.000000e-01	5.458117e+02	
19	9.500000e-01	5.577403e+02	
20	1.000000e+00	5.700293e+02	
21	1.050000e+00	5.826958e+02	
22	1.100000e+00	5.957587e+02	
23	1.150000e+00	6.092388e+02	
24	1.200000e+00	6.231591e+02	
25	1.250000e+00	6.375465e+02	
26	1.300000e+00	6.524324e+02	
27	1.350000e+00	6.678560e+02	
28	1.400000e+00	6.838686e+02	
29	1.450000e+00	7.005419e+02	
30	1.500000e+00	7.179848e+02	
31	1.550000e+00	7.363744e+02	
32	1.600000e+00	7.560217e+02	
33	1.650000e+00	7.775068e+02	
34	1.700000e+00	8.019617e+02	
35	1.750000e+00	8.316290e+02	
36	1.800000e+00	8.707818e+02	
37	1.850000e+00	9.265100e+02	
38	1.900000e+00	1.007440e+03	
39	1.950000e+00	1.118893e+03	
40	2.000000e+00	1.258861e+03	
41	2.050000e+00	1.420159e+03	
42	2.100000e+00	1.595201e+03	
43	2.150000e+00	1.778343e+03	
44	2.200000e+00	1.965950e+03	
45	2.250000e+00	2.155790e+03	
46	2.300000e+00	2.346502e+03	
47	2.350000e+00	2.537237e+03	
48	2.400000e+00	2.727459e+03	
49	2.450000e+00	2.916817e+03	
50	2.500000e+00	3.105082e+03	
51	2.550000e+00	3.292097e+03	
52	2.600000e+00	3.477756e+03	
53	2.650000e+00	3.661988e+03	
54	2.700000e+00	3.844744e+03	

Index   v-sweep         rds             
--------------------------------------------------------------------------------
55	2.750000e+00	4.025991e+03	
56	2.800000e+00	4.205709e+03	
57	2.850000e+00	4.383886e+03	
58	2.900000e+00	4.560518e+03	
59	2.950000e+00	4.735602e+03	
60	3.000000e+00	4.909142e+03	
61	3.050000e+00	5.081144e+03	
62	3.100000e+00	5.251616e+03	
63	3.150000e+00	5.420567e+03	
64	3.200000e+00	5.588009e+03	
65	3.250000e+00	5.753953e+03	
66	3.300000e+00	5.918412e+03	
67	3.350000e+00	6.081399e+03	
68	3.400000e+00	6.242928e+03	
69	3.450000e+00	6.403014e+03	
70	3.500000e+00	6.561670e+03	
71	3.550000e+00	6.718911e+03	
72	3.600000e+00	6.874752e+03	
73	3.650000e+00	7.029208e+03	
74	3.700000e+00	7.182293e+03	
75	3.750000e+00	7.334023e+03	
76	3.800000e+00	7.484412e+03	
77	3.850000e+00	7.633475e+03	
78	3.900000e+00	7.781228e+03	
79	3.950000e+00	7.927683e+03	
80	4.000000e+00	8.072857e+03	
81	4.050000e+00	8.216763e+03	
82	4.100000e+00	8.359415e+03	
83	4.150000e+00	8.500829e+03	
84	4.200000e+00	8.641018e+03	
85	4.250000e+00	8.779996e+03	
86	4.300000e+00	8.917777e+03	
87	4.350000e+00	9.054374e+03	
88	4.400000e+00	9.189801e+03	
89	4.450000e+00	9.324071e+03	
90	4.500000e+00	9.457198e+03	
91	4.550000e+00	9.589195e+03	
92	4.600000e+00	9.720073e+03	
93	4.650000e+00	9.849848e+03	
94	4.700000e+00	9.978529e+03	
95	4.750000e+00	1.010613e+04	
96	4.800000e+00	1.023267e+04	
97	4.850000e+00	1.035815e+04	
98	4.900000e+00	1.048258e+04	
99	4.950000e+00	1.060599e+04	
100	5.000000e+00	1.072837e+04	
101	5.050000e+00	1.084975e+04	
102	5.100000e+00	1.097012e+04	
103	5.150000e+00	1.108952e+04	
104	5.200000e+00	1.120794e+04	
105	5.250000e+00	1.132539e+04	
106	5.300000e+00	1.144189e+04	
107	5.350000e+00	1.155745e+04	
108	5.400000e+00	1.167208e+04	
109	5.450000e+00	1.178578e+04	
110	5.500000e+00	1.189858e+04	
111	5.550000e+00	1.201047e+04	
112	5.600000e+00	1.212147e+04	

Index   v-sweep         rds             
--------------------------------------------------------------------------------
113	5.650000e+00	1.223160e+04	
114	5.700000e+00	1.234084e+04	
115	5.750000e+00	1.244923e+04	
116	5.800000e+00	1.255677e+04	
117	5.850000e+00	1.266346e+04	
118	5.900000e+00	1.276932e+04	
119	5.950000e+00	1.287435e+04	
120	6.000000e+00	1.297856e+04	
121	6.050000e+00	1.308197e+04	
122	6.100000e+00	1.318458e+04	
123	6.150000e+00	1.328640e+04	
124	6.200000e+00	1.338744e+04	
125	6.250000e+00	1.348771e+04	
126	6.300000e+00	1.358721e+04	
127	6.350000e+00	1.368596e+04	
128	6.400000e+00	1.378395e+04	
129	6.450000e+00	1.388121e+04	
130	6.500000e+00	1.397773e+04	
131	6.550000e+00	1.407353e+04	
132	6.600000e+00	1.416861e+04	
Reset re-loads circuit ***************************

Circuit: ***************************

Doing analysis at TEMP = 25.000000 and TNOM = 25.000000


No. of Data Rows : 133
                          ***************************
                          DC transfer characteristic  Mon Jan  9 13:58:05  2023
--------------------------------------------------------------------------------
Index   v-sweep         rds             
--------------------------------------------------------------------------------
0	0.000000e+00	3.502519e+02	
1	5.000000e-02	3.560487e+02	
2	1.000000e-01	3.619578e+02	
3	1.500000e-01	3.679822e+02	
4	2.000000e-01	3.741251e+02	
5	2.500000e-01	3.803900e+02	
6	3.000000e-01	3.867802e+02	
7	3.500000e-01	3.932994e+02	
8	4.000000e-01	3.999513e+02	
9	4.500000e-01	4.067400e+02	
10	5.000000e-01	4.136694e+02	
11	5.500000e-01	4.207438e+02	
12	6.000000e-01	4.279677e+02	
13	6.500000e-01	4.353457e+02	
14	7.000000e-01	4.428826e+02	
15	7.500000e-01	4.505837e+02	
16	8.000000e-01	4.584540e+02	
17	8.500000e-01	4.664994e+02	
18	9.000000e-01	4.747255e+02	
19	9.500000e-01	4.831384e+02	
20	1.000000e+00	4.917447e+02	
21	1.050000e+00	5.005511e+02	
22	1.100000e+00	5.095648e+02	
23	1.150000e+00	5.187932e+02	
24	1.200000e+00	5.282445e+02	
25	1.250000e+00	5.379271e+02	
26	1.300000e+00	5.478503e+02	
27	1.350000e+00	5.580239e+02	
28	1.400000e+00	5.684589e+02	
29	1.450000e+00	5.791674e+02	
30	1.500000e+00	5.901633e+02	
31	1.550000e+00	6.014627e+02	
32	1.600000e+00	6.130854e+02	
33	1.650000e+00	6.250566e+02	
34	1.700000e+00	6.374100e+02	
35	1.750000e+00	6.501936e+02	
36	1.800000e+00	6.634802e+02	
37	1.850000e+00	6.773861e+02	
38	1.900000e+00	6.921081e+02	
39	1.950000e+00	7.079957e+02	
40	2.000000e+00	7.256922e+02	
41	2.050000e+00	7.464063e+02	
42	2.100000e+00	7.723805e+02	
43	2.150000e+00	8.074903e+02	
44	2.200000e+00	8.573735e+02	
45	2.250000e+00	9.278293e+02	
46	2.300000e+00	1.021515e+03	
47	2.350000e+00	1.136217e+03	
48	2.400000e+00	1.266756e+03	
49	2.450000e+00	1.407861e+03	
50	2.500000e+00	1.555522e+03	
51	2.550000e+00	1.707061e+03	
52	2.600000e+00	1.860771e+03	
53	2.650000e+00	2.015571e+03	
54	2.700000e+00	2.170771e+03	

Index   v-sweep         rds             
--------------------------------------------------------------------------------
55	2.750000e+00	2.325921e+03	
56	2.800000e+00	2.480720e+03	
57	2.850000e+00	2.634967e+03	
58	2.900000e+00	2.788520e+03	
59	2.950000e+00	2.941281e+03	
60	3.000000e+00	3.093180e+03	
61	3.050000e+00	3.244166e+03	
62	3.100000e+00	3.394205e+03	
63	3.150000e+00	3.543271e+03	
64	3.200000e+00	3.691345e+03	
65	3.250000e+00	3.838418e+03	
66	3.300000e+00	3.984479e+03	
67	3.350000e+00	4.129526e+03	
68	3.400000e+00	4.273556e+03	
69	3.450000e+00	4.416570e+03	
70	3.500000e+00	4.558569e+03	
71	3.550000e+00	4.699556e+03	
72	3.600000e+00	4.839535e+03	
73	3.650000e+00	4.978512e+03	
74	3.700000e+00	5.116490e+03	
75	3.750000e+00	5.253477e+03	
76	3.800000e+00	5.389479e+03	
77	3.850000e+00	5.524503e+03	
78	3.900000e+00	5.658555e+03	
79	3.950000e+00	5.791642e+03	
80	4.000000e+00	5.923774e+03	
81	4.050000e+00	6.054955e+03	
82	4.100000e+00	6.185196e+03	
83	4.150000e+00	6.314502e+03	
84	4.200000e+00	6.442883e+03	
85	4.250000e+00	6.570345e+03	
86	4.300000e+00	6.696897e+03	
87	4.350000e+00	6.822547e+03	
88	4.400000e+00	6.947302e+03	
89	4.450000e+00	7.071171e+03	
90	4.500000e+00	7.194161e+03	
91	4.550000e+00	7.316280e+03	
92	4.600000e+00	7.437536e+03	
93	4.650000e+00	7.557937e+03	
94	4.700000e+00	7.677490e+03	
95	4.750000e+00	7.796204e+03	
96	4.800000e+00	7.914085e+03	
97	4.850000e+00	8.031142e+03	
98	4.900000e+00	8.147381e+03	
99	4.950000e+00	8.262811e+03	
100	5.000000e+00	8.377439e+03	
101	5.050000e+00	8.491272e+03	
102	5.100000e+00	8.604317e+03	
103	5.150000e+00	8.716582e+03	
104	5.200000e+00	8.828074e+03	
105	5.250000e+00	8.938800e+03	
106	5.300000e+00	9.048768e+03	
107	5.350000e+00	9.157983e+03	
108	5.400000e+00	9.266453e+03	
109	5.450000e+00	9.374184e+03	
110	5.500000e+00	9.481185e+03	
111	5.550000e+00	9.587460e+03	
112	5.600000e+00	9.693018e+03	

Index   v-sweep         rds             
--------------------------------------------------------------------------------
113	5.650000e+00	9.797864e+03	
114	5.700000e+00	9.902005e+03	
115	5.750000e+00	1.000545e+04	
116	5.800000e+00	1.010820e+04	
117	5.850000e+00	1.021026e+04	
118	5.900000e+00	1.031165e+04	
119	5.950000e+00	1.041236e+04	
120	6.000000e+00	1.051240e+04	
121	6.050000e+00	1.061179e+04	
122	6.100000e+00	1.071051e+04	
123	6.150000e+00	1.080859e+04	
124	6.200000e+00	1.090603e+04	
125	6.250000e+00	1.100283e+04	
126	6.300000e+00	1.109899e+04	
127	6.350000e+00	1.119453e+04	
128	6.400000e+00	1.128945e+04	
129	6.450000e+00	1.138376e+04	
130	6.500000e+00	1.147745e+04	
131	6.550000e+00	1.157054e+04	
132	6.600000e+00	1.166304e+04	
Reset re-loads circuit ***************************

Circuit: ***************************

Note: No ".plot", ".print", or ".fourier" lines; no simulations run
