
Note: Compatibility modes selected: hs

Warning: m=xx on .subckt line will override multiplier m hierarchy!


Circuit: ***************************

Doing analysis at TEMP = -40.000000 and TNOM = -40.000000


No. of Data Rows : 133
                          ***************************
                          DC transfer characteristic  Mon Jan  9 13:58:06  2023
--------------------------------------------------------------------------------
Index   v-sweep         rds             
--------------------------------------------------------------------------------
0	0.000000e+00	7.224127e+04	
1	5.000000e-02	9.191212e+04	
2	1.000000e-01	1.260337e+05	
3	1.500000e-01	1.984125e+05	
4	2.000000e-01	4.165704e+05	
5	2.500000e-01	1.265070e+06	
6	3.000000e-01	2.896586e+06	
7	3.500000e-01	4.231055e+06	
8	4.000000e-01	5.198986e+06	
9	4.500000e-01	6.007624e+06	
10	5.000000e-01	6.749415e+06	
11	5.500000e-01	7.460079e+06	
12	6.000000e-01	8.154616e+06	
13	6.500000e-01	8.840013e+06	
14	7.000000e-01	9.519833e+06	
15	7.500000e-01	1.019604e+07	
16	8.000000e-01	1.086978e+07	
17	8.500000e-01	1.154176e+07	
18	9.000000e-01	1.221245e+07	
19	9.500000e-01	1.288214e+07	
20	1.000000e+00	1.355104e+07	
21	1.050000e+00	1.421931e+07	
22	1.100000e+00	1.488704e+07	
23	1.150000e+00	1.555433e+07	
24	1.200000e+00	1.622123e+07	
25	1.250000e+00	1.688779e+07	
26	1.300000e+00	1.755404e+07	
27	1.350000e+00	1.822001e+07	
28	1.400000e+00	1.888572e+07	
29	1.450000e+00	1.955120e+07	
30	1.500000e+00	2.021645e+07	
31	1.550000e+00	2.088149e+07	
32	1.600000e+00	2.154633e+07	
33	1.650000e+00	2.221097e+07	
34	1.700000e+00	2.287543e+07	
35	1.750000e+00	2.353970e+07	
36	1.800000e+00	2.420380e+07	
37	1.850000e+00	2.486773e+07	
38	1.900000e+00	2.553149e+07	
39	1.950000e+00	2.619508e+07	
40	2.000000e+00	2.685851e+07	
41	2.050000e+00	2.752178e+07	
42	2.100000e+00	2.818489e+07	
43	2.150000e+00	2.884785e+07	
44	2.200000e+00	2.951065e+07	
45	2.250000e+00	3.017330e+07	
46	2.300000e+00	3.083580e+07	
47	2.350000e+00	3.149815e+07	
48	2.400000e+00	3.216034e+07	
49	2.450000e+00	3.282239e+07	
50	2.500000e+00	3.348429e+07	
51	2.550000e+00	3.414604e+07	
52	2.600000e+00	3.480765e+07	
53	2.650000e+00	3.546910e+07	
54	2.700000e+00	3.613042e+07	

Index   v-sweep         rds             
--------------------------------------------------------------------------------
55	2.750000e+00	3.679158e+07	
56	2.800000e+00	3.745260e+07	
57	2.850000e+00	3.811348e+07	
58	2.900000e+00	3.877421e+07	
59	2.950000e+00	3.943480e+07	
60	3.000000e+00	4.009525e+07	
61	3.050000e+00	4.075555e+07	
62	3.100000e+00	4.141571e+07	
63	3.150000e+00	4.207572e+07	
64	3.200000e+00	4.273560e+07	
65	3.250000e+00	4.339533e+07	
66	3.300000e+00	4.405491e+07	
67	3.350000e+00	4.471436e+07	
68	3.400000e+00	4.537366e+07	
69	3.450000e+00	4.603282e+07	
70	3.500000e+00	4.669184e+07	
71	3.550000e+00	4.735072e+07	
72	3.600000e+00	4.800946e+07	
73	3.650000e+00	4.866805e+07	
74	3.700000e+00	4.932650e+07	
75	3.750000e+00	4.998481e+07	
76	3.800000e+00	5.064298e+07	
77	3.850000e+00	5.130101e+07	
78	3.900000e+00	5.195890e+07	
79	3.950000e+00	5.261664e+07	
80	4.000000e+00	5.327425e+07	
81	4.050000e+00	5.393171e+07	
82	4.100000e+00	5.458904e+07	
83	4.150000e+00	5.524622e+07	
84	4.200000e+00	5.590326e+07	
85	4.250000e+00	5.656016e+07	
86	4.300000e+00	5.721692e+07	
87	4.350000e+00	5.787354e+07	
88	4.400000e+00	5.853001e+07	
89	4.450000e+00	5.918635e+07	
90	4.500000e+00	5.984255e+07	
91	4.550000e+00	6.049860e+07	
92	4.600000e+00	6.115452e+07	
93	4.650000e+00	6.181029e+07	
94	4.700000e+00	6.246592e+07	
95	4.750000e+00	6.312142e+07	
96	4.800000e+00	6.377677e+07	
97	4.850000e+00	6.443198e+07	
98	4.900000e+00	6.508705e+07	
99	4.950000e+00	6.574198e+07	
100	5.000000e+00	6.639677e+07	
101	5.050000e+00	6.705142e+07	
102	5.100000e+00	6.770593e+07	
103	5.150000e+00	6.836030e+07	
104	5.200000e+00	6.901453e+07	
105	5.250000e+00	6.966862e+07	
106	5.300000e+00	7.032257e+07	
107	5.350000e+00	7.097638e+07	
108	5.400000e+00	7.163004e+07	
109	5.450000e+00	7.228357e+07	
110	5.500000e+00	7.293696e+07	
111	5.550000e+00	7.359020e+07	
112	5.600000e+00	7.424331e+07	

Index   v-sweep         rds             
--------------------------------------------------------------------------------
113	5.650000e+00	7.489627e+07	
114	5.700000e+00	7.554910e+07	
115	5.750000e+00	7.620178e+07	
116	5.800000e+00	7.685433e+07	
117	5.850000e+00	7.750673e+07	
118	5.900000e+00	7.815900e+07	
119	5.950000e+00	7.881112e+07	
120	6.000000e+00	7.946311e+07	
121	6.050000e+00	8.011495e+07	
122	6.100000e+00	8.076665e+07	
123	6.150000e+00	8.141822e+07	
124	6.200000e+00	8.206964e+07	
125	6.250000e+00	8.272092e+07	
126	6.300000e+00	8.337207e+07	
127	6.350000e+00	8.402307e+07	
128	6.400000e+00	8.467393e+07	
129	6.450000e+00	8.532466e+07	
130	6.500000e+00	8.597524e+07	
131	6.550000e+00	8.662568e+07	
132	6.600000e+00	8.727599e+07	
Reset re-loads circuit ***************************

Circuit: ***************************

Doing analysis at TEMP = -40.000000 and TNOM = -40.000000


No. of Data Rows : 133
                          ***************************
                          DC transfer characteristic  Mon Jan  9 13:58:06  2023
--------------------------------------------------------------------------------
Index   v-sweep         rds             
--------------------------------------------------------------------------------
0	0.000000e+00	1.322577e+04	
1	5.000000e-02	1.375494e+04	
2	1.000000e-01	1.432627e+04	
3	1.500000e-01	1.494500e+04	
4	2.000000e-01	1.561728e+04	
5	2.500000e-01	1.635036e+04	
6	3.000000e-01	1.715290e+04	
7	3.500000e-01	1.803525e+04	
8	4.000000e-01	1.900991e+04	
9	4.500000e-01	2.009217e+04	
10	5.000000e-01	2.130088e+04	
11	5.500000e-01	2.265953e+04	
12	6.000000e-01	2.419784e+04	
13	6.500000e-01	2.595390e+04	
14	7.000000e-01	2.797732e+04	
15	7.500000e-01	3.033399e+04	
16	8.000000e-01	3.311317e+04	
17	8.500000e-01	3.643877e+04	
18	9.000000e-01	4.048749e+04	
19	9.500000e-01	4.551912e+04	
20	1.000000e+00	5.192814e+04	
21	1.050000e+00	6.033198e+04	
22	1.100000e+00	7.171055e+04	
23	1.150000e+00	8.755392e+04	
24	1.200000e+00	1.096926e+05	
25	1.250000e+00	1.390739e+05	
26	1.300000e+00	1.741637e+05	
27	1.350000e+00	2.120302e+05	
28	1.400000e+00	2.507060e+05	
29	1.450000e+00	2.894605e+05	
30	1.500000e+00	3.281207e+05	
31	1.550000e+00	3.666756e+05	
32	1.600000e+00	4.051471e+05	
33	1.650000e+00	4.435573e+05	
34	1.700000e+00	4.819232e+05	
35	1.750000e+00	5.202566e+05	
36	1.800000e+00	5.585658e+05	
37	1.850000e+00	5.968567e+05	
38	1.900000e+00	6.351332e+05	
39	1.950000e+00	6.733983e+05	
40	2.000000e+00	7.116542e+05	
41	2.050000e+00	7.499025e+05	
42	2.100000e+00	7.881442e+05	
43	2.150000e+00	8.263804e+05	
44	2.200000e+00	8.646117e+05	
45	2.250000e+00	9.028386e+05	
46	2.300000e+00	9.410615e+05	
47	2.350000e+00	9.792808e+05	
48	2.400000e+00	1.017497e+06	
49	2.450000e+00	1.055710e+06	
50	2.500000e+00	1.093920e+06	
51	2.550000e+00	1.132127e+06	
52	2.600000e+00	1.170331e+06	
53	2.650000e+00	1.208533e+06	
54	2.700000e+00	1.246732e+06	

Index   v-sweep         rds             
--------------------------------------------------------------------------------
55	2.750000e+00	1.284929e+06	
56	2.800000e+00	1.323123e+06	
57	2.850000e+00	1.361315e+06	
58	2.900000e+00	1.399505e+06	
59	2.950000e+00	1.437692e+06	
60	3.000000e+00	1.475878e+06	
61	3.050000e+00	1.514061e+06	
62	3.100000e+00	1.552241e+06	
63	3.150000e+00	1.590420e+06	
64	3.200000e+00	1.628596e+06	
65	3.250000e+00	1.666770e+06	
66	3.300000e+00	1.704942e+06	
67	3.350000e+00	1.743112e+06	
68	3.400000e+00	1.781280e+06	
69	3.450000e+00	1.819446e+06	
70	3.500000e+00	1.857609e+06	
71	3.550000e+00	1.895771e+06	
72	3.600000e+00	1.933930e+06	
73	3.650000e+00	1.972087e+06	
74	3.700000e+00	2.010242e+06	
75	3.750000e+00	2.048395e+06	
76	3.800000e+00	2.086546e+06	
77	3.850000e+00	2.124694e+06	
78	3.900000e+00	2.162841e+06	
79	3.950000e+00	2.200986e+06	
80	4.000000e+00	2.239128e+06	
81	4.050000e+00	2.277268e+06	
82	4.100000e+00	2.315406e+06	
83	4.150000e+00	2.353542e+06	
84	4.200000e+00	2.391676e+06	
85	4.250000e+00	2.429808e+06	
86	4.300000e+00	2.467938e+06	
87	4.350000e+00	2.506066e+06	
88	4.400000e+00	2.544191e+06	
89	4.450000e+00	2.582315e+06	
90	4.500000e+00	2.620436e+06	
91	4.550000e+00	2.658555e+06	
92	4.600000e+00	2.696672e+06	
93	4.650000e+00	2.734787e+06	
94	4.700000e+00	2.772900e+06	
95	4.750000e+00	2.811011e+06	
96	4.800000e+00	2.849119e+06	
97	4.850000e+00	2.887226e+06	
98	4.900000e+00	2.925330e+06	
99	4.950000e+00	2.963433e+06	
100	5.000000e+00	3.001533e+06	
101	5.050000e+00	3.039631e+06	
102	5.100000e+00	3.077727e+06	
103	5.150000e+00	3.115821e+06	
104	5.200000e+00	3.153912e+06	
105	5.250000e+00	3.192002e+06	
106	5.300000e+00	3.230089e+06	
107	5.350000e+00	3.268175e+06	
108	5.400000e+00	3.306258e+06	
109	5.450000e+00	3.344339e+06	
110	5.500000e+00	3.382418e+06	
111	5.550000e+00	3.420494e+06	
112	5.600000e+00	3.458569e+06	

Index   v-sweep         rds             
--------------------------------------------------------------------------------
113	5.650000e+00	3.496642e+06	
114	5.700000e+00	3.534712e+06	
115	5.750000e+00	3.572780e+06	
116	5.800000e+00	3.610846e+06	
117	5.850000e+00	3.648910e+06	
118	5.900000e+00	3.686972e+06	
119	5.950000e+00	3.725032e+06	
120	6.000000e+00	3.763090e+06	
121	6.050000e+00	3.801145e+06	
122	6.100000e+00	3.839198e+06	
123	6.150000e+00	3.877250e+06	
124	6.200000e+00	3.915299e+06	
125	6.250000e+00	3.953345e+06	
126	6.300000e+00	3.991390e+06	
127	6.350000e+00	4.029433e+06	
128	6.400000e+00	4.067473e+06	
129	6.450000e+00	4.105512e+06	
130	6.500000e+00	4.143548e+06	
131	6.550000e+00	4.181582e+06	
132	6.600000e+00	4.219614e+06	
Reset re-loads circuit ***************************

Circuit: ***************************

Doing analysis at TEMP = -40.000000 and TNOM = -40.000000


No. of Data Rows : 133
                          ***************************
                          DC transfer characteristic  Mon Jan  9 13:58:06  2023
--------------------------------------------------------------------------------
Index   v-sweep         rds             
--------------------------------------------------------------------------------
0	0.000000e+00	8.217790e+03	
1	5.000000e-02	8.396207e+03	
2	1.000000e-01	8.581885e+03	
3	1.500000e-01	8.775278e+03	
4	2.000000e-01	8.976876e+03	
5	2.500000e-01	9.187212e+03	
6	3.000000e-01	9.406866e+03	
7	3.500000e-01	9.636472e+03	
8	4.000000e-01	9.876719e+03	
9	4.500000e-01	1.012837e+04	
10	5.000000e-01	1.039224e+04	
11	5.500000e-01	1.066926e+04	
12	6.000000e-01	1.096043e+04	
13	6.500000e-01	1.126686e+04	
14	7.000000e-01	1.158979e+04	
15	7.500000e-01	1.193057e+04	
16	8.000000e-01	1.229074e+04	
17	8.500000e-01	1.267199e+04	
18	9.000000e-01	1.307624e+04	
19	9.500000e-01	1.350562e+04	
20	1.000000e+00	1.396255e+04	
21	1.050000e+00	1.444978e+04	
22	1.100000e+00	1.497041e+04	
23	1.150000e+00	1.552801e+04	
24	1.200000e+00	1.612665e+04	
25	1.250000e+00	1.677105e+04	
26	1.300000e+00	1.746665e+04	
27	1.350000e+00	1.821980e+04	
28	1.400000e+00	1.903797e+04	
29	1.450000e+00	1.992996e+04	
30	1.500000e+00	2.090623e+04	
31	1.550000e+00	2.197933e+04	
32	1.600000e+00	2.316446e+04	
33	1.650000e+00	2.448014e+04	
34	1.700000e+00	2.594930e+04	
35	1.750000e+00	2.760060e+04	
36	1.800000e+00	2.947039e+04	
37	1.850000e+00	3.160559e+04	
38	1.900000e+00	3.406793e+04	
39	1.950000e+00	3.694040e+04	
40	2.000000e+00	4.033729e+04	
41	2.050000e+00	4.441885e+04	
42	2.100000e+00	4.940854e+04	
43	2.150000e+00	5.559616e+04	
44	2.200000e+00	6.328135e+04	
45	2.250000e+00	7.262355e+04	
46	2.300000e+00	8.350599e+04	
47	2.350000e+00	9.559035e+04	
48	2.400000e+00	1.085000e+05	
49	2.450000e+00	1.219401e+05	
50	2.500000e+00	1.357148e+05	
51	2.550000e+00	1.497030e+05	
52	2.600000e+00	1.638307e+05	
53	2.650000e+00	1.780523e+05	
54	2.700000e+00	1.923388e+05	

Index   v-sweep         rds             
--------------------------------------------------------------------------------
55	2.750000e+00	2.066716e+05	
56	2.800000e+00	2.210382e+05	
57	2.850000e+00	2.354300e+05	
58	2.900000e+00	2.498411e+05	
59	2.950000e+00	2.642670e+05	
60	3.000000e+00	2.787046e+05	
61	3.050000e+00	2.931515e+05	
62	3.100000e+00	3.076061e+05	
63	3.150000e+00	3.220667e+05	
64	3.200000e+00	3.365325e+05	
65	3.250000e+00	3.510024e+05	
66	3.300000e+00	3.654758e+05	
67	3.350000e+00	3.799522e+05	
68	3.400000e+00	3.944311e+05	
69	3.450000e+00	4.089121e+05	
70	3.500000e+00	4.233948e+05	
71	3.550000e+00	4.378791e+05	
72	3.600000e+00	4.523647e+05	
73	3.650000e+00	4.668514e+05	
74	3.700000e+00	4.813390e+05	
75	3.750000e+00	4.958275e+05	
76	3.800000e+00	5.103166e+05	
77	3.850000e+00	5.248062e+05	
78	3.900000e+00	5.392964e+05	
79	3.950000e+00	5.537869e+05	
80	4.000000e+00	5.682778e+05	
81	4.050000e+00	5.827689e+05	
82	4.100000e+00	5.972602e+05	
83	4.150000e+00	6.117517e+05	
84	4.200000e+00	6.262432e+05	
85	4.250000e+00	6.407349e+05	
86	4.300000e+00	6.552265e+05	
87	4.350000e+00	6.697181e+05	
88	4.400000e+00	6.842097e+05	
89	4.450000e+00	6.987013e+05	
90	4.500000e+00	7.131927e+05	
91	4.550000e+00	7.276840e+05	
92	4.600000e+00	7.421752e+05	
93	4.650000e+00	7.566662e+05	
94	4.700000e+00	7.711571e+05	
95	4.750000e+00	7.856477e+05	
96	4.800000e+00	8.001382e+05	
97	4.850000e+00	8.146284e+05	
98	4.900000e+00	8.291184e+05	
99	4.950000e+00	8.436082e+05	
100	5.000000e+00	8.580977e+05	
101	5.050000e+00	8.725869e+05	
102	5.100000e+00	8.870759e+05	
103	5.150000e+00	9.015645e+05	
104	5.200000e+00	9.160529e+05	
105	5.250000e+00	9.305410e+05	
106	5.300000e+00	9.450288e+05	
107	5.350000e+00	9.595162e+05	
108	5.400000e+00	9.740034e+05	
109	5.450000e+00	9.884902e+05	
110	5.500000e+00	1.002977e+06	
111	5.550000e+00	1.017463e+06	
112	5.600000e+00	1.031949e+06	

Index   v-sweep         rds             
--------------------------------------------------------------------------------
113	5.650000e+00	1.046434e+06	
114	5.700000e+00	1.060919e+06	
115	5.750000e+00	1.075404e+06	
116	5.800000e+00	1.089888e+06	
117	5.850000e+00	1.104372e+06	
118	5.900000e+00	1.118856e+06	
119	5.950000e+00	1.133339e+06	
120	6.000000e+00	1.147822e+06	
121	6.050000e+00	1.162304e+06	
122	6.100000e+00	1.176786e+06	
123	6.150000e+00	1.191268e+06	
124	6.200000e+00	1.205749e+06	
125	6.250000e+00	1.220230e+06	
126	6.300000e+00	1.234711e+06	
127	6.350000e+00	1.249191e+06	
128	6.400000e+00	1.263671e+06	
129	6.450000e+00	1.278150e+06	
130	6.500000e+00	1.292629e+06	
131	6.550000e+00	1.307108e+06	
132	6.600000e+00	1.321586e+06	
Reset re-loads circuit ***************************

Circuit: ***************************

Doing analysis at TEMP = -40.000000 and TNOM = -40.000000


No. of Data Rows : 133
                          ***************************
                          DC transfer characteristic  Mon Jan  9 13:58:06  2023
--------------------------------------------------------------------------------
Index   v-sweep         rds             
--------------------------------------------------------------------------------
0	0.000000e+00	6.384573e+03	
1	5.000000e-02	6.479240e+03	
2	1.000000e-01	6.576429e+03	
3	1.500000e-01	6.676241e+03	
4	2.000000e-01	6.778783e+03	
5	2.500000e-01	6.884169e+03	
6	3.000000e-01	6.992519e+03	
7	3.500000e-01	7.103960e+03	
8	4.000000e-01	7.218625e+03	
9	4.500000e-01	7.336656e+03	
10	5.000000e-01	7.458204e+03	
11	5.500000e-01	7.583427e+03	
12	6.000000e-01	7.712495e+03	
13	6.500000e-01	7.845587e+03	
14	7.000000e-01	7.982895e+03	
15	7.500000e-01	8.124621e+03	
16	8.000000e-01	8.270982e+03	
17	8.500000e-01	8.422209e+03	
18	9.000000e-01	8.578548e+03	
19	9.500000e-01	8.740263e+03	
20	1.000000e+00	8.907636e+03	
21	1.050000e+00	9.080968e+03	
22	1.100000e+00	9.260584e+03	
23	1.150000e+00	9.446831e+03	
24	1.200000e+00	9.640083e+03	
25	1.250000e+00	9.840742e+03	
26	1.300000e+00	1.004924e+04	
27	1.350000e+00	1.026605e+04	
28	1.400000e+00	1.049168e+04	
29	1.450000e+00	1.072667e+04	
30	1.500000e+00	1.097163e+04	
31	1.550000e+00	1.122719e+04	
32	1.600000e+00	1.149406e+04	
33	1.650000e+00	1.177301e+04	
34	1.700000e+00	1.206488e+04	
35	1.750000e+00	1.237058e+04	
36	1.800000e+00	1.269114e+04	
37	1.850000e+00	1.302764e+04	
38	1.900000e+00	1.338133e+04	
39	1.950000e+00	1.375355e+04	
40	2.000000e+00	1.414579e+04	
41	2.050000e+00	1.455972e+04	
42	2.100000e+00	1.499720e+04	
43	2.150000e+00	1.546030e+04	
44	2.200000e+00	1.595136e+04	
45	2.250000e+00	1.647299e+04	
46	2.300000e+00	1.702816e+04	
47	2.350000e+00	1.762026e+04	
48	2.400000e+00	1.825313e+04	
49	2.450000e+00	1.893122e+04	
50	2.500000e+00	1.965964e+04	
51	2.550000e+00	2.044440e+04	
52	2.600000e+00	2.129254e+04	
53	2.650000e+00	2.221251e+04	
54	2.700000e+00	2.321451e+04	

Index   v-sweep         rds             
--------------------------------------------------------------------------------
55	2.750000e+00	2.431120e+04	
56	2.800000e+00	2.551864e+04	
57	2.850000e+00	2.685789e+04	
58	2.900000e+00	2.835771e+04	
59	2.950000e+00	3.005890e+04	
60	3.000000e+00	3.202124e+04	
61	3.050000e+00	3.433278e+04	
62	3.100000e+00	3.711695e+04	
63	3.150000e+00	4.052442e+04	
64	3.200000e+00	4.469285e+04	
65	3.250000e+00	4.968362e+04	
66	3.300000e+00	5.544680e+04	
67	3.350000e+00	6.184946e+04	
68	3.400000e+00	6.873525e+04	
69	3.450000e+00	7.596712e+04	
70	3.500000e+00	8.344133e+04	
71	3.550000e+00	9.108489e+04	
72	3.600000e+00	9.884791e+04	
73	3.650000e+00	1.066965e+05	
74	3.700000e+00	1.146075e+05	
75	3.750000e+00	1.225650e+05	
76	3.800000e+00	1.305574e+05	
77	3.850000e+00	1.385769e+05	
78	3.900000e+00	1.466175e+05	
79	3.950000e+00	1.546747e+05	
80	4.000000e+00	1.627454e+05	
81	4.050000e+00	1.708270e+05	
82	4.100000e+00	1.789175e+05	
83	4.150000e+00	1.870154e+05	
84	4.200000e+00	1.951196e+05	
85	4.250000e+00	2.032290e+05	
86	4.300000e+00	2.113428e+05	
87	4.350000e+00	2.194604e+05	
88	4.400000e+00	2.275813e+05	
89	4.450000e+00	2.357050e+05	
90	4.500000e+00	2.438312e+05	
91	4.550000e+00	2.519595e+05	
92	4.600000e+00	2.600897e+05	
93	4.650000e+00	2.682216e+05	
94	4.700000e+00	2.763549e+05	
95	4.750000e+00	2.844895e+05	
96	4.800000e+00	2.926252e+05	
97	4.850000e+00	3.007620e+05	
98	4.900000e+00	3.088996e+05	
99	4.950000e+00	3.170381e+05	
100	5.000000e+00	3.251773e+05	
101	5.050000e+00	3.333172e+05	
102	5.100000e+00	3.414576e+05	
103	5.150000e+00	3.495985e+05	
104	5.200000e+00	3.577400e+05	
105	5.250000e+00	3.658818e+05	
106	5.300000e+00	3.740240e+05	
107	5.350000e+00	3.821665e+05	
108	5.400000e+00	3.903093e+05	
109	5.450000e+00	3.984524e+05	
110	5.500000e+00	4.065958e+05	
111	5.550000e+00	4.147393e+05	
112	5.600000e+00	4.228830e+05	

Index   v-sweep         rds             
--------------------------------------------------------------------------------
113	5.650000e+00	4.310269e+05	
114	5.700000e+00	4.391709e+05	
115	5.750000e+00	4.473151e+05	
116	5.800000e+00	4.554593e+05	
117	5.850000e+00	4.636037e+05	
118	5.900000e+00	4.717481e+05	
119	5.950000e+00	4.798925e+05	
120	6.000000e+00	4.880371e+05	
121	6.050000e+00	4.961816e+05	
122	6.100000e+00	5.043262e+05	
123	6.150000e+00	5.124708e+05	
124	6.200000e+00	5.206153e+05	
125	6.250000e+00	5.287599e+05	
126	6.300000e+00	5.369045e+05	
127	6.350000e+00	5.450490e+05	
128	6.400000e+00	5.531936e+05	
129	6.450000e+00	5.613380e+05	
130	6.500000e+00	5.694825e+05	
131	6.550000e+00	5.776269e+05	
132	6.600000e+00	5.857712e+05	
Reset re-loads circuit ***************************

Circuit: ***************************

Doing analysis at TEMP = -40.000000 and TNOM = -40.000000


No. of Data Rows : 133
                          ***************************
                          DC transfer characteristic  Mon Jan  9 13:58:06  2023
--------------------------------------------------------------------------------
Index   v-sweep         rds             
--------------------------------------------------------------------------------
0	0.000000e+00	5.456256e+03	
1	5.000000e-02	5.517082e+03	
2	1.000000e-01	5.579085e+03	
3	1.500000e-01	5.642299e+03	
4	2.000000e-01	5.706759e+03	
5	2.500000e-01	5.772502e+03	
6	3.000000e-01	5.839568e+03	
7	3.500000e-01	5.907996e+03	
8	4.000000e-01	5.977828e+03	
9	4.500000e-01	6.049108e+03	
10	5.000000e-01	6.121881e+03	
11	5.500000e-01	6.196195e+03	
12	6.000000e-01	6.272098e+03	
13	6.500000e-01	6.349642e+03	
14	7.000000e-01	6.428881e+03	
15	7.500000e-01	6.509871e+03	
16	8.000000e-01	6.592670e+03	
17	8.500000e-01	6.677340e+03	
18	9.000000e-01	6.763945e+03	
19	9.500000e-01	6.852551e+03	
20	1.000000e+00	6.943228e+03	
21	1.050000e+00	7.036051e+03	
22	1.100000e+00	7.131095e+03	
23	1.150000e+00	7.228442e+03	
24	1.200000e+00	7.328176e+03	
25	1.250000e+00	7.430386e+03	
26	1.300000e+00	7.535165e+03	
27	1.350000e+00	7.642610e+03	
28	1.400000e+00	7.752826e+03	
29	1.450000e+00	7.865919e+03	
30	1.500000e+00	7.982005e+03	
31	1.550000e+00	8.101203e+03	
32	1.600000e+00	8.223641e+03	
33	1.650000e+00	8.349451e+03	
34	1.700000e+00	8.478775e+03	
35	1.750000e+00	8.611763e+03	
36	1.800000e+00	8.748571e+03	
37	1.850000e+00	8.889368e+03	
38	1.900000e+00	9.034329e+03	
39	1.950000e+00	9.183642e+03	
40	2.000000e+00	9.337506e+03	
41	2.050000e+00	9.496132e+03	
42	2.100000e+00	9.659745e+03	
43	2.150000e+00	9.828583e+03	
44	2.200000e+00	1.000290e+04	
45	2.250000e+00	1.018297e+04	
46	2.300000e+00	1.036908e+04	
47	2.350000e+00	1.056154e+04	
48	2.400000e+00	1.076068e+04	
49	2.450000e+00	1.096685e+04	
50	2.500000e+00	1.118044e+04	
51	2.550000e+00	1.140185e+04	
52	2.600000e+00	1.163153e+04	
53	2.650000e+00	1.186993e+04	
54	2.700000e+00	1.211758e+04	

Index   v-sweep         rds             
--------------------------------------------------------------------------------
55	2.750000e+00	1.237502e+04	
56	2.800000e+00	1.264285e+04	
57	2.850000e+00	1.292171e+04	
58	2.900000e+00	1.321231e+04	
59	2.950000e+00	1.351540e+04	
60	3.000000e+00	1.383182e+04	
61	3.050000e+00	1.416248e+04	
62	3.100000e+00	1.450838e+04	
63	3.150000e+00	1.487060e+04	
64	3.200000e+00	1.525037e+04	
65	3.250000e+00	1.564903e+04	
66	3.300000e+00	1.606807e+04	
67	3.350000e+00	1.650918e+04	
68	3.400000e+00	1.697423e+04	
69	3.450000e+00	1.746540e+04	
70	3.500000e+00	1.798516e+04	
71	3.550000e+00	1.853640e+04	
72	3.600000e+00	1.912257e+04	
73	3.650000e+00	1.974785e+04	
74	3.700000e+00	2.041744e+04	
75	3.750000e+00	2.113807e+04	
76	3.800000e+00	2.191872e+04	
77	3.850000e+00	2.277182e+04	
78	3.900000e+00	2.371528e+04	
79	3.950000e+00	2.477543e+04	
80	4.000000e+00	2.599130e+04	
81	4.050000e+00	2.741919e+04	
82	4.100000e+00	2.913473e+04	
83	4.150000e+00	3.122613e+04	
84	4.200000e+00	3.377372e+04	
85	4.250000e+00	3.682116e+04	
86	4.300000e+00	4.035766e+04	
87	4.350000e+00	4.432517e+04	
88	4.400000e+00	4.864261e+04	
89	4.450000e+00	5.322899e+04	
90	4.500000e+00	5.801578e+04	
91	4.550000e+00	6.295006e+04	
92	4.600000e+00	6.799283e+04	
93	4.650000e+00	7.311596e+04	
94	4.700000e+00	7.829929e+04	
95	4.750000e+00	8.352827e+04	
96	4.800000e+00	8.879237e+04	
97	4.850000e+00	9.408385e+04	
98	4.900000e+00	9.939695e+04	
99	4.950000e+00	1.047273e+05	
100	5.000000e+00	1.100717e+05	
101	5.050000e+00	1.154275e+05	
102	5.100000e+00	1.207927e+05	
103	5.150000e+00	1.261658e+05	
104	5.200000e+00	1.315455e+05	
105	5.250000e+00	1.369308e+05	
106	5.300000e+00	1.423209e+05	
107	5.350000e+00	1.477150e+05	
108	5.400000e+00	1.531127e+05	
109	5.450000e+00	1.585135e+05	
110	5.500000e+00	1.639169e+05	
111	5.550000e+00	1.693227e+05	
112	5.600000e+00	1.747306e+05	

Index   v-sweep         rds             
--------------------------------------------------------------------------------
113	5.650000e+00	1.801402e+05	
114	5.700000e+00	1.855515e+05	
115	5.750000e+00	1.909643e+05	
116	5.800000e+00	1.963784e+05	
117	5.850000e+00	2.017936e+05	
118	5.900000e+00	2.072098e+05	
119	5.950000e+00	2.126270e+05	
120	6.000000e+00	2.180450e+05	
121	6.050000e+00	2.234638e+05	
122	6.100000e+00	2.288833e+05	
123	6.150000e+00	2.343035e+05	
124	6.200000e+00	2.397242e+05	
125	6.250000e+00	2.451454e+05	
126	6.300000e+00	2.505671e+05	
127	6.350000e+00	2.559892e+05	
128	6.400000e+00	2.614117e+05	
129	6.450000e+00	2.668346e+05	
130	6.500000e+00	2.722579e+05	
131	6.550000e+00	2.776814e+05	
132	6.600000e+00	2.831052e+05	
Reset re-loads circuit ***************************

Circuit: ***************************

Doing analysis at TEMP = -40.000000 and TNOM = -40.000000


No. of Data Rows : 133
                          ***************************
                          DC transfer characteristic  Mon Jan  9 13:58:06  2023
--------------------------------------------------------------------------------
Index   v-sweep         rds             
--------------------------------------------------------------------------------
0	0.000000e+00	4.910902e+03	
1	5.000000e-02	4.954249e+03	
2	1.000000e-01	4.998241e+03	
3	1.500000e-01	5.042891e+03	
4	2.000000e-01	5.088214e+03	
5	2.500000e-01	5.134226e+03	
6	3.000000e-01	5.180943e+03	
7	3.500000e-01	5.228380e+03	
8	4.000000e-01	5.276554e+03	
9	4.500000e-01	5.325484e+03	
10	5.000000e-01	5.375186e+03	
11	5.500000e-01	5.425678e+03	
12	6.000000e-01	5.476981e+03	
13	6.500000e-01	5.529113e+03	
14	7.000000e-01	5.582094e+03	
15	7.500000e-01	5.635946e+03	
16	8.000000e-01	5.690690e+03	
17	8.500000e-01	5.746349e+03	
18	9.000000e-01	5.802945e+03	
19	9.500000e-01	5.860501e+03	
20	1.000000e+00	5.919044e+03	
21	1.050000e+00	5.978598e+03	
22	1.100000e+00	6.039189e+03	
23	1.150000e+00	6.100846e+03	
24	1.200000e+00	6.163595e+03	
25	1.250000e+00	6.227467e+03	
26	1.300000e+00	6.292491e+03	
27	1.350000e+00	6.358699e+03	
28	1.400000e+00	6.426124e+03	
29	1.450000e+00	6.494800e+03	
30	1.500000e+00	6.564760e+03	
31	1.550000e+00	6.636043e+03	
32	1.600000e+00	6.708685e+03	
33	1.650000e+00	6.782725e+03	
34	1.700000e+00	6.858205e+03	
35	1.750000e+00	6.935166e+03	
36	1.800000e+00	7.013653e+03	
37	1.850000e+00	7.093711e+03	
38	1.900000e+00	7.175388e+03	
39	1.950000e+00	7.258733e+03	
40	2.000000e+00	7.343798e+03	
41	2.050000e+00	7.430637e+03	
42	2.100000e+00	7.519306e+03	
43	2.150000e+00	7.609862e+03	
44	2.200000e+00	7.702367e+03	
45	2.250000e+00	7.796884e+03	
46	2.300000e+00	7.893479e+03	
47	2.350000e+00	7.992223e+03	
48	2.400000e+00	8.093186e+03	
49	2.450000e+00	8.196445e+03	
50	2.500000e+00	8.302079e+03	
51	2.550000e+00	8.410171e+03	
52	2.600000e+00	8.520807e+03	
53	2.650000e+00	8.634078e+03	
54	2.700000e+00	8.750079e+03	

Index   v-sweep         rds             
--------------------------------------------------------------------------------
55	2.750000e+00	8.868911e+03	
56	2.800000e+00	8.990678e+03	
57	2.850000e+00	9.115490e+03	
58	2.900000e+00	9.243463e+03	
59	2.950000e+00	9.374718e+03	
60	3.000000e+00	9.509384e+03	
61	3.050000e+00	9.647595e+03	
62	3.100000e+00	9.789493e+03	
63	3.150000e+00	9.935228e+03	
64	3.200000e+00	1.008496e+04	
65	3.250000e+00	1.023885e+04	
66	3.300000e+00	1.039708e+04	
67	3.350000e+00	1.055983e+04	
68	3.400000e+00	1.072731e+04	
69	3.450000e+00	1.089972e+04	
70	3.500000e+00	1.107728e+04	
71	3.550000e+00	1.126024e+04	
72	3.600000e+00	1.144883e+04	
73	3.650000e+00	1.164333e+04	
74	3.700000e+00	1.184403e+04	
75	3.750000e+00	1.205122e+04	
76	3.800000e+00	1.226523e+04	
77	3.850000e+00	1.248641e+04	
78	3.900000e+00	1.271514e+04	
79	3.950000e+00	1.295181e+04	
80	4.000000e+00	1.319686e+04	
81	4.050000e+00	1.345075e+04	
82	4.100000e+00	1.371400e+04	
83	4.150000e+00	1.398715e+04	
84	4.200000e+00	1.427081e+04	
85	4.250000e+00	1.456565e+04	
86	4.300000e+00	1.487240e+04	
87	4.350000e+00	1.519189e+04	
88	4.400000e+00	1.552503e+04	
89	4.450000e+00	1.587289e+04	
90	4.500000e+00	1.623668e+04	
91	4.550000e+00	1.661787e+04	
92	4.600000e+00	1.701819e+04	
93	4.650000e+00	1.743980e+04	
94	4.700000e+00	1.788543e+04	
95	4.750000e+00	1.835870e+04	
96	4.800000e+00	1.886447e+04	
97	4.850000e+00	1.940952e+04	
98	4.900000e+00	2.000353e+04	
99	4.950000e+00	2.066054e+04	
100	5.000000e+00	2.140099e+04	
101	5.050000e+00	2.225416e+04	
102	5.100000e+00	2.326018e+04	
103	5.150000e+00	2.446981e+04	
104	5.200000e+00	2.593901e+04	
105	5.250000e+00	2.771716e+04	
106	5.300000e+00	2.983239e+04	
107	5.350000e+00	3.228258e+04	
108	5.400000e+00	3.503781e+04	
109	5.450000e+00	3.805167e+04	
110	5.500000e+00	4.127372e+04	
111	5.550000e+00	4.465793e+04	
112	5.600000e+00	4.816625e+04	

Index   v-sweep         rds             
--------------------------------------------------------------------------------
113	5.650000e+00	5.176899e+04	
114	5.700000e+00	5.544363e+04	
115	5.750000e+00	5.917335e+04	
116	5.800000e+00	6.294565e+04	
117	5.850000e+00	6.675120e+04	
118	5.900000e+00	7.058298e+04	
119	5.950000e+00	7.443570e+04	
120	6.000000e+00	7.830529e+04	
121	6.050000e+00	8.218863e+04	
122	6.100000e+00	8.608326e+04	
123	6.150000e+00	8.998727e+04	
124	6.200000e+00	9.389912e+04	
125	6.250000e+00	9.781758e+04	
126	6.300000e+00	1.017417e+05	
127	6.350000e+00	1.056705e+05	
128	6.400000e+00	1.096035e+05	
129	6.450000e+00	1.135401e+05	
130	6.500000e+00	1.174798e+05	
131	6.550000e+00	1.214223e+05	
132	6.600000e+00	1.253671e+05	
Reset re-loads circuit ***************************

Circuit: ***************************

Note: No ".plot", ".print", or ".fourier" lines; no simulations run
