
Note: Compatibility modes selected: hs

Warning: m=xx on .subckt line will override multiplier m hierarchy!


Circuit: ***************************

Doing analysis at TEMP = 125.000000 and TNOM = 125.000000


No. of Data Rows : 133
                          ***************************
                          DC transfer characteristic  Mon Jan  9 13:58:06  2023
--------------------------------------------------------------------------------
Index   v-sweep         rds             
--------------------------------------------------------------------------------
0	0.000000e+00	7.635983e+04	
1	5.000000e-02	8.544486e+04	
2	1.000000e-01	9.694505e+04	
3	1.500000e-01	1.119675e+05	
4	2.000000e-01	1.324121e+05	
5	2.500000e-01	1.618215e+05	
6	3.000000e-01	2.075686e+05	
7	3.500000e-01	2.873949e+05	
8	4.000000e-01	4.517753e+05	
9	4.500000e-01	8.496052e+05	
10	5.000000e-01	1.689799e+06	
11	5.500000e-01	2.717899e+06	
12	6.000000e-01	3.556749e+06	
13	6.500000e-01	4.216687e+06	
14	7.000000e-01	4.783195e+06	
15	7.500000e-01	5.303978e+06	
16	8.000000e-01	5.801210e+06	
17	8.500000e-01	6.285422e+06	
18	9.000000e-01	6.761941e+06	
19	9.500000e-01	7.233643e+06	
20	1.000000e+00	7.702176e+06	
21	1.050000e+00	8.168535e+06	
22	1.100000e+00	8.633345e+06	
23	1.150000e+00	9.097016e+06	
24	1.200000e+00	9.559828e+06	
25	1.250000e+00	1.002197e+07	
26	1.300000e+00	1.048359e+07	
27	1.350000e+00	1.094477e+07	
28	1.400000e+00	1.140560e+07	
29	1.450000e+00	1.186614e+07	
30	1.500000e+00	1.232642e+07	
31	1.550000e+00	1.278648e+07	
32	1.600000e+00	1.324635e+07	
33	1.650000e+00	1.370604e+07	
34	1.700000e+00	1.416558e+07	
35	1.750000e+00	1.462498e+07	
36	1.800000e+00	1.508425e+07	
37	1.850000e+00	1.554340e+07	
38	1.900000e+00	1.600244e+07	
39	1.950000e+00	1.646137e+07	
40	2.000000e+00	1.692020e+07	
41	2.050000e+00	1.737894e+07	
42	2.100000e+00	1.783758e+07	
43	2.150000e+00	1.829614e+07	
44	2.200000e+00	1.875461e+07	
45	2.250000e+00	1.921301e+07	
46	2.300000e+00	1.967132e+07	
47	2.350000e+00	2.012956e+07	
48	2.400000e+00	2.058772e+07	
49	2.450000e+00	2.104580e+07	
50	2.500000e+00	2.150381e+07	
51	2.550000e+00	2.196175e+07	
52	2.600000e+00	2.241963e+07	
53	2.650000e+00	2.287743e+07	
54	2.700000e+00	2.333516e+07	

Index   v-sweep         rds             
--------------------------------------------------------------------------------
55	2.750000e+00	2.379282e+07	
56	2.800000e+00	2.425042e+07	
57	2.850000e+00	2.470795e+07	
58	2.900000e+00	2.516541e+07	
59	2.950000e+00	2.562281e+07	
60	3.000000e+00	2.608015e+07	
61	3.050000e+00	2.653741e+07	
62	3.100000e+00	2.699462e+07	
63	3.150000e+00	2.745176e+07	
64	3.200000e+00	2.790884e+07	
65	3.250000e+00	2.836585e+07	
66	3.300000e+00	2.882280e+07	
67	3.350000e+00	2.927969e+07	
68	3.400000e+00	2.973651e+07	
69	3.450000e+00	3.019327e+07	
70	3.500000e+00	3.064997e+07	
71	3.550000e+00	3.110661e+07	
72	3.600000e+00	3.156318e+07	
73	3.650000e+00	3.201970e+07	
74	3.700000e+00	3.247615e+07	
75	3.750000e+00	3.293254e+07	
76	3.800000e+00	3.338887e+07	
77	3.850000e+00	3.384514e+07	
78	3.900000e+00	3.430134e+07	
79	3.950000e+00	3.475749e+07	
80	4.000000e+00	3.521357e+07	
81	4.050000e+00	3.566960e+07	
82	4.100000e+00	3.612556e+07	
83	4.150000e+00	3.658146e+07	
84	4.200000e+00	3.703730e+07	
85	4.250000e+00	3.749308e+07	
86	4.300000e+00	3.794880e+07	
87	4.350000e+00	3.840446e+07	
88	4.400000e+00	3.886006e+07	
89	4.450000e+00	3.931560e+07	
90	4.500000e+00	3.977107e+07	
91	4.550000e+00	4.022649e+07	
92	4.600000e+00	4.068185e+07	
93	4.650000e+00	4.113714e+07	
94	4.700000e+00	4.159238e+07	
95	4.750000e+00	4.204755e+07	
96	4.800000e+00	4.250267e+07	
97	4.850000e+00	4.295773e+07	
98	4.900000e+00	4.341272e+07	
99	4.950000e+00	4.386765e+07	
100	5.000000e+00	4.432253e+07	
101	5.050000e+00	4.477734e+07	
102	5.100000e+00	4.523210e+07	
103	5.150000e+00	4.568679e+07	
104	5.200000e+00	4.614143e+07	
105	5.250000e+00	4.659600e+07	
106	5.300000e+00	4.705052e+07	
107	5.350000e+00	4.750497e+07	
108	5.400000e+00	4.795936e+07	
109	5.450000e+00	4.841370e+07	
110	5.500000e+00	4.886797e+07	
111	5.550000e+00	4.932219e+07	
112	5.600000e+00	4.977634e+07	

Index   v-sweep         rds             
--------------------------------------------------------------------------------
113	5.650000e+00	5.023044e+07	
114	5.700000e+00	5.068447e+07	
115	5.750000e+00	5.113845e+07	
116	5.800000e+00	5.159236e+07	
117	5.850000e+00	5.204621e+07	
118	5.900000e+00	5.250001e+07	
119	5.950000e+00	5.295375e+07	
120	6.000000e+00	5.340742e+07	
121	6.050000e+00	5.386104e+07	
122	6.100000e+00	5.431459e+07	
123	6.150000e+00	5.476809e+07	
124	6.200000e+00	5.522152e+07	
125	6.250000e+00	5.567490e+07	
126	6.300000e+00	5.612822e+07	
127	6.350000e+00	5.658147e+07	
128	6.400000e+00	5.703467e+07	
129	6.450000e+00	5.748781e+07	
130	6.500000e+00	5.794088e+07	
131	6.550000e+00	5.839390e+07	
132	6.600000e+00	5.884686e+07	
Reset re-loads circuit ***************************

Circuit: ***************************

Doing analysis at TEMP = 125.000000 and TNOM = 125.000000


No. of Data Rows : 133
                          ***************************
                          DC transfer characteristic  Mon Jan  9 13:58:06  2023
--------------------------------------------------------------------------------
Index   v-sweep         rds             
--------------------------------------------------------------------------------
0	0.000000e+00	2.526696e+04	
1	5.000000e-02	2.610930e+04	
2	1.000000e-01	2.700714e+04	
3	1.500000e-01	2.796613e+04	
4	2.000000e-01	2.899275e+04	
5	2.500000e-01	3.009440e+04	
6	3.000000e-01	3.127963e+04	
7	3.500000e-01	3.255831e+04	
8	4.000000e-01	3.394194e+04	
9	4.500000e-01	3.544400e+04	
10	5.000000e-01	3.708035e+04	
11	5.500000e-01	3.886984e+04	
12	6.000000e-01	4.083500e+04	
13	6.500000e-01	4.300303e+04	
14	7.000000e-01	4.540699e+04	
15	7.500000e-01	4.808757e+04	
16	8.000000e-01	5.109535e+04	
17	8.500000e-01	5.449399e+04	
18	9.000000e-01	5.836478e+04	
19	9.500000e-01	6.281304e+04	
20	1.000000e+00	6.797772e+04	
21	1.050000e+00	7.404573e+04	
22	1.100000e+00	8.127409e+04	
23	1.150000e+00	9.002504e+04	
24	1.200000e+00	1.008230e+05	
25	1.250000e+00	1.144485e+05	
26	1.300000e+00	1.320900e+05	
27	1.350000e+00	1.555685e+05	
28	1.400000e+00	1.875459e+05	
29	1.450000e+00	2.312106e+05	
30	1.500000e+00	2.882534e+05	
31	1.550000e+00	3.556238e+05	
32	1.600000e+00	4.265821e+05	
33	1.650000e+00	4.962650e+05	
34	1.700000e+00	5.634140e+05	
35	1.750000e+00	6.284480e+05	
36	1.800000e+00	6.920319e+05	
37	1.850000e+00	7.546714e+05	
38	1.900000e+00	8.166958e+05	
39	1.950000e+00	8.783115e+05	
40	2.000000e+00	9.396487e+05	
41	2.050000e+00	1.000791e+06	
42	2.100000e+00	1.061792e+06	
43	2.150000e+00	1.122690e+06	
44	2.200000e+00	1.183509e+06	
45	2.250000e+00	1.244269e+06	
46	2.300000e+00	1.304981e+06	
47	2.350000e+00	1.365656e+06	
48	2.400000e+00	1.426300e+06	
49	2.450000e+00	1.486919e+06	
50	2.500000e+00	1.547517e+06	
51	2.550000e+00	1.608096e+06	
52	2.600000e+00	1.668661e+06	
53	2.650000e+00	1.729212e+06	
54	2.700000e+00	1.789751e+06	

Index   v-sweep         rds             
--------------------------------------------------------------------------------
55	2.750000e+00	1.850280e+06	
56	2.800000e+00	1.910800e+06	
57	2.850000e+00	1.971311e+06	
58	2.900000e+00	2.031815e+06	
59	2.950000e+00	2.092312e+06	
60	3.000000e+00	2.152802e+06	
61	3.050000e+00	2.213286e+06	
62	3.100000e+00	2.273765e+06	
63	3.150000e+00	2.334238e+06	
64	3.200000e+00	2.394706e+06	
65	3.250000e+00	2.455169e+06	
66	3.300000e+00	2.515628e+06	
67	3.350000e+00	2.576082e+06	
68	3.400000e+00	2.636532e+06	
69	3.450000e+00	2.696977e+06	
70	3.500000e+00	2.757419e+06	
71	3.550000e+00	2.817857e+06	
72	3.600000e+00	2.878291e+06	
73	3.650000e+00	2.938721e+06	
74	3.700000e+00	2.999147e+06	
75	3.750000e+00	3.059570e+06	
76	3.800000e+00	3.119990e+06	
77	3.850000e+00	3.180406e+06	
78	3.900000e+00	3.240818e+06	
79	3.950000e+00	3.301227e+06	
80	4.000000e+00	3.361633e+06	
81	4.050000e+00	3.422036e+06	
82	4.100000e+00	3.482435e+06	
83	4.150000e+00	3.542831e+06	
84	4.200000e+00	3.603224e+06	
85	4.250000e+00	3.663613e+06	
86	4.300000e+00	3.724000e+06	
87	4.350000e+00	3.784383e+06	
88	4.400000e+00	3.844763e+06	
89	4.450000e+00	3.905140e+06	
90	4.500000e+00	3.965514e+06	
91	4.550000e+00	4.025885e+06	
92	4.600000e+00	4.086253e+06	
93	4.650000e+00	4.146617e+06	
94	4.700000e+00	4.206979e+06	
95	4.750000e+00	4.267337e+06	
96	4.800000e+00	4.327693e+06	
97	4.850000e+00	4.388045e+06	
98	4.900000e+00	4.448395e+06	
99	4.950000e+00	4.508741e+06	
100	5.000000e+00	4.569085e+06	
101	5.050000e+00	4.629425e+06	
102	5.100000e+00	4.689763e+06	
103	5.150000e+00	4.750097e+06	
104	5.200000e+00	4.810429e+06	
105	5.250000e+00	4.870758e+06	
106	5.300000e+00	4.931083e+06	
107	5.350000e+00	4.991406e+06	
108	5.400000e+00	5.051725e+06	
109	5.450000e+00	5.112042e+06	
110	5.500000e+00	5.172356e+06	
111	5.550000e+00	5.232667e+06	
112	5.600000e+00	5.292974e+06	

Index   v-sweep         rds             
--------------------------------------------------------------------------------
113	5.650000e+00	5.353279e+06	
114	5.700000e+00	5.413581e+06	
115	5.750000e+00	5.473880e+06	
116	5.800000e+00	5.534176e+06	
117	5.850000e+00	5.594469e+06	
118	5.900000e+00	5.654759e+06	
119	5.950000e+00	5.715047e+06	
120	6.000000e+00	5.775331e+06	
121	6.050000e+00	5.835612e+06	
122	6.100000e+00	5.895891e+06	
123	6.150000e+00	5.956166e+06	
124	6.200000e+00	6.016439e+06	
125	6.250000e+00	6.076708e+06	
126	6.300000e+00	6.136975e+06	
127	6.350000e+00	6.197238e+06	
128	6.400000e+00	6.257499e+06	
129	6.450000e+00	6.317757e+06	
130	6.500000e+00	6.378012e+06	
131	6.550000e+00	6.438264e+06	
132	6.600000e+00	6.498513e+06	
Reset re-loads circuit ***************************

Circuit: ***************************

Doing analysis at TEMP = 125.000000 and TNOM = 125.000000


No. of Data Rows : 133
                          ***************************
                          DC transfer characteristic  Mon Jan  9 13:58:06  2023
--------------------------------------------------------------------------------
Index   v-sweep         rds             
--------------------------------------------------------------------------------
0	0.000000e+00	1.709734e+04	
1	5.000000e-02	1.742486e+04	
2	1.000000e-01	1.776427e+04	
3	1.500000e-01	1.811622e+04	
4	2.000000e-01	1.848143e+04	
5	2.500000e-01	1.886065e+04	
6	3.000000e-01	1.925470e+04	
7	3.500000e-01	1.966448e+04	
8	4.000000e-01	2.009094e+04	
9	4.500000e-01	2.053513e+04	
10	5.000000e-01	2.099817e+04	
11	5.500000e-01	2.148128e+04	
12	6.000000e-01	2.198581e+04	
13	6.500000e-01	2.251320e+04	
14	7.000000e-01	2.306504e+04	
15	7.500000e-01	2.364308e+04	
16	8.000000e-01	2.424923e+04	
17	8.500000e-01	2.488558e+04	
18	9.000000e-01	2.555445e+04	
19	9.500000e-01	2.625839e+04	
20	1.000000e+00	2.700025e+04	
21	1.050000e+00	2.778316e+04	
22	1.100000e+00	2.861062e+04	
23	1.150000e+00	2.948656e+04	
24	1.200000e+00	3.041535e+04	
25	1.250000e+00	3.140193e+04	
26	1.300000e+00	3.245186e+04	
27	1.350000e+00	3.357143e+04	
28	1.400000e+00	3.476783e+04	
29	1.450000e+00	3.604921e+04	
30	1.500000e+00	3.742497e+04	
31	1.550000e+00	3.890593e+04	
32	1.600000e+00	4.050461e+04	
33	1.650000e+00	4.223562e+04	
34	1.700000e+00	4.411607e+04	
35	1.750000e+00	4.616616e+04	
36	1.800000e+00	4.840986e+04	
37	1.850000e+00	5.087589e+04	
38	1.900000e+00	5.359891e+04	
39	1.950000e+00	5.662111e+04	
40	2.000000e+00	5.999435e+04	
41	2.050000e+00	6.378305e+04	
42	2.100000e+00	6.806807e+04	
43	2.150000e+00	7.295211e+04	
44	2.200000e+00	7.856697e+04	
45	2.250000e+00	8.508346e+04	
46	2.300000e+00	9.272403e+04	
47	2.350000e+00	1.017768e+05	
48	2.400000e+00	1.126047e+05	
49	2.450000e+00	1.256298e+05	
50	2.500000e+00	1.412532e+05	
51	2.550000e+00	1.596760e+05	
52	2.600000e+00	1.806939e+05	
53	2.650000e+00	2.036961e+05	
54	2.700000e+00	2.279483e+05	

Index   v-sweep         rds             
--------------------------------------------------------------------------------
55	2.750000e+00	2.528763e+05	
56	2.800000e+00	2.781378e+05	
57	2.850000e+00	3.035575e+05	
58	2.900000e+00	3.290519e+05	
59	2.950000e+00	3.545821e+05	
60	3.000000e+00	3.801297e+05	
61	3.050000e+00	4.056858e+05	
62	3.100000e+00	4.312461e+05	
63	3.150000e+00	4.568084e+05	
64	3.200000e+00	4.823715e+05	
65	3.250000e+00	5.079349e+05	
66	3.300000e+00	5.334981e+05	
67	3.350000e+00	5.590610e+05	
68	3.400000e+00	5.846235e+05	
69	3.450000e+00	6.101856e+05	
70	3.500000e+00	6.357472e+05	
71	3.550000e+00	6.613083e+05	
72	3.600000e+00	6.868689e+05	
73	3.650000e+00	7.124290e+05	
74	3.700000e+00	7.379886e+05	
75	3.750000e+00	7.635476e+05	
76	3.800000e+00	7.891061e+05	
77	3.850000e+00	8.146640e+05	
78	3.900000e+00	8.402214e+05	
79	3.950000e+00	8.657783e+05	
80	4.000000e+00	8.913346e+05	
81	4.050000e+00	9.168903e+05	
82	4.100000e+00	9.424454e+05	
83	4.150000e+00	9.680000e+05	
84	4.200000e+00	9.935540e+05	
85	4.250000e+00	1.019107e+06	
86	4.300000e+00	1.044660e+06	
87	4.350000e+00	1.070212e+06	
88	4.400000e+00	1.095764e+06	
89	4.450000e+00	1.121315e+06	
90	4.500000e+00	1.146865e+06	
91	4.550000e+00	1.172415e+06	
92	4.600000e+00	1.197964e+06	
93	4.650000e+00	1.223513e+06	
94	4.700000e+00	1.249061e+06	
95	4.750000e+00	1.274608e+06	
96	4.800000e+00	1.300154e+06	
97	4.850000e+00	1.325700e+06	
98	4.900000e+00	1.351246e+06	
99	4.950000e+00	1.376790e+06	
100	5.000000e+00	1.402334e+06	
101	5.050000e+00	1.427878e+06	
102	5.100000e+00	1.453420e+06	
103	5.150000e+00	1.478962e+06	
104	5.200000e+00	1.504504e+06	
105	5.250000e+00	1.530044e+06	
106	5.300000e+00	1.555585e+06	
107	5.350000e+00	1.581124e+06	
108	5.400000e+00	1.606663e+06	
109	5.450000e+00	1.632201e+06	
110	5.500000e+00	1.657738e+06	
111	5.550000e+00	1.683275e+06	
112	5.600000e+00	1.708811e+06	

Index   v-sweep         rds             
--------------------------------------------------------------------------------
113	5.650000e+00	1.734346e+06	
114	5.700000e+00	1.759881e+06	
115	5.750000e+00	1.785414e+06	
116	5.800000e+00	1.810948e+06	
117	5.850000e+00	1.836480e+06	
118	5.900000e+00	1.862012e+06	
119	5.950000e+00	1.887543e+06	
120	6.000000e+00	1.913074e+06	
121	6.050000e+00	1.938604e+06	
122	6.100000e+00	1.964133e+06	
123	6.150000e+00	1.989661e+06	
124	6.200000e+00	2.015189e+06	
125	6.250000e+00	2.040716e+06	
126	6.300000e+00	2.066242e+06	
127	6.350000e+00	2.091768e+06	
128	6.400000e+00	2.117292e+06	
129	6.450000e+00	2.142817e+06	
130	6.500000e+00	2.168340e+06	
131	6.550000e+00	2.193863e+06	
132	6.600000e+00	2.219385e+06	
Reset re-loads circuit ***************************

Circuit: ***************************

Doing analysis at TEMP = 125.000000 and TNOM = 125.000000


No. of Data Rows : 133
                          ***************************
                          DC transfer characteristic  Mon Jan  9 13:58:06  2023
--------------------------------------------------------------------------------
Index   v-sweep         rds             
--------------------------------------------------------------------------------
0	0.000000e+00	1.379364e+04	
1	5.000000e-02	1.397626e+04	
2	1.000000e-01	1.416334e+04	
3	1.500000e-01	1.435502e+04	
4	2.000000e-01	1.455149e+04	
5	2.500000e-01	1.475292e+04	
6	3.000000e-01	1.495951e+04	
7	3.500000e-01	1.517146e+04	
8	4.000000e-01	1.538897e+04	
9	4.500000e-01	1.561227e+04	
10	5.000000e-01	1.584159e+04	
11	5.500000e-01	1.607718e+04	
12	6.000000e-01	1.631930e+04	
13	6.500000e-01	1.656822e+04	
14	7.000000e-01	1.682424e+04	
15	7.500000e-01	1.708766e+04	
16	8.000000e-01	1.735881e+04	
17	8.500000e-01	1.763803e+04	
18	9.000000e-01	1.792570e+04	
19	9.500000e-01	1.822218e+04	
20	1.000000e+00	1.852791e+04	
21	1.050000e+00	1.884332e+04	
22	1.100000e+00	1.916886e+04	
23	1.150000e+00	1.950505e+04	
24	1.200000e+00	1.985242e+04	
25	1.250000e+00	2.021151e+04	
26	1.300000e+00	2.058295e+04	
27	1.350000e+00	2.096738e+04	
28	1.400000e+00	2.136549e+04	
29	1.450000e+00	2.177803e+04	
30	1.500000e+00	2.220579e+04	
31	1.550000e+00	2.264963e+04	
32	1.600000e+00	2.311047e+04	
33	1.650000e+00	2.358932e+04	
34	1.700000e+00	2.408724e+04	
35	1.750000e+00	2.460540e+04	
36	1.800000e+00	2.514505e+04	
37	1.850000e+00	2.570757e+04	
38	1.900000e+00	2.629444e+04	
39	1.950000e+00	2.690727e+04	
40	2.000000e+00	2.754782e+04	
41	2.050000e+00	2.821802e+04	
42	2.100000e+00	2.891998e+04	
43	2.150000e+00	2.965599e+04	
44	2.200000e+00	3.042861e+04	
45	2.250000e+00	3.124064e+04	
46	2.300000e+00	3.209516e+04	
47	2.350000e+00	3.299561e+04	
48	2.400000e+00	3.394577e+04	
49	2.450000e+00	3.494990e+04	
50	2.500000e+00	3.601272e+04	
51	2.550000e+00	3.713952e+04	
52	2.600000e+00	3.833627e+04	
53	2.650000e+00	3.960969e+04	
54	2.700000e+00	4.096739e+04	

Index   v-sweep         rds             
--------------------------------------------------------------------------------
55	2.750000e+00	4.241803e+04	
56	2.800000e+00	4.397148e+04	
57	2.850000e+00	4.563909e+04	
58	2.900000e+00	4.743392e+04	
59	2.950000e+00	4.937113e+04	
60	3.000000e+00	5.146837e+04	
61	3.050000e+00	5.374638e+04	
62	3.100000e+00	5.622961e+04	
63	3.150000e+00	5.894721e+04	
64	3.200000e+00	6.193413e+04	
65	3.250000e+00	6.523269e+04	
66	3.300000e+00	6.889460e+04	
67	3.350000e+00	7.298369e+04	
68	3.400000e+00	7.757932e+04	
69	3.450000e+00	8.278053e+04	
70	3.500000e+00	8.870964e+04	
71	3.550000e+00	9.551210e+04	
72	3.600000e+00	1.033446e+05	
73	3.650000e+00	1.123415e+05	
74	3.700000e+00	1.225597e+05	
75	3.750000e+00	1.339340e+05	
76	3.800000e+00	1.462865e+05	
77	3.850000e+00	1.593879e+05	
78	3.900000e+00	1.730231e+05	
79	3.950000e+00	1.870235e+05	
80	4.000000e+00	2.012701e+05	
81	4.050000e+00	2.156832e+05	
82	4.100000e+00	2.302102e+05	
83	4.150000e+00	2.448166e+05	
84	4.200000e+00	2.594795e+05	
85	4.250000e+00	2.741834e+05	
86	4.300000e+00	2.889176e+05	
87	4.350000e+00	3.036746e+05	
88	4.400000e+00	3.184492e+05	
89	4.450000e+00	3.332373e+05	
90	4.500000e+00	3.480363e+05	
91	4.550000e+00	3.628438e+05	
92	4.600000e+00	3.776583e+05	
93	4.650000e+00	3.924784e+05	
94	4.700000e+00	4.073031e+05	
95	4.750000e+00	4.221317e+05	
96	4.800000e+00	4.369636e+05	
97	4.850000e+00	4.517981e+05	
98	4.900000e+00	4.666349e+05	
99	4.950000e+00	4.814737e+05	
100	5.000000e+00	4.963141e+05	
101	5.050000e+00	5.111560e+05	
102	5.100000e+00	5.259990e+05	
103	5.150000e+00	5.408431e+05	
104	5.200000e+00	5.556880e+05	
105	5.250000e+00	5.705338e+05	
106	5.300000e+00	5.853802e+05	
107	5.350000e+00	6.002271e+05	
108	5.400000e+00	6.150745e+05	
109	5.450000e+00	6.299224e+05	
110	5.500000e+00	6.447705e+05	
111	5.550000e+00	6.596190e+05	
112	5.600000e+00	6.744677e+05	

Index   v-sweep         rds             
--------------------------------------------------------------------------------
113	5.650000e+00	6.893166e+05	
114	5.700000e+00	7.041656e+05	
115	5.750000e+00	7.190148e+05	
116	5.800000e+00	7.338640e+05	
117	5.850000e+00	7.487133e+05	
118	5.900000e+00	7.635627e+05	
119	5.950000e+00	7.784120e+05	
120	6.000000e+00	7.932614e+05	
121	6.050000e+00	8.081107e+05	
122	6.100000e+00	8.229599e+05	
123	6.150000e+00	8.378091e+05	
124	6.200000e+00	8.526583e+05	
125	6.250000e+00	8.675073e+05	
126	6.300000e+00	8.823562e+05	
127	6.350000e+00	8.972050e+05	
128	6.400000e+00	9.120537e+05	
129	6.450000e+00	9.269023e+05	
130	6.500000e+00	9.417507e+05	
131	6.550000e+00	9.565989e+05	
132	6.600000e+00	9.714470e+05	
Reset re-loads circuit ***************************

Circuit: ***************************

Doing analysis at TEMP = 125.000000 and TNOM = 125.000000


No. of Data Rows : 133
                          ***************************
                          DC transfer characteristic  Mon Jan  9 13:58:06  2023
--------------------------------------------------------------------------------
Index   v-sweep         rds             
--------------------------------------------------------------------------------
0	0.000000e+00	1.202669e+04	
1	5.000000e-02	1.214645e+04	
2	1.000000e-01	1.226836e+04	
3	1.500000e-01	1.239246e+04	
4	2.000000e-01	1.251883e+04	
5	2.500000e-01	1.264751e+04	
6	3.000000e-01	1.277858e+04	
7	3.500000e-01	1.291211e+04	
8	4.000000e-01	1.304815e+04	
9	4.500000e-01	1.318679e+04	
10	5.000000e-01	1.332810e+04	
11	5.500000e-01	1.347215e+04	
12	6.000000e-01	1.361903e+04	
13	6.500000e-01	1.376882e+04	
14	7.000000e-01	1.392162e+04	
15	7.500000e-01	1.407749e+04	
16	8.000000e-01	1.423656e+04	
17	8.500000e-01	1.439890e+04	
18	9.000000e-01	1.456463e+04	
19	9.500000e-01	1.473385e+04	
20	1.000000e+00	1.490668e+04	
21	1.050000e+00	1.508322e+04	
22	1.100000e+00	1.526361e+04	
23	1.150000e+00	1.544796e+04	
24	1.200000e+00	1.563640e+04	
25	1.250000e+00	1.582909e+04	
26	1.300000e+00	1.602616e+04	
27	1.350000e+00	1.622776e+04	
28	1.400000e+00	1.643405e+04	
29	1.450000e+00	1.664519e+04	
30	1.500000e+00	1.686137e+04	
31	1.550000e+00	1.708275e+04	
32	1.600000e+00	1.730954e+04	
33	1.650000e+00	1.754193e+04	
34	1.700000e+00	1.778012e+04	
35	1.750000e+00	1.802436e+04	
36	1.800000e+00	1.827485e+04	
37	1.850000e+00	1.853185e+04	
38	1.900000e+00	1.879562e+04	
39	1.950000e+00	1.906642e+04	
40	2.000000e+00	1.934454e+04	
41	2.050000e+00	1.963028e+04	
42	2.100000e+00	1.992395e+04	
43	2.150000e+00	2.022591e+04	
44	2.200000e+00	2.053648e+04	
45	2.250000e+00	2.085606e+04	
46	2.300000e+00	2.118504e+04	
47	2.350000e+00	2.152384e+04	
48	2.400000e+00	2.187290e+04	
49	2.450000e+00	2.223270e+04	
50	2.500000e+00	2.260375e+04	
51	2.550000e+00	2.298657e+04	
52	2.600000e+00	2.338174e+04	
53	2.650000e+00	2.378986e+04	
54	2.700000e+00	2.421158e+04	

Index   v-sweep         rds             
--------------------------------------------------------------------------------
55	2.750000e+00	2.464760e+04	
56	2.800000e+00	2.509864e+04	
57	2.850000e+00	2.556551e+04	
58	2.900000e+00	2.604905e+04	
59	2.950000e+00	2.655016e+04	
60	3.000000e+00	2.706983e+04	
61	3.050000e+00	2.760910e+04	
62	3.100000e+00	2.816911e+04	
63	3.150000e+00	2.875107e+04	
64	3.200000e+00	2.935630e+04	
65	3.250000e+00	2.998623e+04	
66	3.300000e+00	3.064239e+04	
67	3.350000e+00	3.132648e+04	
68	3.400000e+00	3.204030e+04	
69	3.450000e+00	3.278584e+04	
70	3.500000e+00	3.356526e+04	
71	3.550000e+00	3.438095e+04	
72	3.600000e+00	3.523548e+04	
73	3.650000e+00	3.613171e+04	
74	3.700000e+00	3.707277e+04	
75	3.750000e+00	3.806214e+04	
76	3.800000e+00	3.910364e+04	
77	3.850000e+00	4.020153e+04	
78	3.900000e+00	4.136055e+04	
79	3.950000e+00	4.258600e+04	
80	4.000000e+00	4.388383e+04	
81	4.050000e+00	4.526072e+04	
82	4.100000e+00	4.672428e+04	
83	4.150000e+00	4.828314e+04	
84	4.200000e+00	4.994721e+04	
85	4.250000e+00	5.172796e+04	
86	4.300000e+00	5.363876e+04	
87	4.350000e+00	5.569541e+04	
88	4.400000e+00	5.791683e+04	
89	4.450000e+00	6.032609e+04	
90	4.500000e+00	6.295184e+04	
91	4.550000e+00	6.583043e+04	
92	4.600000e+00	6.900870e+04	
93	4.650000e+00	7.254744e+04	
94	4.700000e+00	7.652423e+04	
95	4.750000e+00	8.103260e+04	
96	4.800000e+00	8.617215e+04	
97	4.850000e+00	9.202576e+04	
98	4.900000e+00	9.862947e+04	
99	4.950000e+00	1.059533e+05	
100	5.000000e+00	1.139085e+05	
101	5.050000e+00	1.223759e+05	
102	5.100000e+00	1.312357e+05	
103	5.150000e+00	1.403857e+05	
104	5.200000e+00	1.497467e+05	
105	5.250000e+00	1.592604e+05	
106	5.300000e+00	1.688849e+05	
107	5.350000e+00	1.785909e+05	
108	5.400000e+00	1.883573e+05	
109	5.450000e+00	1.981693e+05	
110	5.500000e+00	2.080160e+05	
111	5.550000e+00	2.178897e+05	
112	5.600000e+00	2.277844e+05	

Index   v-sweep         rds             
--------------------------------------------------------------------------------
113	5.650000e+00	2.376958e+05	
114	5.700000e+00	2.476208e+05	
115	5.750000e+00	2.575566e+05	
116	5.800000e+00	2.675013e+05	
117	5.850000e+00	2.774535e+05	
118	5.900000e+00	2.874118e+05	
119	5.950000e+00	2.973753e+05	
120	6.000000e+00	3.073432e+05	
121	6.050000e+00	3.173148e+05	
122	6.100000e+00	3.272896e+05	
123	6.150000e+00	3.372671e+05	
124	6.200000e+00	3.472470e+05	
125	6.250000e+00	3.572290e+05	
126	6.300000e+00	3.672128e+05	
127	6.350000e+00	3.771981e+05	
128	6.400000e+00	3.871848e+05	
129	6.450000e+00	3.971728e+05	
130	6.500000e+00	4.071618e+05	
131	6.550000e+00	4.171518e+05	
132	6.600000e+00	4.271427e+05	
Reset re-loads circuit ***************************

Circuit: ***************************

Doing analysis at TEMP = 125.000000 and TNOM = 125.000000


No. of Data Rows : 133
                          ***************************
                          DC transfer characteristic  Mon Jan  9 13:58:06  2023
--------------------------------------------------------------------------------
Index   v-sweep         rds             
--------------------------------------------------------------------------------
0	0.000000e+00	1.094063e+04	
1	5.000000e-02	1.102659e+04	
2	1.000000e-01	1.111375e+04	
3	1.500000e-01	1.120211e+04	
4	2.000000e-01	1.129171e+04	
5	2.500000e-01	1.138257e+04	
6	3.000000e-01	1.147472e+04	
7	3.500000e-01	1.156820e+04	
8	4.000000e-01	1.166301e+04	
9	4.500000e-01	1.175921e+04	
10	5.000000e-01	1.185681e+04	
11	5.500000e-01	1.195584e+04	
12	6.000000e-01	1.205635e+04	
13	6.500000e-01	1.215835e+04	
14	7.000000e-01	1.226190e+04	
15	7.500000e-01	1.236701e+04	
16	8.000000e-01	1.247372e+04	
17	8.500000e-01	1.258209e+04	
18	9.000000e-01	1.269213e+04	
19	9.500000e-01	1.280389e+04	
20	1.000000e+00	1.291741e+04	
21	1.050000e+00	1.303274e+04	
22	1.100000e+00	1.314991e+04	
23	1.150000e+00	1.326898e+04	
24	1.200000e+00	1.338998e+04	
25	1.250000e+00	1.351296e+04	
26	1.300000e+00	1.363798e+04	
27	1.350000e+00	1.376508e+04	
28	1.400000e+00	1.389432e+04	
29	1.450000e+00	1.402576e+04	
30	1.500000e+00	1.415944e+04	
31	1.550000e+00	1.429542e+04	
32	1.600000e+00	1.443377e+04	
33	1.650000e+00	1.457455e+04	
34	1.700000e+00	1.471782e+04	
35	1.750000e+00	1.486364e+04	
36	1.800000e+00	1.501210e+04	
37	1.850000e+00	1.516326e+04	
38	1.900000e+00	1.531718e+04	
39	1.950000e+00	1.547396e+04	
40	2.000000e+00	1.563367e+04	
41	2.050000e+00	1.579640e+04	
42	2.100000e+00	1.596222e+04	
43	2.150000e+00	1.613123e+04	
44	2.200000e+00	1.630352e+04	
45	2.250000e+00	1.647919e+04	
46	2.300000e+00	1.665834e+04	
47	2.350000e+00	1.684106e+04	
48	2.400000e+00	1.702748e+04	
49	2.450000e+00	1.721771e+04	
50	2.500000e+00	1.741185e+04	
51	2.550000e+00	1.761003e+04	
52	2.600000e+00	1.781239e+04	
53	2.650000e+00	1.801905e+04	
54	2.700000e+00	1.823015e+04	

Index   v-sweep         rds             
--------------------------------------------------------------------------------
55	2.750000e+00	1.844584e+04	
56	2.800000e+00	1.866626e+04	
57	2.850000e+00	1.889159e+04	
58	2.900000e+00	1.912197e+04	
59	2.950000e+00	1.935758e+04	
60	3.000000e+00	1.959861e+04	
61	3.050000e+00	1.984523e+04	
62	3.100000e+00	2.009766e+04	
63	3.150000e+00	2.035609e+04	
64	3.200000e+00	2.062075e+04	
65	3.250000e+00	2.089185e+04	
66	3.300000e+00	2.116964e+04	
67	3.350000e+00	2.145437e+04	
68	3.400000e+00	2.174630e+04	
69	3.450000e+00	2.204571e+04	
70	3.500000e+00	2.235289e+04	
71	3.550000e+00	2.266814e+04	
72	3.600000e+00	2.299180e+04	
73	3.650000e+00	2.332419e+04	
74	3.700000e+00	2.366567e+04	
75	3.750000e+00	2.401664e+04	
76	3.800000e+00	2.437747e+04	
77	3.850000e+00	2.474861e+04	
78	3.900000e+00	2.513049e+04	
79	3.950000e+00	2.552359e+04	
80	4.000000e+00	2.592841e+04	
81	4.050000e+00	2.634549e+04	
82	4.100000e+00	2.677538e+04	
83	4.150000e+00	2.721870e+04	
84	4.200000e+00	2.767607e+04	
85	4.250000e+00	2.814818e+04	
86	4.300000e+00	2.863575e+04	
87	4.350000e+00	2.913956e+04	
88	4.400000e+00	2.966044e+04	
89	4.450000e+00	3.019926e+04	
90	4.500000e+00	3.075698e+04	
91	4.550000e+00	3.133460e+04	
92	4.600000e+00	3.193323e+04	
93	4.650000e+00	3.255402e+04	
94	4.700000e+00	3.319825e+04	
95	4.750000e+00	3.386726e+04	
96	4.800000e+00	3.456254e+04	
97	4.850000e+00	3.528567e+04	
98	4.900000e+00	3.603839e+04	
99	4.950000e+00	3.682256e+04	
100	5.000000e+00	3.764023e+04	
101	5.050000e+00	3.849364e+04	
102	5.100000e+00	3.938524e+04	
103	5.150000e+00	4.031772e+04	
104	5.200000e+00	4.129408e+04	
105	5.250000e+00	4.231761e+04	
106	5.300000e+00	4.339203e+04	
107	5.350000e+00	4.452149e+04	
108	5.400000e+00	4.571072e+04	
109	5.450000e+00	4.696515e+04	
110	5.500000e+00	4.829109e+04	
111	5.550000e+00	4.969601e+04	
112	5.600000e+00	5.118890e+04	

Index   v-sweep         rds             
--------------------------------------------------------------------------------
113	5.650000e+00	5.278082e+04	
114	5.700000e+00	5.448574e+04	
115	5.750000e+00	5.632166e+04	
116	5.800000e+00	5.831228e+04	
117	5.850000e+00	6.048914e+04	
118	5.900000e+00	6.289399e+04	
119	5.950000e+00	6.558058e+04	
120	6.000000e+00	6.861381e+04	
121	6.050000e+00	7.206362e+04	
122	6.100000e+00	7.599185e+04	
123	6.150000e+00	8.043513e+04	
124	6.200000e+00	8.539210e+04	
125	6.250000e+00	9.082303e+04	
126	6.300000e+00	9.666188e+04	
127	6.350000e+00	1.028329e+05	
128	6.400000e+00	1.092642e+05	
129	6.450000e+00	1.158946e+05	
130	6.500000e+00	1.226754e+05	
131	6.550000e+00	1.295695e+05	
132	6.600000e+00	1.365494e+05	
Reset re-loads circuit ***************************

Circuit: ***************************

Note: No ".plot", ".print", or ".fourier" lines; no simulations run
