
Note: Compatibility modes selected: hs

Warning: m=xx on .subckt line will override multiplier m hierarchy!


Circuit: ***************************

Doing analysis at TEMP = 125.000000 and TNOM = 125.000000


No. of Data Rows : 133
                          ***************************
                          DC transfer characteristic  Mon Jan  9 13:58:06  2023
--------------------------------------------------------------------------------
Index   v-sweep         rds             
--------------------------------------------------------------------------------
0	0.000000e+00	3.541227e+04	
1	5.000000e-02	3.963503e+04	
2	1.000000e-01	4.496609e+04	
3	1.500000e-01	5.190588e+04	
4	2.000000e-01	6.130648e+04	
5	2.500000e-01	7.473878e+04	
6	3.000000e-01	9.541226e+04	
7	3.500000e-01	1.307693e+05	
8	4.000000e-01	1.999825e+05	
9	4.500000e-01	3.432054e+05	
10	5.000000e-01	5.605563e+05	
11	5.500000e-01	7.611976e+05	
12	6.000000e-01	9.208258e+05	
13	6.500000e-01	1.058815e+06	
14	7.000000e-01	1.187284e+06	
15	7.500000e-01	1.311334e+06	
16	8.000000e-01	1.433136e+06	
17	8.500000e-01	1.553691e+06	
18	9.000000e-01	1.673499e+06	
19	9.500000e-01	1.792832e+06	
20	1.000000e+00	1.911845e+06	
21	1.050000e+00	2.030631e+06	
22	1.100000e+00	2.149251e+06	
23	1.150000e+00	2.267744e+06	
24	1.200000e+00	2.386136e+06	
25	1.250000e+00	2.504447e+06	
26	1.300000e+00	2.622688e+06	
27	1.350000e+00	2.740871e+06	
28	1.400000e+00	2.859002e+06	
29	1.450000e+00	2.977087e+06	
30	1.500000e+00	3.095130e+06	
31	1.550000e+00	3.213134e+06	
32	1.600000e+00	3.331102e+06	
33	1.650000e+00	3.449035e+06	
34	1.700000e+00	3.566937e+06	
35	1.750000e+00	3.684807e+06	
36	1.800000e+00	3.802647e+06	
37	1.850000e+00	3.920458e+06	
38	1.900000e+00	4.038241e+06	
39	1.950000e+00	4.155996e+06	
40	2.000000e+00	4.273724e+06	
41	2.050000e+00	4.391425e+06	
42	2.100000e+00	4.509100e+06	
43	2.150000e+00	4.626748e+06	
44	2.200000e+00	4.744371e+06	
45	2.250000e+00	4.861968e+06	
46	2.300000e+00	4.979540e+06	
47	2.350000e+00	5.097087e+06	
48	2.400000e+00	5.214609e+06	
49	2.450000e+00	5.332106e+06	
50	2.500000e+00	5.449578e+06	
51	2.550000e+00	5.567025e+06	
52	2.600000e+00	5.684448e+06	
53	2.650000e+00	5.801846e+06	
54	2.700000e+00	5.919220e+06	

Index   v-sweep         rds             
--------------------------------------------------------------------------------
55	2.750000e+00	6.036569e+06	
56	2.800000e+00	6.153894e+06	
57	2.850000e+00	6.271195e+06	
58	2.900000e+00	6.388471e+06	
59	2.950000e+00	6.505723e+06	
60	3.000000e+00	6.622951e+06	
61	3.050000e+00	6.740155e+06	
62	3.100000e+00	6.857335e+06	
63	3.150000e+00	6.974490e+06	
64	3.200000e+00	7.091622e+06	
65	3.250000e+00	7.208729e+06	
66	3.300000e+00	7.325812e+06	
67	3.350000e+00	7.442871e+06	
68	3.400000e+00	7.559906e+06	
69	3.450000e+00	7.676917e+06	
70	3.500000e+00	7.793904e+06	
71	3.550000e+00	7.910867e+06	
72	3.600000e+00	8.027805e+06	
73	3.650000e+00	8.144720e+06	
74	3.700000e+00	8.261611e+06	
75	3.750000e+00	8.378477e+06	
76	3.800000e+00	8.495320e+06	
77	3.850000e+00	8.612138e+06	
78	3.900000e+00	8.728933e+06	
79	3.950000e+00	8.845703e+06	
80	4.000000e+00	8.962449e+06	
81	4.050000e+00	9.079172e+06	
82	4.100000e+00	9.195870e+06	
83	4.150000e+00	9.312544e+06	
84	4.200000e+00	9.429194e+06	
85	4.250000e+00	9.545821e+06	
86	4.300000e+00	9.662423e+06	
87	4.350000e+00	9.779001e+06	
88	4.400000e+00	9.895555e+06	
89	4.450000e+00	1.001208e+07	
90	4.500000e+00	1.012859e+07	
91	4.550000e+00	1.024507e+07	
92	4.600000e+00	1.036153e+07	
93	4.650000e+00	1.047796e+07	
94	4.700000e+00	1.059437e+07	
95	4.750000e+00	1.071076e+07	
96	4.800000e+00	1.082712e+07	
97	4.850000e+00	1.094346e+07	
98	4.900000e+00	1.105977e+07	
99	4.950000e+00	1.117606e+07	
100	5.000000e+00	1.129233e+07	
101	5.050000e+00	1.140857e+07	
102	5.100000e+00	1.152478e+07	
103	5.150000e+00	1.164098e+07	
104	5.200000e+00	1.175714e+07	
105	5.250000e+00	1.187329e+07	
106	5.300000e+00	1.198941e+07	
107	5.350000e+00	1.210551e+07	
108	5.400000e+00	1.222158e+07	
109	5.450000e+00	1.233763e+07	
110	5.500000e+00	1.245365e+07	
111	5.550000e+00	1.256965e+07	
112	5.600000e+00	1.268563e+07	

Index   v-sweep         rds             
--------------------------------------------------------------------------------
113	5.650000e+00	1.280158e+07	
114	5.700000e+00	1.291751e+07	
115	5.750000e+00	1.303341e+07	
116	5.800000e+00	1.314929e+07	
117	5.850000e+00	1.326514e+07	
118	5.900000e+00	1.338098e+07	
119	5.950000e+00	1.349678e+07	
120	6.000000e+00	1.361256e+07	
121	6.050000e+00	1.372832e+07	
122	6.100000e+00	1.384406e+07	
123	6.150000e+00	1.395977e+07	
124	6.200000e+00	1.407545e+07	
125	6.250000e+00	1.419112e+07	
126	6.300000e+00	1.430675e+07	
127	6.350000e+00	1.442237e+07	
128	6.400000e+00	1.453796e+07	
129	6.450000e+00	1.465352e+07	
130	6.500000e+00	1.476907e+07	
131	6.550000e+00	1.488458e+07	
132	6.600000e+00	1.500008e+07	
Reset re-loads circuit ***************************

Circuit: ***************************

Doing analysis at TEMP = 125.000000 and TNOM = 125.000000


No. of Data Rows : 133
                          ***************************
                          DC transfer characteristic  Mon Jan  9 13:58:06  2023
--------------------------------------------------------------------------------
Index   v-sweep         rds             
--------------------------------------------------------------------------------
0	0.000000e+00	1.197606e+04	
1	5.000000e-02	1.239895e+04	
2	1.000000e-01	1.285013e+04	
3	1.500000e-01	1.333252e+04	
4	2.000000e-01	1.384949e+04	
5	2.500000e-01	1.440487e+04	
6	3.000000e-01	1.500312e+04	
7	3.500000e-01	1.564939e+04	
8	4.000000e-01	1.634970e+04	
9	4.500000e-01	1.711111e+04	
10	5.000000e-01	1.794198e+04	
11	5.500000e-01	1.885226e+04	
12	6.000000e-01	1.985389e+04	
13	6.500000e-01	2.096131e+04	
14	7.000000e-01	2.219221e+04	
15	7.500000e-01	2.356841e+04	
16	8.000000e-01	2.511717e+04	
17	8.500000e-01	2.687302e+04	
18	9.000000e-01	2.888026e+04	
19	9.500000e-01	3.119668e+04	
20	1.000000e+00	3.389897e+04	
21	1.050000e+00	3.709075e+04	
22	1.100000e+00	4.091479e+04	
23	1.150000e+00	4.557099e+04	
24	1.200000e+00	5.134092e+04	
25	1.250000e+00	5.861112e+04	
26	1.300000e+00	6.785375e+04	
27	1.350000e+00	7.945056e+04	
28	1.400000e+00	9.330419e+04	
29	1.450000e+00	1.086951e+05	
30	1.500000e+00	1.248077e+05	
31	1.550000e+00	1.411747e+05	
32	1.600000e+00	1.576173e+05	
33	1.650000e+00	1.740796e+05	
34	1.700000e+00	1.905458e+05	
35	1.750000e+00	2.070116e+05	
36	1.800000e+00	2.234761e+05	
37	1.850000e+00	2.399393e+05	
38	1.900000e+00	2.564014e+05	
39	1.950000e+00	2.728626e+05	
40	2.000000e+00	2.893229e+05	
41	2.050000e+00	3.057824e+05	
42	2.100000e+00	3.222411e+05	
43	2.150000e+00	3.386992e+05	
44	2.200000e+00	3.551565e+05	
45	2.250000e+00	3.716130e+05	
46	2.300000e+00	3.880689e+05	
47	2.350000e+00	4.045239e+05	
48	2.400000e+00	4.209782e+05	
49	2.450000e+00	4.374317e+05	
50	2.500000e+00	4.538844e+05	
51	2.550000e+00	4.703363e+05	
52	2.600000e+00	4.867873e+05	
53	2.650000e+00	5.032374e+05	
54	2.700000e+00	5.196867e+05	

Index   v-sweep         rds             
--------------------------------------------------------------------------------
55	2.750000e+00	5.361351e+05	
56	2.800000e+00	5.525826e+05	
57	2.850000e+00	5.690291e+05	
58	2.900000e+00	5.854748e+05	
59	2.950000e+00	6.019195e+05	
60	3.000000e+00	6.183632e+05	
61	3.050000e+00	6.348060e+05	
62	3.100000e+00	6.512479e+05	
63	3.150000e+00	6.676887e+05	
64	3.200000e+00	6.841286e+05	
65	3.250000e+00	7.005675e+05	
66	3.300000e+00	7.170054e+05	
67	3.350000e+00	7.334422e+05	
68	3.400000e+00	7.498781e+05	
69	3.450000e+00	7.663130e+05	
70	3.500000e+00	7.827468e+05	
71	3.550000e+00	7.991796e+05	
72	3.600000e+00	8.156114e+05	
73	3.650000e+00	8.320421e+05	
74	3.700000e+00	8.484718e+05	
75	3.750000e+00	8.649004e+05	
76	3.800000e+00	8.813280e+05	
77	3.850000e+00	8.977545e+05	
78	3.900000e+00	9.141800e+05	
79	3.950000e+00	9.306044e+05	
80	4.000000e+00	9.470277e+05	
81	4.050000e+00	9.634500e+05	
82	4.100000e+00	9.798712e+05	
83	4.150000e+00	9.962913e+05	
84	4.200000e+00	1.012710e+06	
85	4.250000e+00	1.029128e+06	
86	4.300000e+00	1.045545e+06	
87	4.350000e+00	1.061961e+06	
88	4.400000e+00	1.078376e+06	
89	4.450000e+00	1.094789e+06	
90	4.500000e+00	1.111202e+06	
91	4.550000e+00	1.127613e+06	
92	4.600000e+00	1.144024e+06	
93	4.650000e+00	1.160433e+06	
94	4.700000e+00	1.176841e+06	
95	4.750000e+00	1.193248e+06	
96	4.800000e+00	1.209654e+06	
97	4.850000e+00	1.226059e+06	
98	4.900000e+00	1.242462e+06	
99	4.950000e+00	1.258865e+06	
100	5.000000e+00	1.275266e+06	
101	5.050000e+00	1.291667e+06	
102	5.100000e+00	1.308066e+06	
103	5.150000e+00	1.324464e+06	
104	5.200000e+00	1.340861e+06	
105	5.250000e+00	1.357257e+06	
106	5.300000e+00	1.373652e+06	
107	5.350000e+00	1.390045e+06	
108	5.400000e+00	1.406438e+06	
109	5.450000e+00	1.422829e+06	
110	5.500000e+00	1.439219e+06	
111	5.550000e+00	1.455608e+06	
112	5.600000e+00	1.471996e+06	

Index   v-sweep         rds             
--------------------------------------------------------------------------------
113	5.650000e+00	1.488383e+06	
114	5.700000e+00	1.504769e+06	
115	5.750000e+00	1.521154e+06	
116	5.800000e+00	1.537537e+06	
117	5.850000e+00	1.553919e+06	
118	5.900000e+00	1.570300e+06	
119	5.950000e+00	1.586681e+06	
120	6.000000e+00	1.603059e+06	
121	6.050000e+00	1.619437e+06	
122	6.100000e+00	1.635814e+06	
123	6.150000e+00	1.652189e+06	
124	6.200000e+00	1.668564e+06	
125	6.250000e+00	1.684937e+06	
126	6.300000e+00	1.701309e+06	
127	6.350000e+00	1.717680e+06	
128	6.400000e+00	1.734050e+06	
129	6.450000e+00	1.750418e+06	
130	6.500000e+00	1.766786e+06	
131	6.550000e+00	1.783152e+06	
132	6.600000e+00	1.799517e+06	
Reset re-loads circuit ***************************

Circuit: ***************************

Doing analysis at TEMP = 125.000000 and TNOM = 125.000000


No. of Data Rows : 133
                          ***************************
                          DC transfer characteristic  Mon Jan  9 13:58:06  2023
--------------------------------------------------------------------------------
Index   v-sweep         rds             
--------------------------------------------------------------------------------
0	0.000000e+00	8.161258e+03	
1	5.000000e-02	8.333260e+03	
2	1.000000e-01	8.511699e+03	
3	1.500000e-01	8.696940e+03	
4	2.000000e-01	8.889381e+03	
5	2.500000e-01	9.089448e+03	
6	3.000000e-01	9.297602e+03	
7	3.500000e-01	9.514343e+03	
8	4.000000e-01	9.740212e+03	
9	4.500000e-01	9.975797e+03	
10	5.000000e-01	1.022174e+04	
11	5.500000e-01	1.047873e+04	
12	6.000000e-01	1.074754e+04	
13	6.500000e-01	1.102899e+04	
14	7.000000e-01	1.132401e+04	
15	7.500000e-01	1.163358e+04	
16	8.000000e-01	1.195882e+04	
17	8.500000e-01	1.230094e+04	
18	9.000000e-01	1.266129e+04	
19	9.500000e-01	1.304137e+04	
20	1.000000e+00	1.344284e+04	
21	1.050000e+00	1.386755e+04	
22	1.100000e+00	1.431759e+04	
23	1.150000e+00	1.479529e+04	
24	1.200000e+00	1.530327e+04	
25	1.250000e+00	1.584451e+04	
26	1.300000e+00	1.642237e+04	
27	1.350000e+00	1.704072e+04	
28	1.400000e+00	1.770396e+04	
29	1.450000e+00	1.841716e+04	
30	1.500000e+00	1.918619e+04	
31	1.550000e+00	2.001788e+04	
32	1.600000e+00	2.092024e+04	
33	1.650000e+00	2.190271e+04	
34	1.700000e+00	2.297650e+04	
35	1.750000e+00	2.415508e+04	
36	1.800000e+00	2.545476e+04	
37	1.850000e+00	2.689561e+04	
38	1.900000e+00	2.850265e+04	
39	1.950000e+00	3.030778e+04	
40	2.000000e+00	3.235273e+04	
41	2.050000e+00	3.469381e+04	
42	2.100000e+00	3.740889e+04	
43	2.150000e+00	4.060495e+04	
44	2.200000e+00	4.441447e+04	
45	2.250000e+00	4.895637e+04	
46	2.300000e+00	5.425942e+04	
47	2.350000e+00	6.022249e+04	
48	2.400000e+00	6.667033e+04	
49	2.450000e+00	7.343704e+04	
50	2.500000e+00	8.040325e+04	
51	2.550000e+00	8.749341e+04	
52	2.600000e+00	9.466187e+04	
53	2.650000e+00	1.018812e+05	
54	2.700000e+00	1.091345e+05	

Index   v-sweep         rds             
--------------------------------------------------------------------------------
55	2.750000e+00	1.164113e+05	
56	2.800000e+00	1.237047e+05	
57	2.850000e+00	1.310102e+05	
58	2.900000e+00	1.383246e+05	
59	2.950000e+00	1.456459e+05	
60	3.000000e+00	1.529723e+05	
61	3.050000e+00	1.603028e+05	
62	3.100000e+00	1.676366e+05	
63	3.150000e+00	1.749729e+05	
64	3.200000e+00	1.823113e+05	
65	3.250000e+00	1.896514e+05	
66	3.300000e+00	1.969929e+05	
67	3.350000e+00	2.043355e+05	
68	3.400000e+00	2.116791e+05	
69	3.450000e+00	2.190233e+05	
70	3.500000e+00	2.263683e+05	
71	3.550000e+00	2.337137e+05	
72	3.600000e+00	2.410595e+05	
73	3.650000e+00	2.484057e+05	
74	3.700000e+00	2.557522e+05	
75	3.750000e+00	2.630989e+05	
76	3.800000e+00	2.704457e+05	
77	3.850000e+00	2.777926e+05	
78	3.900000e+00	2.851397e+05	
79	3.950000e+00	2.924867e+05	
80	4.000000e+00	2.998338e+05	
81	4.050000e+00	3.071809e+05	
82	4.100000e+00	3.145279e+05	
83	4.150000e+00	3.218749e+05	
84	4.200000e+00	3.292219e+05	
85	4.250000e+00	3.365687e+05	
86	4.300000e+00	3.439154e+05	
87	4.350000e+00	3.512620e+05	
88	4.400000e+00	3.586085e+05	
89	4.450000e+00	3.659548e+05	
90	4.500000e+00	3.733010e+05	
91	4.550000e+00	3.806470e+05	
92	4.600000e+00	3.879929e+05	
93	4.650000e+00	3.953385e+05	
94	4.700000e+00	4.026840e+05	
95	4.750000e+00	4.100293e+05	
96	4.800000e+00	4.173744e+05	
97	4.850000e+00	4.247193e+05	
98	4.900000e+00	4.320640e+05	
99	4.950000e+00	4.394085e+05	
100	5.000000e+00	4.467528e+05	
101	5.050000e+00	4.540968e+05	
102	5.100000e+00	4.614407e+05	
103	5.150000e+00	4.687843e+05	
104	5.200000e+00	4.761276e+05	
105	5.250000e+00	4.834707e+05	
106	5.300000e+00	4.908136e+05	
107	5.350000e+00	4.981563e+05	
108	5.400000e+00	5.054987e+05	
109	5.450000e+00	5.128408e+05	
110	5.500000e+00	5.201827e+05	
111	5.550000e+00	5.275244e+05	
112	5.600000e+00	5.348658e+05	

Index   v-sweep         rds             
--------------------------------------------------------------------------------
113	5.650000e+00	5.422069e+05	
114	5.700000e+00	5.495478e+05	
115	5.750000e+00	5.568885e+05	
116	5.800000e+00	5.642288e+05	
117	5.850000e+00	5.715689e+05	
118	5.900000e+00	5.789088e+05	
119	5.950000e+00	5.862484e+05	
120	6.000000e+00	5.935877e+05	
121	6.050000e+00	6.009267e+05	
122	6.100000e+00	6.082655e+05	
123	6.150000e+00	6.156040e+05	
124	6.200000e+00	6.229422e+05	
125	6.250000e+00	6.302801e+05	
126	6.300000e+00	6.376178e+05	
127	6.350000e+00	6.449552e+05	
128	6.400000e+00	6.522924e+05	
129	6.450000e+00	6.596292e+05	
130	6.500000e+00	6.669658e+05	
131	6.550000e+00	6.743021e+05	
132	6.600000e+00	6.816381e+05	
Reset re-loads circuit ***************************

Circuit: ***************************

Doing analysis at TEMP = 125.000000 and TNOM = 125.000000


No. of Data Rows : 133
                          ***************************
                          DC transfer characteristic  Mon Jan  9 13:58:06  2023
--------------------------------------------------------------------------------
Index   v-sweep         rds             
--------------------------------------------------------------------------------
0	0.000000e+00	6.623345e+03	
1	5.000000e-02	6.722738e+03	
2	1.000000e-01	6.824660e+03	
3	1.500000e-01	6.929207e+03	
4	2.000000e-01	7.036483e+03	
5	2.500000e-01	7.146593e+03	
6	3.000000e-01	7.259653e+03	
7	3.500000e-01	7.375782e+03	
8	4.000000e-01	7.495105e+03	
9	4.500000e-01	7.617757e+03	
10	5.000000e-01	7.743878e+03	
11	5.500000e-01	7.873616e+03	
12	6.000000e-01	8.007129e+03	
13	6.500000e-01	8.144584e+03	
14	7.000000e-01	8.286157e+03	
15	7.500000e-01	8.432036e+03	
16	8.000000e-01	8.582420e+03	
17	8.500000e-01	8.737520e+03	
18	9.000000e-01	8.897561e+03	
19	9.500000e-01	9.062781e+03	
20	1.000000e+00	9.233437e+03	
21	1.050000e+00	9.409800e+03	
22	1.100000e+00	9.592161e+03	
23	1.150000e+00	9.780829e+03	
24	1.200000e+00	9.976139e+03	
25	1.250000e+00	1.017845e+04	
26	1.300000e+00	1.038813e+04	
27	1.350000e+00	1.060561e+04	
28	1.400000e+00	1.083131e+04	
29	1.450000e+00	1.106573e+04	
30	1.500000e+00	1.130936e+04	
31	1.550000e+00	1.156277e+04	
32	1.600000e+00	1.182655e+04	
33	1.650000e+00	1.210136e+04	
34	1.700000e+00	1.238789e+04	
35	1.750000e+00	1.268692e+04	
36	1.800000e+00	1.299929e+04	
37	1.850000e+00	1.332590e+04	
38	1.900000e+00	1.366775e+04	
39	1.950000e+00	1.402594e+04	
40	2.000000e+00	1.440166e+04	
41	2.050000e+00	1.479625e+04	
42	2.100000e+00	1.521117e+04	
43	2.150000e+00	1.564803e+04	
44	2.200000e+00	1.610864e+04	
45	2.250000e+00	1.659502e+04	
46	2.300000e+00	1.710940e+04	
47	2.350000e+00	1.765433e+04	
48	2.400000e+00	1.823268e+04	
49	2.450000e+00	1.884772e+04	
50	2.500000e+00	1.950323e+04	
51	2.550000e+00	2.020359e+04	
52	2.600000e+00	2.095401e+04	
53	2.650000e+00	2.176076e+04	
54	2.700000e+00	2.263166e+04	

Index   v-sweep         rds             
--------------------------------------------------------------------------------
55	2.750000e+00	2.357678e+04	
56	2.800000e+00	2.460970e+04	
57	2.850000e+00	2.574971e+04	
58	2.900000e+00	2.702531e+04	
59	2.950000e+00	2.847943e+04	
60	3.000000e+00	3.017439e+04	
61	3.050000e+00	3.219031e+04	
62	3.100000e+00	3.460597e+04	
63	3.150000e+00	3.746256e+04	
64	3.200000e+00	4.073799e+04	
65	3.250000e+00	4.435893e+04	
66	3.300000e+00	4.823623e+04	
67	3.350000e+00	5.229205e+04	
68	3.400000e+00	5.646883e+04	
69	3.450000e+00	6.072727e+04	
70	3.500000e+00	6.504143e+04	
71	3.550000e+00	6.939429e+04	
72	3.600000e+00	7.377456e+04	
73	3.650000e+00	7.817467e+04	
74	3.700000e+00	8.258943e+04	
75	3.750000e+00	8.701521e+04	
76	3.800000e+00	9.144943e+04	
77	3.850000e+00	9.589020e+04	
78	3.900000e+00	1.003361e+05	
79	3.950000e+00	1.047862e+05	
80	4.000000e+00	1.092397e+05	
81	4.050000e+00	1.136958e+05	
82	4.100000e+00	1.181542e+05	
83	4.150000e+00	1.226145e+05	
84	4.200000e+00	1.270763e+05	
85	4.250000e+00	1.315394e+05	
86	4.300000e+00	1.360037e+05	
87	4.350000e+00	1.404689e+05	
88	4.400000e+00	1.449349e+05	
89	4.450000e+00	1.494016e+05	
90	4.500000e+00	1.538689e+05	
91	4.550000e+00	1.583368e+05	
92	4.600000e+00	1.628050e+05	
93	4.650000e+00	1.672737e+05	
94	4.700000e+00	1.717427e+05	
95	4.750000e+00	1.762120e+05	
96	4.800000e+00	1.806815e+05	
97	4.850000e+00	1.851513e+05	
98	4.900000e+00	1.896212e+05	
99	4.950000e+00	1.940913e+05	
100	5.000000e+00	1.985616e+05	
101	5.050000e+00	2.030319e+05	
102	5.100000e+00	2.075023e+05	
103	5.150000e+00	2.119729e+05	
104	5.200000e+00	2.164434e+05	
105	5.250000e+00	2.209141e+05	
106	5.300000e+00	2.253847e+05	
107	5.350000e+00	2.298554e+05	
108	5.400000e+00	2.343261e+05	
109	5.450000e+00	2.387969e+05	
110	5.500000e+00	2.432676e+05	
111	5.550000e+00	2.477383e+05	
112	5.600000e+00	2.522090e+05	

Index   v-sweep         rds             
--------------------------------------------------------------------------------
113	5.650000e+00	2.566796e+05	
114	5.700000e+00	2.611503e+05	
115	5.750000e+00	2.656209e+05	
116	5.800000e+00	2.700914e+05	
117	5.850000e+00	2.745619e+05	
118	5.900000e+00	2.790324e+05	
119	5.950000e+00	2.835028e+05	
120	6.000000e+00	2.879731e+05	
121	6.050000e+00	2.924434e+05	
122	6.100000e+00	2.969137e+05	
123	6.150000e+00	3.013838e+05	
124	6.200000e+00	3.058539e+05	
125	6.250000e+00	3.103239e+05	
126	6.300000e+00	3.147939e+05	
127	6.350000e+00	3.192637e+05	
128	6.400000e+00	3.237335e+05	
129	6.450000e+00	3.282032e+05	
130	6.500000e+00	3.326728e+05	
131	6.550000e+00	3.371424e+05	
132	6.600000e+00	3.416118e+05	
Reset re-loads circuit ***************************

Circuit: ***************************

Doing analysis at TEMP = 125.000000 and TNOM = 125.000000


No. of Data Rows : 133
                          ***************************
                          DC transfer characteristic  Mon Jan  9 13:58:06  2023
--------------------------------------------------------------------------------
Index   v-sweep         rds             
--------------------------------------------------------------------------------
0	0.000000e+00	5.810381e+03	
1	5.000000e-02	5.877600e+03	
2	1.000000e-01	5.946090e+03	
3	1.500000e-01	6.015886e+03	
4	2.000000e-01	6.087026e+03	
5	2.500000e-01	6.159549e+03	
6	3.000000e-01	6.233495e+03	
7	3.500000e-01	6.308907e+03	
8	4.000000e-01	6.385829e+03	
9	4.500000e-01	6.464305e+03	
10	5.000000e-01	6.544383e+03	
11	5.500000e-01	6.626113e+03	
12	6.000000e-01	6.709546e+03	
13	6.500000e-01	6.794735e+03	
14	7.000000e-01	6.881737e+03	
15	7.500000e-01	6.970609e+03	
16	8.000000e-01	7.061412e+03	
17	8.500000e-01	7.154209e+03	
18	9.000000e-01	7.249067e+03	
19	9.500000e-01	7.346055e+03	
20	1.000000e+00	7.445245e+03	
21	1.050000e+00	7.546712e+03	
22	1.100000e+00	7.650536e+03	
23	1.150000e+00	7.756799e+03	
24	1.200000e+00	7.865587e+03	
25	1.250000e+00	7.976993e+03	
26	1.300000e+00	8.091111e+03	
27	1.350000e+00	8.208040e+03	
28	1.400000e+00	8.327887e+03	
29	1.450000e+00	8.450760e+03	
30	1.500000e+00	8.576777e+03	
31	1.550000e+00	8.706057e+03	
32	1.600000e+00	8.838731e+03	
33	1.650000e+00	8.974932e+03	
34	1.700000e+00	9.114803e+03	
35	1.750000e+00	9.258495e+03	
36	1.800000e+00	9.406164e+03	
37	1.850000e+00	9.557979e+03	
38	1.900000e+00	9.714116e+03	
39	1.950000e+00	9.874762e+03	
40	2.000000e+00	1.004011e+04	
41	2.050000e+00	1.021038e+04	
42	2.100000e+00	1.038579e+04	
43	2.150000e+00	1.056658e+04	
44	2.200000e+00	1.075298e+04	
45	2.250000e+00	1.094529e+04	
46	2.300000e+00	1.114376e+04	
47	2.350000e+00	1.134872e+04	
48	2.400000e+00	1.156047e+04	
49	2.450000e+00	1.177938e+04	
50	2.500000e+00	1.200579e+04	
51	2.550000e+00	1.224012e+04	
52	2.600000e+00	1.248278e+04	
53	2.650000e+00	1.273422e+04	
54	2.700000e+00	1.299494e+04	

Index   v-sweep         rds             
--------------------------------------------------------------------------------
55	2.750000e+00	1.326547e+04	
56	2.800000e+00	1.354636e+04	
57	2.850000e+00	1.383824e+04	
58	2.900000e+00	1.414178e+04	
59	2.950000e+00	1.445769e+04	
60	3.000000e+00	1.478678e+04	
61	3.050000e+00	1.512992e+04	
62	3.100000e+00	1.548804e+04	
63	3.150000e+00	1.586223e+04	
64	3.200000e+00	1.625366e+04	
65	3.250000e+00	1.666365e+04	
66	3.300000e+00	1.709375e+04	
67	3.350000e+00	1.754570e+04	
68	3.400000e+00	1.802160e+04	
69	3.450000e+00	1.852401e+04	
70	3.500000e+00	1.905613e+04	
71	3.550000e+00	1.962218e+04	
72	3.600000e+00	2.022790e+04	
73	3.650000e+00	2.088151e+04	
74	3.700000e+00	2.159515e+04	
75	3.750000e+00	2.238714e+04	
76	3.800000e+00	2.328496e+04	
77	3.850000e+00	2.432781e+04	
78	3.900000e+00	2.556595e+04	
79	3.950000e+00	2.705188e+04	
80	4.000000e+00	2.882288e+04	
81	4.050000e+00	3.088424e+04	
82	4.100000e+00	3.320723e+04	
83	4.150000e+00	3.574288e+04	
84	4.200000e+00	3.843922e+04	
85	4.250000e+00	4.125187e+04	
86	4.300000e+00	4.414711e+04	
87	4.350000e+00	4.710081e+04	
88	4.400000e+00	5.009620e+04	
89	4.450000e+00	5.312169e+04	
90	4.500000e+00	5.616924e+04	
91	4.550000e+00	5.923322e+04	
92	4.600000e+00	6.230963e+04	
93	4.650000e+00	6.539561e+04	
94	4.700000e+00	6.848904e+04	
95	4.750000e+00	7.158836e+04	
96	4.800000e+00	7.469240e+04	
97	4.850000e+00	7.780025e+04	
98	4.900000e+00	8.091122e+04	
99	4.950000e+00	8.402476e+04	
100	5.000000e+00	8.714044e+04	
101	5.050000e+00	9.025792e+04	
102	5.100000e+00	9.337692e+04	
103	5.150000e+00	9.649721e+04	
104	5.200000e+00	9.961861e+04	
105	5.250000e+00	1.027410e+05	
106	5.300000e+00	1.058641e+05	
107	5.350000e+00	1.089880e+05	
108	5.400000e+00	1.121125e+05	
109	5.450000e+00	1.152376e+05	
110	5.500000e+00	1.183631e+05	
111	5.550000e+00	1.214891e+05	
112	5.600000e+00	1.246154e+05	

Index   v-sweep         rds             
--------------------------------------------------------------------------------
113	5.650000e+00	1.277420e+05	
114	5.700000e+00	1.308690e+05	
115	5.750000e+00	1.339962e+05	
116	5.800000e+00	1.371236e+05	
117	5.850000e+00	1.402512e+05	
118	5.900000e+00	1.433790e+05	
119	5.950000e+00	1.465070e+05	
120	6.000000e+00	1.496351e+05	
121	6.050000e+00	1.527634e+05	
122	6.100000e+00	1.558917e+05	
123	6.150000e+00	1.590202e+05	
124	6.200000e+00	1.621487e+05	
125	6.250000e+00	1.652773e+05	
126	6.300000e+00	1.684060e+05	
127	6.350000e+00	1.715347e+05	
128	6.400000e+00	1.746635e+05	
129	6.450000e+00	1.777923e+05	
130	6.500000e+00	1.809211e+05	
131	6.550000e+00	1.840500e+05	
132	6.600000e+00	1.871789e+05	
Reset re-loads circuit ***************************

Circuit: ***************************

Doing analysis at TEMP = 125.000000 and TNOM = 125.000000


No. of Data Rows : 133
                          ***************************
                          DC transfer characteristic  Mon Jan  9 13:58:06  2023
--------------------------------------------------------------------------------
Index   v-sweep         rds             
--------------------------------------------------------------------------------
0	0.000000e+00	5.320081e+03	
1	5.000000e-02	5.369694e+03	
2	1.000000e-01	5.420041e+03	
3	1.500000e-01	5.471136e+03	
4	2.000000e-01	5.522996e+03	
5	2.500000e-01	5.575640e+03	
6	3.000000e-01	5.629083e+03	
7	3.500000e-01	5.683346e+03	
8	4.000000e-01	5.738446e+03	
9	4.500000e-01	5.794402e+03	
10	5.000000e-01	5.851236e+03	
11	5.500000e-01	5.908967e+03	
12	6.000000e-01	5.967617e+03	
13	6.500000e-01	6.027208e+03	
14	7.000000e-01	6.087762e+03	
15	7.500000e-01	6.149303e+03	
16	8.000000e-01	6.211854e+03	
17	8.500000e-01	6.275442e+03	
18	9.000000e-01	6.340091e+03	
19	9.500000e-01	6.405829e+03	
20	1.000000e+00	6.472683e+03	
21	1.050000e+00	6.540681e+03	
22	1.100000e+00	6.609853e+03	
23	1.150000e+00	6.680229e+03	
24	1.200000e+00	6.751841e+03	
25	1.250000e+00	6.824722e+03	
26	1.300000e+00	6.898905e+03	
27	1.350000e+00	6.974426e+03	
28	1.400000e+00	7.051321e+03	
29	1.450000e+00	7.129626e+03	
30	1.500000e+00	7.209383e+03	
31	1.550000e+00	7.290630e+03	
32	1.600000e+00	7.373410e+03	
33	1.650000e+00	7.457766e+03	
34	1.700000e+00	7.543745e+03	
35	1.750000e+00	7.631392e+03	
36	1.800000e+00	7.720757e+03	
37	1.850000e+00	7.811890e+03	
38	1.900000e+00	7.904845e+03	
39	1.950000e+00	7.999676e+03	
40	2.000000e+00	8.096440e+03	
41	2.050000e+00	8.195197e+03	
42	2.100000e+00	8.296010e+03	
43	2.150000e+00	8.398941e+03	
44	2.200000e+00	8.504060e+03	
45	2.250000e+00	8.611435e+03	
46	2.300000e+00	8.721141e+03	
47	2.350000e+00	8.833254e+03	
48	2.400000e+00	8.947853e+03	
49	2.450000e+00	9.065023e+03	
50	2.500000e+00	9.184850e+03	
51	2.550000e+00	9.307426e+03	
52	2.600000e+00	9.432845e+03	
53	2.650000e+00	9.561210e+03	
54	2.700000e+00	9.692623e+03	

Index   v-sweep         rds             
--------------------------------------------------------------------------------
55	2.750000e+00	9.827194e+03	
56	2.800000e+00	9.965040e+03	
57	2.850000e+00	1.010628e+04	
58	2.900000e+00	1.025104e+04	
59	2.950000e+00	1.039946e+04	
60	3.000000e+00	1.055167e+04	
61	3.050000e+00	1.070783e+04	
62	3.100000e+00	1.086809e+04	
63	3.150000e+00	1.103261e+04	
64	3.200000e+00	1.120156e+04	
65	3.250000e+00	1.137513e+04	
66	3.300000e+00	1.155352e+04	
67	3.350000e+00	1.173692e+04	
68	3.400000e+00	1.192556e+04	
69	3.450000e+00	1.211966e+04	
70	3.500000e+00	1.231946e+04	
71	3.550000e+00	1.252524e+04	
72	3.600000e+00	1.273725e+04	
73	3.650000e+00	1.295581e+04	
74	3.700000e+00	1.318123e+04	
75	3.750000e+00	1.341385e+04	
76	3.800000e+00	1.365403e+04	
77	3.850000e+00	1.390219e+04	
78	3.900000e+00	1.415874e+04	
79	3.950000e+00	1.442418e+04	
80	4.000000e+00	1.469903e+04	
81	4.050000e+00	1.498388e+04	
82	4.100000e+00	1.527941e+04	
83	4.150000e+00	1.558639e+04	
84	4.200000e+00	1.590575e+04	
85	4.250000e+00	1.623860e+04	
86	4.300000e+00	1.658633e+04	
87	4.350000e+00	1.695074e+04	
88	4.400000e+00	1.733423e+04	
89	4.450000e+00	1.774012e+04	
90	4.500000e+00	1.817314e+04	
91	4.550000e+00	1.864025e+04	
92	4.600000e+00	1.915173e+04	
93	4.650000e+00	1.972278e+04	
94	4.700000e+00	2.037522e+04	
95	4.750000e+00	2.113838e+04	
96	4.800000e+00	2.204738e+04	
97	4.850000e+00	2.313672e+04	
98	4.900000e+00	2.443005e+04	
99	4.950000e+00	2.593134e+04	
100	5.000000e+00	2.762390e+04	
101	5.050000e+00	2.947752e+04	
102	5.100000e+00	3.145811e+04	
103	5.150000e+00	3.353461e+04	
104	5.200000e+00	3.568192e+04	
105	5.250000e+00	3.788106e+04	
106	5.300000e+00	4.011820e+04	
107	5.350000e+00	4.238341e+04	
108	5.400000e+00	4.466957e+04	
109	5.450000e+00	4.697156e+04	
110	5.500000e+00	4.928569e+04	
111	5.550000e+00	5.160924e+04	
112	5.600000e+00	5.394018e+04	

Index   v-sweep         rds             
--------------------------------------------------------------------------------
113	5.650000e+00	5.627700e+04	
114	5.700000e+00	5.861855e+04	
115	5.750000e+00	6.096395e+04	
116	5.800000e+00	6.331251e+04	
117	5.850000e+00	6.566367e+04	
118	5.900000e+00	6.801702e+04	
119	5.950000e+00	7.037221e+04	
120	6.000000e+00	7.272895e+04	
121	6.050000e+00	7.508702e+04	
122	6.100000e+00	7.744623e+04	
123	6.150000e+00	7.980643e+04	
124	6.200000e+00	8.216747e+04	
125	6.250000e+00	8.452926e+04	
126	6.300000e+00	8.689170e+04	
127	6.350000e+00	8.925471e+04	
128	6.400000e+00	9.161822e+04	
129	6.450000e+00	9.398218e+04	
130	6.500000e+00	9.634654e+04	
131	6.550000e+00	9.871124e+04	
132	6.600000e+00	1.010763e+05	
Reset re-loads circuit ***************************

Circuit: ***************************

Note: No ".plot", ".print", or ".fourier" lines; no simulations run
