
Note: Compatibility modes selected: hs

Warning: m=xx on .subckt line will override multiplier m hierarchy!


Circuit: ***************************

Doing analysis at TEMP = -40.000000 and TNOM = -40.000000


No. of Data Rows : 133
                          ***************************
                          DC transfer characteristic  Mon Jan  9 13:58:06  2023
--------------------------------------------------------------------------------
Index   v-sweep         rds             
--------------------------------------------------------------------------------
0	0.000000e+00	6.046046e+04	
1	5.000000e-02	7.536639e+04	
2	1.000000e-01	9.971283e+04	
3	1.500000e-01	1.459557e+05	
4	2.000000e-01	2.557108e+05	
5	2.500000e-01	5.203149e+05	
6	3.000000e-01	8.364766e+05	
7	3.500000e-01	1.081852e+06	
8	4.000000e-01	1.293872e+06	
9	4.500000e-01	1.493220e+06	
10	5.000000e-01	1.686116e+06	
11	5.500000e-01	1.874667e+06	
12	6.000000e-01	2.059725e+06	
13	6.500000e-01	2.241693e+06	
14	7.000000e-01	2.420790e+06	
15	7.500000e-01	2.597154e+06	
16	8.000000e-01	2.770881e+06	
17	8.500000e-01	2.942044e+06	
18	9.000000e-01	3.110705e+06	
19	9.500000e-01	3.276919e+06	
20	1.000000e+00	3.440734e+06	
21	1.050000e+00	3.602197e+06	
22	1.100000e+00	3.761353e+06	
23	1.150000e+00	3.918243e+06	
24	1.200000e+00	4.072908e+06	
25	1.250000e+00	4.225389e+06	
26	1.300000e+00	4.375724e+06	
27	1.350000e+00	4.523953e+06	
28	1.400000e+00	4.670111e+06	
29	1.450000e+00	4.814237e+06	
30	1.500000e+00	4.956366e+06	
31	1.550000e+00	5.096533e+06	
32	1.600000e+00	5.234774e+06	
33	1.650000e+00	5.371121e+06	
34	1.700000e+00	5.505609e+06	
35	1.750000e+00	5.638270e+06	
36	1.800000e+00	5.769136e+06	
37	1.850000e+00	5.898239e+06	
38	1.900000e+00	6.025610e+06	
39	1.950000e+00	6.151279e+06	
40	2.000000e+00	6.275276e+06	
41	2.050000e+00	6.397630e+06	
42	2.100000e+00	6.518369e+06	
43	2.150000e+00	6.637522e+06	
44	2.200000e+00	6.755116e+06	
45	2.250000e+00	6.871178e+06	
46	2.300000e+00	6.985734e+06	
47	2.350000e+00	7.098810e+06	
48	2.400000e+00	7.210432e+06	
49	2.450000e+00	7.320624e+06	
50	2.500000e+00	7.429411e+06	
51	2.550000e+00	7.536817e+06	
52	2.600000e+00	7.642864e+06	
53	2.650000e+00	7.747577e+06	
54	2.700000e+00	7.850977e+06	

Index   v-sweep         rds             
--------------------------------------------------------------------------------
55	2.750000e+00	7.953087e+06	
56	2.800000e+00	8.053927e+06	
57	2.850000e+00	8.153520e+06	
58	2.900000e+00	8.251886e+06	
59	2.950000e+00	8.349044e+06	
60	3.000000e+00	8.445016e+06	
61	3.050000e+00	8.539821e+06	
62	3.100000e+00	8.633477e+06	
63	3.150000e+00	8.726004e+06	
64	3.200000e+00	8.817420e+06	
65	3.250000e+00	8.907743e+06	
66	3.300000e+00	8.996990e+06	
67	3.350000e+00	9.085179e+06	
68	3.400000e+00	9.172327e+06	
69	3.450000e+00	9.258450e+06	
70	3.500000e+00	9.343565e+06	
71	3.550000e+00	9.427688e+06	
72	3.600000e+00	9.510835e+06	
73	3.650000e+00	9.593020e+06	
74	3.700000e+00	9.674259e+06	
75	3.750000e+00	9.754567e+06	
76	3.800000e+00	9.833958e+06	
77	3.850000e+00	9.912446e+06	
78	3.900000e+00	9.990046e+06	
79	3.950000e+00	1.006677e+07	
80	4.000000e+00	1.014263e+07	
81	4.050000e+00	1.021765e+07	
82	4.100000e+00	1.029183e+07	
83	4.150000e+00	1.036519e+07	
84	4.200000e+00	1.043773e+07	
85	4.250000e+00	1.050948e+07	
86	4.300000e+00	1.058044e+07	
87	4.350000e+00	1.065063e+07	
88	4.400000e+00	1.072005e+07	
89	4.450000e+00	1.078873e+07	
90	4.500000e+00	1.085666e+07	
91	4.550000e+00	1.092386e+07	
92	4.600000e+00	1.099035e+07	
93	4.650000e+00	1.105612e+07	
94	4.700000e+00	1.112120e+07	
95	4.750000e+00	1.118559e+07	
96	4.800000e+00	1.124930e+07	
97	4.850000e+00	1.131234e+07	
98	4.900000e+00	1.137473e+07	
99	4.950000e+00	1.143646e+07	
100	5.000000e+00	1.149756e+07	
101	5.050000e+00	1.155802e+07	
102	5.100000e+00	1.161786e+07	
103	5.150000e+00	1.167709e+07	
104	5.200000e+00	1.173571e+07	
105	5.250000e+00	1.179374e+07	
106	5.300000e+00	1.185118e+07	
107	5.350000e+00	1.190804e+07	
108	5.400000e+00	1.196433e+07	
109	5.450000e+00	1.202005e+07	
110	5.500000e+00	1.207522e+07	
111	5.550000e+00	1.212984e+07	
112	5.600000e+00	1.218392e+07	

Index   v-sweep         rds             
--------------------------------------------------------------------------------
113	5.650000e+00	1.223746e+07	
114	5.700000e+00	1.229048e+07	
115	5.750000e+00	1.234297e+07	
116	5.800000e+00	1.239496e+07	
117	5.850000e+00	1.244644e+07	
118	5.900000e+00	1.249742e+07	
119	5.950000e+00	1.254791e+07	
120	6.000000e+00	1.259791e+07	
121	6.050000e+00	1.264743e+07	
122	6.100000e+00	1.269648e+07	
123	6.150000e+00	1.274506e+07	
124	6.200000e+00	1.279319e+07	
125	6.250000e+00	1.284085e+07	
126	6.300000e+00	1.288807e+07	
127	6.350000e+00	1.293485e+07	
128	6.400000e+00	1.298118e+07	
129	6.450000e+00	1.302709e+07	
130	6.500000e+00	1.307257e+07	
131	6.550000e+00	1.311762e+07	
132	6.600000e+00	1.316227e+07	
Reset re-loads circuit ***************************

Circuit: ***************************

Doing analysis at TEMP = -40.000000 and TNOM = -40.000000


No. of Data Rows : 133
                          ***************************
                          DC transfer characteristic  Mon Jan  9 13:58:06  2023
--------------------------------------------------------------------------------
Index   v-sweep         rds             
--------------------------------------------------------------------------------
0	0.000000e+00	1.336499e+04	
1	5.000000e-02	1.397465e+04	
2	1.000000e-01	1.463517e+04	
3	1.500000e-01	1.535317e+04	
4	2.000000e-01	1.613646e+04	
5	2.500000e-01	1.699437e+04	
6	3.000000e-01	1.793807e+04	
7	3.500000e-01	1.898108e+04	
8	4.000000e-01	2.013996e+04	
9	4.500000e-01	2.143513e+04	
10	5.000000e-01	2.289217e+04	
11	5.500000e-01	2.454353e+04	
12	6.000000e-01	2.643115e+04	
13	6.500000e-01	2.861045e+04	
14	7.000000e-01	3.115684e+04	
15	7.500000e-01	3.417793e+04	
16	8.000000e-01	3.783878e+04	
17	8.500000e-01	4.242127e+04	
18	9.000000e-01	4.844877e+04	
19	9.500000e-01	5.676533e+04	
20	1.000000e+00	6.801614e+04	
21	1.050000e+00	8.181001e+04	
22	1.100000e+00	9.715957e+04	
23	1.150000e+00	1.133072e+05	
24	1.200000e+00	1.298447e+05	
25	1.250000e+00	1.465700e+05	
26	1.300000e+00	1.633807e+05	
27	1.350000e+00	1.802221e+05	
28	1.400000e+00	1.970630e+05	
29	1.450000e+00	2.138849e+05	
30	1.500000e+00	2.306763e+05	
31	1.550000e+00	2.474294e+05	
32	1.600000e+00	2.641392e+05	
33	1.650000e+00	2.808020e+05	
34	1.700000e+00	2.974154e+05	
35	1.750000e+00	3.139776e+05	
36	1.800000e+00	3.304872e+05	
37	1.850000e+00	3.469432e+05	
38	1.900000e+00	3.633449e+05	
39	1.950000e+00	3.796917e+05	
40	2.000000e+00	3.959833e+05	
41	2.050000e+00	4.122193e+05	
42	2.100000e+00	4.283996e+05	
43	2.150000e+00	4.445241e+05	
44	2.200000e+00	4.605926e+05	
45	2.250000e+00	4.766052e+05	
46	2.300000e+00	4.925618e+05	
47	2.350000e+00	5.084625e+05	
48	2.400000e+00	5.243074e+05	
49	2.450000e+00	5.400965e+05	
50	2.500000e+00	5.558299e+05	
51	2.550000e+00	5.715079e+05	
52	2.600000e+00	5.871304e+05	
53	2.650000e+00	6.026976e+05	
54	2.700000e+00	6.182097e+05	

Index   v-sweep         rds             
--------------------------------------------------------------------------------
55	2.750000e+00	6.336669e+05	
56	2.800000e+00	6.490693e+05	
57	2.850000e+00	6.644171e+05	
58	2.900000e+00	6.797104e+05	
59	2.950000e+00	6.949495e+05	
60	3.000000e+00	7.101346e+05	
61	3.050000e+00	7.252657e+05	
62	3.100000e+00	7.403432e+05	
63	3.150000e+00	7.553672e+05	
64	3.200000e+00	7.703380e+05	
65	3.250000e+00	7.852557e+05	
66	3.300000e+00	8.001205e+05	
67	3.350000e+00	8.149326e+05	
68	3.400000e+00	8.296923e+05	
69	3.450000e+00	8.443998e+05	
70	3.500000e+00	8.590552e+05	
71	3.550000e+00	8.736588e+05	
72	3.600000e+00	8.882108e+05	
73	3.650000e+00	9.027114e+05	
74	3.700000e+00	9.171608e+05	
75	3.750000e+00	9.315592e+05	
76	3.800000e+00	9.459069e+05	
77	3.850000e+00	9.602040e+05	
78	3.900000e+00	9.744508e+05	
79	3.950000e+00	9.886475e+05	
80	4.000000e+00	1.002794e+06	
81	4.050000e+00	1.016891e+06	
82	4.100000e+00	1.030939e+06	
83	4.150000e+00	1.044937e+06	
84	4.200000e+00	1.058887e+06	
85	4.250000e+00	1.072787e+06	
86	4.300000e+00	1.086639e+06	
87	4.350000e+00	1.100442e+06	
88	4.400000e+00	1.114198e+06	
89	4.450000e+00	1.127905e+06	
90	4.500000e+00	1.141564e+06	
91	4.550000e+00	1.155176e+06	
92	4.600000e+00	1.168741e+06	
93	4.650000e+00	1.182258e+06	
94	4.700000e+00	1.195728e+06	
95	4.750000e+00	1.209152e+06	
96	4.800000e+00	1.222529e+06	
97	4.850000e+00	1.235860e+06	
98	4.900000e+00	1.249145e+06	
99	4.950000e+00	1.262384e+06	
100	5.000000e+00	1.275577e+06	
101	5.050000e+00	1.288725e+06	
102	5.100000e+00	1.301827e+06	
103	5.150000e+00	1.314884e+06	
104	5.200000e+00	1.327896e+06	
105	5.250000e+00	1.340864e+06	
106	5.300000e+00	1.353787e+06	
107	5.350000e+00	1.366666e+06	
108	5.400000e+00	1.379501e+06	
109	5.450000e+00	1.392292e+06	
110	5.500000e+00	1.405039e+06	
111	5.550000e+00	1.417743e+06	
112	5.600000e+00	1.430403e+06	

Index   v-sweep         rds             
--------------------------------------------------------------------------------
113	5.650000e+00	1.443020e+06	
114	5.700000e+00	1.455595e+06	
115	5.750000e+00	1.468126e+06	
116	5.800000e+00	1.480615e+06	
117	5.850000e+00	1.493062e+06	
118	5.900000e+00	1.505467e+06	
119	5.950000e+00	1.517829e+06	
120	6.000000e+00	1.530150e+06	
121	6.050000e+00	1.542429e+06	
122	6.100000e+00	1.554667e+06	
123	6.150000e+00	1.566864e+06	
124	6.200000e+00	1.579020e+06	
125	6.250000e+00	1.591134e+06	
126	6.300000e+00	1.603208e+06	
127	6.350000e+00	1.615242e+06	
128	6.400000e+00	1.627235e+06	
129	6.450000e+00	1.639189e+06	
130	6.500000e+00	1.651102e+06	
131	6.550000e+00	1.662975e+06	
132	6.600000e+00	1.674809e+06	
Reset re-loads circuit ***************************

Circuit: ***************************

Doing analysis at TEMP = -40.000000 and TNOM = -40.000000


No. of Data Rows : 133
                          ***************************
                          DC transfer characteristic  Mon Jan  9 13:58:06  2023
--------------------------------------------------------------------------------
Index   v-sweep         rds             
--------------------------------------------------------------------------------
0	0.000000e+00	8.564631e+03	
1	5.000000e-02	8.800793e+03	
2	1.000000e-01	9.047476e+03	
3	1.500000e-01	9.305395e+03	
4	2.000000e-01	9.575330e+03	
5	2.500000e-01	9.858134e+03	
6	3.000000e-01	1.015475e+04	
7	3.500000e-01	1.046620e+04	
8	4.000000e-01	1.079362e+04	
9	4.500000e-01	1.113828e+04	
10	5.000000e-01	1.150157e+04	
11	5.500000e-01	1.188503e+04	
12	6.000000e-01	1.229040e+04	
13	6.500000e-01	1.271961e+04	
14	7.000000e-01	1.317483e+04	
15	7.500000e-01	1.365851e+04	
16	8.000000e-01	1.417345e+04	
17	8.500000e-01	1.472280e+04	
18	9.000000e-01	1.531024e+04	
19	9.500000e-01	1.594001e+04	
20	1.000000e+00	1.661715e+04	
21	1.050000e+00	1.734774e+04	
22	1.100000e+00	1.813936e+04	
23	1.150000e+00	1.900201e+04	
24	1.200000e+00	1.994983e+04	
25	1.250000e+00	2.100494e+04	
26	1.300000e+00	2.220622e+04	
27	1.350000e+00	2.362901e+04	
28	1.400000e+00	2.542492e+04	
29	1.450000e+00	2.787204e+04	
30	1.500000e+00	3.134252e+04	
31	1.550000e+00	3.606879e+04	
32	1.600000e+00	4.193534e+04	
33	1.650000e+00	4.861378e+04	
34	1.700000e+00	5.579728e+04	
35	1.750000e+00	6.328044e+04	
36	1.800000e+00	7.094115e+04	
37	1.850000e+00	7.870848e+04	
38	1.900000e+00	8.654056e+04	
39	1.950000e+00	9.441185e+04	
40	2.000000e+00	1.023063e+05	
41	2.050000e+00	1.102132e+05	
42	2.100000e+00	1.181257e+05	
43	2.150000e+00	1.260386e+05	
44	2.200000e+00	1.339486e+05	
45	2.250000e+00	1.418530e+05	
46	2.300000e+00	1.497500e+05	
47	2.350000e+00	1.576380e+05	
48	2.400000e+00	1.655160e+05	
49	2.450000e+00	1.733831e+05	
50	2.500000e+00	1.812387e+05	
51	2.550000e+00	1.890821e+05	
52	2.600000e+00	1.969129e+05	
53	2.650000e+00	2.047308e+05	
54	2.700000e+00	2.125355e+05	

Index   v-sweep         rds             
--------------------------------------------------------------------------------
55	2.750000e+00	2.203267e+05	
56	2.800000e+00	2.281042e+05	
57	2.850000e+00	2.358679e+05	
58	2.900000e+00	2.436177e+05	
59	2.950000e+00	2.513533e+05	
60	3.000000e+00	2.590747e+05	
61	3.050000e+00	2.667819e+05	
62	3.100000e+00	2.744747e+05	
63	3.150000e+00	2.821532e+05	
64	3.200000e+00	2.898172e+05	
65	3.250000e+00	2.974667e+05	
66	3.300000e+00	3.051017e+05	
67	3.350000e+00	3.127222e+05	
68	3.400000e+00	3.203282e+05	
69	3.450000e+00	3.279196e+05	
70	3.500000e+00	3.354964e+05	
71	3.550000e+00	3.430587e+05	
72	3.600000e+00	3.506064e+05	
73	3.650000e+00	3.581395e+05	
74	3.700000e+00	3.656580e+05	
75	3.750000e+00	3.731620e+05	
76	3.800000e+00	3.806514e+05	
77	3.850000e+00	3.881263e+05	
78	3.900000e+00	3.955867e+05	
79	3.950000e+00	4.030325e+05	
80	4.000000e+00	4.104639e+05	
81	4.050000e+00	4.178808e+05	
82	4.100000e+00	4.252832e+05	
83	4.150000e+00	4.326711e+05	
84	4.200000e+00	4.400446e+05	
85	4.250000e+00	4.474038e+05	
86	4.300000e+00	4.547485e+05	
87	4.350000e+00	4.620789e+05	
88	4.400000e+00	4.693950e+05	
89	4.450000e+00	4.766967e+05	
90	4.500000e+00	4.839841e+05	
91	4.550000e+00	4.912573e+05	
92	4.600000e+00	4.985163e+05	
93	4.650000e+00	5.057610e+05	
94	4.700000e+00	5.129915e+05	
95	4.750000e+00	5.202079e+05	
96	4.800000e+00	5.274102e+05	
97	4.850000e+00	5.345983e+05	
98	4.900000e+00	5.417724e+05	
99	4.950000e+00	5.489325e+05	
100	5.000000e+00	5.560785e+05	
101	5.050000e+00	5.632105e+05	
102	5.100000e+00	5.703285e+05	
103	5.150000e+00	5.774327e+05	
104	5.200000e+00	5.845229e+05	
105	5.250000e+00	5.915992e+05	
106	5.300000e+00	5.986617e+05	
107	5.350000e+00	6.057104e+05	
108	5.400000e+00	6.127453e+05	
109	5.450000e+00	6.197665e+05	
110	5.500000e+00	6.267739e+05	
111	5.550000e+00	6.337676e+05	
112	5.600000e+00	6.407477e+05	

Index   v-sweep         rds             
--------------------------------------------------------------------------------
113	5.650000e+00	6.477141e+05	
114	5.700000e+00	6.546669e+05	
115	5.750000e+00	6.616062e+05	
116	5.800000e+00	6.685319e+05	
117	5.850000e+00	6.754441e+05	
118	5.900000e+00	6.823429e+05	
119	5.950000e+00	6.892281e+05	
120	6.000000e+00	6.961000e+05	
121	6.050000e+00	7.029585e+05	
122	6.100000e+00	7.098036e+05	
123	6.150000e+00	7.166354e+05	
124	6.200000e+00	7.234539e+05	
125	6.250000e+00	7.302592e+05	
126	6.300000e+00	7.370512e+05	
127	6.350000e+00	7.438300e+05	
128	6.400000e+00	7.505956e+05	
129	6.450000e+00	7.573482e+05	
130	6.500000e+00	7.640876e+05	
131	6.550000e+00	7.708139e+05	
132	6.600000e+00	7.775272e+05	
Reset re-loads circuit ***************************

Circuit: ***************************

Doing analysis at TEMP = -40.000000 and TNOM = -40.000000


No. of Data Rows : 133
                          ***************************
                          DC transfer characteristic  Mon Jan  9 13:58:06  2023
--------------------------------------------------------------------------------
Index   v-sweep         rds             
--------------------------------------------------------------------------------
0	0.000000e+00	6.763245e+03	
1	5.000000e-02	6.900843e+03	
2	1.000000e-01	7.042586e+03	
3	1.500000e-01	7.188664e+03	
4	2.000000e-01	7.339275e+03	
5	2.500000e-01	7.494629e+03	
6	3.000000e-01	7.654954e+03	
7	3.500000e-01	7.820486e+03	
8	4.000000e-01	7.991484e+03	
9	4.500000e-01	8.168218e+03	
10	5.000000e-01	8.350980e+03	
11	5.500000e-01	8.540083e+03	
12	6.000000e-01	8.735859e+03	
13	6.500000e-01	8.938667e+03	
14	7.000000e-01	9.148892e+03	
15	7.500000e-01	9.366947e+03	
16	8.000000e-01	9.593278e+03	
17	8.500000e-01	9.828365e+03	
18	9.000000e-01	1.007273e+04	
19	9.500000e-01	1.032693e+04	
20	1.000000e+00	1.059159e+04	
21	1.050000e+00	1.086737e+04	
22	1.100000e+00	1.115499e+04	
23	1.150000e+00	1.145527e+04	
24	1.200000e+00	1.176908e+04	
25	1.250000e+00	1.209743e+04	
26	1.300000e+00	1.244143e+04	
27	1.350000e+00	1.280236e+04	
28	1.400000e+00	1.318173e+04	
29	1.450000e+00	1.358137e+04	
30	1.500000e+00	1.400358e+04	
31	1.550000e+00	1.445145e+04	
32	1.600000e+00	1.492942e+04	
33	1.650000e+00	1.544438e+04	
34	1.700000e+00	1.600792e+04	
35	1.750000e+00	1.664101e+04	
36	1.800000e+00	1.738329e+04	
37	1.850000e+00	1.830998e+04	
38	1.900000e+00	1.955365e+04	
39	1.950000e+00	2.130497e+04	
40	2.000000e+00	2.374327e+04	
41	2.050000e+00	2.691889e+04	
42	2.100000e+00	3.072492e+04	
43	2.150000e+00	3.498760e+04	
44	2.200000e+00	3.955257e+04	
45	2.250000e+00	4.431123e+04	
46	2.300000e+00	4.919394e+04	
47	2.350000e+00	5.415712e+04	
48	2.400000e+00	5.917336e+04	
49	2.450000e+00	6.422505e+04	
50	2.500000e+00	6.930058e+04	
51	2.550000e+00	7.439208e+04	
52	2.600000e+00	7.949411e+04	
53	2.650000e+00	8.460278e+04	
54	2.700000e+00	8.971528e+04	

Index   v-sweep         rds             
--------------------------------------------------------------------------------
55	2.750000e+00	9.482951e+04	
56	2.800000e+00	9.994388e+04	
57	2.850000e+00	1.050572e+05	
58	2.900000e+00	1.101685e+05	
59	2.950000e+00	1.152771e+05	
60	3.000000e+00	1.203823e+05	
61	3.050000e+00	1.254837e+05	
62	3.100000e+00	1.305808e+05	
63	3.150000e+00	1.356735e+05	
64	3.200000e+00	1.407613e+05	
65	3.250000e+00	1.458441e+05	
66	3.300000e+00	1.509216e+05	
67	3.350000e+00	1.559938e+05	
68	3.400000e+00	1.610604e+05	
69	3.450000e+00	1.661214e+05	
70	3.500000e+00	1.711767e+05	
71	3.550000e+00	1.762261e+05	
72	3.600000e+00	1.812696e+05	
73	3.650000e+00	1.863072e+05	
74	3.700000e+00	1.913387e+05	
75	3.750000e+00	1.963642e+05	
76	3.800000e+00	2.013835e+05	
77	3.850000e+00	2.063967e+05	
78	3.900000e+00	2.114037e+05	
79	3.950000e+00	2.164045e+05	
80	4.000000e+00	2.213990e+05	
81	4.050000e+00	2.263873e+05	
82	4.100000e+00	2.313693e+05	
83	4.150000e+00	2.363450e+05	
84	4.200000e+00	2.413143e+05	
85	4.250000e+00	2.462773e+05	
86	4.300000e+00	2.512340e+05	
87	4.350000e+00	2.561844e+05	
88	4.400000e+00	2.611283e+05	
89	4.450000e+00	2.660659e+05	
90	4.500000e+00	2.709971e+05	
91	4.550000e+00	2.759220e+05	
92	4.600000e+00	2.808405e+05	
93	4.650000e+00	2.857525e+05	
94	4.700000e+00	2.906582e+05	
95	4.750000e+00	2.955575e+05	
96	4.800000e+00	3.004505e+05	
97	4.850000e+00	3.053370e+05	
98	4.900000e+00	3.102171e+05	
99	4.950000e+00	3.150909e+05	
100	5.000000e+00	3.199583e+05	
101	5.050000e+00	3.248193e+05	
102	5.100000e+00	3.296739e+05	
103	5.150000e+00	3.345221e+05	
104	5.200000e+00	3.393640e+05	
105	5.250000e+00	3.441995e+05	
106	5.300000e+00	3.490286e+05	
107	5.350000e+00	3.538514e+05	
108	5.400000e+00	3.586679e+05	
109	5.450000e+00	3.634779e+05	
110	5.500000e+00	3.682817e+05	
111	5.550000e+00	3.730791e+05	
112	5.600000e+00	3.778701e+05	

Index   v-sweep         rds             
--------------------------------------------------------------------------------
113	5.650000e+00	3.826549e+05	
114	5.700000e+00	3.874333e+05	
115	5.750000e+00	3.922054e+05	
116	5.800000e+00	3.969712e+05	
117	5.850000e+00	4.017307e+05	
118	5.900000e+00	4.064839e+05	
119	5.950000e+00	4.112308e+05	
120	6.000000e+00	4.159714e+05	
121	6.050000e+00	4.207058e+05	
122	6.100000e+00	4.254339e+05	
123	6.150000e+00	4.301557e+05	
124	6.200000e+00	4.348713e+05	
125	6.250000e+00	4.395806e+05	
126	6.300000e+00	4.442837e+05	
127	6.350000e+00	4.489806e+05	
128	6.400000e+00	4.536712e+05	
129	6.450000e+00	4.583557e+05	
130	6.500000e+00	4.630339e+05	
131	6.550000e+00	4.677060e+05	
132	6.600000e+00	4.723718e+05	
Reset re-loads circuit ***************************

Circuit: ***************************

Doing analysis at TEMP = -40.000000 and TNOM = -40.000000


No. of Data Rows : 133
                          ***************************
                          DC transfer characteristic  Mon Jan  9 13:58:06  2023
--------------------------------------------------------------------------------
Index   v-sweep         rds             
--------------------------------------------------------------------------------
0	0.000000e+00	5.856641e+03	
1	5.000000e-02	5.951583e+03	
2	1.000000e-01	6.048660e+03	
3	1.500000e-01	6.147944e+03	
4	2.000000e-01	6.249508e+03	
5	2.500000e-01	6.353431e+03	
6	3.000000e-01	6.459794e+03	
7	3.500000e-01	6.568682e+03	
8	4.000000e-01	6.680185e+03	
9	4.500000e-01	6.794397e+03	
10	5.000000e-01	6.911417e+03	
11	5.500000e-01	7.031347e+03	
12	6.000000e-01	7.154296e+03	
13	6.500000e-01	7.280379e+03	
14	7.000000e-01	7.409717e+03	
15	7.500000e-01	7.542435e+03	
16	8.000000e-01	7.678668e+03	
17	8.500000e-01	7.818557e+03	
18	9.000000e-01	7.962250e+03	
19	9.500000e-01	8.109904e+03	
20	1.000000e+00	8.261686e+03	
21	1.050000e+00	8.417771e+03	
22	1.100000e+00	8.578347e+03	
23	1.150000e+00	8.743610e+03	
24	1.200000e+00	8.913772e+03	
25	1.250000e+00	9.089055e+03	
26	1.300000e+00	9.269700e+03	
27	1.350000e+00	9.455961e+03	
28	1.400000e+00	9.648112e+03	
29	1.450000e+00	9.846450e+03	
30	1.500000e+00	1.005129e+04	
31	1.550000e+00	1.026299e+04	
32	1.600000e+00	1.048194e+04	
33	1.650000e+00	1.070855e+04	
34	1.700000e+00	1.094332e+04	
35	1.750000e+00	1.118681e+04	
36	1.800000e+00	1.143970e+04	
37	1.850000e+00	1.170283e+04	
38	1.900000e+00	1.197727e+04	
39	1.950000e+00	1.226449e+04	
40	2.000000e+00	1.256663e+04	
41	2.050000e+00	1.288694e+04	
42	2.100000e+00	1.323071e+04	
43	2.150000e+00	1.360695e+04	
44	2.200000e+00	1.403163e+04	
45	2.250000e+00	1.453361e+04	
46	2.300000e+00	1.516415e+04	
47	2.350000e+00	1.600780e+04	
48	2.400000e+00	1.718189e+04	
49	2.450000e+00	1.880291e+04	
50	2.500000e+00	2.092503e+04	
51	2.550000e+00	2.350957e+04	
52	2.600000e+00	2.645858e+04	
53	2.650000e+00	2.966743e+04	
54	2.700000e+00	3.305274e+04	

Index   v-sweep         rds             
--------------------------------------------------------------------------------
55	2.750000e+00	3.655620e+04	
56	2.800000e+00	4.013916e+04	
57	2.850000e+00	4.377632e+04	
58	2.900000e+00	4.745100e+04	
59	2.950000e+00	5.115202e+04	
60	3.000000e+00	5.487171e+04	
61	3.050000e+00	5.860473e+04	
62	3.100000e+00	6.234725e+04	
63	3.150000e+00	6.609648e+04	
64	3.200000e+00	6.985034e+04	
65	3.250000e+00	7.360729e+04	
66	3.300000e+00	7.736611e+04	
67	3.350000e+00	8.112588e+04	
68	3.400000e+00	8.488586e+04	
69	3.450000e+00	8.864546e+04	
70	3.500000e+00	9.240420e+04	
71	3.550000e+00	9.616170e+04	
72	3.600000e+00	9.991764e+04	
73	3.650000e+00	1.036718e+05	
74	3.700000e+00	1.074238e+05	
75	3.750000e+00	1.111736e+05	
76	3.800000e+00	1.149211e+05	
77	3.850000e+00	1.186660e+05	
78	3.900000e+00	1.224083e+05	
79	3.950000e+00	1.261478e+05	
80	4.000000e+00	1.298845e+05	
81	4.050000e+00	1.336183e+05	
82	4.100000e+00	1.373491e+05	
83	4.150000e+00	1.410769e+05	
84	4.200000e+00	1.448016e+05	
85	4.250000e+00	1.485231e+05	
86	4.300000e+00	1.522415e+05	
87	4.350000e+00	1.559567e+05	
88	4.400000e+00	1.596687e+05	
89	4.450000e+00	1.633773e+05	
90	4.500000e+00	1.670827e+05	
91	4.550000e+00	1.707848e+05	
92	4.600000e+00	1.744836e+05	
93	4.650000e+00	1.781789e+05	
94	4.700000e+00	1.818710e+05	
95	4.750000e+00	1.855596e+05	
96	4.800000e+00	1.892448e+05	
97	4.850000e+00	1.929266e+05	
98	4.900000e+00	1.966050e+05	
99	4.950000e+00	2.002800e+05	
100	5.000000e+00	2.039515e+05	
101	5.050000e+00	2.076195e+05	
102	5.100000e+00	2.112841e+05	
103	5.150000e+00	2.149453e+05	
104	5.200000e+00	2.186029e+05	
105	5.250000e+00	2.222571e+05	
106	5.300000e+00	2.259078e+05	
107	5.350000e+00	2.295551e+05	
108	5.400000e+00	2.331988e+05	
109	5.450000e+00	2.368390e+05	
110	5.500000e+00	2.404758e+05	
111	5.550000e+00	2.441090e+05	
112	5.600000e+00	2.477388e+05	

Index   v-sweep         rds             
--------------------------------------------------------------------------------
113	5.650000e+00	2.513650e+05	
114	5.700000e+00	2.549878e+05	
115	5.750000e+00	2.586070e+05	
116	5.800000e+00	2.622227e+05	
117	5.850000e+00	2.658349e+05	
118	5.900000e+00	2.694437e+05	
119	5.950000e+00	2.730489e+05	
120	6.000000e+00	2.766506e+05	
121	6.050000e+00	2.802488e+05	
122	6.100000e+00	2.838435e+05	
123	6.150000e+00	2.874346e+05	
124	6.200000e+00	2.910223e+05	
125	6.250000e+00	2.946065e+05	
126	6.300000e+00	2.981872e+05	
127	6.350000e+00	3.017643e+05	
128	6.400000e+00	3.053380e+05	
129	6.450000e+00	3.089082e+05	
130	6.500000e+00	3.124748e+05	
131	6.550000e+00	3.160380e+05	
132	6.600000e+00	3.195977e+05	
Reset re-loads circuit ***************************

Circuit: ***************************

Doing analysis at TEMP = -40.000000 and TNOM = -40.000000


No. of Data Rows : 133
                          ***************************
                          DC transfer characteristic  Mon Jan  9 13:58:06  2023
--------------------------------------------------------------------------------
Index   v-sweep         rds             
--------------------------------------------------------------------------------
0	0.000000e+00	5.338199e+03	
1	5.000000e-02	5.409907e+03	
2	1.000000e-01	5.482883e+03	
3	1.500000e-01	5.557161e+03	
4	2.000000e-01	5.632776e+03	
5	2.500000e-01	5.709761e+03	
6	3.000000e-01	5.788155e+03	
7	3.500000e-01	5.867994e+03	
8	4.000000e-01	5.949319e+03	
9	4.500000e-01	6.032170e+03	
10	5.000000e-01	6.116590e+03	
11	5.500000e-01	6.202622e+03	
12	6.000000e-01	6.290313e+03	
13	6.500000e-01	6.379710e+03	
14	7.000000e-01	6.470862e+03	
15	7.500000e-01	6.563822e+03	
16	8.000000e-01	6.658643e+03	
17	8.500000e-01	6.755381e+03	
18	9.000000e-01	6.854094e+03	
19	9.500000e-01	6.954843e+03	
20	1.000000e+00	7.057692e+03	
21	1.050000e+00	7.162707e+03	
22	1.100000e+00	7.269956e+03	
23	1.150000e+00	7.379513e+03	
24	1.200000e+00	7.491452e+03	
25	1.250000e+00	7.605853e+03	
26	1.300000e+00	7.722797e+03	
27	1.350000e+00	7.842372e+03	
28	1.400000e+00	7.964669e+03	
29	1.450000e+00	8.089782e+03	
30	1.500000e+00	8.217811e+03	
31	1.550000e+00	8.348862e+03	
32	1.600000e+00	8.483045e+03	
33	1.650000e+00	8.620479e+03	
34	1.700000e+00	8.761287e+03	
35	1.750000e+00	8.905601e+03	
36	1.800000e+00	9.053562e+03	
37	1.850000e+00	9.205322e+03	
38	1.900000e+00	9.361046e+03	
39	1.950000e+00	9.520911e+03	
40	2.000000e+00	9.685117e+03	
41	2.050000e+00	9.853885e+03	
42	2.100000e+00	1.002747e+04	
43	2.150000e+00	1.020617e+04	
44	2.200000e+00	1.039034e+04	
45	2.250000e+00	1.058044e+04	
46	2.300000e+00	1.077705e+04	
47	2.350000e+00	1.098096e+04	
48	2.400000e+00	1.119330e+04	
49	2.450000e+00	1.141574e+04	
50	2.500000e+00	1.165088e+04	
51	2.550000e+00	1.190287e+04	
52	2.600000e+00	1.217870e+04	
53	2.650000e+00	1.249023e+04	
54	2.700000e+00	1.285796e+04	

Index   v-sweep         rds             
--------------------------------------------------------------------------------
55	2.750000e+00	1.331655e+04	
56	2.800000e+00	1.392114e+04	
57	2.850000e+00	1.474828e+04	
58	2.900000e+00	1.588052e+04	
59	2.950000e+00	1.737247e+04	
60	3.000000e+00	1.922266e+04	
61	3.050000e+00	2.137940e+04	
62	3.100000e+00	2.377095e+04	
63	3.150000e+00	2.633093e+04	
64	3.200000e+00	2.900820e+04	
65	3.250000e+00	3.176664e+04	
66	3.300000e+00	3.458160e+04	
67	3.350000e+00	3.743640e+04	
68	3.400000e+00	4.031969e+04	
69	3.450000e+00	4.322362e+04	
70	3.500000e+00	4.614267e+04	
71	3.550000e+00	4.907288e+04	
72	3.600000e+00	5.201139e+04	
73	3.650000e+00	5.495606e+04	
74	3.700000e+00	5.790527e+04	
75	3.750000e+00	6.085779e+04	
76	3.800000e+00	6.381268e+04	
77	3.850000e+00	6.676917e+04	
78	3.900000e+00	6.972667e+04	
79	3.950000e+00	7.268470e+04	
80	4.000000e+00	7.564286e+04	
81	4.050000e+00	7.860083e+04	
82	4.100000e+00	8.155836e+04	
83	4.150000e+00	8.451521e+04	
84	4.200000e+00	8.747120e+04	
85	4.250000e+00	9.042617e+04	
86	4.300000e+00	9.337998e+04	
87	4.350000e+00	9.633252e+04	
88	4.400000e+00	9.928370e+04	
89	4.450000e+00	1.022334e+05	
90	4.500000e+00	1.051816e+05	
91	4.550000e+00	1.081282e+05	
92	4.600000e+00	1.110731e+05	
93	4.650000e+00	1.140163e+05	
94	4.700000e+00	1.169578e+05	
95	4.750000e+00	1.198975e+05	
96	4.800000e+00	1.228353e+05	
97	4.850000e+00	1.257713e+05	
98	4.900000e+00	1.287053e+05	
99	4.950000e+00	1.316375e+05	
100	5.000000e+00	1.345677e+05	
101	5.050000e+00	1.374960e+05	
102	5.100000e+00	1.404223e+05	
103	5.150000e+00	1.433466e+05	
104	5.200000e+00	1.462688e+05	
105	5.250000e+00	1.491891e+05	
106	5.300000e+00	1.521072e+05	
107	5.350000e+00	1.550234e+05	
108	5.400000e+00	1.579374e+05	
109	5.450000e+00	1.608494e+05	
110	5.500000e+00	1.637593e+05	
111	5.550000e+00	1.666671e+05	
112	5.600000e+00	1.695728e+05	

Index   v-sweep         rds             
--------------------------------------------------------------------------------
113	5.650000e+00	1.724764e+05	
114	5.700000e+00	1.753779e+05	
115	5.750000e+00	1.782773e+05	
116	5.800000e+00	1.811745e+05	
117	5.850000e+00	1.840696e+05	
118	5.900000e+00	1.869626e+05	
119	5.950000e+00	1.898534e+05	
120	6.000000e+00	1.927420e+05	
121	6.050000e+00	1.956286e+05	
122	6.100000e+00	1.985129e+05	
123	6.150000e+00	2.013951e+05	
124	6.200000e+00	2.042752e+05	
125	6.250000e+00	2.071530e+05	
126	6.300000e+00	2.100288e+05	
127	6.350000e+00	2.129023e+05	
128	6.400000e+00	2.157737e+05	
129	6.450000e+00	2.186429e+05	
130	6.500000e+00	2.215099e+05	
131	6.550000e+00	2.243748e+05	
132	6.600000e+00	2.272375e+05	
Reset re-loads circuit ***************************

Circuit: ***************************

Note: No ".plot", ".print", or ".fourier" lines; no simulations run
