
Note: Compatibility modes selected: hs

Warning: m=xx on .subckt line will override multiplier m hierarchy!


Circuit: ***************************

Doing analysis at TEMP = 125.000000 and TNOM = 125.000000


No. of Data Rows : 133
                          ***************************
                          DC transfer characteristic  Mon Jan  9 13:58:06  2023
--------------------------------------------------------------------------------
Index   v-sweep         rds             
--------------------------------------------------------------------------------
0	0.000000e+00	2.794324e+05	
1	5.000000e-02	3.130648e+05	
2	1.000000e-01	3.557652e+05	
3	1.500000e-01	4.117583e+05	
4	2.000000e-01	4.883519e+05	
5	2.500000e-01	5.993160e+05	
6	3.000000e-01	7.737233e+05	
7	3.500000e-01	1.082906e+06	
8	4.000000e-01	1.734288e+06	
9	4.500000e-01	3.337783e+06	
10	5.000000e-01	6.641241e+06	
11	5.500000e-01	1.050313e+07	
12	6.000000e-01	1.359608e+07	
13	6.500000e-01	1.603228e+07	
14	7.000000e-01	1.813110e+07	
15	7.500000e-01	2.006457e+07	
16	8.000000e-01	2.191244e+07	
17	8.500000e-01	2.371273e+07	
18	9.000000e-01	2.548479e+07	
19	9.500000e-01	2.723910e+07	
20	1.000000e+00	2.898170e+07	
21	1.050000e+00	3.071624e+07	
22	1.100000e+00	3.244503e+07	
23	1.150000e+00	3.416959e+07	
24	1.200000e+00	3.589095e+07	
25	1.250000e+00	3.760982e+07	
26	1.300000e+00	3.932672e+07	
27	1.350000e+00	4.104202e+07	
28	1.400000e+00	4.275599e+07	
29	1.450000e+00	4.446886e+07	
30	1.500000e+00	4.618078e+07	
31	1.550000e+00	4.789188e+07	
32	1.600000e+00	4.960226e+07	
33	1.650000e+00	5.131200e+07	
34	1.700000e+00	5.302116e+07	
35	1.750000e+00	5.472979e+07	
36	1.800000e+00	5.643795e+07	
37	1.850000e+00	5.814566e+07	
38	1.900000e+00	5.985295e+07	
39	1.950000e+00	6.155986e+07	
40	2.000000e+00	6.326639e+07	
41	2.050000e+00	6.497257e+07	
42	2.100000e+00	6.667842e+07	
43	2.150000e+00	6.838394e+07	
44	2.200000e+00	7.008916e+07	
45	2.250000e+00	7.179407e+07	
46	2.300000e+00	7.349868e+07	
47	2.350000e+00	7.520301e+07	
48	2.400000e+00	7.690706e+07	
49	2.450000e+00	7.861084e+07	
50	2.500000e+00	8.031435e+07	
51	2.550000e+00	8.201760e+07	
52	2.600000e+00	8.372059e+07	
53	2.650000e+00	8.542332e+07	
54	2.700000e+00	8.712580e+07	

Index   v-sweep         rds             
--------------------------------------------------------------------------------
55	2.750000e+00	8.882803e+07	
56	2.800000e+00	9.053001e+07	
57	2.850000e+00	9.223174e+07	
58	2.900000e+00	9.393324e+07	
59	2.950000e+00	9.563449e+07	
60	3.000000e+00	9.733550e+07	
61	3.050000e+00	9.903628e+07	
62	3.100000e+00	1.007368e+08	
63	3.150000e+00	1.024371e+08	
64	3.200000e+00	1.041372e+08	
65	3.250000e+00	1.058370e+08	
66	3.300000e+00	1.075366e+08	
67	3.350000e+00	1.092360e+08	
68	3.400000e+00	1.109352e+08	
69	3.450000e+00	1.126341e+08	
70	3.500000e+00	1.143328e+08	
71	3.550000e+00	1.160312e+08	
72	3.600000e+00	1.177295e+08	
73	3.650000e+00	1.194275e+08	
74	3.700000e+00	1.211253e+08	
75	3.750000e+00	1.228228e+08	
76	3.800000e+00	1.245201e+08	
77	3.850000e+00	1.262172e+08	
78	3.900000e+00	1.279141e+08	
79	3.950000e+00	1.296108e+08	
80	4.000000e+00	1.313072e+08	
81	4.050000e+00	1.330034e+08	
82	4.100000e+00	1.346994e+08	
83	4.150000e+00	1.363952e+08	
84	4.200000e+00	1.380907e+08	
85	4.250000e+00	1.397860e+08	
86	4.300000e+00	1.414811e+08	
87	4.350000e+00	1.431760e+08	
88	4.400000e+00	1.448707e+08	
89	4.450000e+00	1.465651e+08	
90	4.500000e+00	1.482593e+08	
91	4.550000e+00	1.499533e+08	
92	4.600000e+00	1.516471e+08	
93	4.650000e+00	1.533406e+08	
94	4.700000e+00	1.550339e+08	
95	4.750000e+00	1.567270e+08	
96	4.800000e+00	1.584199e+08	
97	4.850000e+00	1.601126e+08	
98	4.900000e+00	1.618050e+08	
99	4.950000e+00	1.634973e+08	
100	5.000000e+00	1.651893e+08	
101	5.050000e+00	1.668811e+08	
102	5.100000e+00	1.685726e+08	
103	5.150000e+00	1.702640e+08	
104	5.200000e+00	1.719551e+08	
105	5.250000e+00	1.736460e+08	
106	5.300000e+00	1.753367e+08	
107	5.350000e+00	1.770271e+08	
108	5.400000e+00	1.787174e+08	
109	5.450000e+00	1.804074e+08	
110	5.500000e+00	1.820972e+08	
111	5.550000e+00	1.837868e+08	
112	5.600000e+00	1.854762e+08	

Index   v-sweep         rds             
--------------------------------------------------------------------------------
113	5.650000e+00	1.871653e+08	
114	5.700000e+00	1.888542e+08	
115	5.750000e+00	1.905429e+08	
116	5.800000e+00	1.922314e+08	
117	5.850000e+00	1.939197e+08	
118	5.900000e+00	1.956078e+08	
119	5.950000e+00	1.972956e+08	
120	6.000000e+00	1.989832e+08	
121	6.050000e+00	2.006706e+08	
122	6.100000e+00	2.023578e+08	
123	6.150000e+00	2.040447e+08	
124	6.200000e+00	2.057315e+08	
125	6.250000e+00	2.074180e+08	
126	6.300000e+00	2.091043e+08	
127	6.350000e+00	2.107904e+08	
128	6.400000e+00	2.124762e+08	
129	6.450000e+00	2.141619e+08	
130	6.500000e+00	2.158473e+08	
131	6.550000e+00	2.175325e+08	
132	6.600000e+00	2.192175e+08	
Reset re-loads circuit ***************************

Circuit: ***************************

Doing analysis at TEMP = 125.000000 and TNOM = 125.000000


No. of Data Rows : 133
                          ***************************
                          DC transfer characteristic  Mon Jan  9 13:58:06  2023
--------------------------------------------------------------------------------
Index   v-sweep         rds             
--------------------------------------------------------------------------------
0	0.000000e+00	9.411960e+04	
1	5.000000e-02	9.731257e+04	
2	1.000000e-01	1.007203e+05	
3	1.500000e-01	1.043652e+05	
4	2.000000e-01	1.082730e+05	
5	2.500000e-01	1.124731e+05	
6	3.000000e-01	1.169995e+05	
7	3.500000e-01	1.218918e+05	
8	4.000000e-01	1.271963e+05	
9	4.500000e-01	1.329673e+05	
10	5.000000e-01	1.392691e+05	
11	5.500000e-01	1.461785e+05	
12	6.000000e-01	1.537876e+05	
13	6.500000e-01	1.622084e+05	
14	7.000000e-01	1.715779e+05	
15	7.500000e-01	1.820657e+05	
16	8.000000e-01	1.938844e+05	
17	8.500000e-01	2.073038e+05	
18	9.000000e-01	2.226718e+05	
19	9.500000e-01	2.404440e+05	
20	1.000000e+00	2.612290e+05	
21	1.050000e+00	2.858568e+05	
22	1.100000e+00	3.154869e+05	
23	1.150000e+00	3.517834e+05	
24	1.200000e+00	3.972028e+05	
25	1.250000e+00	4.554750e+05	
26	1.300000e+00	5.323739e+05	
27	1.350000e+00	6.367479e+05	
28	1.400000e+00	7.809019e+05	
29	1.450000e+00	9.766940e+05	
30	1.500000e+00	1.222967e+06	
31	1.550000e+00	1.497004e+06	
32	1.600000e+00	1.771990e+06	
33	1.650000e+00	2.036093e+06	
34	1.700000e+00	2.289221e+06	
35	1.750000e+00	2.534467e+06	
36	1.800000e+00	2.774568e+06	
37	1.850000e+00	3.011362e+06	
38	1.900000e+00	3.245999e+06	
39	1.950000e+00	3.479194e+06	
40	2.000000e+00	3.711395e+06	
41	2.050000e+00	3.942894e+06	
42	2.100000e+00	4.173884e+06	
43	2.150000e+00	4.404493e+06	
44	2.200000e+00	4.634815e+06	
45	2.250000e+00	4.864913e+06	
46	2.300000e+00	5.094835e+06	
47	2.350000e+00	5.324615e+06	
48	2.400000e+00	5.554279e+06	
49	2.450000e+00	5.783847e+06	
50	2.500000e+00	6.013335e+06	
51	2.550000e+00	6.242754e+06	
52	2.600000e+00	6.472115e+06	
53	2.650000e+00	6.701424e+06	
54	2.700000e+00	6.930688e+06	

Index   v-sweep         rds             
--------------------------------------------------------------------------------
55	2.750000e+00	7.159912e+06	
56	2.800000e+00	7.389101e+06	
57	2.850000e+00	7.618257e+06	
58	2.900000e+00	7.847383e+06	
59	2.950000e+00	8.076482e+06	
60	3.000000e+00	8.305556e+06	
61	3.050000e+00	8.534607e+06	
62	3.100000e+00	8.763635e+06	
63	3.150000e+00	8.992643e+06	
64	3.200000e+00	9.221632e+06	
65	3.250000e+00	9.450602e+06	
66	3.300000e+00	9.679553e+06	
67	3.350000e+00	9.908488e+06	
68	3.400000e+00	1.013741e+07	
69	3.450000e+00	1.036631e+07	
70	3.500000e+00	1.059520e+07	
71	3.550000e+00	1.082407e+07	
72	3.600000e+00	1.105292e+07	
73	3.650000e+00	1.128177e+07	
74	3.700000e+00	1.151060e+07	
75	3.750000e+00	1.173941e+07	
76	3.800000e+00	1.196821e+07	
77	3.850000e+00	1.219700e+07	
78	3.900000e+00	1.242578e+07	
79	3.950000e+00	1.265454e+07	
80	4.000000e+00	1.288329e+07	
81	4.050000e+00	1.311202e+07	
82	4.100000e+00	1.334075e+07	
83	4.150000e+00	1.356946e+07	
84	4.200000e+00	1.379816e+07	
85	4.250000e+00	1.402685e+07	
86	4.300000e+00	1.425552e+07	
87	4.350000e+00	1.448419e+07	
88	4.400000e+00	1.471284e+07	
89	4.450000e+00	1.494148e+07	
90	4.500000e+00	1.517011e+07	
91	4.550000e+00	1.539872e+07	
92	4.600000e+00	1.562733e+07	
93	4.650000e+00	1.585592e+07	
94	4.700000e+00	1.608450e+07	
95	4.750000e+00	1.631307e+07	
96	4.800000e+00	1.654163e+07	
97	4.850000e+00	1.677018e+07	
98	4.900000e+00	1.699871e+07	
99	4.950000e+00	1.722724e+07	
100	5.000000e+00	1.745575e+07	
101	5.050000e+00	1.768425e+07	
102	5.100000e+00	1.791274e+07	
103	5.150000e+00	1.814122e+07	
104	5.200000e+00	1.836969e+07	
105	5.250000e+00	1.859814e+07	
106	5.300000e+00	1.882659e+07	
107	5.350000e+00	1.905502e+07	
108	5.400000e+00	1.928345e+07	
109	5.450000e+00	1.951186e+07	
110	5.500000e+00	1.974026e+07	
111	5.550000e+00	1.996865e+07	
112	5.600000e+00	2.019702e+07	

Index   v-sweep         rds             
--------------------------------------------------------------------------------
113	5.650000e+00	2.042539e+07	
114	5.700000e+00	2.065375e+07	
115	5.750000e+00	2.088209e+07	
116	5.800000e+00	2.111042e+07	
117	5.850000e+00	2.133874e+07	
118	5.900000e+00	2.156706e+07	
119	5.950000e+00	2.179536e+07	
120	6.000000e+00	2.202364e+07	
121	6.050000e+00	2.225192e+07	
122	6.100000e+00	2.248019e+07	
123	6.150000e+00	2.270844e+07	
124	6.200000e+00	2.293669e+07	
125	6.250000e+00	2.316492e+07	
126	6.300000e+00	2.339314e+07	
127	6.350000e+00	2.362136e+07	
128	6.400000e+00	2.384956e+07	
129	6.450000e+00	2.407774e+07	
130	6.500000e+00	2.430592e+07	
131	6.550000e+00	2.453409e+07	
132	6.600000e+00	2.476225e+07	
Reset re-loads circuit ***************************

Circuit: ***************************

Doing analysis at TEMP = 125.000000 and TNOM = 125.000000


No. of Data Rows : 133
                          ***************************
                          DC transfer characteristic  Mon Jan  9 13:58:06  2023
--------------------------------------------------------------------------------
Index   v-sweep         rds             
--------------------------------------------------------------------------------
0	0.000000e+00	6.388311e+04	
1	5.000000e-02	6.512198e+04	
2	1.000000e-01	6.640655e+04	
3	1.500000e-01	6.773938e+04	
4	2.000000e-01	6.912325e+04	
5	2.500000e-01	7.056114e+04	
6	3.000000e-01	7.205627e+04	
7	3.500000e-01	7.361215e+04	
8	4.000000e-01	7.523253e+04	
9	4.500000e-01	7.692151e+04	
10	5.000000e-01	7.868355e+04	
11	5.500000e-01	8.052349e+04	
12	6.000000e-01	8.244660e+04	
13	6.500000e-01	8.445865e+04	
14	7.000000e-01	8.656596e+04	
15	7.500000e-01	8.877545e+04	
16	8.000000e-01	9.109474e+04	
17	8.500000e-01	9.353221e+04	
18	9.000000e-01	9.609714e+04	
19	9.500000e-01	9.879977e+04	
20	1.000000e+00	1.016515e+05	
21	1.050000e+00	1.046650e+05	
22	1.100000e+00	1.078545e+05	
23	1.150000e+00	1.112358e+05	
24	1.200000e+00	1.148267e+05	
25	1.250000e+00	1.186474e+05	
26	1.300000e+00	1.227206e+05	
27	1.350000e+00	1.270722e+05	
28	1.400000e+00	1.317317e+05	
29	1.450000e+00	1.367330e+05	
30	1.500000e+00	1.421151e+05	
31	1.550000e+00	1.479232e+05	
32	1.600000e+00	1.542098e+05	
33	1.650000e+00	1.610366e+05	
34	1.700000e+00	1.684761e+05	
35	1.750000e+00	1.766145e+05	
36	1.800000e+00	1.855550e+05	
37	1.850000e+00	1.954219e+05	
38	1.900000e+00	2.063663e+05	
39	1.950000e+00	2.185740e+05	
40	2.000000e+00	2.322752e+05	
41	2.050000e+00	2.477588e+05	
42	2.100000e+00	2.653914e+05	
43	2.150000e+00	2.856432e+05	
44	2.200000e+00	3.091240e+05	
45	2.250000e+00	3.366302e+05	
46	2.300000e+00	3.692015e+05	
47	2.350000e+00	4.081705e+05	
48	2.400000e+00	4.551507e+05	
49	2.450000e+00	5.118283e+05	
50	2.500000e+00	5.793693e+05	
51	2.550000e+00	6.575161e+05	
52	2.600000e+00	7.441737e+05	
53	2.650000e+00	8.362865e+05	
54	2.700000e+00	9.312324e+05	

Index   v-sweep         rds             
--------------------------------------------------------------------------------
55	2.750000e+00	1.027416e+06	
56	2.800000e+00	1.124063e+06	
57	2.850000e+00	1.220847e+06	
58	2.900000e+00	1.317644e+06	
59	2.950000e+00	1.414413e+06	
60	3.000000e+00	1.511145e+06	
61	3.050000e+00	1.607842e+06	
62	3.100000e+00	1.704509e+06	
63	3.150000e+00	1.801150e+06	
64	3.200000e+00	1.897770e+06	
65	3.250000e+00	1.994374e+06	
66	3.300000e+00	2.090963e+06	
67	3.350000e+00	2.187541e+06	
68	3.400000e+00	2.284109e+06	
69	3.450000e+00	2.380669e+06	
70	3.500000e+00	2.477221e+06	
71	3.550000e+00	2.573767e+06	
72	3.600000e+00	2.670307e+06	
73	3.650000e+00	2.766842e+06	
74	3.700000e+00	2.863373e+06	
75	3.750000e+00	2.959899e+06	
76	3.800000e+00	3.056422e+06	
77	3.850000e+00	3.152940e+06	
78	3.900000e+00	3.249455e+06	
79	3.950000e+00	3.345967e+06	
80	4.000000e+00	3.442475e+06	
81	4.050000e+00	3.538981e+06	
82	4.100000e+00	3.635483e+06	
83	4.150000e+00	3.731982e+06	
84	4.200000e+00	3.828478e+06	
85	4.250000e+00	3.924972e+06	
86	4.300000e+00	4.021463e+06	
87	4.350000e+00	4.117950e+06	
88	4.400000e+00	4.214436e+06	
89	4.450000e+00	4.310918e+06	
90	4.500000e+00	4.407398e+06	
91	4.550000e+00	4.503875e+06	
92	4.600000e+00	4.600349e+06	
93	4.650000e+00	4.696821e+06	
94	4.700000e+00	4.793290e+06	
95	4.750000e+00	4.889756e+06	
96	4.800000e+00	4.986220e+06	
97	4.850000e+00	5.082681e+06	
98	4.900000e+00	5.179140e+06	
99	4.950000e+00	5.275595e+06	
100	5.000000e+00	5.372049e+06	
101	5.050000e+00	5.468499e+06	
102	5.100000e+00	5.564947e+06	
103	5.150000e+00	5.661392e+06	
104	5.200000e+00	5.757835e+06	
105	5.250000e+00	5.854275e+06	
106	5.300000e+00	5.950713e+06	
107	5.350000e+00	6.047147e+06	
108	5.400000e+00	6.143579e+06	
109	5.450000e+00	6.240009e+06	
110	5.500000e+00	6.336436e+06	
111	5.550000e+00	6.432860e+06	
112	5.600000e+00	6.529281e+06	

Index   v-sweep         rds             
--------------------------------------------------------------------------------
113	5.650000e+00	6.625700e+06	
114	5.700000e+00	6.722116e+06	
115	5.750000e+00	6.818530e+06	
116	5.800000e+00	6.914941e+06	
117	5.850000e+00	7.011349e+06	
118	5.900000e+00	7.107755e+06	
119	5.950000e+00	7.204157e+06	
120	6.000000e+00	7.300558e+06	
121	6.050000e+00	7.396955e+06	
122	6.100000e+00	7.493350e+06	
123	6.150000e+00	7.589742e+06	
124	6.200000e+00	7.686132e+06	
125	6.250000e+00	7.782518e+06	
126	6.300000e+00	7.878902e+06	
127	6.350000e+00	7.975284e+06	
128	6.400000e+00	8.071663e+06	
129	6.450000e+00	8.168039e+06	
130	6.500000e+00	8.264412e+06	
131	6.550000e+00	8.360782e+06	
132	6.600000e+00	8.457150e+06	
Reset re-loads circuit ***************************

Circuit: ***************************

Doing analysis at TEMP = 125.000000 and TNOM = 125.000000


No. of Data Rows : 133
                          ***************************
                          DC transfer characteristic  Mon Jan  9 13:58:06  2023
--------------------------------------------------------------------------------
Index   v-sweep         rds             
--------------------------------------------------------------------------------
0	0.000000e+00	5.160738e+04	
1	5.000000e-02	5.229463e+04	
2	1.000000e-01	5.299878e+04	
3	1.500000e-01	5.372046e+04	
4	2.000000e-01	5.446034e+04	
5	2.500000e-01	5.521911e+04	
6	3.000000e-01	5.599750e+04	
7	3.500000e-01	5.679628e+04	
8	4.000000e-01	5.761626e+04	
9	4.500000e-01	5.845831e+04	
10	5.000000e-01	5.932331e+04	
11	5.500000e-01	6.021222e+04	
12	6.000000e-01	6.112606e+04	
13	6.500000e-01	6.206586e+04	
14	7.000000e-01	6.303277e+04	
15	7.500000e-01	6.402797e+04	
16	8.000000e-01	6.505271e+04	
17	8.500000e-01	6.610834e+04	
18	9.000000e-01	6.719627e+04	
19	9.500000e-01	6.831800e+04	
20	1.000000e+00	6.947513e+04	
21	1.050000e+00	7.066937e+04	
22	1.100000e+00	7.190252e+04	
23	1.150000e+00	7.317652e+04	
24	1.200000e+00	7.449344e+04	
25	1.250000e+00	7.585547e+04	
26	1.300000e+00	7.726497e+04	
27	1.350000e+00	7.872448e+04	
28	1.400000e+00	8.023669e+04	
29	1.450000e+00	8.180451e+04	
30	1.500000e+00	8.343107e+04	
31	1.550000e+00	8.511972e+04	
32	1.600000e+00	8.687409e+04	
33	1.650000e+00	8.869810e+04	
34	1.700000e+00	9.059597e+04	
35	1.750000e+00	9.257227e+04	
36	1.800000e+00	9.463197e+04	
37	1.850000e+00	9.678046e+04	
38	1.900000e+00	9.902361e+04	
39	1.950000e+00	1.013678e+05	
40	2.000000e+00	1.038200e+05	
41	2.050000e+00	1.063879e+05	
42	2.100000e+00	1.090799e+05	
43	2.150000e+00	1.119051e+05	
44	2.200000e+00	1.148737e+05	
45	2.250000e+00	1.179970e+05	
46	2.300000e+00	1.212872e+05	
47	2.350000e+00	1.247582e+05	
48	2.400000e+00	1.284252e+05	
49	2.450000e+00	1.323054e+05	
50	2.500000e+00	1.364180e+05	
51	2.550000e+00	1.407843e+05	
52	2.600000e+00	1.454286e+05	
53	2.650000e+00	1.503784e+05	
54	2.700000e+00	1.556647e+05	

Index   v-sweep         rds             
--------------------------------------------------------------------------------
55	2.750000e+00	1.613232e+05	
56	2.800000e+00	1.673945e+05	
57	2.850000e+00	1.739256e+05	
58	2.900000e+00	1.809706e+05	
59	2.950000e+00	1.885926e+05	
60	3.000000e+00	1.968657e+05	
61	3.050000e+00	2.058768e+05	
62	3.100000e+00	2.157293e+05	
63	3.150000e+00	2.265467e+05	
64	3.200000e+00	2.384776e+05	
65	3.250000e+00	2.517029e+05	
66	3.300000e+00	2.664437e+05	
67	3.350000e+00	2.829729e+05	
68	3.400000e+00	3.016281e+05	
69	3.450000e+00	3.228250e+05	
70	3.500000e+00	3.470629e+05	
71	3.550000e+00	3.749047e+05	
72	3.600000e+00	4.068968e+05	
73	3.650000e+00	4.434044e+05	
74	3.700000e+00	4.844107e+05	
75	3.750000e+00	5.294341e+05	
76	3.800000e+00	5.776700e+05	
77	3.850000e+00	6.282541e+05	
78	3.900000e+00	6.804561e+05	
79	3.950000e+00	7.337416e+05	
80	4.000000e+00	7.877481e+05	
81	4.050000e+00	8.422389e+05	
82	4.100000e+00	8.970603e+05	
83	4.150000e+00	9.521122e+05	
84	4.200000e+00	1.007328e+06	
85	4.250000e+00	1.062663e+06	
86	4.300000e+00	1.118087e+06	
87	4.350000e+00	1.173577e+06	
88	4.400000e+00	1.229119e+06	
89	4.450000e+00	1.284700e+06	
90	4.500000e+00	1.340314e+06	
91	4.550000e+00	1.395952e+06	
92	4.600000e+00	1.451611e+06	
93	4.650000e+00	1.507287e+06	
94	4.700000e+00	1.562976e+06	
95	4.750000e+00	1.618677e+06	
96	4.800000e+00	1.674387e+06	
97	4.850000e+00	1.730105e+06	
98	4.900000e+00	1.785830e+06	
99	4.950000e+00	1.841560e+06	
100	5.000000e+00	1.897295e+06	
101	5.050000e+00	1.953035e+06	
102	5.100000e+00	2.008778e+06	
103	5.150000e+00	2.064523e+06	
104	5.200000e+00	2.120272e+06	
105	5.250000e+00	2.176022e+06	
106	5.300000e+00	2.231775e+06	
107	5.350000e+00	2.287528e+06	
108	5.400000e+00	2.343283e+06	
109	5.450000e+00	2.399040e+06	
110	5.500000e+00	2.454797e+06	
111	5.550000e+00	2.510554e+06	
112	5.600000e+00	2.566313e+06	

Index   v-sweep         rds             
--------------------------------------------------------------------------------
113	5.650000e+00	2.622071e+06	
114	5.700000e+00	2.677830e+06	
115	5.750000e+00	2.733589e+06	
116	5.800000e+00	2.789349e+06	
117	5.850000e+00	2.845108e+06	
118	5.900000e+00	2.900867e+06	
119	5.950000e+00	2.956626e+06	
120	6.000000e+00	3.012385e+06	
121	6.050000e+00	3.068144e+06	
122	6.100000e+00	3.123902e+06	
123	6.150000e+00	3.179660e+06	
124	6.200000e+00	3.235417e+06	
125	6.250000e+00	3.291174e+06	
126	6.300000e+00	3.346930e+06	
127	6.350000e+00	3.402686e+06	
128	6.400000e+00	3.458442e+06	
129	6.450000e+00	3.514196e+06	
130	6.500000e+00	3.569950e+06	
131	6.550000e+00	3.625704e+06	
132	6.600000e+00	3.681457e+06	
Reset re-loads circuit ***************************

Circuit: ***************************

Doing analysis at TEMP = 125.000000 and TNOM = 125.000000


No. of Data Rows : 133
                          ***************************
                          DC transfer characteristic  Mon Jan  9 13:58:06  2023
--------------------------------------------------------------------------------
Index   v-sweep         rds             
--------------------------------------------------------------------------------
0	0.000000e+00	4.503071e+04	
1	5.000000e-02	4.547856e+04	
2	1.000000e-01	4.593443e+04	
3	1.500000e-01	4.639855e+04	
4	2.000000e-01	4.687114e+04	
5	2.500000e-01	4.735243e+04	
6	3.000000e-01	4.784267e+04	
7	3.500000e-01	4.834211e+04	
8	4.000000e-01	4.885100e+04	
9	4.500000e-01	4.936963e+04	
10	5.000000e-01	4.989826e+04	
11	5.500000e-01	5.043720e+04	
12	6.000000e-01	5.098674e+04	
13	6.500000e-01	5.154721e+04	
14	7.000000e-01	5.211893e+04	
15	7.500000e-01	5.270224e+04	
16	8.000000e-01	5.329750e+04	
17	8.500000e-01	5.390508e+04	
18	9.000000e-01	5.452536e+04	
19	9.500000e-01	5.515875e+04	
20	1.000000e+00	5.580567e+04	
21	1.050000e+00	5.646655e+04	
22	1.100000e+00	5.714186e+04	
23	1.150000e+00	5.783206e+04	
24	1.200000e+00	5.853765e+04	
25	1.250000e+00	5.925917e+04	
26	1.300000e+00	5.999714e+04	
27	1.350000e+00	6.075214e+04	
28	1.400000e+00	6.152477e+04	
29	1.450000e+00	6.231564e+04	
30	1.500000e+00	6.312542e+04	
31	1.550000e+00	6.395478e+04	
32	1.600000e+00	6.480446e+04	
33	1.650000e+00	6.567519e+04	
34	1.700000e+00	6.656778e+04	
35	1.750000e+00	6.748305e+04	
36	1.800000e+00	6.842189e+04	
37	1.850000e+00	6.938520e+04	
38	1.900000e+00	7.037397e+04	
39	1.950000e+00	7.138922e+04	
40	2.000000e+00	7.243201e+04	
41	2.050000e+00	7.350349e+04	
42	2.100000e+00	7.460485e+04	
43	2.150000e+00	7.573737e+04	
44	2.200000e+00	7.690238e+04	
45	2.250000e+00	7.810131e+04	
46	2.300000e+00	7.933564e+04	
47	2.350000e+00	8.060698e+04	
48	2.400000e+00	8.191701e+04	
49	2.450000e+00	8.326753e+04	
50	2.500000e+00	8.466044e+04	
51	2.550000e+00	8.609777e+04	
52	2.600000e+00	8.758168e+04	
53	2.650000e+00	8.911446e+04	
54	2.700000e+00	9.069858e+04	

Index   v-sweep         rds             
--------------------------------------------------------------------------------
55	2.750000e+00	9.233664e+04	
56	2.800000e+00	9.403147e+04	
57	2.850000e+00	9.578605e+04	
58	2.900000e+00	9.760361e+04	
59	2.950000e+00	9.948759e+04	
60	3.000000e+00	1.014417e+05	
61	3.050000e+00	1.034699e+05	
62	3.100000e+00	1.055766e+05	
63	3.150000e+00	1.077663e+05	
64	3.200000e+00	1.100442e+05	
65	3.250000e+00	1.124155e+05	
66	3.300000e+00	1.148861e+05	
67	3.350000e+00	1.174626e+05	
68	3.400000e+00	1.201517e+05	
69	3.450000e+00	1.229612e+05	
70	3.500000e+00	1.258991e+05	
71	3.550000e+00	1.289747e+05	
72	3.600000e+00	1.321977e+05	
73	3.650000e+00	1.355791e+05	
74	3.700000e+00	1.391308e+05	
75	3.750000e+00	1.428662e+05	
76	3.800000e+00	1.467999e+05	
77	3.850000e+00	1.509481e+05	
78	3.900000e+00	1.553290e+05	
79	3.950000e+00	1.599629e+05	
80	4.000000e+00	1.648726e+05	
81	4.050000e+00	1.700837e+05	
82	4.100000e+00	1.756252e+05	
83	4.150000e+00	1.815301e+05	
84	4.200000e+00	1.878364e+05	
85	4.250000e+00	1.945875e+05	
86	4.300000e+00	2.018343e+05	
87	4.350000e+00	2.096363e+05	
88	4.400000e+00	2.180645e+05	
89	4.450000e+00	2.272044e+05	
90	4.500000e+00	2.371611e+05	
91	4.550000e+00	2.480659e+05	
92	4.600000e+00	2.600857e+05	
93	4.650000e+00	2.734338e+05	
94	4.700000e+00	2.883802e+05	
95	4.750000e+00	3.052509e+05	
96	4.800000e+00	3.243997e+05	
97	4.850000e+00	3.461350e+05	
98	4.900000e+00	3.706153e+05	
99	4.950000e+00	3.977675e+05	
100	5.000000e+00	4.272952e+05	
101	5.050000e+00	4.587710e+05	
102	5.100000e+00	4.917494e+05	
103	5.150000e+00	5.258418e+05	
104	5.200000e+00	5.607430e+05	
105	5.250000e+00	5.962278e+05	
106	5.300000e+00	6.321348e+05	
107	5.350000e+00	6.683500e+05	
108	5.400000e+00	7.047929e+05	
109	5.450000e+00	7.414064e+05	
110	5.500000e+00	7.781496e+05	
111	5.550000e+00	8.149925e+05	
112	5.600000e+00	8.519134e+05	

Index   v-sweep         rds             
--------------------------------------------------------------------------------
113	5.650000e+00	8.888958e+05	
114	5.700000e+00	9.259275e+05	
115	5.750000e+00	9.629990e+05	
116	5.800000e+00	1.000103e+06	
117	5.850000e+00	1.037234e+06	
118	5.900000e+00	1.074387e+06	
119	5.950000e+00	1.111559e+06	
120	6.000000e+00	1.148746e+06	
121	6.050000e+00	1.185947e+06	
122	6.100000e+00	1.223159e+06	
123	6.150000e+00	1.260381e+06	
124	6.200000e+00	1.297612e+06	
125	6.250000e+00	1.334850e+06	
126	6.300000e+00	1.372094e+06	
127	6.350000e+00	1.409344e+06	
128	6.400000e+00	1.446599e+06	
129	6.450000e+00	1.483858e+06	
130	6.500000e+00	1.521120e+06	
131	6.550000e+00	1.558387e+06	
132	6.600000e+00	1.595656e+06	
Reset re-loads circuit ***************************

Circuit: ***************************

Doing analysis at TEMP = 125.000000 and TNOM = 125.000000


No. of Data Rows : 133
                          ***************************
                          DC transfer characteristic  Mon Jan  9 13:58:06  2023
--------------------------------------------------------------------------------
Index   v-sweep         rds             
--------------------------------------------------------------------------------
0	0.000000e+00	4.098474e+04	
1	5.000000e-02	4.130390e+04	
2	1.000000e-01	4.162743e+04	
3	1.500000e-01	4.195544e+04	
4	2.000000e-01	4.228802e+04	
5	2.500000e-01	4.262525e+04	
6	3.000000e-01	4.296725e+04	
7	3.500000e-01	4.331411e+04	
8	4.000000e-01	4.366594e+04	
9	4.500000e-01	4.402284e+04	
10	5.000000e-01	4.438492e+04	
11	5.500000e-01	4.475230e+04	
12	6.000000e-01	4.512510e+04	
13	6.500000e-01	4.550343e+04	
14	7.000000e-01	4.588742e+04	
15	7.500000e-01	4.627719e+04	
16	8.000000e-01	4.667288e+04	
17	8.500000e-01	4.707463e+04	
18	9.000000e-01	4.748257e+04	
19	9.500000e-01	4.789684e+04	
20	1.000000e+00	4.831760e+04	
21	1.050000e+00	4.874500e+04	
22	1.100000e+00	4.917920e+04	
23	1.150000e+00	4.962035e+04	
24	1.200000e+00	5.006864e+04	
25	1.250000e+00	5.052423e+04	
26	1.300000e+00	5.098730e+04	
27	1.350000e+00	5.145803e+04	
28	1.400000e+00	5.193663e+04	
29	1.450000e+00	5.242329e+04	
30	1.500000e+00	5.291820e+04	
31	1.550000e+00	5.342159e+04	
32	1.600000e+00	5.393368e+04	
33	1.650000e+00	5.445468e+04	
34	1.700000e+00	5.498484e+04	
35	1.750000e+00	5.552440e+04	
36	1.800000e+00	5.607361e+04	
37	1.850000e+00	5.663273e+04	
38	1.900000e+00	5.720204e+04	
39	1.950000e+00	5.778180e+04	
40	2.000000e+00	5.837232e+04	
41	2.050000e+00	5.897389e+04	
42	2.100000e+00	5.958683e+04	
43	2.150000e+00	6.021146e+04	
44	2.200000e+00	6.084812e+04	
45	2.250000e+00	6.149716e+04	
46	2.300000e+00	6.215894e+04	
47	2.350000e+00	6.283385e+04	
48	2.400000e+00	6.352228e+04	
49	2.450000e+00	6.422463e+04	
50	2.500000e+00	6.494133e+04	
51	2.550000e+00	6.567283e+04	
52	2.600000e+00	6.641960e+04	
53	2.650000e+00	6.718210e+04	
54	2.700000e+00	6.796085e+04	

Index   v-sweep         rds             
--------------------------------------------------------------------------------
55	2.750000e+00	6.875637e+04	
56	2.800000e+00	6.956920e+04	
57	2.850000e+00	7.039992e+04	
58	2.900000e+00	7.124913e+04	
59	2.950000e+00	7.211744e+04	
60	3.000000e+00	7.300551e+04	
61	3.050000e+00	7.391402e+04	
62	3.100000e+00	7.484369e+04	
63	3.150000e+00	7.579526e+04	
64	3.200000e+00	7.676951e+04	
65	3.250000e+00	7.776727e+04	
66	3.300000e+00	7.878939e+04	
67	3.350000e+00	7.983678e+04	
68	3.400000e+00	8.091039e+04	
69	3.450000e+00	8.201121e+04	
70	3.500000e+00	8.314029e+04	
71	3.550000e+00	8.429873e+04	
72	3.600000e+00	8.548769e+04	
73	3.650000e+00	8.670840e+04	
74	3.700000e+00	8.796215e+04	
75	3.750000e+00	8.925028e+04	
76	3.800000e+00	9.057425e+04	
77	3.850000e+00	9.193555e+04	
78	3.900000e+00	9.333580e+04	
79	3.950000e+00	9.477669e+04	
80	4.000000e+00	9.626002e+04	
81	4.050000e+00	9.778769e+04	
82	4.100000e+00	9.936172e+04	
83	4.150000e+00	1.009842e+05	
84	4.200000e+00	1.026576e+05	
85	4.250000e+00	1.043841e+05	
86	4.300000e+00	1.061664e+05	
87	4.350000e+00	1.080072e+05	
88	4.400000e+00	1.099095e+05	
89	4.450000e+00	1.118765e+05	
90	4.500000e+00	1.139114e+05	
91	4.550000e+00	1.160178e+05	
92	4.600000e+00	1.181997e+05	
93	4.650000e+00	1.204611e+05	
94	4.700000e+00	1.228065e+05	
95	4.750000e+00	1.252408e+05	
96	4.800000e+00	1.277689e+05	
97	4.850000e+00	1.303967e+05	
98	4.900000e+00	1.331300e+05	
99	4.950000e+00	1.359754e+05	
100	5.000000e+00	1.389401e+05	
101	5.050000e+00	1.420319e+05	
102	5.100000e+00	1.452592e+05	
103	5.150000e+00	1.486313e+05	
104	5.200000e+00	1.521584e+05	
105	5.250000e+00	1.558519e+05	
106	5.300000e+00	1.597242e+05	
107	5.350000e+00	1.637893e+05	
108	5.400000e+00	1.680629e+05	
109	5.450000e+00	1.725627e+05	
110	5.500000e+00	1.773090e+05	
111	5.550000e+00	1.823252e+05	
112	5.600000e+00	1.876388e+05	

Index   v-sweep         rds             
--------------------------------------------------------------------------------
113	5.650000e+00	1.932827e+05	
114	5.700000e+00	1.992970e+05	
115	5.750000e+00	2.057315e+05	
116	5.800000e+00	2.126500e+05	
117	5.850000e+00	2.201352e+05	
118	5.900000e+00	2.282963e+05	
119	5.950000e+00	2.372772e+05	
120	6.000000e+00	2.472630e+05	
121	6.050000e+00	2.584798e+05	
122	6.100000e+00	2.711766e+05	
123	6.150000e+00	2.855833e+05	
124	6.200000e+00	3.018513e+05	
125	6.250000e+00	3.200018e+05	
126	6.300000e+00	3.399147e+05	
127	6.350000e+00	3.613640e+05	
128	6.400000e+00	3.840773e+05	
129	6.450000e+00	4.077873e+05	
130	6.500000e+00	4.322625e+05	
131	6.550000e+00	4.573169e+05	
132	6.600000e+00	4.828075e+05	
Reset re-loads circuit ***************************

Circuit: ***************************

Note: No ".plot", ".print", or ".fourier" lines; no simulations run
