
Note: Compatibility modes selected: hs

Warning: m=xx on .subckt line will override multiplier m hierarchy!


Circuit: ***************************

Doing analysis at TEMP = -40.000000 and TNOM = -40.000000


No. of Data Rows : 133
                          ***************************
                          DC transfer characteristic  Mon Jan  9 13:58:05  2023
--------------------------------------------------------------------------------
Index   v-sweep         rds             
--------------------------------------------------------------------------------
0	0.000000e+00	2.194810e+04	
1	5.000000e-02	2.794899e+04	
2	1.000000e-01	3.838187e+04	
3	1.500000e-01	6.060303e+04	
4	2.000000e-01	1.280557e+05	
5	2.500000e-01	3.904632e+05	
6	3.000000e-01	8.877007e+05	
7	3.500000e-01	1.291006e+06	
8	4.000000e-01	1.583649e+06	
9	4.500000e-01	1.828471e+06	
10	5.000000e-01	2.053228e+06	
11	5.500000e-01	2.268634e+06	
12	6.000000e-01	2.479190e+06	
13	6.500000e-01	2.686995e+06	
14	7.000000e-01	2.893121e+06	
15	7.500000e-01	3.098158e+06	
16	8.000000e-01	3.302451e+06	
17	8.500000e-01	3.506214e+06	
18	9.000000e-01	3.709585e+06	
19	9.500000e-01	3.912655e+06	
20	1.000000e+00	4.115488e+06	
21	1.050000e+00	4.318129e+06	
22	1.100000e+00	4.520609e+06	
23	1.150000e+00	4.722953e+06	
24	1.200000e+00	4.925180e+06	
25	1.250000e+00	5.127302e+06	
26	1.300000e+00	5.329331e+06	
27	1.350000e+00	5.531276e+06	
28	1.400000e+00	5.733142e+06	
29	1.450000e+00	5.934937e+06	
30	1.500000e+00	6.136663e+06	
31	1.550000e+00	6.338324e+06	
32	1.600000e+00	6.539924e+06	
33	1.650000e+00	6.741465e+06	
34	1.700000e+00	6.942949e+06	
35	1.750000e+00	7.144378e+06	
36	1.800000e+00	7.345754e+06	
37	1.850000e+00	7.547077e+06	
38	1.900000e+00	7.748348e+06	
39	1.950000e+00	7.949570e+06	
40	2.000000e+00	8.150742e+06	
41	2.050000e+00	8.351865e+06	
42	2.100000e+00	8.552940e+06	
43	2.150000e+00	8.753967e+06	
44	2.200000e+00	8.954948e+06	
45	2.250000e+00	9.155881e+06	
46	2.300000e+00	9.356768e+06	
47	2.350000e+00	9.557610e+06	
48	2.400000e+00	9.758405e+06	
49	2.450000e+00	9.959155e+06	
50	2.500000e+00	1.015986e+07	
51	2.550000e+00	1.036052e+07	
52	2.600000e+00	1.056113e+07	
53	2.650000e+00	1.076170e+07	
54	2.700000e+00	1.096223e+07	

Index   v-sweep         rds             
--------------------------------------------------------------------------------
55	2.750000e+00	1.116271e+07	
56	2.800000e+00	1.136315e+07	
57	2.850000e+00	1.156354e+07	
58	2.900000e+00	1.176389e+07	
59	2.950000e+00	1.196420e+07	
60	3.000000e+00	1.216446e+07	
61	3.050000e+00	1.236467e+07	
62	3.100000e+00	1.256485e+07	
63	3.150000e+00	1.276498e+07	
64	3.200000e+00	1.296506e+07	
65	3.250000e+00	1.316511e+07	
66	3.300000e+00	1.336511e+07	
67	3.350000e+00	1.356506e+07	
68	3.400000e+00	1.376498e+07	
69	3.450000e+00	1.396485e+07	
70	3.500000e+00	1.416467e+07	
71	3.550000e+00	1.436445e+07	
72	3.600000e+00	1.456419e+07	
73	3.650000e+00	1.476389e+07	
74	3.700000e+00	1.496354e+07	
75	3.750000e+00	1.516315e+07	
76	3.800000e+00	1.536272e+07	
77	3.850000e+00	1.556224e+07	
78	3.900000e+00	1.576172e+07	
79	3.950000e+00	1.596116e+07	
80	4.000000e+00	1.616056e+07	
81	4.050000e+00	1.635991e+07	
82	4.100000e+00	1.655922e+07	
83	4.150000e+00	1.675848e+07	
84	4.200000e+00	1.695770e+07	
85	4.250000e+00	1.715688e+07	
86	4.300000e+00	1.735602e+07	
87	4.350000e+00	1.755511e+07	
88	4.400000e+00	1.775416e+07	
89	4.450000e+00	1.795317e+07	
90	4.500000e+00	1.815213e+07	
91	4.550000e+00	1.835106e+07	
92	4.600000e+00	1.854993e+07	
93	4.650000e+00	1.874877e+07	
94	4.700000e+00	1.894756e+07	
95	4.750000e+00	1.914631e+07	
96	4.800000e+00	1.934502e+07	
97	4.850000e+00	1.954368e+07	
98	4.900000e+00	1.974230e+07	
99	4.950000e+00	1.994088e+07	
100	5.000000e+00	2.013942e+07	
101	5.050000e+00	2.033791e+07	
102	5.100000e+00	2.053636e+07	
103	5.150000e+00	2.073477e+07	
104	5.200000e+00	2.093313e+07	
105	5.250000e+00	2.113145e+07	
106	5.300000e+00	2.132973e+07	
107	5.350000e+00	2.152797e+07	
108	5.400000e+00	2.172616e+07	
109	5.450000e+00	2.192431e+07	
110	5.500000e+00	2.212241e+07	
111	5.550000e+00	2.232048e+07	
112	5.600000e+00	2.251850e+07	

Index   v-sweep         rds             
--------------------------------------------------------------------------------
113	5.650000e+00	2.271648e+07	
114	5.700000e+00	2.291441e+07	
115	5.750000e+00	2.311231e+07	
116	5.800000e+00	2.331016e+07	
117	5.850000e+00	2.350796e+07	
118	5.900000e+00	2.370573e+07	
119	5.950000e+00	2.390345e+07	
120	6.000000e+00	2.410113e+07	
121	6.050000e+00	2.429876e+07	
122	6.100000e+00	2.449636e+07	
123	6.150000e+00	2.469391e+07	
124	6.200000e+00	2.489142e+07	
125	6.250000e+00	2.508888e+07	
126	6.300000e+00	2.528630e+07	
127	6.350000e+00	2.548368e+07	
128	6.400000e+00	2.568102e+07	
129	6.450000e+00	2.587831e+07	
130	6.500000e+00	2.607556e+07	
131	6.550000e+00	2.627277e+07	
132	6.600000e+00	2.646994e+07	
Reset re-loads circuit ***************************

Circuit: ***************************

Doing analysis at TEMP = -40.000000 and TNOM = -40.000000


No. of Data Rows : 133
                          ***************************
                          DC transfer characteristic  Mon Jan  9 13:58:06  2023
--------------------------------------------------------------------------------
Index   v-sweep         rds             
--------------------------------------------------------------------------------
0	0.000000e+00	3.975357e+03	
1	5.000000e-02	4.133846e+03	
2	1.000000e-01	4.304906e+03	
3	1.500000e-01	4.490093e+03	
4	2.000000e-01	4.691234e+03	
5	2.500000e-01	4.910480e+03	
6	3.000000e-01	5.150390e+03	
7	3.500000e-01	5.414028e+03	
8	4.000000e-01	5.705096e+03	
9	4.500000e-01	6.028106e+03	
10	5.000000e-01	6.388616e+03	
11	5.500000e-01	6.793551e+03	
12	6.000000e-01	7.251650e+03	
13	6.500000e-01	7.774098e+03	
14	7.000000e-01	8.375443e+03	
15	7.500000e-01	9.074953e+03	
16	8.000000e-01	9.898676e+03	
17	8.500000e-01	1.088267e+04	
18	9.000000e-01	1.207818e+04	
19	9.500000e-01	1.356029e+04	
20	1.000000e+00	1.544257e+04	
21	1.050000e+00	1.790210e+04	
22	1.100000e+00	2.121952e+04	
23	1.150000e+00	2.582392e+04	
24	1.200000e+00	3.225759e+04	
25	1.250000e+00	4.084610e+04	
26	1.300000e+00	5.120348e+04	
27	1.350000e+00	6.246819e+04	
28	1.400000e+00	7.401912e+04	
29	1.450000e+00	8.561188e+04	
30	1.500000e+00	9.718358e+04	
31	1.550000e+00	1.087268e+05	
32	1.600000e+00	1.202466e+05	
33	1.650000e+00	1.317488e+05	
34	1.700000e+00	1.432382e+05	
35	1.750000e+00	1.547183e+05	
36	1.800000e+00	1.661913e+05	
37	1.850000e+00	1.776590e+05	
38	1.900000e+00	1.891226e+05	
39	1.950000e+00	2.005828e+05	
40	2.000000e+00	2.120404e+05	
41	2.050000e+00	2.234957e+05	
42	2.100000e+00	2.349492e+05	
43	2.150000e+00	2.464010e+05	
44	2.200000e+00	2.578514e+05	
45	2.250000e+00	2.693005e+05	
46	2.300000e+00	2.807485e+05	
47	2.350000e+00	2.921954e+05	
48	2.400000e+00	3.036413e+05	
49	2.450000e+00	3.150863e+05	
50	2.500000e+00	3.265304e+05	
51	2.550000e+00	3.379737e+05	
52	2.600000e+00	3.494162e+05	
53	2.650000e+00	3.608579e+05	
54	2.700000e+00	3.722989e+05	

Index   v-sweep         rds             
--------------------------------------------------------------------------------
55	2.750000e+00	3.837392e+05	
56	2.800000e+00	3.951787e+05	
57	2.850000e+00	4.066176e+05	
58	2.900000e+00	4.180557e+05	
59	2.950000e+00	4.294932e+05	
60	3.000000e+00	4.409300e+05	
61	3.050000e+00	4.523662e+05	
62	3.100000e+00	4.638017e+05	
63	3.150000e+00	4.752365e+05	
64	3.200000e+00	4.866707e+05	
65	3.250000e+00	4.981042e+05	
66	3.300000e+00	5.095371e+05	
67	3.350000e+00	5.209694e+05	
68	3.400000e+00	5.324010e+05	
69	3.450000e+00	5.438320e+05	
70	3.500000e+00	5.552623e+05	
71	3.550000e+00	5.666920e+05	
72	3.600000e+00	5.781211e+05	
73	3.650000e+00	5.895495e+05	
74	3.700000e+00	6.009773e+05	
75	3.750000e+00	6.124045e+05	
76	3.800000e+00	6.238311e+05	
77	3.850000e+00	6.352570e+05	
78	3.900000e+00	6.466823e+05	
79	3.950000e+00	6.581069e+05	
80	4.000000e+00	6.695310e+05	
81	4.050000e+00	6.809544e+05	
82	4.100000e+00	6.923771e+05	
83	4.150000e+00	7.037993e+05	
84	4.200000e+00	7.152208e+05	
85	4.250000e+00	7.266416e+05	
86	4.300000e+00	7.380619e+05	
87	4.350000e+00	7.494815e+05	
88	4.400000e+00	7.609005e+05	
89	4.450000e+00	7.723188e+05	
90	4.500000e+00	7.837365e+05	
91	4.550000e+00	7.951536e+05	
92	4.600000e+00	8.065701e+05	
93	4.650000e+00	8.179859e+05	
94	4.700000e+00	8.294011e+05	
95	4.750000e+00	8.408156e+05	
96	4.800000e+00	8.522295e+05	
97	4.850000e+00	8.636428e+05	
98	4.900000e+00	8.750555e+05	
99	4.950000e+00	8.864675e+05	
100	5.000000e+00	8.978788e+05	
101	5.050000e+00	9.092896e+05	
102	5.100000e+00	9.206997e+05	
103	5.150000e+00	9.321092e+05	
104	5.200000e+00	9.435180e+05	
105	5.250000e+00	9.549262e+05	
106	5.300000e+00	9.663338e+05	
107	5.350000e+00	9.777407e+05	
108	5.400000e+00	9.891470e+05	
109	5.450000e+00	1.000553e+06	
110	5.500000e+00	1.011958e+06	
111	5.550000e+00	1.023362e+06	
112	5.600000e+00	1.034766e+06	

Index   v-sweep         rds             
--------------------------------------------------------------------------------
113	5.650000e+00	1.046169e+06	
114	5.700000e+00	1.057571e+06	
115	5.750000e+00	1.068973e+06	
116	5.800000e+00	1.080374e+06	
117	5.850000e+00	1.091775e+06	
118	5.900000e+00	1.103175e+06	
119	5.950000e+00	1.114574e+06	
120	6.000000e+00	1.125973e+06	
121	6.050000e+00	1.137371e+06	
122	6.100000e+00	1.148768e+06	
123	6.150000e+00	1.160165e+06	
124	6.200000e+00	1.171561e+06	
125	6.250000e+00	1.182956e+06	
126	6.300000e+00	1.194351e+06	
127	6.350000e+00	1.205745e+06	
128	6.400000e+00	1.217138e+06	
129	6.450000e+00	1.228531e+06	
130	6.500000e+00	1.239923e+06	
131	6.550000e+00	1.251315e+06	
132	6.600000e+00	1.262706e+06	
Reset re-loads circuit ***************************

Circuit: ***************************

Doing analysis at TEMP = -40.000000 and TNOM = -40.000000


No. of Data Rows : 133
                          ***************************
                          DC transfer characteristic  Mon Jan  9 13:58:06  2023
--------------------------------------------------------------------------------
Index   v-sweep         rds             
--------------------------------------------------------------------------------
0	0.000000e+00	2.467739e+03	
1	5.000000e-02	2.521185e+03	
2	1.000000e-01	2.576800e+03	
3	1.500000e-01	2.634717e+03	
4	2.000000e-01	2.695084e+03	
5	2.500000e-01	2.758057e+03	
6	3.000000e-01	2.823811e+03	
7	3.500000e-01	2.892533e+03	
8	4.000000e-01	2.964428e+03	
9	4.500000e-01	3.039721e+03	
10	5.000000e-01	3.118660e+03	
11	5.500000e-01	3.201514e+03	
12	6.000000e-01	3.288583e+03	
13	6.500000e-01	3.380196e+03	
14	7.000000e-01	3.476719e+03	
15	7.500000e-01	3.578556e+03	
16	8.000000e-01	3.686159e+03	
17	8.500000e-01	3.800032e+03	
18	9.000000e-01	3.920738e+03	
19	9.500000e-01	4.048913e+03	
20	1.000000e+00	4.185269e+03	
21	1.050000e+00	4.330618e+03	
22	1.100000e+00	4.485877e+03	
23	1.150000e+00	4.652097e+03	
24	1.200000e+00	4.830481e+03	
25	1.250000e+00	5.022413e+03	
26	1.300000e+00	5.229499e+03	
27	1.350000e+00	5.453606e+03	
28	1.400000e+00	5.696925e+03	
29	1.450000e+00	5.962038e+03	
30	1.500000e+00	6.252011e+03	
31	1.550000e+00	6.570518e+03	
32	1.600000e+00	6.921996e+03	
33	1.650000e+00	7.311858e+03	
34	1.700000e+00	7.746776e+03	
35	1.750000e+00	8.235085e+03	
36	1.800000e+00	8.787337e+03	
37	1.850000e+00	9.417119e+03	
38	1.900000e+00	1.014226e+04	
39	1.950000e+00	1.098670e+04	
40	2.000000e+00	1.198333e+04	
41	2.050000e+00	1.317829e+04	
42	2.100000e+00	1.463623e+04	
43	2.150000e+00	1.644229e+04	
44	2.200000e+00	1.868792e+04	
45	2.250000e+00	2.142833e+04	
46	2.300000e+00	2.463822e+04	
47	2.350000e+00	2.822122e+04	
48	2.400000e+00	3.206360e+04	
49	2.450000e+00	3.607370e+04	
50	2.500000e+00	4.018989e+04	
51	2.550000e+00	4.437371e+04	
52	2.600000e+00	4.860167e+04	
53	2.650000e+00	5.285926e+04	
54	2.700000e+00	5.713734e+04	

Index   v-sweep         rds             
--------------------------------------------------------------------------------
55	2.750000e+00	6.142997e+04	
56	2.800000e+00	6.573320e+04	
57	2.850000e+00	7.004434e+04	
58	2.900000e+00	7.436150e+04	
59	2.950000e+00	7.868331e+04	
60	3.000000e+00	8.300878e+04	
61	3.050000e+00	8.733716e+04	
62	3.100000e+00	9.166790e+04	
63	3.150000e+00	9.600056e+04	
64	3.200000e+00	1.003348e+05	
65	3.250000e+00	1.046703e+05	
66	3.300000e+00	1.090070e+05	
67	3.350000e+00	1.133445e+05	
68	3.400000e+00	1.176828e+05	
69	3.450000e+00	1.220218e+05	
70	3.500000e+00	1.263614e+05	
71	3.550000e+00	1.307014e+05	
72	3.600000e+00	1.350418e+05	
73	3.650000e+00	1.393825e+05	
74	3.700000e+00	1.437236e+05	
75	3.750000e+00	1.480649e+05	
76	3.800000e+00	1.524064e+05	
77	3.850000e+00	1.567481e+05	
78	3.900000e+00	1.610900e+05	
79	3.950000e+00	1.654319e+05	
80	4.000000e+00	1.697740e+05	
81	4.050000e+00	1.741162e+05	
82	4.100000e+00	1.784584e+05	
83	4.150000e+00	1.828006e+05	
84	4.200000e+00	1.871429e+05	
85	4.250000e+00	1.914853e+05	
86	4.300000e+00	1.958276e+05	
87	4.350000e+00	2.001699e+05	
88	4.400000e+00	2.045123e+05	
89	4.450000e+00	2.088546e+05	
90	4.500000e+00	2.131969e+05	
91	4.550000e+00	2.175391e+05	
92	4.600000e+00	2.218813e+05	
93	4.650000e+00	2.262235e+05	
94	4.700000e+00	2.305656e+05	
95	4.750000e+00	2.349077e+05	
96	4.800000e+00	2.392497e+05	
97	4.850000e+00	2.435916e+05	
98	4.900000e+00	2.479335e+05	
99	4.950000e+00	2.522753e+05	
100	5.000000e+00	2.566170e+05	
101	5.050000e+00	2.609586e+05	
102	5.100000e+00	2.653002e+05	
103	5.150000e+00	2.696416e+05	
104	5.200000e+00	2.739830e+05	
105	5.250000e+00	2.783243e+05	
106	5.300000e+00	2.826655e+05	
107	5.350000e+00	2.870067e+05	
108	5.400000e+00	2.913477e+05	
109	5.450000e+00	2.956886e+05	
110	5.500000e+00	3.000294e+05	
111	5.550000e+00	3.043701e+05	
112	5.600000e+00	3.087107e+05	

Index   v-sweep         rds             
--------------------------------------------------------------------------------
113	5.650000e+00	3.130513e+05	
114	5.700000e+00	3.173917e+05	
115	5.750000e+00	3.217320e+05	
116	5.800000e+00	3.260722e+05	
117	5.850000e+00	3.304122e+05	
118	5.900000e+00	3.347522e+05	
119	5.950000e+00	3.390921e+05	
120	6.000000e+00	3.434318e+05	
121	6.050000e+00	3.477714e+05	
122	6.100000e+00	3.521110e+05	
123	6.150000e+00	3.564504e+05	
124	6.200000e+00	3.607896e+05	
125	6.250000e+00	3.651288e+05	
126	6.300000e+00	3.694679e+05	
127	6.350000e+00	3.738068e+05	
128	6.400000e+00	3.781456e+05	
129	6.450000e+00	3.824843e+05	
130	6.500000e+00	3.868229e+05	
131	6.550000e+00	3.911613e+05	
132	6.600000e+00	3.954996e+05	
Reset re-loads circuit ***************************

Circuit: ***************************

Doing analysis at TEMP = -40.000000 and TNOM = -40.000000


No. of Data Rows : 133
                          ***************************
                          DC transfer characteristic  Mon Jan  9 13:58:06  2023
--------------------------------------------------------------------------------
Index   v-sweep         rds             
--------------------------------------------------------------------------------
0	0.000000e+00	1.916540e+03	
1	5.000000e-02	1.944932e+03	
2	1.000000e-01	1.974079e+03	
3	1.500000e-01	2.004011e+03	
4	2.000000e-01	2.034760e+03	
5	2.500000e-01	2.066361e+03	
6	3.000000e-01	2.098849e+03	
7	3.500000e-01	2.132262e+03	
8	4.000000e-01	2.166640e+03	
9	4.500000e-01	2.202026e+03	
10	5.000000e-01	2.238463e+03	
11	5.500000e-01	2.276001e+03	
12	6.000000e-01	2.314688e+03	
13	6.500000e-01	2.354579e+03	
14	7.000000e-01	2.395732e+03	
15	7.500000e-01	2.438206e+03	
16	8.000000e-01	2.482065e+03	
17	8.500000e-01	2.527381e+03	
18	9.000000e-01	2.574224e+03	
19	9.500000e-01	2.622675e+03	
20	1.000000e+00	2.672817e+03	
21	1.050000e+00	2.724741e+03	
22	1.100000e+00	2.778542e+03	
23	1.150000e+00	2.834325e+03	
24	1.200000e+00	2.892201e+03	
25	1.250000e+00	2.952289e+03	
26	1.300000e+00	3.014720e+03	
27	1.350000e+00	3.079633e+03	
28	1.400000e+00	3.147179e+03	
29	1.450000e+00	3.217521e+03	
30	1.500000e+00	3.290836e+03	
31	1.550000e+00	3.367317e+03	
32	1.600000e+00	3.447174e+03	
33	1.650000e+00	3.530635e+03	
34	1.700000e+00	3.617949e+03	
35	1.750000e+00	3.709391e+03	
36	1.800000e+00	3.805259e+03	
37	1.850000e+00	3.905884e+03	
38	1.900000e+00	4.011629e+03	
39	1.950000e+00	4.122895e+03	
40	2.000000e+00	4.240127e+03	
41	2.050000e+00	4.363819e+03	
42	2.100000e+00	4.494522e+03	
43	2.150000e+00	4.632851e+03	
44	2.200000e+00	4.779498e+03	
45	2.250000e+00	4.935239e+03	
46	2.300000e+00	5.100955e+03	
47	2.350000e+00	5.277646e+03	
48	2.400000e+00	5.466452e+03	
49	2.450000e+00	5.668685e+03	
50	2.500000e+00	5.885864e+03	
51	2.550000e+00	6.119757e+03	
52	2.600000e+00	6.372450e+03	
53	2.650000e+00	6.646432e+03	
54	2.700000e+00	6.944718e+03	

Index   v-sweep         rds             
--------------------------------------------------------------------------------
55	2.750000e+00	7.271037e+03	
56	2.800000e+00	7.630124e+03	
57	2.850000e+00	8.028188e+03	
58	2.900000e+00	8.473694e+03	
59	2.950000e+00	8.978663e+03	
60	3.000000e+00	9.560719e+03	
61	3.050000e+00	1.024587e+04	
62	3.100000e+00	1.107076e+04	
63	3.150000e+00	1.208055e+04	
64	3.200000e+00	1.331727e+04	
65	3.250000e+00	1.480084e+04	
66	3.300000e+00	1.651781e+04	
67	3.350000e+00	1.842908e+04	
68	3.400000e+00	2.048770e+04	
69	3.450000e+00	2.265212e+04	
70	3.500000e+00	2.489070e+04	
71	3.550000e+00	2.718114e+04	
72	3.600000e+00	2.950815e+04	
73	3.650000e+00	3.186135e+04	
74	3.700000e+00	3.423365e+04	
75	3.750000e+00	3.662014e+04	
76	3.800000e+00	3.901735e+04	
77	3.850000e+00	4.142281e+04	
78	3.900000e+00	4.383470e+04	
79	3.950000e+00	4.625170e+04	
80	4.000000e+00	4.867279e+04	
81	4.050000e+00	5.109721e+04	
82	4.100000e+00	5.352436e+04	
83	4.150000e+00	5.595377e+04	
84	4.200000e+00	5.838507e+04	
85	4.250000e+00	6.081797e+04	
86	4.300000e+00	6.325222e+04	
87	4.350000e+00	6.568763e+04	
88	4.400000e+00	6.812404e+04	
89	4.450000e+00	7.056130e+04	
90	4.500000e+00	7.299932e+04	
91	4.550000e+00	7.543799e+04	
92	4.600000e+00	7.787724e+04	
93	4.650000e+00	8.031698e+04	
94	4.700000e+00	8.275717e+04	
95	4.750000e+00	8.519776e+04	
96	4.800000e+00	8.763869e+04	
97	4.850000e+00	9.007994e+04	
98	4.900000e+00	9.252146e+04	
99	4.950000e+00	9.496323e+04	
100	5.000000e+00	9.740522e+04	
101	5.050000e+00	9.984740e+04	
102	5.100000e+00	1.022898e+05	
103	5.150000e+00	1.047323e+05	
104	5.200000e+00	1.071750e+05	
105	5.250000e+00	1.096177e+05	
106	5.300000e+00	1.120606e+05	
107	5.350000e+00	1.145037e+05	
108	5.400000e+00	1.169467e+05	
109	5.450000e+00	1.193899e+05	
110	5.500000e+00	1.218332e+05	
111	5.550000e+00	1.242765e+05	
112	5.600000e+00	1.267199e+05	

Index   v-sweep         rds             
--------------------------------------------------------------------------------
113	5.650000e+00	1.291633e+05	
114	5.700000e+00	1.316067e+05	
115	5.750000e+00	1.340502e+05	
116	5.800000e+00	1.364938e+05	
117	5.850000e+00	1.389373e+05	
118	5.900000e+00	1.413809e+05	
119	5.950000e+00	1.438245e+05	
120	6.000000e+00	1.462681e+05	
121	6.050000e+00	1.487118e+05	
122	6.100000e+00	1.511554e+05	
123	6.150000e+00	1.535990e+05	
124	6.200000e+00	1.560427e+05	
125	6.250000e+00	1.584863e+05	
126	6.300000e+00	1.609300e+05	
127	6.350000e+00	1.633736e+05	
128	6.400000e+00	1.658172e+05	
129	6.450000e+00	1.682608e+05	
130	6.500000e+00	1.707044e+05	
131	6.550000e+00	1.731480e+05	
132	6.600000e+00	1.755916e+05	
Reset re-loads circuit ***************************

Circuit: ***************************

Doing analysis at TEMP = -40.000000 and TNOM = -40.000000


No. of Data Rows : 133
                          ***************************
                          DC transfer characteristic  Mon Jan  9 13:58:06  2023
--------------------------------------------------------------------------------
Index   v-sweep         rds             
--------------------------------------------------------------------------------
0	0.000000e+00	1.637551e+03	
1	5.000000e-02	1.655820e+03	
2	1.000000e-01	1.674443e+03	
3	1.500000e-01	1.693429e+03	
4	2.000000e-01	1.712790e+03	
5	2.500000e-01	1.732536e+03	
6	3.000000e-01	1.752680e+03	
7	3.500000e-01	1.773233e+03	
8	4.000000e-01	1.794207e+03	
9	4.500000e-01	1.815617e+03	
10	5.000000e-01	1.837475e+03	
11	5.500000e-01	1.859795e+03	
12	6.000000e-01	1.882594e+03	
13	6.500000e-01	1.905885e+03	
14	7.000000e-01	1.929685e+03	
15	7.500000e-01	1.954012e+03	
16	8.000000e-01	1.978882e+03	
17	8.500000e-01	2.004314e+03	
18	9.000000e-01	2.030327e+03	
19	9.500000e-01	2.056941e+03	
20	1.000000e+00	2.084178e+03	
21	1.050000e+00	2.112059e+03	
22	1.100000e+00	2.140608e+03	
23	1.150000e+00	2.169848e+03	
24	1.200000e+00	2.199806e+03	
25	1.250000e+00	2.230507e+03	
26	1.300000e+00	2.261980e+03	
27	1.350000e+00	2.294254e+03	
28	1.400000e+00	2.327361e+03	
29	1.450000e+00	2.361332e+03	
30	1.500000e+00	2.396202e+03	
31	1.550000e+00	2.432007e+03	
32	1.600000e+00	2.468785e+03	
33	1.650000e+00	2.506577e+03	
34	1.700000e+00	2.545424e+03	
35	1.750000e+00	2.585372e+03	
36	1.800000e+00	2.626468e+03	
37	1.850000e+00	2.668762e+03	
38	1.900000e+00	2.712308e+03	
39	1.950000e+00	2.757161e+03	
40	2.000000e+00	2.803381e+03	
41	2.050000e+00	2.851032e+03	
42	2.100000e+00	2.900182e+03	
43	2.150000e+00	2.950902e+03	
44	2.200000e+00	3.003268e+03	
45	2.250000e+00	3.057362e+03	
46	2.300000e+00	3.113271e+03	
47	2.350000e+00	3.171088e+03	
48	2.400000e+00	3.230912e+03	
49	2.450000e+00	3.292850e+03	
50	2.500000e+00	3.357017e+03	
51	2.550000e+00	3.423534e+03	
52	2.600000e+00	3.492533e+03	
53	2.650000e+00	3.564157e+03	
54	2.700000e+00	3.638559e+03	

Index   v-sweep         rds             
--------------------------------------------------------------------------------
55	2.750000e+00	3.715903e+03	
56	2.800000e+00	3.796369e+03	
57	2.850000e+00	3.880151e+03	
58	2.900000e+00	3.967460e+03	
59	2.950000e+00	4.058525e+03	
60	3.000000e+00	4.153595e+03	
61	3.050000e+00	4.252945e+03	
62	3.100000e+00	4.356875e+03	
63	3.150000e+00	4.465714e+03	
64	3.200000e+00	4.579828e+03	
65	3.250000e+00	4.699621e+03	
66	3.300000e+00	4.825544e+03	
67	3.350000e+00	4.958101e+03	
68	3.400000e+00	5.097864e+03	
69	3.450000e+00	5.245484e+03	
70	3.500000e+00	5.401708e+03	
71	3.550000e+00	5.567416e+03	
72	3.600000e+00	5.743648e+03	
73	3.650000e+00	5.931676e+03	
74	3.700000e+00	6.133088e+03	
75	3.750000e+00	6.349940e+03	
76	3.800000e+00	6.584986e+03	
77	3.850000e+00	6.842066e+03	
78	3.900000e+00	7.126713e+03	
79	3.950000e+00	7.447094e+03	
80	4.000000e+00	7.815304e+03	
81	4.050000e+00	8.248746e+03	
82	4.100000e+00	8.770609e+03	
83	4.150000e+00	9.407563e+03	
84	4.200000e+00	1.018326e+04	
85	4.250000e+00	1.110967e+04	
86	4.300000e+00	1.218230e+04	
87	4.350000e+00	1.338284e+04	
88	4.400000e+00	1.468668e+04	
89	4.450000e+00	1.606968e+04	
90	4.500000e+00	1.751157e+04	
91	4.550000e+00	1.899679e+04	
92	4.600000e+00	2.051390e+04	
93	4.650000e+00	2.205466e+04	
94	4.700000e+00	2.361315e+04	
95	4.750000e+00	2.518510e+04	
96	4.800000e+00	2.676743e+04	
97	4.850000e+00	2.835784e+04	
98	4.900000e+00	2.995466e+04	
99	4.950000e+00	3.155660e+04	
100	5.000000e+00	3.316269e+04	
101	5.050000e+00	3.477217e+04	
102	5.100000e+00	3.638445e+04	
103	5.150000e+00	3.799908e+04	
104	5.200000e+00	3.961567e+04	
105	5.250000e+00	4.123392e+04	
106	5.300000e+00	4.285360e+04	
107	5.350000e+00	4.447449e+04	
108	5.400000e+00	4.609644e+04	
109	5.450000e+00	4.771931e+04	
110	5.500000e+00	4.934297e+04	
111	5.550000e+00	5.096734e+04	
112	5.600000e+00	5.259233e+04	

Index   v-sweep         rds             
--------------------------------------------------------------------------------
113	5.650000e+00	5.421787e+04	
114	5.700000e+00	5.584389e+04	
115	5.750000e+00	5.747034e+04	
116	5.800000e+00	5.909718e+04	
117	5.850000e+00	6.072437e+04	
118	5.900000e+00	6.235187e+04	
119	5.950000e+00	6.397965e+04	
120	6.000000e+00	6.560768e+04	
121	6.050000e+00	6.723595e+04	
122	6.100000e+00	6.886442e+04	
123	6.150000e+00	7.049308e+04	
124	6.200000e+00	7.212191e+04	
125	6.250000e+00	7.375091e+04	
126	6.300000e+00	7.538004e+04	
127	6.350000e+00	7.700930e+04	
128	6.400000e+00	7.863869e+04	
129	6.450000e+00	8.026818e+04	
130	6.500000e+00	8.189778e+04	
131	6.550000e+00	8.352746e+04	
132	6.600000e+00	8.515723e+04	
Reset re-loads circuit ***************************

Circuit: ***************************

Doing analysis at TEMP = -40.000000 and TNOM = -40.000000


No. of Data Rows : 133
                          ***************************
                          DC transfer characteristic  Mon Jan  9 13:58:06  2023
--------------------------------------------------------------------------------
Index   v-sweep         rds             
--------------------------------------------------------------------------------
0	0.000000e+00	1.473691e+03	
1	5.000000e-02	1.486731e+03	
2	1.000000e-01	1.499966e+03	
3	1.500000e-01	1.513399e+03	
4	2.000000e-01	1.527035e+03	
5	2.500000e-01	1.540879e+03	
6	3.000000e-01	1.554936e+03	
7	3.500000e-01	1.569210e+03	
8	4.000000e-01	1.583706e+03	
9	4.500000e-01	1.598430e+03	
10	5.000000e-01	1.613386e+03	
11	5.500000e-01	1.628582e+03	
12	6.000000e-01	1.644021e+03	
13	6.500000e-01	1.659711e+03	
14	7.000000e-01	1.675657e+03	
15	7.500000e-01	1.691866e+03	
16	8.000000e-01	1.708344e+03	
17	8.500000e-01	1.725098e+03	
18	9.000000e-01	1.742135e+03	
19	9.500000e-01	1.759462e+03	
20	1.000000e+00	1.777086e+03	
21	1.050000e+00	1.795015e+03	
22	1.100000e+00	1.813258e+03	
23	1.150000e+00	1.831822e+03	
24	1.200000e+00	1.850716e+03	
25	1.250000e+00	1.869949e+03	
26	1.300000e+00	1.889530e+03	
27	1.350000e+00	1.909468e+03	
28	1.400000e+00	1.929774e+03	
29	1.450000e+00	1.950458e+03	
30	1.500000e+00	1.971529e+03	
31	1.550000e+00	1.993000e+03	
32	1.600000e+00	2.014881e+03	
33	1.650000e+00	2.037185e+03	
34	1.700000e+00	2.059924e+03	
35	1.750000e+00	2.083111e+03	
36	1.800000e+00	2.106758e+03	
37	1.850000e+00	2.130880e+03	
38	1.900000e+00	2.155492e+03	
39	1.950000e+00	2.180607e+03	
40	2.000000e+00	2.206243e+03	
41	2.050000e+00	2.232414e+03	
42	2.100000e+00	2.259139e+03	
43	2.150000e+00	2.286435e+03	
44	2.200000e+00	2.314319e+03	
45	2.250000e+00	2.342813e+03	
46	2.300000e+00	2.371935e+03	
47	2.350000e+00	2.401706e+03	
48	2.400000e+00	2.432150e+03	
49	2.450000e+00	2.463287e+03	
50	2.500000e+00	2.495144e+03	
51	2.550000e+00	2.527744e+03	
52	2.600000e+00	2.561114e+03	
53	2.650000e+00	2.595282e+03	
54	2.700000e+00	2.630276e+03	

Index   v-sweep         rds             
--------------------------------------------------------------------------------
55	2.750000e+00	2.666127e+03	
56	2.800000e+00	2.702867e+03	
57	2.850000e+00	2.740530e+03	
58	2.900000e+00	2.779149e+03	
59	2.950000e+00	2.818763e+03	
60	3.000000e+00	2.859410e+03	
61	3.050000e+00	2.901132e+03	
62	3.100000e+00	2.943971e+03	
63	3.150000e+00	2.987973e+03	
64	3.200000e+00	3.033186e+03	
65	3.250000e+00	3.079661e+03	
66	3.300000e+00	3.127452e+03	
67	3.350000e+00	3.176615e+03	
68	3.400000e+00	3.227211e+03	
69	3.450000e+00	3.279304e+03	
70	3.500000e+00	3.332961e+03	
71	3.550000e+00	3.388254e+03	
72	3.600000e+00	3.445259e+03	
73	3.650000e+00	3.504060e+03	
74	3.700000e+00	3.564741e+03	
75	3.750000e+00	3.627396e+03	
76	3.800000e+00	3.692125e+03	
77	3.850000e+00	3.759033e+03	
78	3.900000e+00	3.828236e+03	
79	3.950000e+00	3.899856e+03	
80	4.000000e+00	3.974025e+03	
81	4.050000e+00	4.050887e+03	
82	4.100000e+00	4.130599e+03	
83	4.150000e+00	4.213329e+03	
84	4.200000e+00	4.299263e+03	
85	4.250000e+00	4.388608e+03	
86	4.300000e+00	4.481589e+03	
87	4.350000e+00	4.578461e+03	
88	4.400000e+00	4.679513e+03	
89	4.450000e+00	4.785073e+03	
90	4.500000e+00	4.895525e+03	
91	4.550000e+00	5.011326e+03	
92	4.600000e+00	5.133027e+03	
93	4.650000e+00	5.261319e+03	
94	4.700000e+00	5.397084e+03	
95	4.750000e+00	5.541493e+03	
96	4.800000e+00	5.696139e+03	
97	4.850000e+00	5.863263e+03	
98	4.900000e+00	6.046079e+03	
99	4.950000e+00	6.249264e+03	
100	5.000000e+00	6.479615e+03	
101	5.050000e+00	6.746793e+03	
102	5.100000e+00	7.063822e+03	
103	5.150000e+00	7.446680e+03	
104	5.200000e+00	7.912147e+03	
105	5.250000e+00	8.473810e+03	
106	5.300000e+00	9.137833e+03	
107	5.350000e+00	9.901079e+03	
108	5.400000e+00	1.075277e+04	
109	5.450000e+00	1.167824e+04	
110	5.500000e+00	1.266245e+04	
111	5.550000e+00	1.369212e+04	
112	5.600000e+00	1.475649e+04	

Index   v-sweep         rds             
--------------------------------------------------------------------------------
113	5.650000e+00	1.584724e+04	
114	5.700000e+00	1.695811e+04	
115	5.750000e+00	1.808443e+04	
116	5.800000e+00	1.922271e+04	
117	5.850000e+00	2.037037e+04	
118	5.900000e+00	2.152544e+04	
119	5.950000e+00	2.268646e+04	
120	6.000000e+00	2.385227e+04	
121	6.050000e+00	2.502199e+04	
122	6.100000e+00	2.619495e+04	
123	6.150000e+00	2.737060e+04	
124	6.200000e+00	2.854850e+04	
125	6.250000e+00	2.972830e+04	
126	6.300000e+00	3.090972e+04	
127	6.350000e+00	3.209252e+04	
128	6.400000e+00	3.327653e+04	
129	6.450000e+00	3.446156e+04	
130	6.500000e+00	3.564751e+04	
131	6.550000e+00	3.683424e+04	
132	6.600000e+00	3.802167e+04	
Reset re-loads circuit ***************************

Circuit: ***************************

Note: No ".plot", ".print", or ".fourier" lines; no simulations run
