
Note: Compatibility modes selected: hs

Warning: m=xx on .subckt line will override multiplier m hierarchy!


Circuit: ***************************

Doing analysis at TEMP = -40.000000 and TNOM = -40.000000


No. of Data Rows : 133
                          ***************************
                          DC transfer characteristic  Mon Jan  9 13:58:05  2023
--------------------------------------------------------------------------------
Index   v-sweep         rds             
--------------------------------------------------------------------------------
0	0.000000e+00	2.455773e+03	
1	5.000000e-02	3.027576e+03	
2	1.000000e-01	3.920180e+03	
3	1.500000e-01	5.477137e+03	
4	2.000000e-01	8.486225e+03	
5	2.500000e-01	1.309182e+04	
6	3.000000e-01	1.713488e+04	
7	3.500000e-01	2.040129e+04	
8	4.000000e-01	2.320574e+04	
9	4.500000e-01	2.565882e+04	
10	5.000000e-01	2.782012e+04	
11	5.500000e-01	2.973383e+04	
12	6.000000e-01	3.143573e+04	
13	6.500000e-01	3.295543e+04	
14	7.000000e-01	3.431765e+04	
15	7.500000e-01	3.554312e+04	
16	8.000000e-01	3.664932e+04	
17	8.500000e-01	3.765103e+04	
18	9.000000e-01	3.856084e+04	
19	9.500000e-01	3.938947e+04	
20	1.000000e+00	4.014616e+04	
21	1.050000e+00	4.083884e+04	
22	1.100000e+00	4.147440e+04	
23	1.150000e+00	4.205879e+04	
24	1.200000e+00	4.259723e+04	
25	1.250000e+00	4.309428e+04	
26	1.300000e+00	4.355394e+04	
27	1.350000e+00	4.397975e+04	
28	1.400000e+00	4.437481e+04	
29	1.450000e+00	4.474191e+04	
30	1.500000e+00	4.508349e+04	
31	1.550000e+00	4.540176e+04	
32	1.600000e+00	4.569867e+04	
33	1.650000e+00	4.597600e+04	
34	1.700000e+00	4.623531e+04	
35	1.750000e+00	4.647804e+04	
36	1.800000e+00	4.670548e+04	
37	1.850000e+00	4.691878e+04	
38	1.900000e+00	4.711900e+04	
39	1.950000e+00	4.730710e+04	
40	2.000000e+00	4.748395e+04	
41	2.050000e+00	4.765035e+04	
42	2.100000e+00	4.780703e+04	
43	2.150000e+00	4.795465e+04	
44	2.200000e+00	4.809382e+04	
45	2.250000e+00	4.822510e+04	
46	2.300000e+00	4.834900e+04	
47	2.350000e+00	4.846601e+04	
48	2.400000e+00	4.857654e+04	
49	2.450000e+00	4.868102e+04	
50	2.500000e+00	4.877980e+04	
51	2.550000e+00	4.887324e+04	
52	2.600000e+00	4.896165e+04	
53	2.650000e+00	4.904533e+04	
54	2.700000e+00	4.912456e+04	

Index   v-sweep         rds             
--------------------------------------------------------------------------------
55	2.750000e+00	4.919959e+04	
56	2.800000e+00	4.927066e+04	
57	2.850000e+00	4.933799e+04	
58	2.900000e+00	4.940179e+04	
59	2.950000e+00	4.946225e+04	
60	3.000000e+00	4.951956e+04	
61	3.050000e+00	4.957388e+04	
62	3.100000e+00	4.962537e+04	
63	3.150000e+00	4.967419e+04	
64	3.200000e+00	4.972046e+04	
65	3.250000e+00	4.976432e+04	
66	3.300000e+00	4.980589e+04	
67	3.350000e+00	4.984529e+04	
68	3.400000e+00	4.988263e+04	
69	3.450000e+00	4.991801e+04	
70	3.500000e+00	4.995152e+04	
71	3.550000e+00	4.998326e+04	
72	3.600000e+00	5.001331e+04	
73	3.650000e+00	5.004176e+04	
74	3.700000e+00	5.006868e+04	
75	3.750000e+00	5.009414e+04	
76	3.800000e+00	5.011821e+04	
77	3.850000e+00	5.014096e+04	
78	3.900000e+00	5.016244e+04	
79	3.950000e+00	5.018273e+04	
80	4.000000e+00	5.020186e+04	
81	4.050000e+00	5.021991e+04	
82	4.100000e+00	5.023690e+04	
83	4.150000e+00	5.025290e+04	
84	4.200000e+00	5.026795e+04	
85	4.250000e+00	5.028209e+04	
86	4.300000e+00	5.029536e+04	
87	4.350000e+00	5.030780e+04	
88	4.400000e+00	5.031945e+04	
89	4.450000e+00	5.033034e+04	
90	4.500000e+00	5.034051e+04	
91	4.550000e+00	5.034999e+04	
92	4.600000e+00	5.035881e+04	
93	4.650000e+00	5.036700e+04	
94	4.700000e+00	5.037459e+04	
95	4.750000e+00	5.038161e+04	
96	4.800000e+00	5.038808e+04	
97	4.850000e+00	5.039402e+04	
98	4.900000e+00	5.039947e+04	
99	4.950000e+00	5.040443e+04	
100	5.000000e+00	5.040895e+04	
101	5.050000e+00	5.041303e+04	
102	5.100000e+00	5.041669e+04	
103	5.150000e+00	5.041996e+04	
104	5.200000e+00	5.042286e+04	
105	5.250000e+00	5.042540e+04	
106	5.300000e+00	5.042759e+04	
107	5.350000e+00	5.042947e+04	
108	5.400000e+00	5.043103e+04	
109	5.450000e+00	5.043231e+04	
110	5.500000e+00	5.043330e+04	
111	5.550000e+00	5.043404e+04	
112	5.600000e+00	5.043452e+04	

Index   v-sweep         rds             
--------------------------------------------------------------------------------
113	5.650000e+00	5.043477e+04	
114	5.700000e+00	5.043479e+04	
115	5.750000e+00	5.043461e+04	
116	5.800000e+00	5.043423e+04	
117	5.850000e+00	5.043366e+04	
118	5.900000e+00	5.043292e+04	
119	5.950000e+00	5.043201e+04	
120	6.000000e+00	5.043096e+04	
121	6.050000e+00	5.042976e+04	
122	6.100000e+00	5.042842e+04	
123	6.150000e+00	5.042697e+04	
124	6.200000e+00	5.042540e+04	
125	6.250000e+00	5.042373e+04	
126	6.300000e+00	5.042197e+04	
127	6.350000e+00	5.042012e+04	
128	6.400000e+00	5.041819e+04	
129	6.450000e+00	5.041619e+04	
130	6.500000e+00	5.041414e+04	
131	6.550000e+00	5.041203e+04	
132	6.600000e+00	5.040988e+04	
Reset re-loads circuit ***************************

Circuit: ***************************

Doing analysis at TEMP = -40.000000 and TNOM = -40.000000


No. of Data Rows : 133
                          ***************************
                          DC transfer characteristic  Mon Jan  9 13:58:06  2023
--------------------------------------------------------------------------------
Index   v-sweep         rds             
--------------------------------------------------------------------------------
0	0.000000e+00	6.041670e+02	
1	5.000000e-02	6.355396e+02	
2	1.000000e-01	6.695587e+02	
3	1.500000e-01	7.065708e+02	
4	2.000000e-01	7.469861e+02	
5	2.500000e-01	7.912942e+02	
6	3.000000e-01	8.400858e+02	
7	3.500000e-01	8.940822e+02	
8	4.000000e-01	9.541813e+02	
9	4.500000e-01	1.021536e+03	
10	5.000000e-01	1.097719e+03	
11	5.500000e-01	1.185139e+03	
12	6.000000e-01	1.288325e+03	
13	6.500000e-01	1.418166e+03	
14	7.000000e-01	1.603356e+03	
15	7.500000e-01	1.897664e+03	
16	8.000000e-01	2.330484e+03	
17	8.500000e-01	2.861422e+03	
18	9.000000e-01	3.435460e+03	
19	9.500000e-01	4.020124e+03	
20	1.000000e+00	4.600241e+03	
21	1.050000e+00	5.168991e+03	
22	1.100000e+00	5.723332e+03	
23	1.150000e+00	6.261983e+03	
24	1.200000e+00	6.784533e+03	
25	1.250000e+00	7.291020e+03	
26	1.300000e+00	7.781724e+03	
27	1.350000e+00	8.257052e+03	
28	1.400000e+00	8.717479e+03	
29	1.450000e+00	9.163513e+03	
30	1.500000e+00	9.595676e+03	
31	1.550000e+00	1.001449e+04	
32	1.600000e+00	1.042046e+04	
33	1.650000e+00	1.081408e+04	
34	1.700000e+00	1.119585e+04	
35	1.750000e+00	1.156622e+04	
36	1.800000e+00	1.192564e+04	
37	1.850000e+00	1.227454e+04	
38	1.900000e+00	1.261334e+04	
39	1.950000e+00	1.294241e+04	
40	2.000000e+00	1.326214e+04	
41	2.050000e+00	1.357289e+04	
42	2.100000e+00	1.387499e+04	
43	2.150000e+00	1.416878e+04	
44	2.200000e+00	1.445456e+04	
45	2.250000e+00	1.473264e+04	
46	2.300000e+00	1.500329e+04	
47	2.350000e+00	1.526680e+04	
48	2.400000e+00	1.552341e+04	
49	2.450000e+00	1.577339e+04	
50	2.500000e+00	1.601695e+04	
51	2.550000e+00	1.625434e+04	
52	2.600000e+00	1.648576e+04	
53	2.650000e+00	1.671142e+04	
54	2.700000e+00	1.693153e+04	

Index   v-sweep         rds             
--------------------------------------------------------------------------------
55	2.750000e+00	1.714626e+04	
56	2.800000e+00	1.735581e+04	
57	2.850000e+00	1.756035e+04	
58	2.900000e+00	1.776004e+04	
59	2.950000e+00	1.795504e+04	
60	3.000000e+00	1.814550e+04	
61	3.050000e+00	1.833158e+04	
62	3.100000e+00	1.851340e+04	
63	3.150000e+00	1.869112e+04	
64	3.200000e+00	1.886485e+04	
65	3.250000e+00	1.903473e+04	
66	3.300000e+00	1.920086e+04	
67	3.350000e+00	1.936337e+04	
68	3.400000e+00	1.952237e+04	
69	3.450000e+00	1.967795e+04	
70	3.500000e+00	1.983024e+04	
71	3.550000e+00	1.997931e+04	
72	3.600000e+00	2.012527e+04	
73	3.650000e+00	2.026821e+04	
74	3.700000e+00	2.040821e+04	
75	3.750000e+00	2.054536e+04	
76	3.800000e+00	2.067975e+04	
77	3.850000e+00	2.081144e+04	
78	3.900000e+00	2.094052e+04	
79	3.950000e+00	2.106705e+04	
80	4.000000e+00	2.119112e+04	
81	4.050000e+00	2.131277e+04	
82	4.100000e+00	2.143209e+04	
83	4.150000e+00	2.154914e+04	
84	4.200000e+00	2.166397e+04	
85	4.250000e+00	2.177664e+04	
86	4.300000e+00	2.188721e+04	
87	4.350000e+00	2.199574e+04	
88	4.400000e+00	2.210228e+04	
89	4.450000e+00	2.220688e+04	
90	4.500000e+00	2.230959e+04	
91	4.550000e+00	2.241046e+04	
92	4.600000e+00	2.250953e+04	
93	4.650000e+00	2.260686e+04	
94	4.700000e+00	2.270247e+04	
95	4.750000e+00	2.279643e+04	
96	4.800000e+00	2.288876e+04	
97	4.850000e+00	2.297950e+04	
98	4.900000e+00	2.306871e+04	
99	4.950000e+00	2.315640e+04	
100	5.000000e+00	2.324262e+04	
101	5.050000e+00	2.332741e+04	
102	5.100000e+00	2.341079e+04	
103	5.150000e+00	2.349281e+04	
104	5.200000e+00	2.357348e+04	
105	5.250000e+00	2.365285e+04	
106	5.300000e+00	2.373094e+04	
107	5.350000e+00	2.380779e+04	
108	5.400000e+00	2.388341e+04	
109	5.450000e+00	2.395785e+04	
110	5.500000e+00	2.403111e+04	
111	5.550000e+00	2.410324e+04	
112	5.600000e+00	2.417426e+04	

Index   v-sweep         rds             
--------------------------------------------------------------------------------
113	5.650000e+00	2.424419e+04	
114	5.700000e+00	2.431305e+04	
115	5.750000e+00	2.438087e+04	
116	5.800000e+00	2.444767e+04	
117	5.850000e+00	2.451347e+04	
118	5.900000e+00	2.457830e+04	
119	5.950000e+00	2.464217e+04	
120	6.000000e+00	2.470511e+04	
121	6.050000e+00	2.476713e+04	
122	6.100000e+00	2.482825e+04	
123	6.150000e+00	2.488850e+04	
124	6.200000e+00	2.494789e+04	
125	6.250000e+00	2.500643e+04	
126	6.300000e+00	2.506415e+04	
127	6.350000e+00	2.512107e+04	
128	6.400000e+00	2.517719e+04	
129	6.450000e+00	2.523254e+04	
130	6.500000e+00	2.528712e+04	
131	6.550000e+00	2.534096e+04	
132	6.600000e+00	2.539408e+04	
Reset re-loads circuit ***************************

Circuit: ***************************

Doing analysis at TEMP = -40.000000 and TNOM = -40.000000


No. of Data Rows : 133
                          ***************************
                          DC transfer characteristic  Mon Jan  9 13:58:06  2023
--------------------------------------------------------------------------------
Index   v-sweep         rds             
--------------------------------------------------------------------------------
0	0.000000e+00	3.951138e+02	
1	5.000000e-02	4.086926e+02	
2	1.000000e-01	4.229148e+02	
3	1.500000e-01	4.378263e+02	
4	2.000000e-01	4.534772e+02	
5	2.500000e-01	4.699233e+02	
6	3.000000e-01	4.872262e+02	
7	3.500000e-01	5.054545e+02	
8	4.000000e-01	5.246852e+02	
9	4.500000e-01	5.450050e+02	
10	5.000000e-01	5.665126e+02	
11	5.500000e-01	5.893220e+02	
12	6.000000e-01	6.135681e+02	
13	6.500000e-01	6.394171e+02	
14	7.000000e-01	6.670865e+02	
15	7.500000e-01	6.968908e+02	
16	8.000000e-01	7.293488e+02	
17	8.500000e-01	7.654580e+02	
18	9.000000e-01	8.074302e+02	
19	9.500000e-01	8.606270e+02	
20	1.000000e+00	9.377467e+02	
21	1.050000e+00	1.062360e+03	
22	1.100000e+00	1.257296e+03	
23	1.150000e+00	1.520748e+03	
24	1.200000e+00	1.830286e+03	
25	1.250000e+00	2.164248e+03	
26	1.300000e+00	2.509097e+03	
27	1.350000e+00	2.857416e+03	
28	1.400000e+00	3.205212e+03	
29	1.450000e+00	3.550285e+03	
30	1.500000e+00	3.891394e+03	
31	1.550000e+00	4.227830e+03	
32	1.600000e+00	4.559186e+03	
33	1.650000e+00	4.885239e+03	
34	1.700000e+00	5.205879e+03	
35	1.750000e+00	5.521070e+03	
36	1.800000e+00	5.830822e+03	
37	1.850000e+00	6.135177e+03	
38	1.900000e+00	6.434199e+03	
39	1.950000e+00	6.727966e+03	
40	2.000000e+00	7.016564e+03	
41	2.050000e+00	7.300086e+03	
42	2.100000e+00	7.578632e+03	
43	2.150000e+00	7.852299e+03	
44	2.200000e+00	8.121190e+03	
45	2.250000e+00	8.385404e+03	
46	2.300000e+00	8.645044e+03	
47	2.350000e+00	8.900209e+03	
48	2.400000e+00	9.150996e+03	
49	2.450000e+00	9.397504e+03	
50	2.500000e+00	9.639828e+03	
51	2.550000e+00	9.878060e+03	
52	2.600000e+00	1.011229e+04	
53	2.650000e+00	1.034262e+04	
54	2.700000e+00	1.056912e+04	

Index   v-sweep         rds             
--------------------------------------------------------------------------------
55	2.750000e+00	1.079188e+04	
56	2.800000e+00	1.101099e+04	
57	2.850000e+00	1.122653e+04	
58	2.900000e+00	1.143858e+04	
59	2.950000e+00	1.164721e+04	
60	3.000000e+00	1.185250e+04	
61	3.050000e+00	1.205453e+04	
62	3.100000e+00	1.225336e+04	
63	3.150000e+00	1.244906e+04	
64	3.200000e+00	1.264171e+04	
65	3.250000e+00	1.283137e+04	
66	3.300000e+00	1.301810e+04	
67	3.350000e+00	1.320197e+04	
68	3.400000e+00	1.338304e+04	
69	3.450000e+00	1.356136e+04	
70	3.500000e+00	1.373700e+04	
71	3.550000e+00	1.391002e+04	
72	3.600000e+00	1.408046e+04	
73	3.650000e+00	1.424838e+04	
74	3.700000e+00	1.441383e+04	
75	3.750000e+00	1.457687e+04	
76	3.800000e+00	1.473754e+04	
77	3.850000e+00	1.489589e+04	
78	3.900000e+00	1.505197e+04	
79	3.950000e+00	1.520583e+04	
80	4.000000e+00	1.535751e+04	
81	4.050000e+00	1.550705e+04	
82	4.100000e+00	1.565449e+04	
83	4.150000e+00	1.579989e+04	
84	4.200000e+00	1.594327e+04	
85	4.250000e+00	1.608468e+04	
86	4.300000e+00	1.622415e+04	
87	4.350000e+00	1.636173e+04	
88	4.400000e+00	1.649745e+04	
89	4.450000e+00	1.663135e+04	
90	4.500000e+00	1.676345e+04	
91	4.550000e+00	1.689380e+04	
92	4.600000e+00	1.702243e+04	
93	4.650000e+00	1.714937e+04	
94	4.700000e+00	1.727465e+04	
95	4.750000e+00	1.739830e+04	
96	4.800000e+00	1.752035e+04	
97	4.850000e+00	1.764084e+04	
98	4.900000e+00	1.775979e+04	
99	4.950000e+00	1.787723e+04	
100	5.000000e+00	1.799319e+04	
101	5.050000e+00	1.810768e+04	
102	5.100000e+00	1.822075e+04	
103	5.150000e+00	1.833242e+04	
104	5.200000e+00	1.844270e+04	
105	5.250000e+00	1.855163e+04	
106	5.300000e+00	1.865922e+04	
107	5.350000e+00	1.876551e+04	
108	5.400000e+00	1.887052e+04	
109	5.450000e+00	1.897426e+04	
110	5.500000e+00	1.907676e+04	
111	5.550000e+00	1.917804e+04	
112	5.600000e+00	1.927812e+04	

Index   v-sweep         rds             
--------------------------------------------------------------------------------
113	5.650000e+00	1.937702e+04	
114	5.700000e+00	1.947476e+04	
115	5.750000e+00	1.957137e+04	
116	5.800000e+00	1.966685e+04	
117	5.850000e+00	1.976124e+04	
118	5.900000e+00	1.985454e+04	
119	5.950000e+00	1.994677e+04	
120	6.000000e+00	2.003796e+04	
121	6.050000e+00	2.012812e+04	
122	6.100000e+00	2.021727e+04	
123	6.150000e+00	2.030541e+04	
124	6.200000e+00	2.039258e+04	
125	6.250000e+00	2.047878e+04	
126	6.300000e+00	2.056404e+04	
127	6.350000e+00	2.064836e+04	
128	6.400000e+00	2.073176e+04	
129	6.450000e+00	2.081425e+04	
130	6.500000e+00	2.089586e+04	
131	6.550000e+00	2.097658e+04	
132	6.600000e+00	2.105645e+04	
Reset re-loads circuit ***************************

Circuit: ***************************

Doing analysis at TEMP = -40.000000 and TNOM = -40.000000


No. of Data Rows : 133
                          ***************************
                          DC transfer characteristic  Mon Jan  9 13:58:06  2023
--------------------------------------------------------------------------------
Index   v-sweep         rds             
--------------------------------------------------------------------------------
0	0.000000e+00	3.150170e+02	
1	5.000000e-02	3.234623e+02	
2	1.000000e-01	3.321889e+02	
3	1.500000e-01	3.412105e+02	
4	2.000000e-01	3.505418e+02	
5	2.500000e-01	3.601984e+02	
6	3.000000e-01	3.701974e+02	
7	3.500000e-01	3.805569e+02	
8	4.000000e-01	3.912967e+02	
9	4.500000e-01	4.024383e+02	
10	5.000000e-01	4.140051e+02	
11	5.500000e-01	4.260228e+02	
12	6.000000e-01	4.385195e+02	
13	6.500000e-01	4.515268e+02	
14	7.000000e-01	4.650801e+02	
15	7.500000e-01	4.792200e+02	
16	8.000000e-01	4.939950e+02	
17	8.500000e-01	5.094651e+02	
18	9.000000e-01	5.257098e+02	
19	9.500000e-01	5.428434e+02	
20	1.000000e+00	5.610479e+02	
21	1.050000e+00	5.806449e+02	
22	1.100000e+00	6.022630e+02	
23	1.150000e+00	6.272368e+02	
24	1.200000e+00	6.585415e+02	
25	1.250000e+00	7.026903e+02	
26	1.300000e+00	7.719279e+02	
27	1.350000e+00	8.817322e+02	
28	1.400000e+00	1.039430e+03	
29	1.450000e+00	1.237638e+03	
30	1.500000e+00	1.462583e+03	
31	1.550000e+00	1.702816e+03	
32	1.600000e+00	1.951032e+03	
33	1.650000e+00	2.202940e+03	
34	1.700000e+00	2.456039e+03	
35	1.750000e+00	2.708845e+03	
36	1.800000e+00	2.960450e+03	
37	1.850000e+00	3.210283e+03	
38	1.900000e+00	3.457983e+03	
39	1.950000e+00	3.703313e+03	
40	2.000000e+00	3.946121e+03	
41	2.050000e+00	4.186311e+03	
42	2.100000e+00	4.423823e+03	
43	2.150000e+00	4.658625e+03	
44	2.200000e+00	4.890703e+03	
45	2.250000e+00	5.120054e+03	
46	2.300000e+00	5.346689e+03	
47	2.350000e+00	5.570622e+03	
48	2.400000e+00	5.791876e+03	
49	2.450000e+00	6.010475e+03	
50	2.500000e+00	6.226448e+03	
51	2.550000e+00	6.439826e+03	
52	2.600000e+00	6.650640e+03	
53	2.650000e+00	6.858923e+03	
54	2.700000e+00	7.064710e+03	

Index   v-sweep         rds             
--------------------------------------------------------------------------------
55	2.750000e+00	7.268035e+03	
56	2.800000e+00	7.468934e+03	
57	2.850000e+00	7.667440e+03	
58	2.900000e+00	7.863590e+03	
59	2.950000e+00	8.057418e+03	
60	3.000000e+00	8.248959e+03	
61	3.050000e+00	8.438248e+03	
62	3.100000e+00	8.625318e+03	
63	3.150000e+00	8.810203e+03	
64	3.200000e+00	8.992938e+03	
65	3.250000e+00	9.173555e+03	
66	3.300000e+00	9.352087e+03	
67	3.350000e+00	9.528565e+03	
68	3.400000e+00	9.703022e+03	
69	3.450000e+00	9.875489e+03	
70	3.500000e+00	1.004600e+04	
71	3.550000e+00	1.021457e+04	
72	3.600000e+00	1.038125e+04	
73	3.650000e+00	1.054606e+04	
74	3.700000e+00	1.070903e+04	
75	3.750000e+00	1.087018e+04	
76	3.800000e+00	1.102955e+04	
77	3.850000e+00	1.118716e+04	
78	3.900000e+00	1.134304e+04	
79	3.950000e+00	1.149721e+04	
80	4.000000e+00	1.164971e+04	
81	4.050000e+00	1.180055e+04	
82	4.100000e+00	1.194976e+04	
83	4.150000e+00	1.209737e+04	
84	4.200000e+00	1.224340e+04	
85	4.250000e+00	1.238787e+04	
86	4.300000e+00	1.253081e+04	
87	4.350000e+00	1.267224e+04	
88	4.400000e+00	1.281219e+04	
89	4.450000e+00	1.295066e+04	
90	4.500000e+00	1.308769e+04	
91	4.550000e+00	1.322330e+04	
92	4.600000e+00	1.335751e+04	
93	4.650000e+00	1.349034e+04	
94	4.700000e+00	1.362180e+04	
95	4.750000e+00	1.375192e+04	
96	4.800000e+00	1.388072e+04	
97	4.850000e+00	1.400822e+04	
98	4.900000e+00	1.413443e+04	
99	4.950000e+00	1.425938e+04	
100	5.000000e+00	1.438308e+04	
101	5.050000e+00	1.450555e+04	
102	5.100000e+00	1.462680e+04	
103	5.150000e+00	1.474686e+04	
104	5.200000e+00	1.486574e+04	
105	5.250000e+00	1.498346e+04	
106	5.300000e+00	1.510003e+04	
107	5.350000e+00	1.521548e+04	
108	5.400000e+00	1.532980e+04	
109	5.450000e+00	1.544303e+04	
110	5.500000e+00	1.555517e+04	
111	5.550000e+00	1.566625e+04	
112	5.600000e+00	1.577627e+04	

Index   v-sweep         rds             
--------------------------------------------------------------------------------
113	5.650000e+00	1.588525e+04	
114	5.700000e+00	1.599320e+04	
115	5.750000e+00	1.610014e+04	
116	5.800000e+00	1.620608e+04	
117	5.850000e+00	1.631104e+04	
118	5.900000e+00	1.641503e+04	
119	5.950000e+00	1.651805e+04	
120	6.000000e+00	1.662013e+04	
121	6.050000e+00	1.672128e+04	
122	6.100000e+00	1.682150e+04	
123	6.150000e+00	1.692081e+04	
124	6.200000e+00	1.701923e+04	
125	6.250000e+00	1.711676e+04	
126	6.300000e+00	1.721342e+04	
127	6.350000e+00	1.730921e+04	
128	6.400000e+00	1.740415e+04	
129	6.450000e+00	1.749825e+04	
130	6.500000e+00	1.759152e+04	
131	6.550000e+00	1.768397e+04	
132	6.600000e+00	1.777561e+04	
Reset re-loads circuit ***************************

Circuit: ***************************

Doing analysis at TEMP = -40.000000 and TNOM = -40.000000


No. of Data Rows : 133
                          ***************************
                          DC transfer characteristic  Mon Jan  9 13:58:06  2023
--------------------------------------------------------------------------------
Index   v-sweep         rds             
--------------------------------------------------------------------------------
0	0.000000e+00	2.748190e+02	
1	5.000000e-02	2.809123e+02	
2	1.000000e-01	2.871619e+02	
3	1.500000e-01	2.935737e+02	
4	2.000000e-01	3.001535e+02	
5	2.500000e-01	3.069078e+02	
6	3.000000e-01	3.138434e+02	
7	3.500000e-01	3.209674e+02	
8	4.000000e-01	3.282874e+02	
9	4.500000e-01	3.358116e+02	
10	5.000000e-01	3.435486e+02	
11	5.500000e-01	3.515078e+02	
12	6.000000e-01	3.596992e+02	
13	6.500000e-01	3.681334e+02	
14	7.000000e-01	3.768223e+02	
15	7.500000e-01	3.857785e+02	
16	8.000000e-01	3.950159e+02	
17	8.500000e-01	4.045499e+02	
18	9.000000e-01	4.143980e+02	
19	9.500000e-01	4.245803e+02	
20	1.000000e+00	4.351208e+02	
21	1.050000e+00	4.460495e+02	
22	1.100000e+00	4.574059e+02	
23	1.150000e+00	4.692462e+02	
24	1.200000e+00	4.816561e+02	
25	1.250000e+00	4.947778e+02	
26	1.300000e+00	5.088655e+02	
27	1.350000e+00	5.244061e+02	
28	1.400000e+00	5.423850e+02	
29	1.450000e+00	5.648579e+02	
30	1.500000e+00	5.960306e+02	
31	1.550000e+00	6.435448e+02	
32	1.600000e+00	7.177152e+02	
33	1.650000e+00	8.258234e+02	
34	1.700000e+00	9.662923e+02	
35	1.750000e+00	1.130973e+03	
36	1.800000e+00	1.311188e+03	
37	1.850000e+00	1.500585e+03	
38	1.900000e+00	1.695121e+03	
39	1.950000e+00	1.892328e+03	
40	2.000000e+00	2.090695e+03	
41	2.050000e+00	2.289275e+03	
42	2.100000e+00	2.487463e+03	
43	2.150000e+00	2.684859e+03	
44	2.200000e+00	2.881196e+03	
45	2.250000e+00	3.076290e+03	
46	2.300000e+00	3.270014e+03	
47	2.350000e+00	3.462282e+03	
48	2.400000e+00	3.653030e+03	
49	2.450000e+00	3.842219e+03	
50	2.500000e+00	4.029819e+03	
51	2.550000e+00	4.215814e+03	
52	2.600000e+00	4.400193e+03	
53	2.650000e+00	4.582952e+03	
54	2.700000e+00	4.764092e+03	

Index   v-sweep         rds             
--------------------------------------------------------------------------------
55	2.750000e+00	4.943617e+03	
56	2.800000e+00	5.121533e+03	
57	2.850000e+00	5.297849e+03	
58	2.900000e+00	5.472576e+03	
59	2.950000e+00	5.645724e+03	
60	3.000000e+00	5.817307e+03	
61	3.050000e+00	5.987339e+03	
62	3.100000e+00	6.155833e+03	
63	3.150000e+00	6.322804e+03	
64	3.200000e+00	6.488268e+03	
65	3.250000e+00	6.652238e+03	
66	3.300000e+00	6.814732e+03	
67	3.350000e+00	6.975765e+03	
68	3.400000e+00	7.135352e+03	
69	3.450000e+00	7.293509e+03	
70	3.500000e+00	7.450252e+03	
71	3.550000e+00	7.605597e+03	
72	3.600000e+00	7.759560e+03	
73	3.650000e+00	7.912156e+03	
74	3.700000e+00	8.063402e+03	
75	3.750000e+00	8.213311e+03	
76	3.800000e+00	8.361901e+03	
77	3.850000e+00	8.509186e+03	
78	3.900000e+00	8.655180e+03	
79	3.950000e+00	8.799901e+03	
80	4.000000e+00	8.943361e+03	
81	4.050000e+00	9.085576e+03	
82	4.100000e+00	9.226560e+03	
83	4.150000e+00	9.366328e+03	
84	4.200000e+00	9.504894e+03	
85	4.250000e+00	9.642272e+03	
86	4.300000e+00	9.778475e+03	
87	4.350000e+00	9.913518e+03	
88	4.400000e+00	1.004741e+04	
89	4.450000e+00	1.018018e+04	
90	4.500000e+00	1.031182e+04	
91	4.550000e+00	1.044235e+04	
92	4.600000e+00	1.057179e+04	
93	4.650000e+00	1.070015e+04	
94	4.700000e+00	1.082744e+04	
95	4.750000e+00	1.095367e+04	
96	4.800000e+00	1.107886e+04	
97	4.850000e+00	1.120302e+04	
98	4.900000e+00	1.132615e+04	
99	4.950000e+00	1.144828e+04	
100	5.000000e+00	1.156941e+04	
101	5.050000e+00	1.168955e+04	
102	5.100000e+00	1.180872e+04	
103	5.150000e+00	1.192692e+04	
104	5.200000e+00	1.204417e+04	
105	5.250000e+00	1.216048e+04	
106	5.300000e+00	1.227586e+04	
107	5.350000e+00	1.239032e+04	
108	5.400000e+00	1.250386e+04	
109	5.450000e+00	1.261651e+04	
110	5.500000e+00	1.272827e+04	
111	5.550000e+00	1.283915e+04	
112	5.600000e+00	1.294915e+04	

Index   v-sweep         rds             
--------------------------------------------------------------------------------
113	5.650000e+00	1.305830e+04	
114	5.700000e+00	1.316660e+04	
115	5.750000e+00	1.327405e+04	
116	5.800000e+00	1.338067e+04	
117	5.850000e+00	1.348647e+04	
118	5.900000e+00	1.359146e+04	
119	5.950000e+00	1.369564e+04	
120	6.000000e+00	1.379902e+04	
121	6.050000e+00	1.390162e+04	
122	6.100000e+00	1.400343e+04	
123	6.150000e+00	1.410448e+04	
124	6.200000e+00	1.420477e+04	
125	6.250000e+00	1.430430e+04	
126	6.300000e+00	1.440308e+04	
127	6.350000e+00	1.450113e+04	
128	6.400000e+00	1.459844e+04	
129	6.450000e+00	1.469504e+04	
130	6.500000e+00	1.479092e+04	
131	6.550000e+00	1.488609e+04	
132	6.600000e+00	1.498057e+04	
Reset re-loads circuit ***************************

Circuit: ***************************

Doing analysis at TEMP = -40.000000 and TNOM = -40.000000


No. of Data Rows : 133
                          ***************************
                          DC transfer characteristic  Mon Jan  9 13:58:06  2023
--------------------------------------------------------------------------------
Index   v-sweep         rds             
--------------------------------------------------------------------------------
0	0.000000e+00	2.522832e+02	
1	5.000000e-02	2.570430e+02	
2	1.000000e-01	2.619015e+02	
3	1.500000e-01	2.668617e+02	
4	2.000000e-01	2.719265e+02	
5	2.500000e-01	2.770990e+02	
6	3.000000e-01	2.823825e+02	
7	3.500000e-01	2.877806e+02	
8	4.000000e-01	2.932967e+02	
9	4.500000e-01	2.989347e+02	
10	5.000000e-01	3.046986e+02	
11	5.500000e-01	3.105927e+02	
12	6.000000e-01	3.166215e+02	
13	6.500000e-01	3.227898e+02	
14	7.000000e-01	3.291026e+02	
15	7.500000e-01	3.355655e+02	
16	8.000000e-01	3.421842e+02	
17	8.500000e-01	3.489649e+02	
18	9.000000e-01	3.559144e+02	
19	9.500000e-01	3.630398e+02	
20	1.000000e+00	3.703492e+02	
21	1.050000e+00	3.778512e+02	
22	1.100000e+00	3.855559e+02	
23	1.150000e+00	3.934744e+02	
24	1.200000e+00	4.016205e+02	
25	1.250000e+00	4.100108e+02	
26	1.300000e+00	4.186670e+02	
27	1.350000e+00	4.276187e+02	
28	1.400000e+00	4.369094e+02	
29	1.450000e+00	4.466062e+02	
30	1.500000e+00	4.568202e+02	
31	1.550000e+00	4.677459e+02	
32	1.600000e+00	4.797417e+02	
33	1.650000e+00	4.934976e+02	
34	1.700000e+00	5.103749e+02	
35	1.750000e+00	5.330294e+02	
36	1.800000e+00	5.662368e+02	
37	1.850000e+00	6.169739e+02	
38	1.900000e+00	6.918708e+02	
39	1.950000e+00	7.928046e+02	
40	2.000000e+00	9.158586e+02	
41	2.050000e+00	1.054694e+03	
42	2.100000e+00	1.203699e+03	
43	2.150000e+00	1.358919e+03	
44	2.200000e+00	1.517803e+03	
45	2.250000e+00	1.678743e+03	
46	2.300000e+00	1.840720e+03	
47	2.350000e+00	2.003073e+03	
48	2.400000e+00	2.165366e+03	
49	2.450000e+00	2.327302e+03	
50	2.500000e+00	2.488676e+03	
51	2.550000e+00	2.649345e+03	
52	2.600000e+00	2.809205e+03	
53	2.650000e+00	2.968181e+03	
54	2.700000e+00	3.126219e+03	

Index   v-sweep         rds             
--------------------------------------------------------------------------------
55	2.750000e+00	3.283280e+03	
56	2.800000e+00	3.439335e+03	
57	2.850000e+00	3.594364e+03	
58	2.900000e+00	3.748351e+03	
59	2.950000e+00	3.901287e+03	
60	3.000000e+00	4.053166e+03	
61	3.050000e+00	4.203985e+03	
62	3.100000e+00	4.353742e+03	
63	3.150000e+00	4.502438e+03	
64	3.200000e+00	4.650076e+03	
65	3.250000e+00	4.796659e+03	
66	3.300000e+00	4.942191e+03	
67	3.350000e+00	5.086678e+03	
68	3.400000e+00	5.230125e+03	
69	3.450000e+00	5.372538e+03	
70	3.500000e+00	5.513925e+03	
71	3.550000e+00	5.654292e+03	
72	3.600000e+00	5.793647e+03	
73	3.650000e+00	5.931998e+03	
74	3.700000e+00	6.069352e+03	
75	3.750000e+00	6.205716e+03	
76	3.800000e+00	6.341100e+03	
77	3.850000e+00	6.475512e+03	
78	3.900000e+00	6.608959e+03	
79	3.950000e+00	6.741450e+03	
80	4.000000e+00	6.872993e+03	
81	4.050000e+00	7.003596e+03	
82	4.100000e+00	7.133269e+03	
83	4.150000e+00	7.262018e+03	
84	4.200000e+00	7.389853e+03	
85	4.250000e+00	7.516782e+03	
86	4.300000e+00	7.642812e+03	
87	4.350000e+00	7.767953e+03	
88	4.400000e+00	7.892212e+03	
89	4.450000e+00	8.015597e+03	
90	4.500000e+00	8.138117e+03	
91	4.550000e+00	8.259779e+03	
92	4.600000e+00	8.380592e+03	
93	4.650000e+00	8.500563e+03	
94	4.700000e+00	8.619700e+03	
95	4.750000e+00	8.738011e+03	
96	4.800000e+00	8.855504e+03	
97	4.850000e+00	8.972186e+03	
98	4.900000e+00	9.088066e+03	
99	4.950000e+00	9.203149e+03	
100	5.000000e+00	9.317444e+03	
101	5.050000e+00	9.430959e+03	
102	5.100000e+00	9.543700e+03	
103	5.150000e+00	9.655674e+03	
104	5.200000e+00	9.766890e+03	
105	5.250000e+00	9.877353e+03	
106	5.300000e+00	9.987071e+03	
107	5.350000e+00	1.009605e+04	
108	5.400000e+00	1.020430e+04	
109	5.450000e+00	1.031183e+04	
110	5.500000e+00	1.041863e+04	
111	5.550000e+00	1.052473e+04	
112	5.600000e+00	1.063012e+04	

Index   v-sweep         rds             
--------------------------------------------------------------------------------
113	5.650000e+00	1.073481e+04	
114	5.700000e+00	1.083881e+04	
115	5.750000e+00	1.094213e+04	
116	5.800000e+00	1.104477e+04	
117	5.850000e+00	1.114673e+04	
118	5.900000e+00	1.124803e+04	
119	5.950000e+00	1.134867e+04	
120	6.000000e+00	1.144866e+04	
121	6.050000e+00	1.154799e+04	
122	6.100000e+00	1.164669e+04	
123	6.150000e+00	1.174475e+04	
124	6.200000e+00	1.184217e+04	
125	6.250000e+00	1.193898e+04	
126	6.300000e+00	1.203516e+04	
127	6.350000e+00	1.213073e+04	
128	6.400000e+00	1.222569e+04	
129	6.450000e+00	1.232005e+04	
130	6.500000e+00	1.241381e+04	
131	6.550000e+00	1.250698e+04	
132	6.600000e+00	1.259956e+04	
Reset re-loads circuit ***************************

Circuit: ***************************

Note: No ".plot", ".print", or ".fourier" lines; no simulations run
