
Note: Compatibility modes selected: hs

Warning: m=xx on .subckt line will override multiplier m hierarchy!


Circuit: ***************************

Doing analysis at TEMP = 25.000000 and TNOM = 25.000000


No. of Data Rows : 133
                          ***************************
                          DC transfer characteristic  Mon Jan  9 13:58:05  2023
--------------------------------------------------------------------------------
Index   v-sweep         rds             
--------------------------------------------------------------------------------
0	0.000000e+00	1.009575e+04	
1	5.000000e-02	1.188953e+04	
2	1.000000e-01	1.444006e+04	
3	1.500000e-01	1.834686e+04	
4	2.000000e-01	2.503626e+04	
5	2.500000e-01	3.864075e+04	
6	3.000000e-01	7.268622e+04	
7	3.500000e-01	1.473703e+05	
8	4.000000e-01	2.294912e+05	
9	4.500000e-01	2.918464e+05	
10	5.000000e-01	3.433660e+05	
11	5.500000e-01	3.905820e+05	
12	6.000000e-01	4.359647e+05	
13	6.500000e-01	4.804676e+05	
14	7.000000e-01	5.245009e+05	
15	7.500000e-01	5.682599e+05	
16	8.000000e-01	6.118467e+05	
17	8.500000e-01	6.553181e+05	
18	9.000000e-01	6.987080e+05	
19	9.500000e-01	7.420375e+05	
20	1.000000e+00	7.853203e+05	
21	1.050000e+00	8.285655e+05	
22	1.100000e+00	8.717795e+05	
23	1.150000e+00	9.149669e+05	
24	1.200000e+00	9.581310e+05	
25	1.250000e+00	1.001274e+06	
26	1.300000e+00	1.044398e+06	
27	1.350000e+00	1.087505e+06	
28	1.400000e+00	1.130595e+06	
29	1.450000e+00	1.173669e+06	
30	1.500000e+00	1.216728e+06	
31	1.550000e+00	1.259773e+06	
32	1.600000e+00	1.302803e+06	
33	1.650000e+00	1.345820e+06	
34	1.700000e+00	1.388824e+06	
35	1.750000e+00	1.431815e+06	
36	1.800000e+00	1.474792e+06	
37	1.850000e+00	1.517757e+06	
38	1.900000e+00	1.560709e+06	
39	1.950000e+00	1.603649e+06	
40	2.000000e+00	1.646576e+06	
41	2.050000e+00	1.689491e+06	
42	2.100000e+00	1.732393e+06	
43	2.150000e+00	1.775284e+06	
44	2.200000e+00	1.818162e+06	
45	2.250000e+00	1.861028e+06	
46	2.300000e+00	1.903883e+06	
47	2.350000e+00	1.946725e+06	
48	2.400000e+00	1.989555e+06	
49	2.450000e+00	2.032374e+06	
50	2.500000e+00	2.075180e+06	
51	2.550000e+00	2.117974e+06	
52	2.600000e+00	2.160757e+06	
53	2.650000e+00	2.203528e+06	
54	2.700000e+00	2.246286e+06	

Index   v-sweep         rds             
--------------------------------------------------------------------------------
55	2.750000e+00	2.289033e+06	
56	2.800000e+00	2.331769e+06	
57	2.850000e+00	2.374492e+06	
58	2.900000e+00	2.417203e+06	
59	2.950000e+00	2.459903e+06	
60	3.000000e+00	2.502591e+06	
61	3.050000e+00	2.545267e+06	
62	3.100000e+00	2.587931e+06	
63	3.150000e+00	2.630583e+06	
64	3.200000e+00	2.673224e+06	
65	3.250000e+00	2.715853e+06	
66	3.300000e+00	2.758470e+06	
67	3.350000e+00	2.801075e+06	
68	3.400000e+00	2.843668e+06	
69	3.450000e+00	2.886250e+06	
70	3.500000e+00	2.928819e+06	
71	3.550000e+00	2.971377e+06	
72	3.600000e+00	3.013923e+06	
73	3.650000e+00	3.056458e+06	
74	3.700000e+00	3.098980e+06	
75	3.750000e+00	3.141491e+06	
76	3.800000e+00	3.183990e+06	
77	3.850000e+00	3.226477e+06	
78	3.900000e+00	3.268952e+06	
79	3.950000e+00	3.311416e+06	
80	4.000000e+00	3.353867e+06	
81	4.050000e+00	3.396307e+06	
82	4.100000e+00	3.438735e+06	
83	4.150000e+00	3.481151e+06	
84	4.200000e+00	3.523556e+06	
85	4.250000e+00	3.565948e+06	
86	4.300000e+00	3.608329e+06	
87	4.350000e+00	3.650698e+06	
88	4.400000e+00	3.693055e+06	
89	4.450000e+00	3.735401e+06	
90	4.500000e+00	3.777734e+06	
91	4.550000e+00	3.820056e+06	
92	4.600000e+00	3.862366e+06	
93	4.650000e+00	3.904664e+06	
94	4.700000e+00	3.946950e+06	
95	4.750000e+00	3.989224e+06	
96	4.800000e+00	4.031487e+06	
97	4.850000e+00	4.073738e+06	
98	4.900000e+00	4.115977e+06	
99	4.950000e+00	4.158204e+06	
100	5.000000e+00	4.200419e+06	
101	5.050000e+00	4.242622e+06	
102	5.100000e+00	4.284814e+06	
103	5.150000e+00	4.326994e+06	
104	5.200000e+00	4.369162e+06	
105	5.250000e+00	4.411318e+06	
106	5.300000e+00	4.453462e+06	
107	5.350000e+00	4.495595e+06	
108	5.400000e+00	4.537715e+06	
109	5.450000e+00	4.579824e+06	
110	5.500000e+00	4.621921e+06	
111	5.550000e+00	4.664006e+06	
112	5.600000e+00	4.706079e+06	

Index   v-sweep         rds             
--------------------------------------------------------------------------------
113	5.650000e+00	4.748141e+06	
114	5.700000e+00	4.790190e+06	
115	5.750000e+00	4.832228e+06	
116	5.800000e+00	4.874254e+06	
117	5.850000e+00	4.916268e+06	
118	5.900000e+00	4.958270e+06	
119	5.950000e+00	5.000261e+06	
120	6.000000e+00	5.042239e+06	
121	6.050000e+00	5.084206e+06	
122	6.100000e+00	5.126161e+06	
123	6.150000e+00	5.168104e+06	
124	6.200000e+00	5.210035e+06	
125	6.250000e+00	5.251955e+06	
126	6.300000e+00	5.293862e+06	
127	6.350000e+00	5.335758e+06	
128	6.400000e+00	5.377642e+06	
129	6.450000e+00	5.419514e+06	
130	6.500000e+00	5.461374e+06	
131	6.550000e+00	5.503223e+06	
132	6.600000e+00	5.545059e+06	
Reset re-loads circuit ***************************

Circuit: ***************************

Doing analysis at TEMP = 25.000000 and TNOM = 25.000000


No. of Data Rows : 133
                          ***************************
                          DC transfer characteristic  Mon Jan  9 13:58:05  2023
--------------------------------------------------------------------------------
Index   v-sweep         rds             
--------------------------------------------------------------------------------
0	0.000000e+00	2.556559e+03	
1	5.000000e-02	2.656169e+03	
2	1.000000e-01	2.763172e+03	
3	1.500000e-01	2.878422e+03	
4	2.000000e-01	3.002910e+03	
5	2.500000e-01	3.137791e+03	
6	3.000000e-01	3.284423e+03	
7	3.500000e-01	3.444410e+03	
8	4.000000e-01	3.619661e+03	
9	4.500000e-01	3.812467e+03	
10	5.000000e-01	4.025603e+03	
11	5.500000e-01	4.262458e+03	
12	6.000000e-01	4.527219e+03	
13	6.500000e-01	4.825116e+03	
14	7.000000e-01	5.162771e+03	
15	7.500000e-01	5.548688e+03	
16	8.000000e-01	5.993965e+03	
17	8.500000e-01	6.513355e+03	
18	9.000000e-01	7.126861e+03	
19	9.500000e-01	7.862216e+03	
20	1.000000e+00	8.758724e+03	
21	1.050000e+00	9.873114e+03	
22	1.100000e+00	1.128726e+04	
23	1.150000e+00	1.311259e+04	
24	1.200000e+00	1.546838e+04	
25	1.250000e+00	1.839932e+04	
26	1.300000e+00	2.179579e+04	
27	1.350000e+00	2.546931e+04	
28	1.400000e+00	2.927897e+04	
29	1.450000e+00	3.315264e+04	
30	1.500000e+00	3.705779e+04	
31	1.550000e+00	4.097964e+04	
32	1.600000e+00	4.491104e+04	
33	1.650000e+00	4.884824e+04	
34	1.700000e+00	5.278918e+04	
35	1.750000e+00	5.673262e+04	
36	1.800000e+00	6.067778e+04	
37	1.850000e+00	6.462414e+04	
38	1.900000e+00	6.857137e+04	
39	1.950000e+00	7.251922e+04	
40	2.000000e+00	7.646750e+04	
41	2.050000e+00	8.041609e+04	
42	2.100000e+00	8.436489e+04	
43	2.150000e+00	8.831382e+04	
44	2.200000e+00	9.226281e+04	
45	2.250000e+00	9.621182e+04	
46	2.300000e+00	1.001608e+05	
47	2.350000e+00	1.041097e+05	
48	2.400000e+00	1.080586e+05	
49	2.450000e+00	1.120073e+05	
50	2.500000e+00	1.159559e+05	
51	2.550000e+00	1.199044e+05	
52	2.600000e+00	1.238527e+05	
53	2.650000e+00	1.278009e+05	
54	2.700000e+00	1.317488e+05	

Index   v-sweep         rds             
--------------------------------------------------------------------------------
55	2.750000e+00	1.356966e+05	
56	2.800000e+00	1.396441e+05	
57	2.850000e+00	1.435915e+05	
58	2.900000e+00	1.475386e+05	
59	2.950000e+00	1.514856e+05	
60	3.000000e+00	1.554322e+05	
61	3.050000e+00	1.593787e+05	
62	3.100000e+00	1.633249e+05	
63	3.150000e+00	1.672709e+05	
64	3.200000e+00	1.712167e+05	
65	3.250000e+00	1.751621e+05	
66	3.300000e+00	1.791074e+05	
67	3.350000e+00	1.830524e+05	
68	3.400000e+00	1.869971e+05	
69	3.450000e+00	1.909416e+05	
70	3.500000e+00	1.948858e+05	
71	3.550000e+00	1.988297e+05	
72	3.600000e+00	2.027734e+05	
73	3.650000e+00	2.067168e+05	
74	3.700000e+00	2.106599e+05	
75	3.750000e+00	2.146028e+05	
76	3.800000e+00	2.185454e+05	
77	3.850000e+00	2.224877e+05	
78	3.900000e+00	2.264298e+05	
79	3.950000e+00	2.303715e+05	
80	4.000000e+00	2.343130e+05	
81	4.050000e+00	2.382542e+05	
82	4.100000e+00	2.421952e+05	
83	4.150000e+00	2.461358e+05	
84	4.200000e+00	2.500762e+05	
85	4.250000e+00	2.540163e+05	
86	4.300000e+00	2.579561e+05	
87	4.350000e+00	2.618956e+05	
88	4.400000e+00	2.658348e+05	
89	4.450000e+00	2.697737e+05	
90	4.500000e+00	2.737124e+05	
91	4.550000e+00	2.776507e+05	
92	4.600000e+00	2.815888e+05	
93	4.650000e+00	2.855266e+05	
94	4.700000e+00	2.894640e+05	
95	4.750000e+00	2.934012e+05	
96	4.800000e+00	2.973381e+05	
97	4.850000e+00	3.012747e+05	
98	4.900000e+00	3.052111e+05	
99	4.950000e+00	3.091471e+05	
100	5.000000e+00	3.130828e+05	
101	5.050000e+00	3.170182e+05	
102	5.100000e+00	3.209534e+05	
103	5.150000e+00	3.248882e+05	
104	5.200000e+00	3.288228e+05	
105	5.250000e+00	3.327570e+05	
106	5.300000e+00	3.366910e+05	
107	5.350000e+00	3.406246e+05	
108	5.400000e+00	3.445580e+05	
109	5.450000e+00	3.484910e+05	
110	5.500000e+00	3.524238e+05	
111	5.550000e+00	3.563562e+05	
112	5.600000e+00	3.602884e+05	

Index   v-sweep         rds             
--------------------------------------------------------------------------------
113	5.650000e+00	3.642202e+05	
114	5.700000e+00	3.681518e+05	
115	5.750000e+00	3.720830e+05	
116	5.800000e+00	3.760140e+05	
117	5.850000e+00	3.799447e+05	
118	5.900000e+00	3.838750e+05	
119	5.950000e+00	3.878051e+05	
120	6.000000e+00	3.917348e+05	
121	6.050000e+00	3.956642e+05	
122	6.100000e+00	3.995934e+05	
123	6.150000e+00	4.035222e+05	
124	6.200000e+00	4.074508e+05	
125	6.250000e+00	4.113790e+05	
126	6.300000e+00	4.153069e+05	
127	6.350000e+00	4.192346e+05	
128	6.400000e+00	4.231619e+05	
129	6.450000e+00	4.270889e+05	
130	6.500000e+00	4.310156e+05	
131	6.550000e+00	4.349420e+05	
132	6.600000e+00	4.388681e+05	
Reset re-loads circuit ***************************

Circuit: ***************************

Doing analysis at TEMP = 25.000000 and TNOM = 25.000000


No. of Data Rows : 133
                          ***************************
                          DC transfer characteristic  Mon Jan  9 13:58:05  2023
--------------------------------------------------------------------------------
Index   v-sweep         rds             
--------------------------------------------------------------------------------
0	0.000000e+00	1.658712e+03	
1	5.000000e-02	1.696286e+03	
2	1.000000e-01	1.735359e+03	
3	1.500000e-01	1.776022e+03	
4	2.000000e-01	1.818376e+03	
5	2.500000e-01	1.862526e+03	
6	3.000000e-01	1.908589e+03	
7	3.500000e-01	1.956693e+03	
8	4.000000e-01	2.006976e+03	
9	4.500000e-01	2.059588e+03	
10	5.000000e-01	2.114695e+03	
11	5.500000e-01	2.172478e+03	
12	6.000000e-01	2.233138e+03	
13	6.500000e-01	2.296894e+03	
14	7.000000e-01	2.363988e+03	
15	7.500000e-01	2.434691e+03	
16	8.000000e-01	2.509299e+03	
17	8.500000e-01	2.588147e+03	
18	9.000000e-01	2.671605e+03	
19	9.500000e-01	2.760089e+03	
20	1.000000e+00	2.854068e+03	
21	1.050000e+00	2.954070e+03	
22	1.100000e+00	3.060693e+03	
23	1.150000e+00	3.174617e+03	
24	1.200000e+00	3.296619e+03	
25	1.250000e+00	3.427592e+03	
26	1.300000e+00	3.568566e+03	
27	1.350000e+00	3.720737e+03	
28	1.400000e+00	3.885504e+03	
29	1.450000e+00	4.064511e+03	
30	1.500000e+00	4.259715e+03	
31	1.550000e+00	4.473467e+03	
32	1.600000e+00	4.708629e+03	
33	1.650000e+00	4.968748e+03	
34	1.700000e+00	5.258337e+03	
35	1.750000e+00	5.583327e+03	
36	1.800000e+00	5.951896e+03	
37	1.850000e+00	6.375983e+03	
38	1.900000e+00	6.873972e+03	
39	1.950000e+00	7.474455e+03	
40	2.000000e+00	8.217592e+03	
41	2.050000e+00	9.144358e+03	
42	2.100000e+00	1.027075e+04	
43	2.150000e+00	1.157294e+04	
44	2.200000e+00	1.300431e+04	
45	2.250000e+00	1.452058e+04	
46	2.300000e+00	1.609015e+04	
47	2.350000e+00	1.769310e+04	
48	2.400000e+00	1.931739e+04	
49	2.450000e+00	2.095570e+04	
50	2.500000e+00	2.260353e+04	
51	2.550000e+00	2.425800e+04	
52	2.600000e+00	2.591724e+04	
53	2.650000e+00	2.757998e+04	
54	2.700000e+00	2.924536e+04	

Index   v-sweep         rds             
--------------------------------------------------------------------------------
55	2.750000e+00	3.091275e+04	
56	2.800000e+00	3.258172e+04	
57	2.850000e+00	3.425192e+04	
58	2.900000e+00	3.592311e+04	
59	2.950000e+00	3.759511e+04	
60	3.000000e+00	3.926775e+04	
61	3.050000e+00	4.094094e+04	
62	3.100000e+00	4.261457e+04	
63	3.150000e+00	4.428856e+04	
64	3.200000e+00	4.596287e+04	
65	3.250000e+00	4.763744e+04	
66	3.300000e+00	4.931222e+04	
67	3.350000e+00	5.098718e+04	
68	3.400000e+00	5.266230e+04	
69	3.450000e+00	5.433755e+04	
70	3.500000e+00	5.601290e+04	
71	3.550000e+00	5.768835e+04	
72	3.600000e+00	5.936386e+04	
73	3.650000e+00	6.103944e+04	
74	3.700000e+00	6.271506e+04	
75	3.750000e+00	6.439072e+04	
76	3.800000e+00	6.606641e+04	
77	3.850000e+00	6.774212e+04	
78	3.900000e+00	6.941784e+04	
79	3.950000e+00	7.109356e+04	
80	4.000000e+00	7.276929e+04	
81	4.050000e+00	7.444501e+04	
82	4.100000e+00	7.612072e+04	
83	4.150000e+00	7.779641e+04	
84	4.200000e+00	7.947209e+04	
85	4.250000e+00	8.114774e+04	
86	4.300000e+00	8.282337e+04	
87	4.350000e+00	8.449897e+04	
88	4.400000e+00	8.617454e+04	
89	4.450000e+00	8.785008e+04	
90	4.500000e+00	8.952558e+04	
91	4.550000e+00	9.120105e+04	
92	4.600000e+00	9.287647e+04	
93	4.650000e+00	9.455185e+04	
94	4.700000e+00	9.622719e+04	
95	4.750000e+00	9.790249e+04	
96	4.800000e+00	9.957774e+04	
97	4.850000e+00	1.012529e+05	
98	4.900000e+00	1.029281e+05	
99	4.950000e+00	1.046032e+05	
100	5.000000e+00	1.062783e+05	
101	5.050000e+00	1.079533e+05	
102	5.100000e+00	1.096282e+05	
103	5.150000e+00	1.113031e+05	
104	5.200000e+00	1.129779e+05	
105	5.250000e+00	1.146527e+05	
106	5.300000e+00	1.163274e+05	
107	5.350000e+00	1.180021e+05	
108	5.400000e+00	1.196767e+05	
109	5.450000e+00	1.213513e+05	
110	5.500000e+00	1.230258e+05	
111	5.550000e+00	1.247002e+05	
112	5.600000e+00	1.263746e+05	

Index   v-sweep         rds             
--------------------------------------------------------------------------------
113	5.650000e+00	1.280489e+05	
114	5.700000e+00	1.297232e+05	
115	5.750000e+00	1.313973e+05	
116	5.800000e+00	1.330715e+05	
117	5.850000e+00	1.347455e+05	
118	5.900000e+00	1.364195e+05	
119	5.950000e+00	1.380935e+05	
120	6.000000e+00	1.397674e+05	
121	6.050000e+00	1.414412e+05	
122	6.100000e+00	1.431149e+05	
123	6.150000e+00	1.447886e+05	
124	6.200000e+00	1.464622e+05	
125	6.250000e+00	1.481358e+05	
126	6.300000e+00	1.498093e+05	
127	6.350000e+00	1.514827e+05	
128	6.400000e+00	1.531560e+05	
129	6.450000e+00	1.548293e+05	
130	6.500000e+00	1.565026e+05	
131	6.550000e+00	1.581757e+05	
132	6.600000e+00	1.598488e+05	
Reset re-loads circuit ***************************

Circuit: ***************************

Doing analysis at TEMP = 25.000000 and TNOM = 25.000000


No. of Data Rows : 133
                          ***************************
                          DC transfer characteristic  Mon Jan  9 13:58:05  2023
--------------------------------------------------------------------------------
Index   v-sweep         rds             
--------------------------------------------------------------------------------
0	0.000000e+00	1.316223e+03	
1	5.000000e-02	1.337406e+03	
2	1.000000e-01	1.359158e+03	
3	1.500000e-01	1.381500e+03	
4	2.000000e-01	1.404457e+03	
5	2.500000e-01	1.428055e+03	
6	3.000000e-01	1.452321e+03	
7	3.500000e-01	1.477284e+03	
8	4.000000e-01	1.502973e+03	
9	4.500000e-01	1.529421e+03	
10	5.000000e-01	1.556662e+03	
11	5.500000e-01	1.584733e+03	
12	6.000000e-01	1.613670e+03	
13	6.500000e-01	1.643515e+03	
14	7.000000e-01	1.674312e+03	
15	7.500000e-01	1.706106e+03	
16	8.000000e-01	1.738946e+03	
17	8.500000e-01	1.772884e+03	
18	9.000000e-01	1.807978e+03	
19	9.500000e-01	1.844285e+03	
20	1.000000e+00	1.881871e+03	
21	1.050000e+00	1.920804e+03	
22	1.100000e+00	1.961157e+03	
23	1.150000e+00	2.003010e+03	
24	1.200000e+00	2.046447e+03	
25	1.250000e+00	2.091560e+03	
26	1.300000e+00	2.138448e+03	
27	1.350000e+00	2.187218e+03	
28	1.400000e+00	2.237984e+03	
29	1.450000e+00	2.290873e+03	
30	1.500000e+00	2.346019e+03	
31	1.550000e+00	2.403572e+03	
32	1.600000e+00	2.463692e+03	
33	1.650000e+00	2.526555e+03	
34	1.700000e+00	2.592354e+03	
35	1.750000e+00	2.661300e+03	
36	1.800000e+00	2.733627e+03	
37	1.850000e+00	2.809591e+03	
38	1.900000e+00	2.889476e+03	
39	1.950000e+00	2.973599e+03	
40	2.000000e+00	3.062313e+03	
41	2.050000e+00	3.156015e+03	
42	2.100000e+00	3.255153e+03	
43	2.150000e+00	3.360237e+03	
44	2.200000e+00	3.471859e+03	
45	2.250000e+00	3.590705e+03	
46	2.300000e+00	3.717601e+03	
47	2.350000e+00	3.853555e+03	
48	2.400000e+00	3.999850e+03	
49	2.450000e+00	4.158198e+03	
50	2.500000e+00	4.331006e+03	
51	2.550000e+00	4.521874e+03	
52	2.600000e+00	4.736471e+03	
53	2.650000e+00	4.983962e+03	
54	2.700000e+00	5.278866e+03	

Index   v-sweep         rds             
--------------------------------------------------------------------------------
55	2.750000e+00	5.641980e+03	
56	2.800000e+00	6.097115e+03	
57	2.850000e+00	6.661481e+03	
58	2.900000e+00	7.335739e+03	
59	2.950000e+00	8.104096e+03	
60	3.000000e+00	8.943668e+03	
61	3.050000e+00	9.833255e+03	
62	3.100000e+00	1.075682e+04	
63	3.150000e+00	1.170333e+04	
64	3.200000e+00	1.266551e+04	
65	3.250000e+00	1.363858e+04	
66	3.300000e+00	1.461939e+04	
67	3.350000e+00	1.560579e+04	
68	3.400000e+00	1.659635e+04	
69	3.450000e+00	1.759005e+04	
70	3.500000e+00	1.858615e+04	
71	3.550000e+00	1.958413e+04	
72	3.600000e+00	2.058361e+04	
73	3.650000e+00	2.158428e+04	
74	3.700000e+00	2.258592e+04	
75	3.750000e+00	2.358836e+04	
76	3.800000e+00	2.459146e+04	
77	3.850000e+00	2.559512e+04	
78	3.900000e+00	2.659923e+04	
79	3.950000e+00	2.760375e+04	
80	4.000000e+00	2.860859e+04	
81	4.050000e+00	2.961373e+04	
82	4.100000e+00	3.061911e+04	
83	4.150000e+00	3.162471e+04	
84	4.200000e+00	3.263050e+04	
85	4.250000e+00	3.363645e+04	
86	4.300000e+00	3.464254e+04	
87	4.350000e+00	3.564875e+04	
88	4.400000e+00	3.665507e+04	
89	4.450000e+00	3.766149e+04	
90	4.500000e+00	3.866799e+04	
91	4.550000e+00	3.967457e+04	
92	4.600000e+00	4.068121e+04	
93	4.650000e+00	4.168791e+04	
94	4.700000e+00	4.269466e+04	
95	4.750000e+00	4.370145e+04	
96	4.800000e+00	4.470827e+04	
97	4.850000e+00	4.571514e+04	
98	4.900000e+00	4.672202e+04	
99	4.950000e+00	4.772894e+04	
100	5.000000e+00	4.873587e+04	
101	5.050000e+00	4.974282e+04	
102	5.100000e+00	5.074978e+04	
103	5.150000e+00	5.175676e+04	
104	5.200000e+00	5.276374e+04	
105	5.250000e+00	5.377073e+04	
106	5.300000e+00	5.477773e+04	
107	5.350000e+00	5.578472e+04	
108	5.400000e+00	5.679172e+04	
109	5.450000e+00	5.779871e+04	
110	5.500000e+00	5.880570e+04	
111	5.550000e+00	5.981269e+04	
112	5.600000e+00	6.081967e+04	

Index   v-sweep         rds             
--------------------------------------------------------------------------------
113	5.650000e+00	6.182665e+04	
114	5.700000e+00	6.283361e+04	
115	5.750000e+00	6.384057e+04	
116	5.800000e+00	6.484752e+04	
117	5.850000e+00	6.585445e+04	
118	5.900000e+00	6.686137e+04	
119	5.950000e+00	6.786829e+04	
120	6.000000e+00	6.887518e+04	
121	6.050000e+00	6.988206e+04	
122	6.100000e+00	7.088893e+04	
123	6.150000e+00	7.189578e+04	
124	6.200000e+00	7.290262e+04	
125	6.250000e+00	7.390944e+04	
126	6.300000e+00	7.491624e+04	
127	6.350000e+00	7.592302e+04	
128	6.400000e+00	7.692978e+04	
129	6.450000e+00	7.793653e+04	
130	6.500000e+00	7.894325e+04	
131	6.550000e+00	7.994996e+04	
132	6.600000e+00	8.095664e+04	
Reset re-loads circuit ***************************

Circuit: ***************************

Doing analysis at TEMP = 25.000000 and TNOM = 25.000000


No. of Data Rows : 133
                          ***************************
                          DC transfer characteristic  Mon Jan  9 13:58:05  2023
--------------------------------------------------------------------------------
Index   v-sweep         rds             
--------------------------------------------------------------------------------
0	0.000000e+00	1.140594e+03	
1	5.000000e-02	1.154791e+03	
2	1.000000e-01	1.169270e+03	
3	1.500000e-01	1.184040e+03	
4	2.000000e-01	1.199108e+03	
5	2.500000e-01	1.214483e+03	
6	3.000000e-01	1.230177e+03	
7	3.500000e-01	1.246197e+03	
8	4.000000e-01	1.262555e+03	
9	4.500000e-01	1.279261e+03	
10	5.000000e-01	1.296327e+03	
11	5.500000e-01	1.313764e+03	
12	6.000000e-01	1.331584e+03	
13	6.500000e-01	1.349799e+03	
14	7.000000e-01	1.368424e+03	
15	7.500000e-01	1.387472e+03	
16	8.000000e-01	1.406958e+03	
17	8.500000e-01	1.426896e+03	
18	9.000000e-01	1.447303e+03	
19	9.500000e-01	1.468194e+03	
20	1.000000e+00	1.489589e+03	
21	1.050000e+00	1.511504e+03	
22	1.100000e+00	1.533960e+03	
23	1.150000e+00	1.556975e+03	
24	1.200000e+00	1.580572e+03	
25	1.250000e+00	1.604773e+03	
26	1.300000e+00	1.629600e+03	
27	1.350000e+00	1.655079e+03	
28	1.400000e+00	1.681235e+03	
29	1.450000e+00	1.708096e+03	
30	1.500000e+00	1.735690e+03	
31	1.550000e+00	1.764048e+03	
32	1.600000e+00	1.793202e+03	
33	1.650000e+00	1.823186e+03	
34	1.700000e+00	1.854035e+03	
35	1.750000e+00	1.885788e+03	
36	1.800000e+00	1.918485e+03	
37	1.850000e+00	1.952169e+03	
38	1.900000e+00	1.986884e+03	
39	1.950000e+00	2.022679e+03	
40	2.000000e+00	2.059605e+03	
41	2.050000e+00	2.097717e+03	
42	2.100000e+00	2.137073e+03	
43	2.150000e+00	2.177735e+03	
44	2.200000e+00	2.219770e+03	
45	2.250000e+00	2.263248e+03	
46	2.300000e+00	2.308246e+03	
47	2.350000e+00	2.354845e+03	
48	2.400000e+00	2.403134e+03	
49	2.450000e+00	2.453209e+03	
50	2.500000e+00	2.505171e+03	
51	2.550000e+00	2.559132e+03	
52	2.600000e+00	2.615215e+03	
53	2.650000e+00	2.673553e+03	
54	2.700000e+00	2.734291e+03	

Index   v-sweep         rds             
--------------------------------------------------------------------------------
55	2.750000e+00	2.797593e+03	
56	2.800000e+00	2.863640e+03	
57	2.850000e+00	2.932638e+03	
58	2.900000e+00	3.004825e+03	
59	2.950000e+00	3.080478e+03	
60	3.000000e+00	3.159932e+03	
61	3.050000e+00	3.243603e+03	
62	3.100000e+00	3.332029e+03	
63	3.150000e+00	3.425936e+03	
64	3.200000e+00	3.526352e+03	
65	3.250000e+00	3.634802e+03	
66	3.300000e+00	3.753630e+03	
67	3.350000e+00	3.886544e+03	
68	3.400000e+00	4.039396e+03	
69	3.450000e+00	4.221110e+03	
70	3.500000e+00	4.444099e+03	
71	3.550000e+00	4.722850e+03	
72	3.600000e+00	5.069672e+03	
73	3.650000e+00	5.489327e+03	
74	3.700000e+00	5.976934e+03	
75	3.750000e+00	6.520911e+03	
76	3.800000e+00	7.107885e+03	
77	3.850000e+00	7.726068e+03	
78	3.900000e+00	8.366407e+03	
79	3.950000e+00	9.022418e+03	
80	4.000000e+00	9.689593e+03	
81	4.050000e+00	1.036483e+04	
82	4.100000e+00	1.104598e+04	
83	4.150000e+00	1.173155e+04	
84	4.200000e+00	1.242047e+04	
85	4.250000e+00	1.311196e+04	
86	4.300000e+00	1.380548e+04	
87	4.350000e+00	1.450059e+04	
88	4.400000e+00	1.519699e+04	
89	4.450000e+00	1.589444e+04	
90	4.500000e+00	1.659275e+04	
91	4.550000e+00	1.729176e+04	
92	4.600000e+00	1.799137e+04	
93	4.650000e+00	1.869149e+04	
94	4.700000e+00	1.939202e+04	
95	4.750000e+00	2.009293e+04	
96	4.800000e+00	2.079414e+04	
97	4.850000e+00	2.149563e+04	
98	4.900000e+00	2.219735e+04	
99	4.950000e+00	2.289928e+04	
100	5.000000e+00	2.360138e+04	
101	5.050000e+00	2.430365e+04	
102	5.100000e+00	2.500606e+04	
103	5.150000e+00	2.570859e+04	
104	5.200000e+00	2.641123e+04	
105	5.250000e+00	2.711396e+04	
106	5.300000e+00	2.781679e+04	
107	5.350000e+00	2.851969e+04	
108	5.400000e+00	2.922267e+04	
109	5.450000e+00	2.992570e+04	
110	5.500000e+00	3.062880e+04	
111	5.550000e+00	3.133194e+04	
112	5.600000e+00	3.203513e+04	

Index   v-sweep         rds             
--------------------------------------------------------------------------------
113	5.650000e+00	3.273836e+04	
114	5.700000e+00	3.344162e+04	
115	5.750000e+00	3.414492e+04	
116	5.800000e+00	3.484825e+04	
117	5.850000e+00	3.555161e+04	
118	5.900000e+00	3.625499e+04	
119	5.950000e+00	3.695839e+04	
120	6.000000e+00	3.766181e+04	
121	6.050000e+00	3.836524e+04	
122	6.100000e+00	3.906869e+04	
123	6.150000e+00	3.977216e+04	
124	6.200000e+00	4.047563e+04	
125	6.250000e+00	4.117912e+04	
126	6.300000e+00	4.188261e+04	
127	6.350000e+00	4.258611e+04	
128	6.400000e+00	4.328962e+04	
129	6.450000e+00	4.399313e+04	
130	6.500000e+00	4.469665e+04	
131	6.550000e+00	4.540016e+04	
132	6.600000e+00	4.610368e+04	
Reset re-loads circuit ***************************

Circuit: ***************************

Doing analysis at TEMP = 25.000000 and TNOM = 25.000000


No. of Data Rows : 133
                          ***************************
                          DC transfer characteristic  Mon Jan  9 13:58:05  2023
--------------------------------------------------------------------------------
Index   v-sweep         rds             
--------------------------------------------------------------------------------
0	0.000000e+00	1.037317e+03	
1	5.000000e-02	1.047773e+03	
2	1.000000e-01	1.058391e+03	
3	1.500000e-01	1.069175e+03	
4	2.000000e-01	1.080129e+03	
5	2.500000e-01	1.091256e+03	
6	3.000000e-01	1.102561e+03	
7	3.500000e-01	1.114047e+03	
8	4.000000e-01	1.125720e+03	
9	4.500000e-01	1.137584e+03	
10	5.000000e-01	1.149644e+03	
11	5.500000e-01	1.161904e+03	
12	6.000000e-01	1.174369e+03	
13	6.500000e-01	1.187045e+03	
14	7.000000e-01	1.199937e+03	
15	7.500000e-01	1.213050e+03	
16	8.000000e-01	1.226391e+03	
17	8.500000e-01	1.239964e+03	
18	9.000000e-01	1.253776e+03	
19	9.500000e-01	1.267834e+03	
20	1.000000e+00	1.282144e+03	
21	1.050000e+00	1.296713e+03	
22	1.100000e+00	1.311547e+03	
23	1.150000e+00	1.326655e+03	
24	1.200000e+00	1.342043e+03	
25	1.250000e+00	1.357720e+03	
26	1.300000e+00	1.373693e+03	
27	1.350000e+00	1.389972e+03	
28	1.400000e+00	1.406565e+03	
29	1.450000e+00	1.423480e+03	
30	1.500000e+00	1.440728e+03	
31	1.550000e+00	1.458318e+03	
32	1.600000e+00	1.476261e+03	
33	1.650000e+00	1.494567e+03	
34	1.700000e+00	1.513247e+03	
35	1.750000e+00	1.532313e+03	
36	1.800000e+00	1.551777e+03	
37	1.850000e+00	1.571651e+03	
38	1.900000e+00	1.591949e+03	
39	1.950000e+00	1.612684e+03	
40	2.000000e+00	1.633870e+03	
41	2.050000e+00	1.655522e+03	
42	2.100000e+00	1.677656e+03	
43	2.150000e+00	1.700288e+03	
44	2.200000e+00	1.723434e+03	
45	2.250000e+00	1.747113e+03	
46	2.300000e+00	1.771344e+03	
47	2.350000e+00	1.796144e+03	
48	2.400000e+00	1.821536e+03	
49	2.450000e+00	1.847540e+03	
50	2.500000e+00	1.874178e+03	
51	2.550000e+00	1.901475e+03	
52	2.600000e+00	1.929455e+03	
53	2.650000e+00	1.958144e+03	
54	2.700000e+00	1.987569e+03	

Index   v-sweep         rds             
--------------------------------------------------------------------------------
55	2.750000e+00	2.017760e+03	
56	2.800000e+00	2.048746e+03	
57	2.850000e+00	2.080561e+03	
58	2.900000e+00	2.113238e+03	
59	2.950000e+00	2.146813e+03	
60	3.000000e+00	2.181325e+03	
61	3.050000e+00	2.216814e+03	
62	3.100000e+00	2.253323e+03	
63	3.150000e+00	2.290899e+03	
64	3.200000e+00	2.329591e+03	
65	3.250000e+00	2.369453e+03	
66	3.300000e+00	2.410543e+03	
67	3.350000e+00	2.452922e+03	
68	3.400000e+00	2.496659e+03	
69	3.450000e+00	2.541831e+03	
70	3.500000e+00	2.588521e+03	
71	3.550000e+00	2.636826e+03	
72	3.600000e+00	2.686855e+03	
73	3.650000e+00	2.738739e+03	
74	3.700000e+00	2.792635e+03	
75	3.750000e+00	2.848738e+03	
76	3.800000e+00	2.907299e+03	
77	3.850000e+00	2.968653e+03	
78	3.900000e+00	3.033265e+03	
79	3.950000e+00	3.101799e+03	
80	4.000000e+00	3.175238e+03	
81	4.050000e+00	3.255071e+03	
82	4.100000e+00	3.343588e+03	
83	4.150000e+00	3.444297e+03	
84	4.200000e+00	3.562431e+03	
85	4.250000e+00	3.705316e+03	
86	4.300000e+00	3.882086e+03	
87	4.350000e+00	4.102084e+03	
88	4.400000e+00	4.372019e+03	
89	4.450000e+00	4.693378e+03	
90	4.500000e+00	5.062061e+03	
91	4.550000e+00	5.470378e+03	
92	4.600000e+00	5.909702e+03	
93	4.650000e+00	6.372283e+03	
94	4.700000e+00	6.851948e+03	
95	4.750000e+00	7.344087e+03	
96	4.800000e+00	7.845367e+03	
97	4.850000e+00	8.353410e+03	
98	4.900000e+00	8.866516e+03	
99	4.950000e+00	9.383466e+03	
100	5.000000e+00	9.903373e+03	
101	5.050000e+00	1.042559e+04	
102	5.100000e+00	1.094963e+04	
103	5.150000e+00	1.147512e+04	
104	5.200000e+00	1.200180e+04	
105	5.250000e+00	1.252944e+04	
106	5.300000e+00	1.305788e+04	
107	5.350000e+00	1.358698e+04	
108	5.400000e+00	1.411665e+04	
109	5.450000e+00	1.464678e+04	
110	5.500000e+00	1.517731e+04	
111	5.550000e+00	1.570819e+04	
112	5.600000e+00	1.623937e+04	

Index   v-sweep         rds             
--------------------------------------------------------------------------------
113	5.650000e+00	1.677081e+04	
114	5.700000e+00	1.730247e+04	
115	5.750000e+00	1.783433e+04	
116	5.800000e+00	1.836636e+04	
117	5.850000e+00	1.889855e+04	
118	5.900000e+00	1.943088e+04	
119	5.950000e+00	1.996332e+04	
120	6.000000e+00	2.049588e+04	
121	6.050000e+00	2.102853e+04	
122	6.100000e+00	2.156127e+04	
123	6.150000e+00	2.209408e+04	
124	6.200000e+00	2.262697e+04	
125	6.250000e+00	2.315992e+04	
126	6.300000e+00	2.369293e+04	
127	6.350000e+00	2.422599e+04	
128	6.400000e+00	2.475910e+04	
129	6.450000e+00	2.529225e+04	
130	6.500000e+00	2.582544e+04	
131	6.550000e+00	2.635867e+04	
132	6.600000e+00	2.689192e+04	
Reset re-loads circuit ***************************

Circuit: ***************************

Note: No ".plot", ".print", or ".fourier" lines; no simulations run
