
Note: Compatibility modes selected: hs

Warning: m=xx on .subckt line will override multiplier m hierarchy!


Circuit: ***************************

Doing analysis at TEMP = -40.000000 and TNOM = -40.000000


No. of Data Rows : 133
                          ***************************
                          DC transfer characteristic  Mon Jan  9 13:58:05  2023
--------------------------------------------------------------------------------
Index   v-sweep         rds             
--------------------------------------------------------------------------------
0	0.000000e+00	5.104286e+03	
1	5.000000e-02	6.384046e+03	
2	1.000000e-01	8.486125e+03	
3	1.500000e-01	1.251487e+04	
4	2.000000e-01	2.216676e+04	
5	2.500000e-01	4.475783e+04	
6	3.000000e-01	7.043559e+04	
7	3.500000e-01	9.055444e+04	
8	4.000000e-01	1.082085e+05	
9	4.500000e-01	1.249005e+05	
10	5.000000e-01	1.410807e+05	
11	5.500000e-01	1.569034e+05	
12	6.000000e-01	1.724318e+05	
13	6.500000e-01	1.876964e+05	
14	7.000000e-01	2.027144e+05	
15	7.500000e-01	2.174965e+05	
16	8.000000e-01	2.320507e+05	
17	8.500000e-01	2.463831e+05	
18	9.000000e-01	2.604990e+05	
19	9.500000e-01	2.744030e+05	
20	1.000000e+00	2.880995e+05	
21	1.050000e+00	3.015926e+05	
22	1.100000e+00	3.148861e+05	
23	1.150000e+00	3.279839e+05	
24	1.200000e+00	3.408895e+05	
25	1.250000e+00	3.536066e+05	
26	1.300000e+00	3.661387e+05	
27	1.350000e+00	3.784891e+05	
28	1.400000e+00	3.906612e+05	
29	1.450000e+00	4.026582e+05	
30	1.500000e+00	4.144834e+05	
31	1.550000e+00	4.261400e+05	
32	1.600000e+00	4.376310e+05	
33	1.650000e+00	4.489593e+05	
34	1.700000e+00	4.601281e+05	
35	1.750000e+00	4.711402e+05	
36	1.800000e+00	4.819985e+05	
37	1.850000e+00	4.927057e+05	
38	1.900000e+00	5.032646e+05	
39	1.950000e+00	5.136779e+05	
40	2.000000e+00	5.239482e+05	
41	2.050000e+00	5.340780e+05	
42	2.100000e+00	5.440700e+05	
43	2.150000e+00	5.539265e+05	
44	2.200000e+00	5.636501e+05	
45	2.250000e+00	5.732430e+05	
46	2.300000e+00	5.827076e+05	
47	2.350000e+00	5.920462e+05	
48	2.400000e+00	6.012610e+05	
49	2.450000e+00	6.103542e+05	
50	2.500000e+00	6.193279e+05	
51	2.550000e+00	6.281842e+05	
52	2.600000e+00	6.369252e+05	
53	2.650000e+00	6.455528e+05	
54	2.700000e+00	6.540691e+05	

Index   v-sweep         rds             
--------------------------------------------------------------------------------
55	2.750000e+00	6.624760e+05	
56	2.800000e+00	6.707753e+05	
57	2.850000e+00	6.789689e+05	
58	2.900000e+00	6.870586e+05	
59	2.950000e+00	6.950462e+05	
60	3.000000e+00	7.029334e+05	
61	3.050000e+00	7.107219e+05	
62	3.100000e+00	7.184134e+05	
63	3.150000e+00	7.260094e+05	
64	3.200000e+00	7.335117e+05	
65	3.250000e+00	7.409218e+05	
66	3.300000e+00	7.482411e+05	
67	3.350000e+00	7.554713e+05	
68	3.400000e+00	7.626137e+05	
69	3.450000e+00	7.696699e+05	
70	3.500000e+00	7.766411e+05	
71	3.550000e+00	7.835289e+05	
72	3.600000e+00	7.903346e+05	
73	3.650000e+00	7.970594e+05	
74	3.700000e+00	8.037047e+05	
75	3.750000e+00	8.102718e+05	
76	3.800000e+00	8.167620e+05	
77	3.850000e+00	8.231763e+05	
78	3.900000e+00	8.295162e+05	
79	3.950000e+00	8.357826e+05	
80	4.000000e+00	8.419769e+05	
81	4.050000e+00	8.481000e+05	
82	4.100000e+00	8.541532e+05	
83	4.150000e+00	8.601375e+05	
84	4.200000e+00	8.660540e+05	
85	4.250000e+00	8.719037e+05	
86	4.300000e+00	8.776877e+05	
87	4.350000e+00	8.834069e+05	
88	4.400000e+00	8.890624e+05	
89	4.450000e+00	8.946551e+05	
90	4.500000e+00	9.001860e+05	
91	4.550000e+00	9.056560e+05	
92	4.600000e+00	9.110661e+05	
93	4.650000e+00	9.164170e+05	
94	4.700000e+00	9.217097e+05	
95	4.750000e+00	9.269451e+05	
96	4.800000e+00	9.321240e+05	
97	4.850000e+00	9.372473e+05	
98	4.900000e+00	9.423157e+05	
99	4.950000e+00	9.473301e+05	
100	5.000000e+00	9.522912e+05	
101	5.050000e+00	9.571999e+05	
102	5.100000e+00	9.620568e+05	
103	5.150000e+00	9.668628e+05	
104	5.200000e+00	9.716185e+05	
105	5.250000e+00	9.763247e+05	
106	5.300000e+00	9.809821e+05	
107	5.350000e+00	9.855913e+05	
108	5.400000e+00	9.901531e+05	
109	5.450000e+00	9.946681e+05	
110	5.500000e+00	9.991370e+05	
111	5.550000e+00	1.003560e+06	
112	5.600000e+00	1.007939e+06	

Index   v-sweep         rds             
--------------------------------------------------------------------------------
113	5.650000e+00	1.012273e+06	
114	5.700000e+00	1.016564e+06	
115	5.750000e+00	1.020812e+06	
116	5.800000e+00	1.025017e+06	
117	5.850000e+00	1.029181e+06	
118	5.900000e+00	1.033303e+06	
119	5.950000e+00	1.037384e+06	
120	6.000000e+00	1.041426e+06	
121	6.050000e+00	1.045427e+06	
122	6.100000e+00	1.049390e+06	
123	6.150000e+00	1.053314e+06	
124	6.200000e+00	1.057200e+06	
125	6.250000e+00	1.061048e+06	
126	6.300000e+00	1.064860e+06	
127	6.350000e+00	1.068635e+06	
128	6.400000e+00	1.072373e+06	
129	6.450000e+00	1.076076e+06	
130	6.500000e+00	1.079744e+06	
131	6.550000e+00	1.083378e+06	
132	6.600000e+00	1.086977e+06	
Reset re-loads circuit ***************************

Circuit: ***************************

Doing analysis at TEMP = -40.000000 and TNOM = -40.000000


No. of Data Rows : 133
                          ***************************
                          DC transfer characteristic  Mon Jan  9 13:58:05  2023
--------------------------------------------------------------------------------
Index   v-sweep         rds             
--------------------------------------------------------------------------------
0	0.000000e+00	1.078976e+03	
1	5.000000e-02	1.128242e+03	
2	1.000000e-01	1.181539e+03	
3	1.500000e-01	1.239380e+03	
4	2.000000e-01	1.302371e+03	
5	2.500000e-01	1.371230e+03	
6	3.000000e-01	1.446816e+03	
7	3.500000e-01	1.530165e+03	
8	4.000000e-01	1.622535e+03	
9	4.500000e-01	1.725476e+03	
10	5.000000e-01	1.840918e+03	
11	5.500000e-01	1.971300e+03	
12	6.000000e-01	2.119762e+03	
13	6.500000e-01	2.290444e+03	
14	7.000000e-01	2.489009e+03	
15	7.500000e-01	2.723657e+03	
16	8.000000e-01	3.007431e+03	
17	8.500000e-01	3.363972e+03	
18	9.000000e-01	3.839775e+03	
19	9.500000e-01	4.510476e+03	
20	1.000000e+00	5.429275e+03	
21	1.050000e+00	6.557798e+03	
22	1.100000e+00	7.812862e+03	
23	1.150000e+00	9.133069e+03	
24	1.200000e+00	1.048553e+04	
25	1.250000e+00	1.185383e+04	
26	1.300000e+00	1.322951e+04	
27	1.350000e+00	1.460804e+04	
28	1.400000e+00	1.598678e+04	
29	1.450000e+00	1.736417e+04	
30	1.500000e+00	1.873919e+04	
31	1.550000e+00	2.011120e+04	
32	1.600000e+00	2.147975e+04	
33	1.650000e+00	2.284453e+04	
34	1.700000e+00	2.420531e+04	
35	1.750000e+00	2.556194e+04	
36	1.800000e+00	2.691429e+04	
37	1.850000e+00	2.826227e+04	
38	1.900000e+00	2.960583e+04	
39	1.950000e+00	3.094491e+04	
40	2.000000e+00	3.227947e+04	
41	2.050000e+00	3.360950e+04	
42	2.100000e+00	3.493496e+04	
43	2.150000e+00	3.625585e+04	
44	2.200000e+00	3.757216e+04	
45	2.250000e+00	3.888389e+04	
46	2.300000e+00	4.019103e+04	
47	2.350000e+00	4.149359e+04	
48	2.400000e+00	4.279157e+04	
49	2.450000e+00	4.408498e+04	
50	2.500000e+00	4.537382e+04	
51	2.550000e+00	4.665811e+04	
52	2.600000e+00	4.793785e+04	
53	2.650000e+00	4.921306e+04	
54	2.700000e+00	5.048375e+04	

Index   v-sweep         rds             
--------------------------------------------------------------------------------
55	2.750000e+00	5.174993e+04	
56	2.800000e+00	5.301162e+04	
57	2.850000e+00	5.426882e+04	
58	2.900000e+00	5.552156e+04	
59	2.950000e+00	5.676984e+04	
60	3.000000e+00	5.801369e+04	
61	3.050000e+00	5.925312e+04	
62	3.100000e+00	6.048814e+04	
63	3.150000e+00	6.171877e+04	
64	3.200000e+00	6.294503e+04	
65	3.250000e+00	6.416694e+04	
66	3.300000e+00	6.538450e+04	
67	3.350000e+00	6.659775e+04	
68	3.400000e+00	6.780669e+04	
69	3.450000e+00	6.901134e+04	
70	3.500000e+00	7.021172e+04	
71	3.550000e+00	7.140784e+04	
72	3.600000e+00	7.259974e+04	
73	3.650000e+00	7.378741e+04	
74	3.700000e+00	7.497088e+04	
75	3.750000e+00	7.615017e+04	
76	3.800000e+00	7.732529e+04	
77	3.850000e+00	7.849626e+04	
78	3.900000e+00	7.966310e+04	
79	3.950000e+00	8.082583e+04	
80	4.000000e+00	8.198446e+04	
81	4.050000e+00	8.313902e+04	
82	4.100000e+00	8.428951e+04	
83	4.150000e+00	8.543597e+04	
84	4.200000e+00	8.657839e+04	
85	4.250000e+00	8.771681e+04	
86	4.300000e+00	8.885124e+04	
87	4.350000e+00	8.998169e+04	
88	4.400000e+00	9.110819e+04	
89	4.450000e+00	9.223075e+04	
90	4.500000e+00	9.334940e+04	
91	4.550000e+00	9.446413e+04	
92	4.600000e+00	9.557498e+04	
93	4.650000e+00	9.668197e+04	
94	4.700000e+00	9.778510e+04	
95	4.750000e+00	9.888439e+04	
96	4.800000e+00	9.997987e+04	
97	4.850000e+00	1.010715e+05	
98	4.900000e+00	1.021594e+05	
99	4.950000e+00	1.032436e+05	
100	5.000000e+00	1.043239e+05	
101	5.050000e+00	1.054006e+05	
102	5.100000e+00	1.064735e+05	
103	5.150000e+00	1.075427e+05	
104	5.200000e+00	1.086083e+05	
105	5.250000e+00	1.096702e+05	
106	5.300000e+00	1.107284e+05	
107	5.350000e+00	1.117830e+05	
108	5.400000e+00	1.128340e+05	
109	5.450000e+00	1.138813e+05	
110	5.500000e+00	1.149251e+05	
111	5.550000e+00	1.159653e+05	
112	5.600000e+00	1.170020e+05	

Index   v-sweep         rds             
--------------------------------------------------------------------------------
113	5.650000e+00	1.180351e+05	
114	5.700000e+00	1.190648e+05	
115	5.750000e+00	1.200909e+05	
116	5.800000e+00	1.211135e+05	
117	5.850000e+00	1.221326e+05	
118	5.900000e+00	1.231483e+05	
119	5.950000e+00	1.241605e+05	
120	6.000000e+00	1.251694e+05	
121	6.050000e+00	1.261748e+05	
122	6.100000e+00	1.271768e+05	
123	6.150000e+00	1.281754e+05	
124	6.200000e+00	1.291707e+05	
125	6.250000e+00	1.301626e+05	
126	6.300000e+00	1.311512e+05	
127	6.350000e+00	1.321364e+05	
128	6.400000e+00	1.331184e+05	
129	6.450000e+00	1.340970e+05	
130	6.500000e+00	1.350724e+05	
131	6.550000e+00	1.360445e+05	
132	6.600000e+00	1.370134e+05	
Reset re-loads circuit ***************************

Circuit: ***************************

Doing analysis at TEMP = -40.000000 and TNOM = -40.000000


No. of Data Rows : 133
                          ***************************
                          DC transfer characteristic  Mon Jan  9 13:58:06  2023
--------------------------------------------------------------------------------
Index   v-sweep         rds             
--------------------------------------------------------------------------------
0	0.000000e+00	6.885172e+02	
1	5.000000e-02	7.077400e+02	
2	1.000000e-01	7.278086e+02	
3	1.500000e-01	7.487794e+02	
4	2.000000e-01	7.707141e+02	
5	2.500000e-01	7.936803e+02	
6	3.000000e-01	8.177519e+02	
7	3.500000e-01	8.430101e+02	
8	4.000000e-01	8.695446e+02	
9	4.500000e-01	8.974541e+02	
10	5.000000e-01	9.268480e+02	
11	5.500000e-01	9.578477e+02	
12	6.000000e-01	9.905887e+02	
13	6.500000e-01	1.025222e+03	
14	7.000000e-01	1.061918e+03	
15	7.500000e-01	1.100868e+03	
16	8.000000e-01	1.142289e+03	
17	8.500000e-01	1.186430e+03	
18	9.000000e-01	1.233580e+03	
19	9.500000e-01	1.284075e+03	
20	1.000000e+00	1.338319e+03	
21	1.050000e+00	1.396815e+03	
22	1.100000e+00	1.460209e+03	
23	1.150000e+00	1.529409e+03	
24	1.200000e+00	1.605801e+03	
25	1.250000e+00	1.691771e+03	
26	1.300000e+00	1.791892e+03	
27	1.350000e+00	1.915525e+03	
28	1.400000e+00	2.081228e+03	
29	1.450000e+00	2.318866e+03	
30	1.500000e+00	2.657233e+03	
31	1.550000e+00	3.100218e+03	
32	1.600000e+00	3.625133e+03	
33	1.650000e+00	4.203506e+03	
34	1.700000e+00	4.814113e+03	
35	1.750000e+00	5.443865e+03	
36	1.800000e+00	6.085116e+03	
37	1.850000e+00	6.733379e+03	
38	1.900000e+00	7.385950e+03	
39	1.950000e+00	8.041141e+03	
40	2.000000e+00	8.697860e+03	
41	2.050000e+00	9.355379e+03	
42	2.100000e+00	1.001320e+04	
43	2.150000e+00	1.067096e+04	
44	2.200000e+00	1.132840e+04	
45	2.250000e+00	1.198534e+04	
46	2.300000e+00	1.264163e+04	
47	2.350000e+00	1.329717e+04	
48	2.400000e+00	1.395186e+04	
49	2.450000e+00	1.460564e+04	
50	2.500000e+00	1.525845e+04	
51	2.550000e+00	1.591026e+04	
52	2.600000e+00	1.656103e+04	
53	2.650000e+00	1.721072e+04	
54	2.700000e+00	1.785932e+04	

Index   v-sweep         rds             
--------------------------------------------------------------------------------
55	2.750000e+00	1.850681e+04	
56	2.800000e+00	1.915316e+04	
57	2.850000e+00	1.979837e+04	
58	2.900000e+00	2.044243e+04	
59	2.950000e+00	2.108532e+04	
60	3.000000e+00	2.172704e+04	
61	3.050000e+00	2.236758e+04	
62	3.100000e+00	2.300693e+04	
63	3.150000e+00	2.364509e+04	
64	3.200000e+00	2.428206e+04	
65	3.250000e+00	2.491783e+04	
66	3.300000e+00	2.555241e+04	
67	3.350000e+00	2.618578e+04	
68	3.400000e+00	2.681795e+04	
69	3.450000e+00	2.744891e+04	
70	3.500000e+00	2.807867e+04	
71	3.550000e+00	2.870723e+04	
72	3.600000e+00	2.933458e+04	
73	3.650000e+00	2.996072e+04	
74	3.700000e+00	3.058566e+04	
75	3.750000e+00	3.120940e+04	
76	3.800000e+00	3.183193e+04	
77	3.850000e+00	3.245326e+04	
78	3.900000e+00	3.307338e+04	
79	3.950000e+00	3.369231e+04	
80	4.000000e+00	3.431004e+04	
81	4.050000e+00	3.492657e+04	
82	4.100000e+00	3.554190e+04	
83	4.150000e+00	3.615603e+04	
84	4.200000e+00	3.676898e+04	
85	4.250000e+00	3.738073e+04	
86	4.300000e+00	3.799129e+04	
87	4.350000e+00	3.860066e+04	
88	4.400000e+00	3.920885e+04	
89	4.450000e+00	3.981585e+04	
90	4.500000e+00	4.042167e+04	
91	4.550000e+00	4.102631e+04	
92	4.600000e+00	4.162977e+04	
93	4.650000e+00	4.223206e+04	
94	4.700000e+00	4.283317e+04	
95	4.750000e+00	4.343311e+04	
96	4.800000e+00	4.403188e+04	
97	4.850000e+00	4.462948e+04	
98	4.900000e+00	4.522592e+04	
99	4.950000e+00	4.582120e+04	
100	5.000000e+00	4.641531e+04	
101	5.050000e+00	4.700827e+04	
102	5.100000e+00	4.760007e+04	
103	5.150000e+00	4.819072e+04	
104	5.200000e+00	4.878022e+04	
105	5.250000e+00	4.936857e+04	
106	5.300000e+00	4.995577e+04	
107	5.350000e+00	5.054183e+04	
108	5.400000e+00	5.112675e+04	
109	5.450000e+00	5.171053e+04	
110	5.500000e+00	5.229318e+04	
111	5.550000e+00	5.287469e+04	
112	5.600000e+00	5.345507e+04	

Index   v-sweep         rds             
--------------------------------------------------------------------------------
113	5.650000e+00	5.403433e+04	
114	5.700000e+00	5.461245e+04	
115	5.750000e+00	5.518946e+04	
116	5.800000e+00	5.576534e+04	
117	5.850000e+00	5.634010e+04	
118	5.900000e+00	5.691375e+04	
119	5.950000e+00	5.748629e+04	
120	6.000000e+00	5.805771e+04	
121	6.050000e+00	5.862803e+04	
122	6.100000e+00	5.919724e+04	
123	6.150000e+00	5.976535e+04	
124	6.200000e+00	6.033236e+04	
125	6.250000e+00	6.089827e+04	
126	6.300000e+00	6.146309e+04	
127	6.350000e+00	6.202681e+04	
128	6.400000e+00	6.258944e+04	
129	6.450000e+00	6.315099e+04	
130	6.500000e+00	6.371145e+04	
131	6.550000e+00	6.427083e+04	
132	6.600000e+00	6.482912e+04	
Reset re-loads circuit ***************************

Circuit: ***************************

Doing analysis at TEMP = -40.000000 and TNOM = -40.000000


No. of Data Rows : 133
                          ***************************
                          DC transfer characteristic  Mon Jan  9 13:58:06  2023
--------------------------------------------------------------------------------
Index   v-sweep         rds             
--------------------------------------------------------------------------------
0	0.000000e+00	5.427991e+02	
1	5.000000e-02	5.540816e+02	
2	1.000000e-01	5.657025e+02	
3	1.500000e-01	5.776770e+02	
4	2.000000e-01	5.900211e+02	
5	2.500000e-01	6.027519e+02	
6	3.000000e-01	6.158878e+02	
7	3.500000e-01	6.294479e+02	
8	4.000000e-01	6.434531e+02	
9	4.500000e-01	6.579252e+02	
10	5.000000e-01	6.728879e+02	
11	5.500000e-01	6.883663e+02	
12	6.000000e-01	7.043873e+02	
13	6.500000e-01	7.209798e+02	
14	7.000000e-01	7.381749e+02	
15	7.500000e-01	7.560058e+02	
16	8.000000e-01	7.745087e+02	
17	8.500000e-01	7.937222e+02	
18	9.000000e-01	8.136884e+02	
19	9.500000e-01	8.344529e+02	
20	1.000000e+00	8.560652e+02	
21	1.050000e+00	8.785796e+02	
22	1.100000e+00	9.020558e+02	
23	1.150000e+00	9.265598e+02	
24	1.200000e+00	9.521653e+02	
25	1.250000e+00	9.789560e+02	
26	1.300000e+00	1.007028e+03	
27	1.350000e+00	1.036497e+03	
28	1.400000e+00	1.067501e+03	
29	1.450000e+00	1.100222e+03	
30	1.500000e+00	1.134908e+03	
31	1.550000e+00	1.171923e+03	
32	1.600000e+00	1.211849e+03	
33	1.650000e+00	1.255695e+03	
34	1.700000e+00	1.305318e+03	
35	1.750000e+00	1.364294e+03	
36	1.800000e+00	1.439469e+03	
37	1.850000e+00	1.542867e+03	
38	1.900000e+00	1.691357e+03	
39	1.950000e+00	1.899781e+03	
40	2.000000e+00	2.170834e+03	
41	2.050000e+00	2.494111e+03	
42	2.100000e+00	2.854608e+03	
43	2.150000e+00	3.239580e+03	
44	2.200000e+00	3.640235e+03	
45	2.250000e+00	4.050974e+03	
46	2.300000e+00	4.468293e+03	
47	2.350000e+00	4.889979e+03	
48	2.400000e+00	5.314602e+03	
49	2.450000e+00	5.741215e+03	
50	2.500000e+00	6.169172e+03	
51	2.550000e+00	6.598024e+03	
52	2.600000e+00	7.027446e+03	
53	2.650000e+00	7.457205e+03	
54	2.700000e+00	7.887125e+03	

Index   v-sweep         rds             
--------------------------------------------------------------------------------
55	2.750000e+00	8.317073e+03	
56	2.800000e+00	8.746945e+03	
57	2.850000e+00	9.176663e+03	
58	2.900000e+00	9.606162e+03	
59	2.950000e+00	1.003539e+04	
60	3.000000e+00	1.046431e+04	
61	3.050000e+00	1.089289e+04	
62	3.100000e+00	1.132109e+04	
63	3.150000e+00	1.174890e+04	
64	3.200000e+00	1.217629e+04	
65	3.250000e+00	1.260325e+04	
66	3.300000e+00	1.302977e+04	
67	3.350000e+00	1.345582e+04	
68	3.400000e+00	1.388142e+04	
69	3.450000e+00	1.430653e+04	
70	3.500000e+00	1.473116e+04	
71	3.550000e+00	1.515530e+04	
72	3.600000e+00	1.557895e+04	
73	3.650000e+00	1.600209e+04	
74	3.700000e+00	1.642473e+04	
75	3.750000e+00	1.684686e+04	
76	3.800000e+00	1.726848e+04	
77	3.850000e+00	1.768958e+04	
78	3.900000e+00	1.811016e+04	
79	3.950000e+00	1.853023e+04	
80	4.000000e+00	1.894977e+04	
81	4.050000e+00	1.936878e+04	
82	4.100000e+00	1.978727e+04	
83	4.150000e+00	2.020524e+04	
84	4.200000e+00	2.062267e+04	
85	4.250000e+00	2.103958e+04	
86	4.300000e+00	2.145595e+04	
87	4.350000e+00	2.187180e+04	
88	4.400000e+00	2.228711e+04	
89	4.450000e+00	2.270189e+04	
90	4.500000e+00	2.311614e+04	
91	4.550000e+00	2.352985e+04	
92	4.600000e+00	2.394303e+04	
93	4.650000e+00	2.435568e+04	
94	4.700000e+00	2.476780e+04	
95	4.750000e+00	2.517938e+04	
96	4.800000e+00	2.559043e+04	
97	4.850000e+00	2.600094e+04	
98	4.900000e+00	2.641092e+04	
99	4.950000e+00	2.682037e+04	
100	5.000000e+00	2.722929e+04	
101	5.050000e+00	2.763767e+04	
102	5.100000e+00	2.804552e+04	
103	5.150000e+00	2.845283e+04	
104	5.200000e+00	2.885962e+04	
105	5.250000e+00	2.926587e+04	
106	5.300000e+00	2.967159e+04	
107	5.350000e+00	3.007678e+04	
108	5.400000e+00	3.048144e+04	
109	5.450000e+00	3.088557e+04	
110	5.500000e+00	3.128917e+04	
111	5.550000e+00	3.169224e+04	
112	5.600000e+00	3.209478e+04	

Index   v-sweep         rds             
--------------------------------------------------------------------------------
113	5.650000e+00	3.249679e+04	
114	5.700000e+00	3.289828e+04	
115	5.750000e+00	3.329924e+04	
116	5.800000e+00	3.369967e+04	
117	5.850000e+00	3.409957e+04	
118	5.900000e+00	3.449895e+04	
119	5.950000e+00	3.489781e+04	
120	6.000000e+00	3.529614e+04	
121	6.050000e+00	3.569394e+04	
122	6.100000e+00	3.609122e+04	
123	6.150000e+00	3.648798e+04	
124	6.200000e+00	3.688422e+04	
125	6.250000e+00	3.727994e+04	
126	6.300000e+00	3.767513e+04	
127	6.350000e+00	3.806981e+04	
128	6.400000e+00	3.846397e+04	
129	6.450000e+00	3.885760e+04	
130	6.500000e+00	3.925072e+04	
131	6.550000e+00	3.964333e+04	
132	6.600000e+00	4.003541e+04	
Reset re-loads circuit ***************************

Circuit: ***************************

Doing analysis at TEMP = -40.000000 and TNOM = -40.000000


No. of Data Rows : 133
                          ***************************
                          DC transfer characteristic  Mon Jan  9 13:58:06  2023
--------------------------------------------------------------------------------
Index   v-sweep         rds             
--------------------------------------------------------------------------------
0	0.000000e+00	4.696045e+02	
1	5.000000e-02	4.774388e+02	
2	1.000000e-01	4.854498e+02	
3	1.500000e-01	4.936434e+02	
4	2.000000e-01	5.020259e+02	
5	2.500000e-01	5.106036e+02	
6	3.000000e-01	5.193833e+02	
7	3.500000e-01	5.283720e+02	
8	4.000000e-01	5.375771e+02	
9	4.500000e-01	5.470065e+02	
10	5.000000e-01	5.566682e+02	
11	5.500000e-01	5.665709e+02	
12	6.000000e-01	5.767234e+02	
13	6.500000e-01	5.871354e+02	
14	7.000000e-01	5.978167e+02	
15	7.500000e-01	6.087778e+02	
16	8.000000e-01	6.200298e+02	
17	8.500000e-01	6.315844e+02	
18	9.000000e-01	6.434539e+02	
19	9.500000e-01	6.556514e+02	
20	1.000000e+00	6.681907e+02	
21	1.050000e+00	6.810863e+02	
22	1.100000e+00	6.943538e+02	
23	1.150000e+00	7.080096e+02	
24	1.200000e+00	7.220715e+02	
25	1.250000e+00	7.365581e+02	
26	1.300000e+00	7.514896e+02	
27	1.350000e+00	7.668876e+02	
28	1.400000e+00	7.827755e+02	
29	1.450000e+00	7.991790e+02	
30	1.500000e+00	8.161260e+02	
31	1.550000e+00	8.336479e+02	
32	1.600000e+00	8.517800e+02	
33	1.650000e+00	8.705633e+02	
34	1.700000e+00	8.900466e+02	
35	1.750000e+00	9.102899e+02	
36	1.800000e+00	9.313709e+02	
37	1.850000e+00	9.533948e+02	
38	1.900000e+00	9.765128e+02	
39	1.950000e+00	1.000956e+03	
40	2.000000e+00	1.027095e+03	
41	2.050000e+00	1.055565e+03	
42	2.100000e+00	1.087490e+03	
43	2.150000e+00	1.124917e+03	
44	2.200000e+00	1.171564e+03	
45	2.250000e+00	1.233828e+03	
46	2.300000e+00	1.321264e+03	
47	2.350000e+00	1.444631e+03	
48	2.400000e+00	1.610738e+03	
49	2.450000e+00	1.818345e+03	
50	2.500000e+00	2.059811e+03	
51	2.550000e+00	2.325862e+03	
52	2.600000e+00	2.608725e+03	
53	2.650000e+00	2.902855e+03	
54	2.700000e+00	3.204554e+03	

Index   v-sweep         rds             
--------------------------------------------------------------------------------
55	2.750000e+00	3.511404e+03	
56	2.800000e+00	3.821813e+03	
57	2.850000e+00	4.134721e+03	
58	2.900000e+00	4.449403e+03	
59	2.950000e+00	4.765356e+03	
60	3.000000e+00	5.082219e+03	
61	3.050000e+00	5.399733e+03	
62	3.100000e+00	5.717705e+03	
63	3.150000e+00	6.035988e+03	
64	3.200000e+00	6.354472e+03	
65	3.250000e+00	6.673070e+03	
66	3.300000e+00	6.991714e+03	
67	3.350000e+00	7.310350e+03	
68	3.400000e+00	7.628933e+03	
69	3.450000e+00	7.947429e+03	
70	3.500000e+00	8.265807e+03	
71	3.550000e+00	8.584044e+03	
72	3.600000e+00	8.902119e+03	
73	3.650000e+00	9.220014e+03	
74	3.700000e+00	9.537716e+03	
75	3.750000e+00	9.855212e+03	
76	3.800000e+00	1.017249e+04	
77	3.850000e+00	1.048955e+04	
78	3.900000e+00	1.080636e+04	
79	3.950000e+00	1.112294e+04	
80	4.000000e+00	1.143928e+04	
81	4.050000e+00	1.175536e+04	
82	4.100000e+00	1.207118e+04	
83	4.150000e+00	1.238674e+04	
84	4.200000e+00	1.270204e+04	
85	4.250000e+00	1.301707e+04	
86	4.300000e+00	1.333182e+04	
87	4.350000e+00	1.364631e+04	
88	4.400000e+00	1.396052e+04	
89	4.450000e+00	1.427445e+04	
90	4.500000e+00	1.458810e+04	
91	4.550000e+00	1.490147e+04	
92	4.600000e+00	1.521455e+04	
93	4.650000e+00	1.552735e+04	
94	4.700000e+00	1.583987e+04	
95	4.750000e+00	1.615210e+04	
96	4.800000e+00	1.646404e+04	
97	4.850000e+00	1.677569e+04	
98	4.900000e+00	1.708705e+04	
99	4.950000e+00	1.739812e+04	
100	5.000000e+00	1.770891e+04	
101	5.050000e+00	1.801939e+04	
102	5.100000e+00	1.832959e+04	
103	5.150000e+00	1.863949e+04	
104	5.200000e+00	1.894911e+04	
105	5.250000e+00	1.925842e+04	
106	5.300000e+00	1.956745e+04	
107	5.350000e+00	1.987618e+04	
108	5.400000e+00	2.018461e+04	
109	5.450000e+00	2.049275e+04	
110	5.500000e+00	2.080059e+04	
111	5.550000e+00	2.110814e+04	
112	5.600000e+00	2.141540e+04	

Index   v-sweep         rds             
--------------------------------------------------------------------------------
113	5.650000e+00	2.172236e+04	
114	5.700000e+00	2.202902e+04	
115	5.750000e+00	2.233539e+04	
116	5.800000e+00	2.264146e+04	
117	5.850000e+00	2.294724e+04	
118	5.900000e+00	2.325272e+04	
119	5.950000e+00	2.355791e+04	
120	6.000000e+00	2.386280e+04	
121	6.050000e+00	2.416739e+04	
122	6.100000e+00	2.447169e+04	
123	6.150000e+00	2.477569e+04	
124	6.200000e+00	2.507940e+04	
125	6.250000e+00	2.538281e+04	
126	6.300000e+00	2.568593e+04	
127	6.350000e+00	2.598875e+04	
128	6.400000e+00	2.629128e+04	
129	6.450000e+00	2.659351e+04	
130	6.500000e+00	2.689545e+04	
131	6.550000e+00	2.719709e+04	
132	6.600000e+00	2.749844e+04	
Reset re-loads circuit ***************************

Circuit: ***************************

Doing analysis at TEMP = -40.000000 and TNOM = -40.000000


No. of Data Rows : 133
                          ***************************
                          DC transfer characteristic  Mon Jan  9 13:58:06  2023
--------------------------------------------------------------------------------
Index   v-sweep         rds             
--------------------------------------------------------------------------------
0	0.000000e+00	4.277765e+02	
1	5.000000e-02	4.337270e+02	
2	1.000000e-01	4.397840e+02	
3	1.500000e-01	4.459503e+02	
4	2.000000e-01	4.522288e+02	
5	2.500000e-01	4.586224e+02	
6	3.000000e-01	4.651342e+02	
7	3.500000e-01	4.717675e+02	
8	4.000000e-01	4.785256e+02	
9	4.500000e-01	4.854119e+02	
10	5.000000e-01	4.924301e+02	
11	5.500000e-01	4.995838e+02	
12	6.000000e-01	5.068770e+02	
13	6.500000e-01	5.143137e+02	
14	7.000000e-01	5.218981e+02	
15	7.500000e-01	5.296345e+02	
16	8.000000e-01	5.375275e+02	
17	8.500000e-01	5.455819e+02	
18	9.000000e-01	5.538027e+02	
19	9.500000e-01	5.621949e+02	
20	1.000000e+00	5.707640e+02	
21	1.050000e+00	5.795156e+02	
22	1.100000e+00	5.884555e+02	
23	1.150000e+00	5.975901e+02	
24	1.200000e+00	6.069255e+02	
25	1.250000e+00	6.164687e+02	
26	1.300000e+00	6.262267e+02	
27	1.350000e+00	6.362069e+02	
28	1.400000e+00	6.464170e+02	
29	1.450000e+00	6.568654e+02	
30	1.500000e+00	6.675606e+02	
31	1.550000e+00	6.785118e+02	
32	1.600000e+00	6.897287e+02	
33	1.650000e+00	7.012216e+02	
34	1.700000e+00	7.130017e+02	
35	1.750000e+00	7.250808e+02	
36	1.800000e+00	7.374719e+02	
37	1.850000e+00	7.501893e+02	
38	1.900000e+00	7.632488e+02	
39	1.950000e+00	7.766684e+02	
40	2.000000e+00	7.904688e+02	
41	2.050000e+00	8.046749e+02	
42	2.100000e+00	8.193170e+02	
43	2.150000e+00	8.344339e+02	
44	2.200000e+00	8.500773e+02	
45	2.250000e+00	8.663187e+02	
46	2.300000e+00	8.832626e+02	
47	2.350000e+00	9.010673e+02	
48	2.400000e+00	9.199844e+02	
49	2.450000e+00	9.404280e+02	
50	2.500000e+00	9.631025e+02	
51	2.550000e+00	9.892304e+02	
52	2.600000e+00	1.020939e+03	
53	2.650000e+00	1.061815e+03	
54	2.700000e+00	1.117416e+03	

Index   v-sweep         rds             
--------------------------------------------------------------------------------
55	2.750000e+00	1.194963e+03	
56	2.800000e+00	1.301255e+03	
57	2.850000e+00	1.439395e+03	
58	2.900000e+00	1.607275e+03	
59	2.950000e+00	1.799293e+03	
60	3.000000e+00	2.009159e+03	
61	3.050000e+00	2.231592e+03	
62	3.100000e+00	2.462719e+03	
63	3.150000e+00	2.699869e+03	
64	3.200000e+00	2.941232e+03	
65	3.250000e+00	3.185586e+03	
66	3.300000e+00	3.432094e+03	
67	3.350000e+00	3.680172e+03	
68	3.400000e+00	3.929408e+03	
69	3.450000e+00	4.179504e+03	
70	3.500000e+00	4.430240e+03	
71	3.550000e+00	4.681454e+03	
72	3.600000e+00	4.933019e+03	
73	3.650000e+00	5.184842e+03	
74	3.700000e+00	5.436846e+03	
75	3.750000e+00	5.688972e+03	
76	3.800000e+00	5.941173e+03	
77	3.850000e+00	6.193410e+03	
78	3.900000e+00	6.445652e+03	
79	3.950000e+00	6.697873e+03	
80	4.000000e+00	6.950051e+03	
81	4.050000e+00	7.202169e+03	
82	4.100000e+00	7.454211e+03	
83	4.150000e+00	7.706163e+03	
84	4.200000e+00	7.958016e+03	
85	4.250000e+00	8.209759e+03	
86	4.300000e+00	8.461384e+03	
87	4.350000e+00	8.712885e+03	
88	4.400000e+00	8.964254e+03	
89	4.450000e+00	9.215486e+03	
90	4.500000e+00	9.466577e+03	
91	4.550000e+00	9.717522e+03	
92	4.600000e+00	9.968317e+03	
93	4.650000e+00	1.021896e+04	
94	4.700000e+00	1.046944e+04	
95	4.750000e+00	1.071977e+04	
96	4.800000e+00	1.096994e+04	
97	4.850000e+00	1.121994e+04	
98	4.900000e+00	1.146978e+04	
99	4.950000e+00	1.171945e+04	
100	5.000000e+00	1.196895e+04	
101	5.050000e+00	1.221828e+04	
102	5.100000e+00	1.246744e+04	
103	5.150000e+00	1.271642e+04	
104	5.200000e+00	1.296524e+04	
105	5.250000e+00	1.321387e+04	
106	5.300000e+00	1.346233e+04	
107	5.350000e+00	1.371062e+04	
108	5.400000e+00	1.395873e+04	
109	5.450000e+00	1.420665e+04	
110	5.500000e+00	1.445440e+04	
111	5.550000e+00	1.470197e+04	
112	5.600000e+00	1.494936e+04	

Index   v-sweep         rds             
--------------------------------------------------------------------------------
113	5.650000e+00	1.519657e+04	
114	5.700000e+00	1.544360e+04	
115	5.750000e+00	1.569045e+04	
116	5.800000e+00	1.593711e+04	
117	5.850000e+00	1.618359e+04	
118	5.900000e+00	1.642989e+04	
119	5.950000e+00	1.667601e+04	
120	6.000000e+00	1.692194e+04	
121	6.050000e+00	1.716769e+04	
122	6.100000e+00	1.741326e+04	
123	6.150000e+00	1.765864e+04	
124	6.200000e+00	1.790384e+04	
125	6.250000e+00	1.814885e+04	
126	6.300000e+00	1.839368e+04	
127	6.350000e+00	1.863832e+04	
128	6.400000e+00	1.888278e+04	
129	6.450000e+00	1.912705e+04	
130	6.500000e+00	1.937114e+04	
131	6.550000e+00	1.961505e+04	
132	6.600000e+00	1.985877e+04	
Reset re-loads circuit ***************************

Circuit: ***************************

Note: No ".plot", ".print", or ".fourier" lines; no simulations run
