
Note: Compatibility modes selected: hs

Warning: m=xx on .subckt line will override multiplier m hierarchy!


Circuit: ***************************

Doing analysis at TEMP = -40.000000 and TNOM = -40.000000


No. of Data Rows : 133
                          ***************************
                          DC transfer characteristic  Mon Jan  9 13:58:06  2023
--------------------------------------------------------------------------------
Index   v-sweep         rds             
--------------------------------------------------------------------------------
0	0.000000e+00	1.682554e+04	
1	5.000000e-02	2.102514e+04	
2	1.000000e-01	2.791152e+04	
3	1.500000e-01	4.107338e+04	
4	2.000000e-01	7.250887e+04	
5	2.500000e-01	1.466189e+05	
6	3.000000e-01	2.319291e+05	
7	3.500000e-01	2.986313e+05	
8	4.000000e-01	3.569582e+05	
9	4.500000e-01	4.120380e+05	
10	5.000000e-01	4.654080e+05	
11	5.500000e-01	5.175935e+05	
12	6.000000e-01	5.688090e+05	
13	6.500000e-01	6.191577e+05	
14	7.000000e-01	6.686967e+05	
15	7.500000e-01	7.174624e+05	
16	8.000000e-01	7.654808e+05	
17	8.500000e-01	8.127723e+05	
18	9.000000e-01	8.593542e+05	
19	9.500000e-01	9.052418e+05	
20	1.000000e+00	9.504493e+05	
21	1.050000e+00	9.949901e+05	
22	1.100000e+00	1.038877e+06	
23	1.150000e+00	1.082122e+06	
24	1.200000e+00	1.124736e+06	
25	1.250000e+00	1.166733e+06	
26	1.300000e+00	1.208123e+06	
27	1.350000e+00	1.248917e+06	
28	1.400000e+00	1.289126e+06	
29	1.450000e+00	1.328761e+06	
30	1.500000e+00	1.367832e+06	
31	1.550000e+00	1.406349e+06	
32	1.600000e+00	1.444323e+06	
33	1.650000e+00	1.481763e+06	
34	1.700000e+00	1.518680e+06	
35	1.750000e+00	1.555082e+06	
36	1.800000e+00	1.590978e+06	
37	1.850000e+00	1.626379e+06	
38	1.900000e+00	1.661292e+06	
39	1.950000e+00	1.695727e+06	
40	2.000000e+00	1.729693e+06	
41	2.050000e+00	1.763196e+06	
42	2.100000e+00	1.796247e+06	
43	2.150000e+00	1.828853e+06	
44	2.200000e+00	1.861021e+06	
45	2.250000e+00	1.892760e+06	
46	2.300000e+00	1.924077e+06	
47	2.350000e+00	1.954980e+06	
48	2.400000e+00	1.985475e+06	
49	2.450000e+00	2.015571e+06	
50	2.500000e+00	2.045273e+06	
51	2.550000e+00	2.074590e+06	
52	2.600000e+00	2.103526e+06	
53	2.650000e+00	2.132090e+06	
54	2.700000e+00	2.160288e+06	

Index   v-sweep         rds             
--------------------------------------------------------------------------------
55	2.750000e+00	2.188125e+06	
56	2.800000e+00	2.215608e+06	
57	2.850000e+00	2.242744e+06	
58	2.900000e+00	2.269537e+06	
59	2.950000e+00	2.295994e+06	
60	3.000000e+00	2.322120e+06	
61	3.050000e+00	2.347922e+06	
62	3.100000e+00	2.373404e+06	
63	3.150000e+00	2.398571e+06	
64	3.200000e+00	2.423430e+06	
65	3.250000e+00	2.447985e+06	
66	3.300000e+00	2.472241e+06	
67	3.350000e+00	2.496202e+06	
68	3.400000e+00	2.519875e+06	
69	3.450000e+00	2.543264e+06	
70	3.500000e+00	2.566372e+06	
71	3.550000e+00	2.589206e+06	
72	3.600000e+00	2.611768e+06	
73	3.650000e+00	2.634065e+06	
74	3.700000e+00	2.656099e+06	
75	3.750000e+00	2.677875e+06	
76	3.800000e+00	2.699397e+06	
77	3.850000e+00	2.720669e+06	
78	3.900000e+00	2.741696e+06	
79	3.950000e+00	2.762480e+06	
80	4.000000e+00	2.783026e+06	
81	4.050000e+00	2.803338e+06	
82	4.100000e+00	2.823419e+06	
83	4.150000e+00	2.843272e+06	
84	4.200000e+00	2.862902e+06	
85	4.250000e+00	2.882311e+06	
86	4.300000e+00	2.901503e+06	
87	4.350000e+00	2.920482e+06	
88	4.400000e+00	2.939250e+06	
89	4.450000e+00	2.957811e+06	
90	4.500000e+00	2.976167e+06	
91	4.550000e+00	2.994323e+06	
92	4.600000e+00	3.012281e+06	
93	4.650000e+00	3.030043e+06	
94	4.700000e+00	3.047613e+06	
95	4.750000e+00	3.064994e+06	
96	4.800000e+00	3.082188e+06	
97	4.850000e+00	3.099198e+06	
98	4.900000e+00	3.116028e+06	
99	4.950000e+00	3.132678e+06	
100	5.000000e+00	3.149153e+06	
101	5.050000e+00	3.165454e+06	
102	5.100000e+00	3.181584e+06	
103	5.150000e+00	3.197546e+06	
104	5.200000e+00	3.213342e+06	
105	5.250000e+00	3.228974e+06	
106	5.300000e+00	3.244445e+06	
107	5.350000e+00	3.259756e+06	
108	5.400000e+00	3.274911e+06	
109	5.450000e+00	3.289911e+06	
110	5.500000e+00	3.304759e+06	
111	5.550000e+00	3.319456e+06	
112	5.600000e+00	3.334005e+06	

Index   v-sweep         rds             
--------------------------------------------------------------------------------
113	5.650000e+00	3.348407e+06	
114	5.700000e+00	3.362666e+06	
115	5.750000e+00	3.376782e+06	
116	5.800000e+00	3.390758e+06	
117	5.850000e+00	3.404595e+06	
118	5.900000e+00	3.418296e+06	
119	5.950000e+00	3.431862e+06	
120	6.000000e+00	3.445295e+06	
121	6.050000e+00	3.458597e+06	
122	6.100000e+00	3.471770e+06	
123	6.150000e+00	3.484815e+06	
124	6.200000e+00	3.497735e+06	
125	6.250000e+00	3.510529e+06	
126	6.300000e+00	3.523202e+06	
127	6.350000e+00	3.535753e+06	
128	6.400000e+00	3.548185e+06	
129	6.450000e+00	3.560499e+06	
130	6.500000e+00	3.572696e+06	
131	6.550000e+00	3.584779e+06	
132	6.600000e+00	3.596748e+06	
Reset re-loads circuit ***************************

Circuit: ***************************

Doing analysis at TEMP = -40.000000 and TNOM = -40.000000


No. of Data Rows : 133
                          ***************************
                          DC transfer characteristic  Mon Jan  9 13:58:06  2023
--------------------------------------------------------------------------------
Index   v-sweep         rds             
--------------------------------------------------------------------------------
0	0.000000e+00	3.589921e+03	
1	5.000000e-02	3.753667e+03	
2	1.000000e-01	3.930849e+03	
3	1.500000e-01	4.123188e+03	
4	2.000000e-01	4.332710e+03	
5	2.500000e-01	4.561820e+03	
6	3.000000e-01	4.813395e+03	
7	3.500000e-01	5.090904e+03	
8	4.000000e-01	5.398574e+03	
9	4.500000e-01	5.741605e+03	
10	5.000000e-01	6.126481e+03	
11	5.500000e-01	6.561398e+03	
12	6.000000e-01	7.056911e+03	
13	6.500000e-01	7.626936e+03	
14	7.000000e-01	8.290464e+03	
15	7.500000e-01	9.074869e+03	
16	8.000000e-01	1.002328e+04	
17	8.500000e-01	1.121273e+04	
18	9.000000e-01	1.279310e+04	
19	9.500000e-01	1.500970e+04	
20	1.000000e+00	1.804260e+04	
21	1.050000e+00	2.177394e+04	
22	1.100000e+00	2.592971e+04	
23	1.150000e+00	3.030419e+04	
24	1.200000e+00	3.478674e+04	
25	1.250000e+00	3.932214e+04	
26	1.300000e+00	4.388215e+04	
27	1.350000e+00	4.845155e+04	
28	1.400000e+00	5.302164e+04	
29	1.450000e+00	5.758718e+04	
30	1.500000e+00	6.214484e+04	
31	1.550000e+00	6.669247e+04	
32	1.600000e+00	7.122859e+04	
33	1.650000e+00	7.575218e+04	
34	1.700000e+00	8.026250e+04	
35	1.750000e+00	8.475902e+04	
36	1.800000e+00	8.924136e+04	
37	1.850000e+00	9.370923e+04	
38	1.900000e+00	9.816240e+04	
39	1.950000e+00	1.026007e+05	
40	2.000000e+00	1.070241e+05	
41	2.050000e+00	1.114324e+05	
42	2.100000e+00	1.158256e+05	
43	2.150000e+00	1.202036e+05	
44	2.200000e+00	1.245665e+05	
45	2.250000e+00	1.289141e+05	
46	2.300000e+00	1.332466e+05	
47	2.350000e+00	1.375639e+05	
48	2.400000e+00	1.418660e+05	
49	2.450000e+00	1.461529e+05	
50	2.500000e+00	1.504247e+05	
51	2.550000e+00	1.546815e+05	
52	2.600000e+00	1.589232e+05	
53	2.650000e+00	1.631498e+05	
54	2.700000e+00	1.673615e+05	

Index   v-sweep         rds             
--------------------------------------------------------------------------------
55	2.750000e+00	1.715582e+05	
56	2.800000e+00	1.757400e+05	
57	2.850000e+00	1.799070e+05	
58	2.900000e+00	1.840592e+05	
59	2.950000e+00	1.881967e+05	
60	3.000000e+00	1.923194e+05	
61	3.050000e+00	1.964275e+05	
62	3.100000e+00	2.005210e+05	
63	3.150000e+00	2.045999e+05	
64	3.200000e+00	2.086644e+05	
65	3.250000e+00	2.127145e+05	
66	3.300000e+00	2.167501e+05	
67	3.350000e+00	2.207715e+05	
68	3.400000e+00	2.247785e+05	
69	3.450000e+00	2.287714e+05	
70	3.500000e+00	2.327501e+05	
71	3.550000e+00	2.367148e+05	
72	3.600000e+00	2.406654e+05	
73	3.650000e+00	2.446020e+05	
74	3.700000e+00	2.485247e+05	
75	3.750000e+00	2.524335e+05	
76	3.800000e+00	2.563285e+05	
77	3.850000e+00	2.602098e+05	
78	3.900000e+00	2.640774e+05	
79	3.950000e+00	2.679314e+05	
80	4.000000e+00	2.717718e+05	
81	4.050000e+00	2.755987e+05	
82	4.100000e+00	2.794121e+05	
83	4.150000e+00	2.832122e+05	
84	4.200000e+00	2.869989e+05	
85	4.250000e+00	2.907723e+05	
86	4.300000e+00	2.945325e+05	
87	4.350000e+00	2.982796e+05	
88	4.400000e+00	3.020135e+05	
89	4.450000e+00	3.057344e+05	
90	4.500000e+00	3.094423e+05	
91	4.550000e+00	3.131372e+05	
92	4.600000e+00	3.168193e+05	
93	4.650000e+00	3.204886e+05	
94	4.700000e+00	3.241451e+05	
95	4.750000e+00	3.277889e+05	
96	4.800000e+00	3.314200e+05	
97	4.850000e+00	3.350386e+05	
98	4.900000e+00	3.386446e+05	
99	4.950000e+00	3.422381e+05	
100	5.000000e+00	3.458193e+05	
101	5.050000e+00	3.493880e+05	
102	5.100000e+00	3.529444e+05	
103	5.150000e+00	3.564886e+05	
104	5.200000e+00	3.600205e+05	
105	5.250000e+00	3.635404e+05	
106	5.300000e+00	3.670481e+05	
107	5.350000e+00	3.705438e+05	
108	5.400000e+00	3.740275e+05	
109	5.450000e+00	3.774992e+05	
110	5.500000e+00	3.809591e+05	
111	5.550000e+00	3.844071e+05	
112	5.600000e+00	3.878434e+05	

Index   v-sweep         rds             
--------------------------------------------------------------------------------
113	5.650000e+00	3.912680e+05	
114	5.700000e+00	3.946809e+05	
115	5.750000e+00	3.980822e+05	
116	5.800000e+00	4.014719e+05	
117	5.850000e+00	4.048501e+05	
118	5.900000e+00	4.082168e+05	
119	5.950000e+00	4.115722e+05	
120	6.000000e+00	4.149162e+05	
121	6.050000e+00	4.182489e+05	
122	6.100000e+00	4.215703e+05	
123	6.150000e+00	4.248805e+05	
124	6.200000e+00	4.281796e+05	
125	6.250000e+00	4.314676e+05	
126	6.300000e+00	4.347445e+05	
127	6.350000e+00	4.380104e+05	
128	6.400000e+00	4.412654e+05	
129	6.450000e+00	4.445095e+05	
130	6.500000e+00	4.477427e+05	
131	6.550000e+00	4.509651e+05	
132	6.600000e+00	4.541768e+05	
Reset re-loads circuit ***************************

Circuit: ***************************

Doing analysis at TEMP = -40.000000 and TNOM = -40.000000


No. of Data Rows : 133
                          ***************************
                          DC transfer characteristic  Mon Jan  9 13:58:06  2023
--------------------------------------------------------------------------------
Index   v-sweep         rds             
--------------------------------------------------------------------------------
0	0.000000e+00	2.292782e+03	
1	5.000000e-02	2.356580e+03	
2	1.000000e-01	2.423189e+03	
3	1.500000e-01	2.492798e+03	
4	2.000000e-01	2.565612e+03	
5	2.500000e-01	2.641857e+03	
6	3.000000e-01	2.721778e+03	
7	3.500000e-01	2.805647e+03	
8	4.000000e-01	2.893762e+03	
9	4.500000e-01	2.986453e+03	
10	5.000000e-01	3.084084e+03	
11	5.500000e-01	3.187061e+03	
12	6.000000e-01	3.295835e+03	
13	6.500000e-01	3.410911e+03	
14	7.000000e-01	3.532855e+03	
15	7.500000e-01	3.662307e+03	
16	8.000000e-01	3.799991e+03	
17	8.500000e-01	3.946737e+03	
18	9.000000e-01	4.103502e+03	
19	9.500000e-01	4.271406e+03	
20	1.000000e+00	4.451785e+03	
21	1.050000e+00	4.646284e+03	
22	1.100000e+00	4.857015e+03	
23	1.150000e+00	5.086877e+03	
24	1.200000e+00	5.340231e+03	
25	1.250000e+00	5.624414e+03	
26	1.300000e+00	5.953228e+03	
27	1.350000e+00	6.354670e+03	
28	1.400000e+00	6.884761e+03	
29	1.450000e+00	7.637338e+03	
30	1.500000e+00	8.711955e+03	
31	1.550000e+00	1.013534e+04	
32	1.600000e+00	1.184125e+04	
33	1.650000e+00	1.373488e+04	
34	1.700000e+00	1.574235e+04	
35	1.750000e+00	1.781736e+04	
36	1.800000e+00	1.993280e+04	
37	1.850000e+00	2.207282e+04	
38	1.900000e+00	2.422791e+04	
39	1.950000e+00	2.639215e+04	
40	2.000000e+00	2.856177e+04	
41	2.050000e+00	3.073424e+04	
42	2.100000e+00	3.290782e+04	
43	2.150000e+00	3.508130e+04	
44	2.200000e+00	3.725380e+04	
45	2.250000e+00	3.942468e+04	
46	2.300000e+00	4.159345e+04	
47	2.350000e+00	4.375973e+04	
48	2.400000e+00	4.592323e+04	
49	2.450000e+00	4.808374e+04	
50	2.500000e+00	5.024106e+04	
51	2.550000e+00	5.239506e+04	
52	2.600000e+00	5.454562e+04	
53	2.650000e+00	5.669263e+04	
54	2.700000e+00	5.883603e+04	

Index   v-sweep         rds             
--------------------------------------------------------------------------------
55	2.750000e+00	6.097574e+04	
56	2.800000e+00	6.311171e+04	
57	2.850000e+00	6.524391e+04	
58	2.900000e+00	6.737227e+04	
59	2.950000e+00	6.949679e+04	
60	3.000000e+00	7.161743e+04	
61	3.050000e+00	7.373416e+04	
62	3.100000e+00	7.584698e+04	
63	3.150000e+00	7.795586e+04	
64	3.200000e+00	8.006079e+04	
65	3.250000e+00	8.216176e+04	
66	3.300000e+00	8.425877e+04	
67	3.350000e+00	8.635180e+04	
68	3.400000e+00	8.844085e+04	
69	3.450000e+00	9.052593e+04	
70	3.500000e+00	9.260701e+04	
71	3.550000e+00	9.468411e+04	
72	3.600000e+00	9.675723e+04	
73	3.650000e+00	9.882636e+04	
74	3.700000e+00	1.008915e+05	
75	3.750000e+00	1.029527e+05	
76	3.800000e+00	1.050098e+05	
77	3.850000e+00	1.070630e+05	
78	3.900000e+00	1.091123e+05	
79	3.950000e+00	1.111575e+05	
80	4.000000e+00	1.131988e+05	
81	4.050000e+00	1.152361e+05	
82	4.100000e+00	1.172695e+05	
83	4.150000e+00	1.192989e+05	
84	4.200000e+00	1.213243e+05	
85	4.250000e+00	1.233459e+05	
86	4.300000e+00	1.253635e+05	
87	4.350000e+00	1.273771e+05	
88	4.400000e+00	1.293868e+05	
89	4.450000e+00	1.313926e+05	
90	4.500000e+00	1.333946e+05	
91	4.550000e+00	1.353926e+05	
92	4.600000e+00	1.373867e+05	
93	4.650000e+00	1.393769e+05	
94	4.700000e+00	1.413632e+05	
95	4.750000e+00	1.433456e+05	
96	4.800000e+00	1.453242e+05	
97	4.850000e+00	1.472990e+05	
98	4.900000e+00	1.492698e+05	
99	4.950000e+00	1.512369e+05	
100	5.000000e+00	1.532000e+05	
101	5.050000e+00	1.551594e+05	
102	5.100000e+00	1.571149e+05	
103	5.150000e+00	1.590667e+05	
104	5.200000e+00	1.610146e+05	
105	5.250000e+00	1.629587e+05	
106	5.300000e+00	1.648990e+05	
107	5.350000e+00	1.668356e+05	
108	5.400000e+00	1.687684e+05	
109	5.450000e+00	1.706974e+05	
110	5.500000e+00	1.726226e+05	
111	5.550000e+00	1.745441e+05	
112	5.600000e+00	1.764619e+05	

Index   v-sweep         rds             
--------------------------------------------------------------------------------
113	5.650000e+00	1.783759e+05	
114	5.700000e+00	1.802862e+05	
115	5.750000e+00	1.821928e+05	
116	5.800000e+00	1.840957e+05	
117	5.850000e+00	1.859949e+05	
118	5.900000e+00	1.878904e+05	
119	5.950000e+00	1.897822e+05	
120	6.000000e+00	1.916704e+05	
121	6.050000e+00	1.935549e+05	
122	6.100000e+00	1.954357e+05	
123	6.150000e+00	1.973129e+05	
124	6.200000e+00	1.991864e+05	
125	6.250000e+00	2.010563e+05	
126	6.300000e+00	2.029226e+05	
127	6.350000e+00	2.047853e+05	
128	6.400000e+00	2.066443e+05	
129	6.450000e+00	2.084998e+05	
130	6.500000e+00	2.103517e+05	
131	6.550000e+00	2.122000e+05	
132	6.600000e+00	2.140447e+05	
Reset re-loads circuit ***************************

Circuit: ***************************

Doing analysis at TEMP = -40.000000 and TNOM = -40.000000


No. of Data Rows : 133
                          ***************************
                          DC transfer characteristic  Mon Jan  9 13:58:06  2023
--------------------------------------------------------------------------------
Index   v-sweep         rds             
--------------------------------------------------------------------------------
0	0.000000e+00	1.808149e+03	
1	5.000000e-02	1.845539e+03	
2	1.000000e-01	1.884050e+03	
3	1.500000e-01	1.923733e+03	
4	2.000000e-01	1.964641e+03	
5	2.500000e-01	2.006832e+03	
6	3.000000e-01	2.050364e+03	
7	3.500000e-01	2.095303e+03	
8	4.000000e-01	2.141716e+03	
9	4.500000e-01	2.189678e+03	
10	5.000000e-01	2.239265e+03	
11	5.500000e-01	2.290563e+03	
12	6.000000e-01	2.343658e+03	
13	6.500000e-01	2.398649e+03	
14	7.000000e-01	2.455637e+03	
15	7.500000e-01	2.514733e+03	
16	8.000000e-01	2.576057e+03	
17	8.500000e-01	2.639736e+03	
18	9.000000e-01	2.705911e+03	
19	9.500000e-01	2.774731e+03	
20	1.000000e+00	2.846362e+03	
21	1.050000e+00	2.920983e+03	
22	1.100000e+00	2.998791e+03	
23	1.150000e+00	3.080002e+03	
24	1.200000e+00	3.164861e+03	
25	1.250000e+00	3.253639e+03	
26	1.300000e+00	3.346652e+03	
27	1.350000e+00	3.444268e+03	
28	1.400000e+00	3.546935e+03	
29	1.450000e+00	3.655219e+03	
30	1.500000e+00	3.769883e+03	
31	1.550000e+00	3.892024e+03	
32	1.600000e+00	4.023355e+03	
33	1.650000e+00	4.166769e+03	
34	1.700000e+00	4.327510e+03	
35	1.750000e+00	4.515569e+03	
36	1.800000e+00	4.750154e+03	
37	1.850000e+00	5.066014e+03	
38	1.900000e+00	5.515522e+03	
39	1.950000e+00	6.152280e+03	
40	2.000000e+00	6.997236e+03	
41	2.050000e+00	8.025177e+03	
42	2.100000e+00	9.187878e+03	
43	2.150000e+00	1.044049e+04	
44	2.200000e+00	1.175088e+04	
45	2.250000e+00	1.309832e+04	
46	2.300000e+00	1.446981e+04	
47	2.350000e+00	1.585718e+04	
48	2.400000e+00	1.725519e+04	
49	2.450000e+00	1.866040e+04	
50	2.500000e+00	2.007047e+04	
51	2.550000e+00	2.148378e+04	
52	2.600000e+00	2.289918e+04	
53	2.650000e+00	2.431585e+04	
54	2.700000e+00	2.573315e+04	

Index   v-sweep         rds             
--------------------------------------------------------------------------------
55	2.750000e+00	2.715063e+04	
56	2.800000e+00	2.856792e+04	
57	2.850000e+00	2.998475e+04	
58	2.900000e+00	3.140089e+04	
59	2.950000e+00	3.281617e+04	
60	3.000000e+00	3.423046e+04	
61	3.050000e+00	3.564362e+04	
62	3.100000e+00	3.705557e+04	
63	3.150000e+00	3.846623e+04	
64	3.200000e+00	3.987552e+04	
65	3.250000e+00	4.128341e+04	
66	3.300000e+00	4.268982e+04	
67	3.350000e+00	4.409474e+04	
68	3.400000e+00	4.549812e+04	
69	3.450000e+00	4.689993e+04	
70	3.500000e+00	4.830015e+04	
71	3.550000e+00	4.969875e+04	
72	3.600000e+00	5.109572e+04	
73	3.650000e+00	5.249103e+04	
74	3.700000e+00	5.388468e+04	
75	3.750000e+00	5.527665e+04	
76	3.800000e+00	5.666693e+04	
77	3.850000e+00	5.805551e+04	
78	3.900000e+00	5.944237e+04	
79	3.950000e+00	6.082753e+04	
80	4.000000e+00	6.221095e+04	
81	4.050000e+00	6.359265e+04	
82	4.100000e+00	6.497261e+04	
83	4.150000e+00	6.635083e+04	
84	4.200000e+00	6.772731e+04	
85	4.250000e+00	6.910205e+04	
86	4.300000e+00	7.047503e+04	
87	4.350000e+00	7.184626e+04	
88	4.400000e+00	7.321573e+04	
89	4.450000e+00	7.458345e+04	
90	4.500000e+00	7.594941e+04	
91	4.550000e+00	7.731362e+04	
92	4.600000e+00	7.867606e+04	
93	4.650000e+00	8.003674e+04	
94	4.700000e+00	8.139566e+04	
95	4.750000e+00	8.275282e+04	
96	4.800000e+00	8.410822e+04	
97	4.850000e+00	8.546186e+04	
98	4.900000e+00	8.681373e+04	
99	4.950000e+00	8.816385e+04	
100	5.000000e+00	8.951221e+04	
101	5.050000e+00	9.085880e+04	
102	5.100000e+00	9.220364e+04	
103	5.150000e+00	9.354672e+04	
104	5.200000e+00	9.488805e+04	
105	5.250000e+00	9.622761e+04	
106	5.300000e+00	9.756543e+04	
107	5.350000e+00	9.890149e+04	
108	5.400000e+00	1.002358e+05	
109	5.450000e+00	1.015684e+05	
110	5.500000e+00	1.028992e+05	
111	5.550000e+00	1.042282e+05	
112	5.600000e+00	1.055555e+05	

Index   v-sweep         rds             
--------------------------------------------------------------------------------
113	5.650000e+00	1.068811e+05	
114	5.700000e+00	1.082049e+05	
115	5.750000e+00	1.095270e+05	
116	5.800000e+00	1.108474e+05	
117	5.850000e+00	1.121660e+05	
118	5.900000e+00	1.134829e+05	
119	5.950000e+00	1.147980e+05	
120	6.000000e+00	1.161114e+05	
121	6.050000e+00	1.174231e+05	
122	6.100000e+00	1.187331e+05	
123	6.150000e+00	1.200413e+05	
124	6.200000e+00	1.213478e+05	
125	6.250000e+00	1.226526e+05	
126	6.300000e+00	1.239557e+05	
127	6.350000e+00	1.252570e+05	
128	6.400000e+00	1.265567e+05	
129	6.450000e+00	1.278546e+05	
130	6.500000e+00	1.291508e+05	
131	6.550000e+00	1.304453e+05	
132	6.600000e+00	1.317381e+05	
Reset re-loads circuit ***************************

Circuit: ***************************

Doing analysis at TEMP = -40.000000 and TNOM = -40.000000


No. of Data Rows : 133
                          ***************************
                          DC transfer characteristic  Mon Jan  9 13:58:06  2023
--------------------------------------------------------------------------------
Index   v-sweep         rds             
--------------------------------------------------------------------------------
0	0.000000e+00	1.564620e+03	
1	5.000000e-02	1.590550e+03	
2	1.000000e-01	1.617063e+03	
3	1.500000e-01	1.644181e+03	
4	2.000000e-01	1.671922e+03	
5	2.500000e-01	1.700308e+03	
6	3.000000e-01	1.729362e+03	
7	3.500000e-01	1.759106e+03	
8	4.000000e-01	1.789565e+03	
9	4.500000e-01	1.820765e+03	
10	5.000000e-01	1.852733e+03	
11	5.500000e-01	1.885496e+03	
12	6.000000e-01	1.919086e+03	
13	6.500000e-01	1.953532e+03	
14	7.000000e-01	1.988867e+03	
15	7.500000e-01	2.025127e+03	
16	8.000000e-01	2.062348e+03	
17	8.500000e-01	2.100568e+03	
18	9.000000e-01	2.139828e+03	
19	9.500000e-01	2.180171e+03	
20	1.000000e+00	2.221642e+03	
21	1.050000e+00	2.264290e+03	
22	1.100000e+00	2.308166e+03	
23	1.150000e+00	2.353324e+03	
24	1.200000e+00	2.399822e+03	
25	1.250000e+00	2.447721e+03	
26	1.300000e+00	2.497088e+03	
27	1.350000e+00	2.547993e+03	
28	1.400000e+00	2.600514e+03	
29	1.450000e+00	2.654733e+03	
30	1.500000e+00	2.710742e+03	
31	1.550000e+00	2.768641e+03	
32	1.600000e+00	2.828544e+03	
33	1.650000e+00	2.890581e+03	
34	1.700000e+00	2.954906e+03	
35	1.750000e+00	3.021703e+03	
36	1.800000e+00	3.091207e+03	
37	1.850000e+00	3.163730e+03	
38	1.900000e+00	3.239710e+03	
39	1.950000e+00	3.319797e+03	
40	2.000000e+00	3.405017e+03	
41	2.050000e+00	3.497079e+03	
42	2.100000e+00	3.598966e+03	
43	2.150000e+00	3.716061e+03	
44	2.200000e+00	3.858168e+03	
45	2.250000e+00	4.042588e+03	
46	2.300000e+00	4.296862e+03	
47	2.350000e+00	4.656187e+03	
48	2.400000e+00	5.149921e+03	
49	2.450000e+00	5.784471e+03	
50	2.500000e+00	6.541123e+03	
51	2.550000e+00	7.389863e+03	
52	2.600000e+00	8.302703e+03	
53	2.650000e+00	9.258698e+03	
54	2.700000e+00	1.024361e+04	

Index   v-sweep         rds             
--------------------------------------------------------------------------------
55	2.750000e+00	1.124808e+04	
56	2.800000e+00	1.226598e+04	
57	2.850000e+00	1.329325e+04	
58	2.900000e+00	1.432714e+04	
59	2.950000e+00	1.536576e+04	
60	3.000000e+00	1.640776e+04	
61	3.050000e+00	1.745219e+04	
62	3.100000e+00	1.849832e+04	
63	3.150000e+00	1.954564e+04	
64	3.200000e+00	2.059374e+04	
65	3.250000e+00	2.164231e+04	
66	3.300000e+00	2.269109e+04	
67	3.350000e+00	2.373991e+04	
68	3.400000e+00	2.478860e+04	
69	3.450000e+00	2.583703e+04	
70	3.500000e+00	2.688511e+04	
71	3.550000e+00	2.793274e+04	
72	3.600000e+00	2.897987e+04	
73	3.650000e+00	3.002641e+04	
74	3.700000e+00	3.107234e+04	
75	3.750000e+00	3.211760e+04	
76	3.800000e+00	3.316215e+04	
77	3.850000e+00	3.420597e+04	
78	3.900000e+00	3.524903e+04	
79	3.950000e+00	3.629130e+04	
80	4.000000e+00	3.733276e+04	
81	4.050000e+00	3.837340e+04	
82	4.100000e+00	3.941319e+04	
83	4.150000e+00	4.045213e+04	
84	4.200000e+00	4.149020e+04	
85	4.250000e+00	4.252739e+04	
86	4.300000e+00	4.356369e+04	
87	4.350000e+00	4.459909e+04	
88	4.400000e+00	4.563358e+04	
89	4.450000e+00	4.666716e+04	
90	4.500000e+00	4.769982e+04	
91	4.550000e+00	4.873155e+04	
92	4.600000e+00	4.976235e+04	
93	4.650000e+00	5.079221e+04	
94	4.700000e+00	5.182114e+04	
95	4.750000e+00	5.284912e+04	
96	4.800000e+00	5.387615e+04	
97	4.850000e+00	5.490223e+04	
98	4.900000e+00	5.592735e+04	
99	4.950000e+00	5.695152e+04	
100	5.000000e+00	5.797474e+04	
101	5.050000e+00	5.899699e+04	
102	5.100000e+00	6.001828e+04	
103	5.150000e+00	6.103860e+04	
104	5.200000e+00	6.205796e+04	
105	5.250000e+00	6.307635e+04	
106	5.300000e+00	6.409378e+04	
107	5.350000e+00	6.511023e+04	
108	5.400000e+00	6.612572e+04	
109	5.450000e+00	6.714023e+04	
110	5.500000e+00	6.815378e+04	
111	5.550000e+00	6.916635e+04	
112	5.600000e+00	7.017794e+04	

Index   v-sweep         rds             
--------------------------------------------------------------------------------
113	5.650000e+00	7.118857e+04	
114	5.700000e+00	7.219822e+04	
115	5.750000e+00	7.320690e+04	
116	5.800000e+00	7.421460e+04	
117	5.850000e+00	7.522133e+04	
118	5.900000e+00	7.622709e+04	
119	5.950000e+00	7.723187e+04	
120	6.000000e+00	7.823568e+04	
121	6.050000e+00	7.923851e+04	
122	6.100000e+00	8.024037e+04	
123	6.150000e+00	8.124126e+04	
124	6.200000e+00	8.224117e+04	
125	6.250000e+00	8.324011e+04	
126	6.300000e+00	8.423808e+04	
127	6.350000e+00	8.523507e+04	
128	6.400000e+00	8.623109e+04	
129	6.450000e+00	8.722614e+04	
130	6.500000e+00	8.822022e+04	
131	6.550000e+00	8.921333e+04	
132	6.600000e+00	9.020546e+04	
Reset re-loads circuit ***************************

Circuit: ***************************

Doing analysis at TEMP = -40.000000 and TNOM = -40.000000


No. of Data Rows : 133
                          ***************************
                          DC transfer characteristic  Mon Jan  9 13:58:06  2023
--------------------------------------------------------------------------------
Index   v-sweep         rds             
--------------------------------------------------------------------------------
0	0.000000e+00	1.425433e+03	
1	5.000000e-02	1.445105e+03	
2	1.000000e-01	1.465129e+03	
3	1.500000e-01	1.485513e+03	
4	2.000000e-01	1.506266e+03	
5	2.500000e-01	1.527399e+03	
6	3.000000e-01	1.548921e+03	
7	3.500000e-01	1.570844e+03	
8	4.000000e-01	1.593177e+03	
9	4.500000e-01	1.615933e+03	
10	5.000000e-01	1.639123e+03	
11	5.500000e-01	1.662759e+03	
12	6.000000e-01	1.686855e+03	
13	6.500000e-01	1.711423e+03	
14	7.000000e-01	1.736478e+03	
15	7.500000e-01	1.762033e+03	
16	8.000000e-01	1.788103e+03	
17	8.500000e-01	1.814705e+03	
18	9.000000e-01	1.841855e+03	
19	9.500000e-01	1.869568e+03	
20	1.000000e+00	1.897864e+03	
21	1.050000e+00	1.926760e+03	
22	1.100000e+00	1.956277e+03	
23	1.150000e+00	1.986433e+03	
24	1.200000e+00	2.017250e+03	
25	1.250000e+00	2.048751e+03	
26	1.300000e+00	2.080957e+03	
27	1.350000e+00	2.113895e+03	
28	1.400000e+00	2.147588e+03	
29	1.450000e+00	2.182065e+03	
30	1.500000e+00	2.217352e+03	
31	1.550000e+00	2.253481e+03	
32	1.600000e+00	2.290482e+03	
33	1.650000e+00	2.328389e+03	
34	1.700000e+00	2.367239e+03	
35	1.750000e+00	2.407069e+03	
36	1.800000e+00	2.447921e+03	
37	1.850000e+00	2.489841e+03	
38	1.900000e+00	2.532878e+03	
39	1.950000e+00	2.577090e+03	
40	2.000000e+00	2.622541e+03	
41	2.050000e+00	2.669306e+03	
42	2.100000e+00	2.717477e+03	
43	2.150000e+00	2.767167e+03	
44	2.200000e+00	2.818524e+03	
45	2.250000e+00	2.871750e+03	
46	2.300000e+00	2.927130e+03	
47	2.350000e+00	2.985086e+03	
48	2.400000e+00	3.046275e+03	
49	2.450000e+00	3.111755e+03	
50	2.500000e+00	3.183297e+03	
51	2.550000e+00	3.263939e+03	
52	2.600000e+00	3.358966e+03	
53	2.650000e+00	3.477452e+03	
54	2.700000e+00	3.634167e+03	

Index   v-sweep         rds             
--------------------------------------------------------------------------------
55	2.750000e+00	3.850342e+03	
56	2.800000e+00	4.150099e+03	
57	2.850000e+00	4.550973e+03	
58	2.900000e+00	5.054779e+03	
59	2.950000e+00	5.647984e+03	
60	3.000000e+00	6.310208e+03	
61	3.050000e+00	7.022084e+03	
62	3.100000e+00	7.768540e+03	
63	3.150000e+00	8.538901e+03	
64	3.200000e+00	9.325890e+03	
65	3.250000e+00	1.012459e+04	
66	3.300000e+00	1.093166e+04	
67	3.350000e+00	1.174479e+04	
68	3.400000e+00	1.256236e+04	
69	3.450000e+00	1.338322e+04	
70	3.500000e+00	1.420653e+04	
71	3.550000e+00	1.503166e+04	
72	3.600000e+00	1.585813e+04	
73	3.650000e+00	1.668560e+04	
74	3.700000e+00	1.751379e+04	
75	3.750000e+00	1.834246e+04	
76	3.800000e+00	1.917145e+04	
77	3.850000e+00	2.000062e+04	
78	3.900000e+00	2.082986e+04	
79	3.950000e+00	2.165906e+04	
80	4.000000e+00	2.248816e+04	
81	4.050000e+00	2.331709e+04	
82	4.100000e+00	2.414578e+04	
83	4.150000e+00	2.497421e+04	
84	4.200000e+00	2.580232e+04	
85	4.250000e+00	2.663009e+04	
86	4.300000e+00	2.745748e+04	
87	4.350000e+00	2.828447e+04	
88	4.400000e+00	2.911104e+04	
89	4.450000e+00	2.993717e+04	
90	4.500000e+00	3.076284e+04	
91	4.550000e+00	3.158803e+04	
92	4.600000e+00	3.241274e+04	
93	4.650000e+00	3.323695e+04	
94	4.700000e+00	3.406065e+04	
95	4.750000e+00	3.488383e+04	
96	4.800000e+00	3.570649e+04	
97	4.850000e+00	3.652861e+04	
98	4.900000e+00	3.735019e+04	
99	4.950000e+00	3.817123e+04	
100	5.000000e+00	3.899171e+04	
101	5.050000e+00	3.981163e+04	
102	5.100000e+00	4.063099e+04	
103	5.150000e+00	4.144979e+04	
104	5.200000e+00	4.226801e+04	
105	5.250000e+00	4.308566e+04	
106	5.300000e+00	4.390273e+04	
107	5.350000e+00	4.471922e+04	
108	5.400000e+00	4.553513e+04	
109	5.450000e+00	4.635045e+04	
110	5.500000e+00	4.716519e+04	
111	5.550000e+00	4.797933e+04	
112	5.600000e+00	4.879289e+04	

Index   v-sweep         rds             
--------------------------------------------------------------------------------
113	5.650000e+00	4.960585e+04	
114	5.700000e+00	5.041822e+04	
115	5.750000e+00	5.122999e+04	
116	5.800000e+00	5.204116e+04	
117	5.850000e+00	5.285173e+04	
118	5.900000e+00	5.366170e+04	
119	5.950000e+00	5.447107e+04	
120	6.000000e+00	5.527984e+04	
121	6.050000e+00	5.608800e+04	
122	6.100000e+00	5.689557e+04	
123	6.150000e+00	5.770252e+04	
124	6.200000e+00	5.850887e+04	
125	6.250000e+00	5.931462e+04	
126	6.300000e+00	6.011975e+04	
127	6.350000e+00	6.092428e+04	
128	6.400000e+00	6.172821e+04	
129	6.450000e+00	6.253152e+04	
130	6.500000e+00	6.333423e+04	
131	6.550000e+00	6.413633e+04	
132	6.600000e+00	6.493781e+04	
Reset re-loads circuit ***************************

Circuit: ***************************

Note: No ".plot", ".print", or ".fourier" lines; no simulations run
